REMARK SMILES Cc1occc1C(=O)NN1C(=O)/C(=C\c2ccc(O[C@H](C)C(=O)OCCOC(=O)c3ccc(-c4c5nc(c(-c6c(F)cccc6F)c6ccc([nH]6)c(-c6c(F)cccc6F)c6nc(c(-c7c(F)cccc7F)c7ccc4[nH]7)C=C6)C=C5)cc3)cc2)SC1=S
REMARK SMILES IDX 24 1 22 2 23 3 20 4 21 5 19 6 18 7 15 8 16 9 85 10 17 11
REMARK SMILES IDX 84 12 14 13 10 14 11 15 87 16 12 17 13 18 86 19 88 20 9 21
REMARK SMILES IDX 7 22 8 23 6 25 1 26 2 27 3 28 4 29 5 30 25 31 26 32 27 33
REMARK SMILES IDX 28 34 29 35 30 36 31 37 83 38 32 39 82 40 33 41 34 42 35 43
REMARK SMILES IDX 76 44 36 45 81 46 75 47 77 48 37 49 80 50 74 51 73 52 38 54
REMARK SMILES IDX 64 55 47 56 63 57 48 58 51 59 62 60 78 61 49 62 50 63 61 65
REMARK SMILES IDX 79 66 52 67 39 68 40 69 45 70 41 71 42 72 44 73 46 74 43 75
REMARK SMILES IDX 65 76 66 77 71 78 67 79 68 80 70 81 72 82 69 83 53 84 54 85
REMARK SMILES IDX 59 86 55 87 56 88 58 89 60 90 57 91
REMARK H PARENT 9 24 77 53 51 64
REMARK Flexibility Score: inf
ROOT
ATOM      1  O   UNL     1       5.689  -2.717  -6.586  1.00  0.00    -0.459 OA
ENDROOT
BRANCH   1   2
ATOM      2  C   UNL     1       5.417  -3.932  -7.133  1.00  0.00     0.347 C 
ATOM      3  O   UNL     1       5.040  -4.104  -8.288  1.00  0.00    -0.248 OA
BRANCH   2   4
ATOM      4  C   UNL     1       5.600  -5.084  -6.149  1.00  0.00     0.279 C 
ATOM      5  C   UNL     1       6.941  -5.145  -5.413  1.00  0.00     0.066 C 
BRANCH   4   6
ATOM      6  O   UNL     1       4.415  -5.286  -5.385  1.00  0.00    -0.479 OA
BRANCH   6   7
ATOM      7  C   UNL     1       4.214  -4.741  -4.160  1.00  0.00     0.120 A 
ATOM      8  C   UNL     1       3.747  -4.092  -1.469  1.00  0.00    -0.024 A 
ATOM      9  C   UNL     1       4.753  -3.446  -2.194  1.00  0.00     0.012 A 
ATOM     10  C   UNL     1       2.876  -4.945  -2.148  1.00  0.00     0.012 A 
ATOM     11  C   UNL     1       4.969  -3.753  -3.541  1.00  0.00     0.047 A 
ATOM     12  C   UNL     1       3.130  -5.289  -3.476  1.00  0.00     0.047 A 
BRANCH   8  13
ATOM     13  C   UNL     1       3.679  -3.874  -0.018  1.00  0.00     0.029 C 
ATOM     14  N   UNL     1       3.242  -6.925   1.909  1.00  0.00    -0.198 N 
ATOM     15  C   UNL     1       3.574  -6.312   0.713  1.00  0.00     0.285 C 
ATOM     16  C   UNL     1       3.364  -6.187   3.065  1.00  0.00     0.168 C 
ATOM     17  O   UNL     1       3.825  -6.912  -0.323  1.00  0.00    -0.266 OA
ATOM     18  C   UNL     1       3.638  -4.835   0.917  1.00  0.00     0.082 C 
ATOM     19  S   UNL     1       3.626  -4.497   2.620  1.00  0.00    -0.052 SA
ATOM     20  S   UNL     1       3.309  -6.721   4.642  1.00  0.00    -0.050 S 
BRANCH  14  21
ATOM     21  N   UNL     1       3.075  -8.305   1.875  1.00  0.00    -0.254 N 
ATOM     22  C   UNL     1       1.894  -9.004   1.970  1.00  0.00     0.273 C 
ATOM     23  O   UNL     1       1.933 -10.209   1.712  1.00  0.00    -0.267 OA
ATOM     24  H   UNL     1       3.894  -8.842   1.771  1.00  0.00     0.192 HD
BRANCH  22  25
ATOM     25  C   UNL     1       0.662  -8.407   2.472  1.00  0.00     0.082 A 
ATOM     26  C   UNL     1       0.257  -6.023   1.353  1.00  0.00     0.088 C 
ATOM     27  C   UNL     1       0.032  -7.195   2.221  1.00  0.00     0.113 A 
ATOM     28  O   UNL     1      -1.129  -7.110   2.938  1.00  0.00    -0.469 OA
ATOM     29  C   UNL     1      -1.295  -8.277   3.597  1.00  0.00     0.196 A 
ATOM     30  C   UNL     1      -0.245  -9.115   3.330  1.00  0.00     0.056 A 
ENDBRANCH  22  25
ENDBRANCH  14  21
ENDBRANCH   8  13
ENDBRANCH   6   7
ENDBRANCH   4   6
ENDBRANCH   2   4
ENDBRANCH   1   2
BRANCH   1  31
ATOM     31  C   UNL     1       5.482  -1.586  -7.454  1.00  0.00     0.274 C 
BRANCH  31  32
ATOM     32  C   UNL     1       6.782  -1.119  -8.117  1.00  0.00     0.275 C 
BRANCH  32  33
ATOM     33  O   UNL     1       7.317  -2.100  -9.024  1.00  0.00    -0.458 OA
BRANCH  33  34
ATOM     34  C   UNL     1       8.192  -2.970  -8.468  1.00  0.00     0.338 C 
ATOM     35  O   UNL     1       8.589  -2.982  -7.316  1.00  0.00    -0.246 OA
BRANCH  34  36
ATOM     36  C   UNL     1       8.514  -4.042  -9.422  1.00  0.00     0.060 A 
ATOM     37  C   UNL     1       8.134  -5.343  -9.086  1.00  0.00     0.016 A 
ATOM     38  C   UNL     1       9.267  -3.800 -10.570  1.00  0.00     0.016 A 
ATOM     39  C   UNL     1       8.524  -6.417  -9.874  1.00  0.00     0.010 A 
ATOM     40  C   UNL     1       9.648  -4.880 -11.374  1.00  0.00     0.010 A 
ATOM     41  C   UNL     1       9.292  -6.194 -11.020  1.00  0.00    -0.014 A 
BRANCH  41  42
ATOM     42  C   UNL     1       9.756  -7.355 -11.810  1.00  0.00     0.031 A 
ATOM     43  C   UNL     1      11.189  -7.789 -11.727  1.00  0.00     0.074 A 
ATOM     44  C   UNL     1       8.876  -8.046 -12.557  1.00  0.00     0.049 A 
ATOM     45  N   UNL     1      11.808  -8.727 -12.396  1.00  0.00    -0.248 NA
ATOM     46  C   UNL     1      12.038  -7.073 -10.762  1.00  0.00     0.031 C 
ATOM     47  C   UNL     1       7.445  -7.758 -12.659  1.00  0.00     0.029 A 
ATOM     48  N   UNL     1       9.059  -9.136 -13.368  1.00  0.00    -0.354 N 
ATOM     49  C   UNL     1      13.123  -8.701 -11.951  1.00  0.00     0.074 A 
ATOM     50  C   UNL     1      13.215  -7.649 -10.961  1.00  0.00     0.031 C 
ATOM     51  C   UNL     1       6.878  -8.650 -13.487  1.00  0.00     0.029 A 
ATOM     52  C   UNL     1       7.913  -9.538 -14.008  1.00  0.00     0.049 A 
ATOM     53  H   UNL     1       9.927  -9.586 -13.481  1.00  0.00     0.167 HD
ATOM     54  C   UNL     1      14.156  -9.485 -12.337  1.00  0.00     0.037 A 
ATOM     55  C   UNL     1       7.728 -10.496 -14.935  1.00  0.00     0.037 A 
ATOM     56  C   UNL     1      14.053 -10.541 -13.309  1.00  0.00     0.049 A 
ATOM     57  C   UNL     1       8.904 -11.311 -15.391  1.00  0.00     0.074 A 
ATOM     58  C   UNL     1      15.042 -11.393 -13.769  1.00  0.00     0.029 A 
ATOM     59  N   UNL     1      12.884 -10.893 -13.967  1.00  0.00    -0.354 N 
ATOM     60  N   UNL     1      10.151 -11.259 -14.989  1.00  0.00    -0.248 NA
ATOM     61  C   UNL     1       8.651 -12.310 -16.439  1.00  0.00     0.031 C 
ATOM     62  C   UNL     1      14.478 -12.239 -14.730  1.00  0.00     0.029 A 
ATOM     63  C   UNL     1      13.131 -11.938 -14.842  1.00  0.00     0.049 A 
ATOM     64  H   UNL     1      12.008 -10.464 -13.832  1.00  0.00     0.167 HD
ATOM     65  C   UNL     1      10.828 -12.224 -15.722  1.00  0.00     0.074 A 
ATOM     66  C   UNL     1       9.850 -12.857 -16.583  1.00  0.00     0.031 C 
ATOM     67  C   UNL     1      12.142 -12.554 -15.688  1.00  0.00     0.037 A 
BRANCH  54  68
ATOM     68  C   UNL     1      15.497  -9.203 -11.730  1.00  0.00     0.057 A 
ATOM     69  C   UNL     1      15.807  -9.571 -10.416  1.00  0.00     0.134 A 
ATOM     70  C   UNL     1      16.498  -8.576 -12.482  1.00  0.00     0.134 A 
ATOM     71  F   UNL     1      14.885 -10.159  -9.639  1.00  0.00    -0.206 F 
ATOM     72  C   UNL     1      17.063  -9.311  -9.864  1.00  0.00     0.040 A 
ATOM     73  C   UNL     1      17.764  -8.328 -11.948  1.00  0.00     0.040 A 
ATOM     74  F   UNL     1      16.264  -8.199 -13.748  1.00  0.00    -0.206 F 
ATOM     75  C   UNL     1      18.047  -8.692 -10.633  1.00  0.00     0.006 A 
ENDBRANCH  54  68
BRANCH  55  76
ATOM     76  C   UNL     1       6.381 -10.712 -15.516  1.00  0.00     0.057 A 
ATOM     77  C   UNL     1       5.641 -11.862 -15.223  1.00  0.00     0.134 A 
ATOM     78  C   UNL     1       5.804  -9.774 -16.381  1.00  0.00     0.134 A 
ATOM     79  F   UNL     1       6.151 -12.807 -14.419  1.00  0.00    -0.206 F 
ATOM     80  C   UNL     1       4.378 -12.077 -15.777  1.00  0.00     0.040 A 
ATOM     81  C   UNL     1       4.534  -9.965 -16.924  1.00  0.00     0.040 A 
ATOM     82  F   UNL     1       6.465  -8.651 -16.700  1.00  0.00    -0.206 F 
ATOM     83  C   UNL     1       3.819 -11.123 -16.626  1.00  0.00     0.006 A 
ENDBRANCH  55  76
BRANCH  67  84
ATOM     84  C   UNL     1      12.586 -13.662 -16.593  1.00  0.00     0.057 A 
ATOM     85  C   UNL     1      12.746 -13.466 -17.970  1.00  0.00     0.134 A 
ATOM     86  C   UNL     1      12.888 -14.928 -16.076  1.00  0.00     0.134 A 
ATOM     87  F   UNL     1      12.459 -12.279 -18.525  1.00  0.00    -0.206 F 
ATOM     88  C   UNL     1      13.175 -14.498 -18.806  1.00  0.00     0.040 A 
ATOM     89  C   UNL     1      13.336 -15.961 -16.899  1.00  0.00     0.040 A 
ATOM     90  F   UNL     1      12.760 -15.176 -14.764  1.00  0.00    -0.206 F 
ATOM     91  C   UNL     1      13.476 -15.749 -18.269  1.00  0.00     0.006 A 
ENDBRANCH  67  84
ENDBRANCH  41  42
ENDBRANCH  34  36
ENDBRANCH  33  34
ENDBRANCH  32  33
ENDBRANCH  31  32
ENDBRANCH   1  31
TORSDOF 16
