REMARK SMILES Cc1ccc2nc(C(=O)OCCOC(=O)c3ccc(-c4c5nc(c(-c6c(F)cccc6F)c6ccc([nH]6)c(-c6c(F)cccc6F)c6nc(c(-c7c(F)cccc7F)c7ccc4[nH]7)C=C6)C=C5)cc3)cc(N3CCOCC3)c2c1
REMARK SMILES IDX 12 1 11 2 10 3 8 4 9 5 7 6 1 7 2 8 3 9 79 10 4 11 78 12 5 13
REMARK SMILES IDX 71 14 6 15 70 16 72 17 73 18 77 19 74 20 76 21 75 22 13 23
REMARK SMILES IDX 14 24 15 25 16 26 17 27 69 28 18 29 68 30 19 31 20 32 21 33
REMARK SMILES IDX 62 34 22 35 67 36 61 37 63 38 23 39 66 40 60 41 59 42 24 44
REMARK SMILES IDX 50 45 33 46 49 47 34 48 37 49 48 50 64 51 35 52 36 53 47 55
REMARK SMILES IDX 65 56 38 57 25 58 26 59 31 60 27 61 28 62 30 63 32 64 29 65
REMARK SMILES IDX 51 66 52 67 57 68 53 69 54 70 56 71 58 72 55 73 39 74 40 75
REMARK SMILES IDX 45 76 41 77 42 78 44 79 46 80 43 81
REMARK H PARENT 63 43 37 54
REMARK Flexibility Score: inf
ROOT
ATOM      1  C   UNL     1      -6.576   1.395   1.028  1.00  0.00     0.275 C 
ENDROOT
BRANCH   1   2
ATOM      2  C   UNL     1      -6.307   0.460  -0.155  1.00  0.00     0.275 C 
BRANCH   2   3
ATOM      3  O   UNL     1      -4.996  -0.139  -0.079  1.00  0.00    -0.457 OA
BRANCH   3   4
ATOM      4  C   UNL     1      -4.046   0.456  -0.847  1.00  0.00     0.357 C 
ATOM      5  O   UNL     1      -4.236   1.396  -1.607  1.00  0.00    -0.244 OA
BRANCH   4   6
ATOM      6  C   UNL     1      -2.691  -0.120  -0.584  1.00  0.00     0.151 A 
ATOM      7  C   UNL     1       3.719  -0.712   0.013  1.00  0.00     0.044 C 
ATOM      8  C   UNL     1       2.279  -0.320  -0.121  1.00  0.00    -0.050 A 
ATOM      9  C   UNL     1       1.914   1.005  -0.327  1.00  0.00     0.005 A 
ATOM     10  C   UNL     1       1.273  -1.294  -0.073  1.00  0.00     0.016 A 
ATOM     11  C   UNL     1       0.570   1.330  -0.509  1.00  0.00     0.029 A 
ATOM     12  C   UNL     1      -0.104  -0.970  -0.192  1.00  0.00     0.024 A 
ATOM     13  C   UNL     1      -0.431   0.371  -0.461  1.00  0.00     0.073 A 
ATOM     14  C   UNL     1      -1.177  -1.912  -0.098  1.00  0.00     0.049 A 
ATOM     15  N   UNL     1      -1.681   0.776  -0.686  1.00  0.00    -0.241 NA
ATOM     16  C   UNL     1      -2.489  -1.456  -0.288  1.00  0.00     0.062 A 
BRANCH  14  17
ATOM     17  N   UNL     1      -0.926  -3.257   0.154  1.00  0.00    -0.366 N 
ATOM     18  C   UNL     1      -0.376  -3.657   1.462  1.00  0.00     0.145 C 
ATOM     19  C   UNL     1      -1.706  -4.314  -0.504  1.00  0.00     0.145 C 
ATOM     20  C   UNL     1       0.446  -4.944   1.276  1.00  0.00     0.181 C 
ATOM     21  C   UNL     1      -0.838  -5.580  -0.605  1.00  0.00     0.181 C 
ATOM     22  O   UNL     1      -0.344  -5.991   0.682  1.00  0.00    -0.378 OA
ENDBRANCH  14  17
ENDBRANCH   4   6
ENDBRANCH   3   4
ENDBRANCH   2   3
ENDBRANCH   1   2
BRANCH   1  23
ATOM     23  O   UNL     1      -5.728   2.559   0.989  1.00  0.00    -0.458 OA
BRANCH  23  24
ATOM     24  C   UNL     1      -4.691   2.548   1.857  1.00  0.00     0.338 C 
ATOM     25  O   UNL     1      -4.418   1.688   2.678  1.00  0.00    -0.246 OA
BRANCH  24  26
ATOM     26  C   UNL     1      -3.836   3.723   1.628  1.00  0.00     0.060 A 
ATOM     27  C   UNL     1      -2.721   3.560   0.813  1.00  0.00     0.016 A 
ATOM     28  C   UNL     1      -4.037   4.923   2.307  1.00  0.00     0.016 A 
ATOM     29  C   UNL     1      -1.769   4.566   0.705  1.00  0.00     0.010 A 
ATOM     30  C   UNL     1      -3.102   5.959   2.161  1.00  0.00     0.010 A 
ATOM     31  C   UNL     1      -1.946   5.779   1.378  1.00  0.00    -0.014 A 
BRANCH  31  32
ATOM     32  C   UNL     1      -0.882   6.814   1.294  1.00  0.00     0.031 A 
ATOM     33  C   UNL     1      -0.079   7.173   2.513  1.00  0.00     0.074 A 
ATOM     34  C   UNL     1      -0.584   7.383   0.109  1.00  0.00     0.049 A 
ATOM     35  N   UNL     1       0.829   8.105   2.662  1.00  0.00    -0.248 NA
ATOM     36  C   UNL     1      -0.329   6.379   3.725  1.00  0.00     0.031 C 
ATOM     37  C   UNL     1      -1.235   7.075  -1.165  1.00  0.00     0.029 A 
ATOM     38  N   UNL     1       0.357   8.327  -0.218  1.00  0.00    -0.354 N 
ATOM     39  C   UNL     1       1.226   8.039   3.991  1.00  0.00     0.074 A 
ATOM     40  C   UNL     1       0.460   6.977   4.608  1.00  0.00     0.031 C 
ATOM     41  C   UNL     1      -0.655   7.792  -2.139  1.00  0.00     0.029 A 
ATOM     42  C   UNL     1       0.362   8.659  -1.552  1.00  0.00     0.049 A 
ATOM     43  H   UNL     1       0.970   8.729   0.439  1.00  0.00     0.167 HD
ATOM     44  C   UNL     1       2.145   8.795   4.638  1.00  0.00     0.037 A 
ATOM     45  C   UNL     1       1.082   9.578  -2.222  1.00  0.00     0.037 A 
ATOM     46  C   UNL     1       2.939   9.822   4.015  1.00  0.00     0.049 A 
ATOM     47  C   UNL     1       2.063  10.435  -1.474  1.00  0.00     0.074 A 
ATOM     48  C   UNL     1       3.898  10.639   4.589  1.00  0.00     0.029 A 
ATOM     49  N   UNL     1       2.875  10.164   2.673  1.00  0.00    -0.354 N 
ATOM     50  N   UNL     1       2.389  10.400  -0.205  1.00  0.00    -0.248 NA
ATOM     51  C   UNL     1       2.760  11.472  -2.247  1.00  0.00     0.031 C 
ATOM     52  C   UNL     1       4.393  11.496   3.600  1.00  0.00     0.029 A 
ATOM     53  C   UNL     1       3.767  11.189   2.403  1.00  0.00     0.049 A 
ATOM     54  H   UNL     1       2.283   9.741   2.010  1.00  0.00     0.167 HD
ATOM     55  C   UNL     1       3.332  11.403  -0.028  1.00  0.00     0.074 A 
ATOM     56  C   UNL     1       3.542  12.015  -1.325  1.00  0.00     0.031 C 
ATOM     57  C   UNL     1       3.962  11.788   1.108  1.00  0.00     0.037 A 
BRANCH  44  58
ATOM     58  C   UNL     1       2.313   8.563   6.109  1.00  0.00     0.057 A 
ATOM     59  C   UNL     1       2.986   7.445   6.615  1.00  0.00     0.134 A 
ATOM     60  C   UNL     1       1.812   9.490   7.033  1.00  0.00     0.134 A 
ATOM     61  F   UNL     1       3.476   6.513   5.784  1.00  0.00    -0.206 F 
ATOM     62  C   UNL     1       3.135   7.245   7.989  1.00  0.00     0.040 A 
ATOM     63  C   UNL     1       1.974   9.313   8.407  1.00  0.00     0.040 A 
ATOM     64  F   UNL     1       1.161  10.586   6.613  1.00  0.00    -0.206 F 
ATOM     65  C   UNL     1       2.633   8.184   8.889  1.00  0.00     0.006 A 
ENDBRANCH  44  58
BRANCH  45  66
ATOM     66  C   UNL     1       0.873   9.761  -3.679  1.00  0.00     0.057 A 
ATOM     67  C   UNL     1       1.851   9.383  -4.605  1.00  0.00     0.134 A 
ATOM     68  C   UNL     1      -0.312  10.315  -4.181  1.00  0.00     0.134 A 
ATOM     69  F   UNL     1       3.017   8.871  -4.184  1.00  0.00    -0.206 F 
ATOM     70  C   UNL     1       1.662   9.553  -5.977  1.00  0.00     0.040 A 
ATOM     71  C   UNL     1      -0.524  10.468  -5.551  1.00  0.00     0.040 A 
ATOM     72  F   UNL     1      -1.286  10.700  -3.344  1.00  0.00    -0.206 F 
ATOM     73  C   UNL     1       0.467  10.090  -6.454  1.00  0.00     0.006 A 
ENDBRANCH  45  66
BRANCH  57  74
ATOM     74  C   UNL     1       4.947  12.911   0.993  1.00  0.00     0.057 A 
ATOM     75  C   UNL     1       4.530  14.241   0.856  1.00  0.00     0.134 A 
ATOM     76  C   UNL     1       6.324  12.664   1.049  1.00  0.00     0.134 A 
ATOM     77  F   UNL     1       3.225  14.540   0.782  1.00  0.00    -0.206 F 
ATOM     78  C   UNL     1       5.451  15.286   0.761  1.00  0.00     0.040 A 
ATOM     79  C   UNL     1       7.253  13.702   0.975  1.00  0.00     0.040 A 
ATOM     80  F   UNL     1       6.787  11.412   1.185  1.00  0.00    -0.206 F 
ATOM     81  C   UNL     1       6.817  15.017   0.826  1.00  0.00     0.006 A 
ENDBRANCH  57  74
ENDBRANCH  31  32
ENDBRANCH  24  26
ENDBRANCH  23  24
ENDBRANCH   1  23
TORSDOF 12
