REMARK SMILES O=C(OCCOC(=O)c1cc(NC(=S)NC(=O)c2ccccc2F)ccc1Cl)c1ccc(-c2c3nc(c(-c4c(F)cccc4F)c4ccc([nH]4)c(-c4c(F)cccc4F)c4nc(c(-c5c(F)cccc5F)c5ccc2[nH]5)C=C4)C=C3)cc1
REMARK SMILES IDX 5 1 4 2 3 3 2 4 1 5 29 6 30 7 82 8 31 9 81 10 32 11 33 12
REMARK SMILES IDX 34 13 75 14 35 15 80 16 74 17 76 18 36 19 79 20 73 21 72 22
REMARK SMILES IDX 37 24 63 25 46 26 62 27 47 28 50 29 61 30 77 31 48 32 49 33
REMARK SMILES IDX 60 35 78 36 51 37 38 38 39 39 44 40 40 41 41 42 43 43 45 44
REMARK SMILES IDX 42 45 64 46 65 47 70 48 66 49 67 50 69 51 71 52 68 53 52 54
REMARK SMILES IDX 53 55 58 56 54 57 55 58 57 59 59 60 56 61 6 62 7 63 8 64
REMARK SMILES IDX 9 65 10 66 27 67 11 68 26 69 28 70 25 71 12 72 13 74 14 75
REMARK SMILES IDX 15 76 16 77 17 79 18 80 19 81 23 82 20 83 22 84 24 85 21 86
REMARK H PARENT 76 23 50 34 12 73 15 78
REMARK Flexibility Score: inf
ROOT
ATOM      1  C   UNL     1       4.122  -2.100  -0.553  1.00  0.00     0.275 C 
ENDROOT
BRANCH   1   2
ATOM      2  C   UNL     1       4.964  -1.638   0.649  1.00  0.00     0.275 C 
BRANCH   2   3
ATOM      3  O   UNL     1       4.434  -0.516   1.352  1.00  0.00    -0.458 OA
BRANCH   3   4
ATOM      4  C   UNL     1       4.221   0.712   0.841  1.00  0.00     0.338 C 
ATOM      5  O   UNL     1       3.321   1.389   1.334  1.00  0.00    -0.246 OA
BRANCH   4   6
ATOM      6  C   UNL     1       5.010   1.288  -0.308  1.00  0.00     0.060 A 
ATOM      7  C   UNL     1       5.940   0.650  -1.144  1.00  0.00     0.016 A 
ATOM      8  C   UNL     1       4.634   2.579  -0.661  1.00  0.00     0.016 A 
ATOM      9  C   UNL     1       6.318   1.186  -2.388  1.00  0.00     0.010 A 
ATOM     10  C   UNL     1       4.946   3.076  -1.920  1.00  0.00     0.010 A 
ATOM     11  C   UNL     1       5.764   2.375  -2.832  1.00  0.00    -0.014 A 
BRANCH  11  12
ATOM     12  C   UNL     1       6.028   2.958  -4.186  1.00  0.00     0.031 A 
ATOM     13  C   UNL     1       6.396   4.415  -4.235  1.00  0.00     0.074 A 
ATOM     14  C   UNL     1       5.826   2.303  -5.355  1.00  0.00     0.049 A 
ATOM     15  N   UNL     1       6.426   5.230  -5.254  1.00  0.00    -0.248 NA
ATOM     16  C   UNL     1       6.671   5.066  -2.939  1.00  0.00     0.031 C 
ATOM     17  C   UNL     1       5.430   0.904  -5.515  1.00  0.00     0.029 A 
ATOM     18  N   UNL     1       5.891   2.759  -6.657  1.00  0.00    -0.354 N 
ATOM     19  C   UNL     1       6.706   6.463  -4.690  1.00  0.00     0.074 A 
ATOM     20  C   UNL     1       6.539   6.338  -3.265  1.00  0.00     0.031 C 
ATOM     21  C   UNL     1       5.248   0.631  -6.822  1.00  0.00     0.029 A 
ATOM     22  C   UNL     1       5.522   1.829  -7.606  1.00  0.00     0.049 A 
ATOM     23  H   UNL     1       6.177   3.672  -6.889  1.00  0.00     0.167 HD
ATOM     24  C   UNL     1       7.259   7.552  -5.264  1.00  0.00     0.037 A 
ATOM     25  C   UNL     1       5.430   1.927  -8.951  1.00  0.00     0.037 A 
ATOM     26  C   UNL     1       7.566   7.631  -6.655  1.00  0.00     0.049 A 
ATOM     27  C   UNL     1       5.921   3.185  -9.625  1.00  0.00     0.074 A 
ATOM     28  C   UNL     1       8.242   8.626  -7.329  1.00  0.00     0.029 A 
ATOM     29  N   UNL     1       7.220   6.661  -7.581  1.00  0.00    -0.354 N 
ATOM     30  N   UNL     1       6.353   4.293  -9.072  1.00  0.00    -0.248 NA
ATOM     31  C   UNL     1       5.981   3.192 -11.096  1.00  0.00     0.031 C 
ATOM     32  C   UNL     1       8.248   8.288  -8.683  1.00  0.00     0.029 A 
ATOM     33  C   UNL     1       7.631   7.054  -8.838  1.00  0.00     0.049 A 
ATOM     34  H   UNL     1       6.753   5.820  -7.374  1.00  0.00     0.167 HD
ATOM     35  C   UNL     1       6.810   5.090 -10.115  1.00  0.00     0.074 A 
ATOM     36  C   UNL     1       6.563   4.361 -11.340  1.00  0.00     0.031 C 
ATOM     37  C   UNL     1       7.414   6.301 -10.048  1.00  0.00     0.037 A 
BRANCH  24  38
ATOM     38  C   UNL     1       7.647   8.662  -4.338  1.00  0.00     0.057 A 
ATOM     39  C   UNL     1       6.965   9.880  -4.360  1.00  0.00     0.134 A 
ATOM     40  C   UNL     1       8.640   8.486  -3.358  1.00  0.00     0.134 A 
ATOM     41  F   UNL     1       6.011  10.111  -5.273  1.00  0.00    -0.206 F 
ATOM     42  C   UNL     1       7.233  10.873  -3.417  1.00  0.00     0.040 A 
ATOM     43  C   UNL     1       8.883   9.452  -2.384  1.00  0.00     0.040 A 
ATOM     44  F   UNL     1       9.315   7.328  -3.271  1.00  0.00    -0.206 F 
ATOM     45  C   UNL     1       8.177  10.651  -2.414  1.00  0.00     0.006 A 
ENDBRANCH  24  38
BRANCH  25  46
ATOM     46  C   UNL     1       4.943   0.777  -9.764  1.00  0.00     0.057 A 
ATOM     47  C   UNL     1       3.578   0.473  -9.861  1.00  0.00     0.134 A 
ATOM     48  C   UNL     1       5.830  -0.042 -10.473  1.00  0.00     0.134 A 
ATOM     49  F   UNL     1       2.670   1.215  -9.210  1.00  0.00    -0.206 F 
ATOM     50  C   UNL     1       3.117  -0.603 -10.629  1.00  0.00     0.040 A 
ATOM     51  C   UNL     1       5.383  -1.115 -11.250  1.00  0.00     0.040 A 
ATOM     52  F   UNL     1       7.147   0.210 -10.444  1.00  0.00    -0.206 F 
ATOM     53  C   UNL     1       4.022  -1.400 -11.327  1.00  0.00     0.006 A 
ENDBRANCH  25  46
BRANCH  37  54
ATOM     54  C   UNL     1       7.926   6.931 -11.307  1.00  0.00     0.057 A 
ATOM     55  C   UNL     1       9.308   7.085 -11.495  1.00  0.00     0.134 A 
ATOM     56  C   UNL     1       7.070   7.577 -12.203  1.00  0.00     0.134 A 
ATOM     57  F   UNL     1      10.178   6.502 -10.655  1.00  0.00    -0.206 F 
ATOM     58  C   UNL     1       9.818   7.911 -12.494  1.00  0.00     0.040 A 
ATOM     59  C   UNL     1       7.571   8.384 -13.225  1.00  0.00     0.040 A 
ATOM     60  F   UNL     1       5.740   7.461 -12.077  1.00  0.00    -0.206 F 
ATOM     61  C   UNL     1       8.947   8.572 -13.357  1.00  0.00     0.006 A 
ENDBRANCH  37  54
ENDBRANCH  11  12
ENDBRANCH   4   6
ENDBRANCH   3   4
ENDBRANCH   2   3
ENDBRANCH   1   2
BRANCH   1  62
ATOM     62  O   UNL     1       3.640  -1.054  -1.444  1.00  0.00    -0.458 OA
BRANCH  62  63
ATOM     63  C   UNL     1       2.449  -1.345  -2.044  1.00  0.00     0.339 C 
ATOM     64  O   UNL     1       1.820  -2.375  -1.840  1.00  0.00    -0.246 OA
BRANCH  63  65
ATOM     65  C   UNL     1       2.049  -0.370  -3.175  1.00  0.00     0.080 A 
ATOM     66  C   UNL     1       0.673   1.072  -3.442  1.00  0.00     0.043 A 
ATOM     67  C   UNL     1       2.531  -1.197  -4.721  1.00  0.00     0.055 A 
ATOM     68  C   UNL     1      -0.002   1.550  -4.897  1.00  0.00     0.041 A 
ATOM     69  C   UNL     1       1.745  -0.658  -6.245  1.00  0.00     0.023 A 
ATOM     70  Cl  UNL     1       3.678  -2.475  -4.775  1.00  0.00    -0.083 Cl
ATOM     71  C   UNL     1       0.524   0.677  -6.308  1.00  0.00     0.028 A 
BRANCH  68  72
ATOM     72  N   UNL     1      -0.907   2.607  -4.602  1.00  0.00    -0.332 N 
ATOM     73  H   UNL     1      -1.370   2.986  -5.384  1.00  0.00     0.169 HD
BRANCH  72  74
ATOM     74  C   UNL     1      -1.250   3.201  -3.359  1.00  0.00     0.177 C 
ATOM     75  S   UNL     1      -1.986   4.712  -3.425  1.00  0.00    -0.040 S 
BRANCH  74  76
ATOM     76  N   UNL     1      -1.100   2.625  -2.003  1.00  0.00    -0.299 N 
ATOM     77  C   UNL     1      -0.633   1.514  -1.006  1.00  0.00     0.260 C 
ATOM     78  H   UNL     1      -1.516   3.299  -1.418  1.00  0.00     0.172 HD
ATOM     79  O   UNL     1      -1.137   1.463   0.112  1.00  0.00    -0.269 OA
BRANCH  77  80
ATOM     80  C   UNL     1       0.504   0.471  -1.415  1.00  0.00     0.075 A 
ATOM     81  C   UNL     1      -0.099  -0.688  -2.664  1.00  0.00     0.017 A 
ATOM     82  C   UNL     1       1.855   1.577  -1.741  1.00  0.00     0.135 A 
ATOM     83  C   UNL     1       0.558  -0.532  -4.361  1.00  0.00     0.001 A 
ATOM     84  C   UNL     1       2.619   1.789  -3.305  1.00  0.00     0.040 A 
ATOM     85  F   UNL     1       1.892   2.681  -0.967  1.00  0.00    -0.206 F 
ATOM     86  C   UNL     1       2.034   0.823  -4.676  1.00  0.00     0.003 A 
ENDBRANCH  77  80
ENDBRANCH  74  76
ENDBRANCH  72  74
ENDBRANCH  68  72
ENDBRANCH  63  65
ENDBRANCH  62  63
ENDBRANCH   1  62
TORSDOF 15
