REMARK SMILES Cc1n[nH]c(C[N@H+]2CCC[C@H](c3cccc(C(=O)OCCOC(=O)c4ccc(-c5c6nc(c(-c7c(F)cccc7F)c7ccc([nH]7)c(-c7c(F)cccc7F)c7nc(c(-c8c(F)cccc8F)c8ccc5[nH]8)C=C7)C=C6)cc4)c3)C2)n1
REMARK SMILES IDX 20 1 19 2 17 3 18 4 16 5 12 6 13 7 79 8 14 9 15 10 11 11
REMARK SMILES IDX 7 12 8 13 80 14 9 16 10 17 6 18 5 19 1 20 2 21 3 22 81 23
REMARK SMILES IDX 4 24 21 26 22 27 23 28 24 29 25 30 26 31 78 32 27 33 77 34
REMARK SMILES IDX 28 35 29 36 30 37 71 38 31 39 76 40 70 41 72 42 32 43 75 44
REMARK SMILES IDX 69 45 68 46 33 48 59 49 42 50 58 51 43 52 46 53 57 54 73 55
REMARK SMILES IDX 44 56 45 57 56 59 74 60 47 61 34 62 35 63 40 64 36 65 37 66
REMARK SMILES IDX 39 67 41 68 38 69 60 70 61 71 66 72 62 73 63 74 65 75 67 76
REMARK SMILES IDX 64 77 48 78 49 79 54 80 50 81 51 82 53 83 55 84 52 85
REMARK H PARENT 7 15 4 25 72 47 46 58
REMARK Flexibility Score: inf
ROOT
ATOM      1  C   UNL     1      -4.745  -2.081  10.459  1.00  0.00     0.275 C 
ENDROOT
BRANCH   1   2
ATOM      2  O   UNL     1      -4.372  -2.447   9.122  1.00  0.00    -0.458 OA
BRANCH   2   3
ATOM      3  C   UNL     1      -5.110  -3.433   8.538  1.00  0.00     0.338 C 
ATOM      4  O   UNL     1      -5.896  -4.168   9.097  1.00  0.00    -0.246 OA
BRANCH   3   5
ATOM      5  C   UNL     1      -4.918  -3.399   7.061  1.00  0.00     0.060 A 
ATOM      6  C   UNL     1      -3.692  -2.642   5.085  1.00  0.00    -0.038 A 
ATOM      7  C   UNL     1      -4.621  -3.330   4.290  1.00  0.00     0.004 A 
ATOM      8  C   UNL     1      -3.894  -2.647   6.474  1.00  0.00     0.020 A 
ATOM      9  C   UNL     1      -5.674  -4.048   4.864  1.00  0.00     0.001 A 
ATOM     10  C   UNL     1      -5.813  -4.099   6.249  1.00  0.00     0.016 A 
BRANCH   6  11
ATOM     11  C   UNL     1      -2.481  -1.899   4.519  1.00  0.00     0.074 C 
ATOM     12  N   UNL     1      -1.786  -3.519   2.729  1.00  0.00    -0.328 N 
ATOM     13  C   UNL     1      -0.585  -3.903   3.479  1.00  0.00     0.262 C 
ATOM     14  C   UNL     1      -2.194  -2.127   3.015  1.00  0.00     0.270 C 
ATOM     15  H   UNL     1      -2.534  -4.127   3.063  1.00  0.00     0.348 HD
ATOM     16  C   UNL     1      -0.747  -3.678   4.983  1.00  0.00     0.062 C 
ATOM     17  C   UNL     1      -1.176  -2.241   5.277  1.00  0.00     0.020 C 
BRANCH  12  18
ATOM     18  C   UNL     1      -1.671  -3.777   1.283  1.00  0.00     0.340 C 
BRANCH  18  19
ATOM     19  C   UNL     1      -0.622  -2.972   0.593  1.00  0.00     0.179 A 
ATOM     20  C   UNL     1       1.151  -0.085  -0.367  1.00  0.00     0.092 C 
ATOM     21  C   UNL     1       0.650  -1.448  -0.116  1.00  0.00     0.147 A 
ATOM     22  N   UNL     1       1.384  -2.552  -0.301  1.00  0.00    -0.159 NA
ATOM     23  N   UNL     1      -0.602  -1.671   0.386  1.00  0.00    -0.211 NA
ATOM     24  N   UNL     1       0.549  -3.507   0.140  1.00  0.00    -0.258 N 
ATOM     25  H   UNL     1       0.756  -4.469   0.138  1.00  0.00     0.192 HD
ENDBRANCH  18  19
ENDBRANCH  12  18
ENDBRANCH   6  11
ENDBRANCH   3   5
ENDBRANCH   2   3
ENDBRANCH   1   2
BRANCH   1  26
ATOM     26  C   UNL     1      -5.789  -0.972  10.439  1.00  0.00     0.275 C 
BRANCH  26  27
ATOM     27  O   UNL     1      -7.030  -1.459   9.932  1.00  0.00    -0.458 OA
BRANCH  27  28
ATOM     28  C   UNL     1      -7.234  -1.270   8.609  1.00  0.00     0.338 C 
ATOM     29  O   UNL     1      -6.435  -0.843   7.791  1.00  0.00    -0.246 OA
BRANCH  28  30
ATOM     30  C   UNL     1      -8.653  -1.486   8.307  1.00  0.00     0.060 A 
ATOM     31  C   UNL     1      -9.045  -1.455   6.964  1.00  0.00     0.016 A 
ATOM     32  C   UNL     1      -9.584  -1.419   9.352  1.00  0.00     0.016 A 
ATOM     33  C   UNL     1     -10.361  -1.159   6.669  1.00  0.00     0.010 A 
ATOM     34  C   UNL     1     -10.887  -1.105   9.057  1.00  0.00     0.010 A 
ATOM     35  C   UNL     1     -11.238  -0.896   7.724  1.00  0.00    -0.014 A 
BRANCH  35  36
ATOM     36  C   UNL     1     -12.548  -0.355   7.422  1.00  0.00     0.031 A 
ATOM     37  C   UNL     1     -13.554  -1.358   7.013  1.00  0.00     0.074 A 
ATOM     38  C   UNL     1     -12.838   0.933   7.694  1.00  0.00     0.049 A 
ATOM     39  N   UNL     1     -14.246  -1.408   5.924  1.00  0.00    -0.248 NA
ATOM     40  C   UNL     1     -13.748  -2.515   7.904  1.00  0.00     0.031 C 
ATOM     41  C   UNL     1     -12.006   1.884   8.445  1.00  0.00     0.029 A 
ATOM     42  N   UNL     1     -13.987   1.631   7.476  1.00  0.00    -0.354 N 
ATOM     43  C   UNL     1     -15.094  -2.502   6.074  1.00  0.00     0.074 A 
ATOM     44  C   UNL     1     -14.635  -3.235   7.221  1.00  0.00     0.031 C 
ATOM     45  C   UNL     1     -12.762   2.942   8.810  1.00  0.00     0.029 A 
ATOM     46  C   UNL     1     -14.075   2.808   8.203  1.00  0.00     0.049 A 
ATOM     47  H   UNL     1     -14.691   1.326   6.859  1.00  0.00     0.167 HD
ATOM     48  C   UNL     1     -16.270  -2.587   5.401  1.00  0.00     0.037 A 
ATOM     49  C   UNL     1     -15.175   3.580   8.352  1.00  0.00     0.037 A 
ATOM     50  C   UNL     1     -16.332  -1.649   4.316  1.00  0.00     0.049 A 
ATOM     51  C   UNL     1     -16.134   3.238   7.276  1.00  0.00     0.074 A 
ATOM     52  C   UNL     1     -15.828  -1.570   3.038  1.00  0.00     0.029 A 
ATOM     53  N   UNL     1     -16.764  -0.399   4.669  1.00  0.00    -0.354 N 
ATOM     54  N   UNL     1     -15.922   3.462   6.009  1.00  0.00    -0.248 NA
ATOM     55  C   UNL     1     -17.246   2.340   7.570  1.00  0.00     0.031 C 
ATOM     56  C   UNL     1     -15.796  -0.184   2.709  1.00  0.00     0.029 A 
ATOM     57  C   UNL     1     -16.281   0.541   3.797  1.00  0.00     0.049 A 
ATOM     58  H   UNL     1     -17.342  -0.202   5.441  1.00  0.00     0.167 HD
ATOM     59  C   UNL     1     -16.592   2.443   5.359  1.00  0.00     0.074 A 
ATOM     60  C   UNL     1     -17.521   1.902   6.339  1.00  0.00     0.031 C 
ATOM     61  C   UNL     1     -16.114   1.921   4.195  1.00  0.00     0.037 A 
BRANCH  48  62
ATOM     62  C   UNL     1     -17.523  -3.204   5.967  1.00  0.00     0.057 A 
ATOM     63  C   UNL     1     -18.618  -3.445   5.121  1.00  0.00     0.134 A 
ATOM     64  C   UNL     1     -17.799  -3.294   7.348  1.00  0.00     0.134 A 
ATOM     65  F   UNL     1     -18.491  -3.354   3.788  1.00  0.00    -0.206 F 
ATOM     66  C   UNL     1     -19.900  -3.717   5.614  1.00  0.00     0.040 A 
ATOM     67  C   UNL     1     -19.061  -3.620   7.850  1.00  0.00     0.040 A 
ATOM     68  F   UNL     1     -16.893  -2.969   8.280  1.00  0.00    -0.206 F 
ATOM     69  C   UNL     1     -20.125  -3.806   6.983  1.00  0.00     0.006 A 
ENDBRANCH  48  62
BRANCH  49  70
ATOM     70  C   UNL     1     -15.559   4.403   9.518  1.00  0.00     0.057 A 
ATOM     71  C   UNL     1     -16.485   5.446   9.396  1.00  0.00     0.134 A 
ATOM     72  C   UNL     1     -15.229   4.015  10.829  1.00  0.00     0.134 A 
ATOM     73  F   UNL     1     -16.886   5.860   8.185  1.00  0.00    -0.206 F 
ATOM     74  C   UNL     1     -17.072   6.053  10.513  1.00  0.00     0.040 A 
ATOM     75  C   UNL     1     -15.800   4.618  11.953  1.00  0.00     0.040 A 
ATOM     76  F   UNL     1     -14.408   2.980  11.059  1.00  0.00    -0.206 F 
ATOM     77  C   UNL     1     -16.738   5.630  11.797  1.00  0.00     0.006 A 
ENDBRANCH  49  70
BRANCH  61  78
ATOM     78  C   UNL     1     -15.178   2.768   3.394  1.00  0.00     0.057 A 
ATOM     79  C   UNL     1     -13.864   3.061   3.779  1.00  0.00     0.134 A 
ATOM     80  C   UNL     1     -15.592   3.214   2.135  1.00  0.00     0.134 A 
ATOM     81  F   UNL     1     -13.364   2.605   4.934  1.00  0.00    -0.206 F 
ATOM     82  C   UNL     1     -13.008   3.798   2.955  1.00  0.00     0.040 A 
ATOM     83  C   UNL     1     -14.738   3.923   1.290  1.00  0.00     0.040 A 
ATOM     84  F   UNL     1     -16.824   2.925   1.688  1.00  0.00    -0.206 F 
ATOM     85  C   UNL     1     -13.443   4.225   1.703  1.00  0.00     0.006 A 
ENDBRANCH  61  78
ENDBRANCH  35  36
ENDBRANCH  28  30
ENDBRANCH  27  28
ENDBRANCH  26  27
ENDBRANCH   1  26
TORSDOF 14
