REMARK SMILES CC[NH2+][C@@]1(C(=O)OCCOC(=O)c2ccc(-c3c4nc(c(-c5c(F)cccc5F)c5ccc([nH]5)c(-c5c(F)cccc5F)c5nc(c(-c6c(F)cccc6F)c6ccc3[nH]6)C=C5)C=C4)cc2)CCC[C@@H]([N@@H+](C)[C@@H](C)C2CC2)C1
REMARK SMILES IDX 8 1 7 2 5 3 6 4 4 5 67 6 78 7 68 8 70 9 69 10 3 11 2 14 1 15
REMARK SMILES IDX 71 16 72 17 73 19 74 20 75 21 76 22 77 23 9 24 10 25 11 26
REMARK SMILES IDX 12 27 13 28 14 29 66 30 15 31 65 32 16 33 17 34 18 35 59 36
REMARK SMILES IDX 19 37 64 38 58 39 60 40 20 41 63 42 57 43 56 44 21 46 47 47
REMARK SMILES IDX 30 48 46 49 31 50 34 51 45 52 61 53 32 54 33 55 44 57 62 58
REMARK SMILES IDX 35 59 22 60 23 61 28 62 24 63 25 64 27 65 29 66 26 67 48 68
REMARK SMILES IDX 49 69 54 70 50 71 51 72 53 73 55 74 52 75 36 76 37 77 42 78
REMARK SMILES IDX 38 79 39 80 41 81 43 82 40 83
REMARK H PARENT 3 12 3 13 71 18 60 45 34 56
REMARK Flexibility Score: inf
ROOT
ATOM      1  C   UNL     1       1.265  -3.422  -4.993  1.00  0.00     0.274 C 
ENDROOT
BRANCH   1   2
ATOM      2  O   UNL     1       0.696  -3.710  -3.697  1.00  0.00    -0.457 OA
BRANCH   2   3
ATOM      3  C   UNL     1       1.485  -3.488  -2.614  1.00  0.00     0.368 C 
ATOM      4  O   UNL     1       2.618  -3.013  -2.670  1.00  0.00    -0.245 OA
BRANCH   3   5
ATOM      5  C   UNL     1       0.864  -4.009  -1.283  1.00  0.00     0.200 C 
ATOM      6  C   UNL     1       1.510  -5.383  -1.005  1.00  0.00     0.081 C 
ATOM      7  C   UNL     1      -0.670  -4.128  -1.257  1.00  0.00     0.146 C 
ATOM      8  C   UNL     1       0.951  -6.483  -1.907  1.00  0.00     0.013 C 
ATOM      9  C   UNL     1      -1.302  -5.303  -2.010  1.00  0.00     0.190 C 
ATOM     10  C   UNL     1      -0.562  -6.625  -1.738  1.00  0.00     0.065 C 
BRANCH   5  11
ATOM     11  N   UNL     1       1.318  -3.101  -0.167  1.00  0.00    -0.332 N 
ATOM     12  H   UNL     1       1.261  -3.620   0.709  1.00  0.00     0.347 HD
ATOM     13  H   UNL     1       2.267  -2.810  -0.401  1.00  0.00     0.347 HD
BRANCH  11  14
ATOM     14  C   UNL     1       0.534  -1.872  -0.020  1.00  0.00     0.257 C 
ATOM     15  C   UNL     1       1.036  -1.042   1.151  1.00  0.00     0.071 C 
ENDBRANCH  11  14
ENDBRANCH   5  11
BRANCH   9  16
ATOM     16  N   UNL     1      -2.779  -5.301  -1.872  1.00  0.00    -0.332 N 
ATOM     17  C   UNL     1      -3.414  -6.180  -2.857  1.00  0.00     0.333 C 
ATOM     18  H   UNL     1      -2.943  -4.311  -2.056  1.00  0.00     0.348 HD
BRANCH  16  19
ATOM     19  C   UNL     1      -3.444  -5.406  -0.556  1.00  0.00     0.184 C 
ATOM     20  C   UNL     1      -3.046  -6.605   0.314  1.00  0.00     0.075 C 
BRANCH  19  21
ATOM     21  C   UNL     1      -3.407  -4.131   0.275  1.00  0.00     0.047 C 
ATOM     22  C   UNL     1      -3.441  -2.729  -0.299  1.00  0.00     0.010 C 
ATOM     23  C   UNL     1      -4.658  -3.279   0.371  1.00  0.00     0.010 C 
ENDBRANCH  19  21
ENDBRANCH  16  19
ENDBRANCH   9  16
ENDBRANCH   3   5
ENDBRANCH   2   3
ENDBRANCH   1   2
BRANCH   1  24
ATOM     24  C   UNL     1       0.761  -2.080  -5.513  1.00  0.00     0.275 C 
BRANCH  24  25
ATOM     25  O   UNL     1       1.314  -1.034  -4.696  1.00  0.00    -0.458 OA
BRANCH  25  26
ATOM     26  C   UNL     1       0.480  -0.018  -4.390  1.00  0.00     0.338 C 
ATOM     27  O   UNL     1      -0.652   0.155  -4.820  1.00  0.00    -0.246 OA
BRANCH  26  28
ATOM     28  C   UNL     1       1.103   0.875  -3.386  1.00  0.00     0.060 A 
ATOM     29  C   UNL     1       1.962   0.369  -2.414  1.00  0.00     0.016 A 
ATOM     30  C   UNL     1       0.704   2.210  -3.315  1.00  0.00     0.016 A 
ATOM     31  C   UNL     1       2.275   1.138  -1.292  1.00  0.00     0.010 A 
ATOM     32  C   UNL     1       1.119   3.012  -2.242  1.00  0.00     0.010 A 
ATOM     33  C   UNL     1       1.842   2.466  -1.167  1.00  0.00    -0.014 A 
BRANCH  33  34
ATOM     34  C   UNL     1       2.023   3.232   0.112  1.00  0.00     0.031 A 
ATOM     35  C   UNL     1       0.844   3.949   0.739  1.00  0.00     0.074 A 
ATOM     36  C   UNL     1       3.198   3.267   0.777  1.00  0.00     0.049 A 
ATOM     37  N   UNL     1       0.833   4.886   1.655  1.00  0.00    -0.248 NA
ATOM     38  C   UNL     1      -0.496   3.582   0.253  1.00  0.00     0.031 C 
ATOM     39  C   UNL     1       4.430   2.585   0.383  1.00  0.00     0.029 A 
ATOM     40  N   UNL     1       3.535   3.891   1.957  1.00  0.00    -0.354 N 
ATOM     41  C   UNL     1      -0.490   5.301   1.762  1.00  0.00     0.074 A 
ATOM     42  C   UNL     1      -1.260   4.489   0.844  1.00  0.00     0.031 C 
ATOM     43  C   UNL     1       5.353   2.749   1.343  1.00  0.00     0.029 A 
ATOM     44  C   UNL     1       4.827   3.653   2.359  1.00  0.00     0.049 A 
ATOM     45  H   UNL     1       2.908   4.455   2.465  1.00  0.00     0.167 HD
ATOM     46  C   UNL     1      -1.013   6.276   2.544  1.00  0.00     0.037 A 
ATOM     47  C   UNL     1       5.537   4.142   3.394  1.00  0.00     0.037 A 
ATOM     48  C   UNL     1      -0.281   6.990   3.559  1.00  0.00     0.049 A 
ATOM     49  C   UNL     1       4.929   5.184   4.288  1.00  0.00     0.074 A 
ATOM     50  C   UNL     1      -0.726   7.996   4.401  1.00  0.00     0.029 A 
ATOM     51  N   UNL     1       1.034   6.732   3.908  1.00  0.00    -0.354 N 
ATOM     52  N   UNL     1       3.726   5.700   4.258  1.00  0.00    -0.248 NA
ATOM     53  C   UNL     1       5.799   5.745   5.333  1.00  0.00     0.031 C 
ATOM     54  C   UNL     1       0.324   8.351   5.257  1.00  0.00     0.029 A 
ATOM     55  C   UNL     1       1.411   7.546   4.964  1.00  0.00     0.049 A 
ATOM     56  H   UNL     1       1.615   6.068   3.471  1.00  0.00     0.167 HD
ATOM     57  C   UNL     1       3.700   6.659   5.262  1.00  0.00     0.074 A 
ATOM     58  C   UNL     1       4.993   6.624   5.913  1.00  0.00     0.031 C 
ATOM     59  C   UNL     1       2.701   7.510   5.598  1.00  0.00     0.037 A 
BRANCH  46  60
ATOM     60  C   UNL     1      -2.443   6.667   2.311  1.00  0.00     0.057 A 
ATOM     61  C   UNL     1      -3.520   5.885   2.743  1.00  0.00     0.134 A 
ATOM     62  C   UNL     1      -2.740   7.886   1.684  1.00  0.00     0.134 A 
ATOM     63  F   UNL     1      -3.305   4.701   3.336  1.00  0.00    -0.206 F 
ATOM     64  C   UNL     1      -4.841   6.292   2.544  1.00  0.00     0.040 A 
ATOM     65  C   UNL     1      -4.055   8.315   1.502  1.00  0.00     0.040 A 
ATOM     66  F   UNL     1      -1.753   8.687   1.253  1.00  0.00    -0.206 F 
ATOM     67  C   UNL     1      -5.111   7.515   1.930  1.00  0.00     0.006 A 
ENDBRANCH  46  60
BRANCH  47  68
ATOM     68  C   UNL     1       6.937   3.697   3.606  1.00  0.00     0.057 A 
ATOM     69  C   UNL     1       7.281   2.898   4.701  1.00  0.00     0.134 A 
ATOM     70  C   UNL     1       7.961   4.058   2.721  1.00  0.00     0.134 A 
ATOM     71  F   UNL     1       6.351   2.549   5.601  1.00  0.00    -0.206 F 
ATOM     72  C   UNL     1       8.594   2.471   4.909  1.00  0.00     0.040 A 
ATOM     73  C   UNL     1       9.271   3.615   2.900  1.00  0.00     0.040 A 
ATOM     74  F   UNL     1       7.694   4.827   1.655  1.00  0.00    -0.206 F 
ATOM     75  C   UNL     1       9.591   2.822   4.000  1.00  0.00     0.006 A 
ENDBRANCH  47  68
BRANCH  59  76
ATOM     76  C   UNL     1       2.973   8.464   6.720  1.00  0.00     0.057 A 
ATOM     77  C   UNL     1       3.785   9.591   6.540  1.00  0.00     0.134 A 
ATOM     78  C   UNL     1       2.418   8.259   7.988  1.00  0.00     0.134 A 
ATOM     79  F   UNL     1       4.357   9.834   5.351  1.00  0.00    -0.206 F 
ATOM     80  C   UNL     1       4.057  10.467   7.592  1.00  0.00     0.040 A 
ATOM     81  C   UNL     1       2.668   9.138   9.043  1.00  0.00     0.040 A 
ATOM     82  F   UNL     1       1.627   7.201   8.223  1.00  0.00    -0.206 F 
ATOM     83  C   UNL     1       3.496  10.242   8.847  1.00  0.00     0.006 A 
ENDBRANCH  59  76
ENDBRANCH  33  34
ENDBRANCH  26  28
ENDBRANCH  25  26
ENDBRANCH  24  25
ENDBRANCH   1  24
TORSDOF 16
