REMARK SMILES O=C(C[C@@H]1C(=O)NC(=S)N1c1ccccc1)OCCOC(=O)c1ccc(-c2c3nc(c(-c4c(F)cccc4F)c4ccc([nH]4)c(-c4c(F)cccc4F)c4nc(c(-c5c(F)cccc5F)c5ccc2[nH]5)C=C4)C=C3)cc1
REMARK SMILES IDX 18 1 17 2 2 3 1 4 3 5 4 6 5 7 10 8 6 9 7 10 8 11 9 13 11 14
REMARK SMILES IDX 12 15 16 16 13 17 15 18 14 19 19 20 20 21 21 22 22 23 23 24
REMARK SMILES IDX 24 25 76 26 25 27 75 28 26 29 27 30 28 31 69 32 29 33 74 34
REMARK SMILES IDX 68 35 70 36 30 37 73 38 67 39 66 40 31 42 57 43 40 44 56 45
REMARK SMILES IDX 41 46 44 47 55 48 71 49 42 50 43 51 54 53 72 54 45 55 32 56
REMARK SMILES IDX 33 57 38 58 34 59 35 60 37 61 39 62 36 63 58 64 59 65 64 66
REMARK SMILES IDX 60 67 61 68 63 69 65 70 62 71 46 72 47 73 52 74 48 75 49 76
REMARK SMILES IDX 51 77 53 78 50 79
REMARK H PARENT 7 12 70 41 44 52
REMARK Flexibility Score: inf
ROOT
ATOM      1  C   UNL     1       3.598  -1.425   0.173  1.00  0.00     0.274 C 
ENDROOT
BRANCH   1   2
ATOM      2  O   UNL     1       2.498  -0.619   0.643  1.00  0.00    -0.462 OA
BRANCH   2   3
ATOM      3  C   UNL     1       2.627   0.710   0.882  1.00  0.00     0.308 C 
ATOM      4  O   UNL     1       1.967   1.256   1.761  1.00  0.00    -0.252 OA
BRANCH   3   5
ATOM      5  C   UNL     1       3.503   1.514  -0.038  1.00  0.00     0.158 C 
BRANCH   5   6
ATOM      6  C   UNL     1       4.658   2.189   0.694  1.00  0.00     0.190 C 
ATOM      7  C   UNL     1       4.519   3.697   0.478  1.00  0.00     0.249 C 
ATOM      8  N   UNL     1       5.930   1.976  -0.010  1.00  0.00    -0.306 N 
ATOM      9  O   UNL     1       3.654   4.418   0.949  1.00  0.00    -0.272 OA
ATOM     10  N   UNL     1       5.457   4.110  -0.419  1.00  0.00    -0.301 N 
ATOM     11  C   UNL     1       6.317   3.103  -0.735  1.00  0.00     0.180 C 
ATOM     12  H   UNL     1       5.508   5.021  -0.791  1.00  0.00     0.172 HD
ATOM     13  S   UNL     1       7.606   3.323  -1.753  1.00  0.00    -0.040 S 
BRANCH   8  14
ATOM     14  C   UNL     1       6.630   0.760   0.082  1.00  0.00     0.044 A 
ATOM     15  C   UNL     1       7.154   0.359   1.314  1.00  0.00     0.026 A 
ATOM     16  C   UNL     1       6.760  -0.074  -1.034  1.00  0.00     0.026 A 
ATOM     17  C   UNL     1       7.817  -0.864   1.427  1.00  0.00     0.002 A 
ATOM     18  C   UNL     1       7.385  -1.317  -0.907  1.00  0.00     0.002 A 
ATOM     19  C   UNL     1       7.919  -1.708   0.321  1.00  0.00     0.000 A 
ENDBRANCH   8  14
ENDBRANCH   5   6
ENDBRANCH   3   5
ENDBRANCH   2   3
ENDBRANCH   1   2
BRANCH   1  20
ATOM     20  C   UNL     1       3.387  -1.937  -1.256  1.00  0.00     0.275 C 
BRANCH  20  21
ATOM     21  O   UNL     1       3.214  -0.842  -2.176  1.00  0.00    -0.458 OA
BRANCH  21  22
ATOM     22  C   UNL     1       1.927  -0.569  -2.505  1.00  0.00     0.338 C 
ATOM     23  O   UNL     1       0.952  -1.260  -2.258  1.00  0.00    -0.246 OA
BRANCH  22  24
ATOM     24  C   UNL     1       1.821   0.806  -3.048  1.00  0.00     0.060 A 
ATOM     25  C   UNL     1       0.720   1.569  -2.640  1.00  0.00     0.016 A 
ATOM     26  C   UNL     1       2.767   1.357  -3.919  1.00  0.00     0.016 A 
ATOM     27  C   UNL     1       0.544   2.867  -3.122  1.00  0.00     0.010 A 
ATOM     28  C   UNL     1       2.585   2.661  -4.406  1.00  0.00     0.010 A 
ATOM     29  C   UNL     1       1.460   3.416  -4.028  1.00  0.00    -0.014 A 
BRANCH  29  30
ATOM     30  C   UNL     1       1.179   4.740  -4.640  1.00  0.00     0.031 A 
ATOM     31  C   UNL     1       0.552   4.807  -6.007  1.00  0.00     0.074 A 
ATOM     32  C   UNL     1       1.438   5.878  -3.969  1.00  0.00     0.049 A 
ATOM     33  N   UNL     1       0.203   5.856  -6.708  1.00  0.00    -0.248 NA
ATOM     34  C   UNL     1       0.278   3.522  -6.670  1.00  0.00     0.031 C 
ATOM     35  C   UNL     1       2.008   5.958  -2.624  1.00  0.00     0.029 A 
ATOM     36  N   UNL     1       1.253   7.190  -4.334  1.00  0.00    -0.354 N 
ATOM     37  C   UNL     1      -0.338   5.360  -7.889  1.00  0.00     0.074 A 
ATOM     38  C   UNL     1      -0.243   3.917  -7.823  1.00  0.00     0.031 C 
ATOM     39  C   UNL     1       2.141   7.253  -2.284  1.00  0.00     0.029 A 
ATOM     40  C   UNL     1       1.687   8.092  -3.392  1.00  0.00     0.049 A 
ATOM     41  H   UNL     1       0.848   7.458  -5.190  1.00  0.00     0.167 HD
ATOM     42  C   UNL     1      -0.875   6.043  -8.927  1.00  0.00     0.037 A 
ATOM     43  C   UNL     1       1.728   9.439  -3.427  1.00  0.00     0.037 A 
ATOM     44  C   UNL     1      -0.981   7.477  -8.996  1.00  0.00     0.049 A 
ATOM     45  C   UNL     1       1.198  10.172  -4.634  1.00  0.00     0.074 A 
ATOM     46  C   UNL     1      -1.561   8.250  -9.988  1.00  0.00     0.029 A 
ATOM     47  N   UNL     1      -0.484   8.354  -8.046  1.00  0.00    -0.354 N 
ATOM     48  N   UNL     1       0.628   9.691  -5.712  1.00  0.00    -0.248 NA
ATOM     49  C   UNL     1       1.318  11.639  -4.628  1.00  0.00     0.031 C 
ATOM     50  C   UNL     1      -1.363   9.596  -9.667  1.00  0.00     0.029 A 
ATOM     51  C   UNL     1      -0.702   9.660  -8.452  1.00  0.00     0.049 A 
ATOM     52  H   UNL     1      -0.042   8.088  -7.207  1.00  0.00     0.167 HD
ATOM     53  C   UNL     1       0.304  10.792  -6.496  1.00  0.00     0.074 A 
ATOM     54  C   UNL     1       0.721  11.968  -5.764  1.00  0.00     0.031 C 
ATOM     55  C   UNL     1      -0.284  10.825  -7.717  1.00  0.00     0.037 A 
BRANCH  42  56
ATOM     56  C   UNL     1      -1.384   5.255 -10.096  1.00  0.00     0.057 A 
ATOM     57  C   UNL     1      -2.591   4.549 -10.040  1.00  0.00     0.134 A 
ATOM     58  C   UNL     1      -0.699   5.274 -11.318  1.00  0.00     0.134 A 
ATOM     59  F   UNL     1      -3.290   4.487  -8.897  1.00  0.00    -0.206 F 
ATOM     60  C   UNL     1      -3.097   3.883 -11.158  1.00  0.00     0.040 A 
ATOM     61  C   UNL     1      -1.204   4.629 -12.447  1.00  0.00     0.040 A 
ATOM     62  F   UNL     1       0.461   5.939 -11.438  1.00  0.00    -0.206 F 
ATOM     63  C   UNL     1      -2.407   3.930 -12.368  1.00  0.00     0.006 A 
ENDBRANCH  42  56
BRANCH  43  64
ATOM     64  C   UNL     1       2.329  10.200  -2.301  1.00  0.00     0.057 A 
ATOM     65  C   UNL     1       1.557  11.045  -1.495  1.00  0.00     0.134 A 
ATOM     66  C   UNL     1       3.706  10.151  -2.050  1.00  0.00     0.134 A 
ATOM     67  F   UNL     1       0.237  11.159  -1.705  1.00  0.00    -0.206 F 
ATOM     68  C   UNL     1       2.136  11.834  -0.499  1.00  0.00     0.040 A 
ATOM     69  C   UNL     1       4.294  10.915  -1.041  1.00  0.00     0.040 A 
ATOM     70  F   UNL     1       4.502   9.364  -2.789  1.00  0.00    -0.206 F 
ATOM     71  C   UNL     1       3.509  11.768  -0.269  1.00  0.00     0.006 A 
ENDBRANCH  43  64
BRANCH  55  72
ATOM     72  C   UNL     1      -0.521  12.171  -8.338  1.00  0.00     0.057 A 
ATOM     73  C   UNL     1       0.531  12.936  -8.858  1.00  0.00     0.134 A 
ATOM     74  C   UNL     1      -1.818  12.686  -8.466  1.00  0.00     0.134 A 
ATOM     75  F   UNL     1       1.798  12.507  -8.757  1.00  0.00    -0.206 F 
ATOM     76  C   UNL     1       0.303  14.172  -9.467  1.00  0.00     0.040 A 
ATOM     77  C   UNL     1      -2.061  13.908  -9.095  1.00  0.00     0.040 A 
ATOM     78  F   UNL     1      -2.873  12.000  -7.999  1.00  0.00    -0.206 F 
ATOM     79  C   UNL     1      -0.997  14.657  -9.594  1.00  0.00     0.006 A 
ENDBRANCH  55  72
ENDBRANCH  29  30
ENDBRANCH  22  24
ENDBRANCH  21  22
ENDBRANCH  20  21
ENDBRANCH   1  20
TORSDOF 13
