REMARK SMILES COc1ccc(F)c(NC(=O)N[C@H]2CCC[C@H]2C(=O)OCCOC(=O)c2ccc(-c3c4nc(c(-c5c(F)cccc5F)c5ccc([nH]5)c(-c5c(F)cccc5F)c5nc(c(-c6c(F)cccc6F)c6ccc3[nH]6)C=C5)C=C4)cc2)c1
REMARK SMILES IDX 21 1 20 2 18 3 19 4 17 5 13 6 14 7 15 8 16 9 12 10 9 11
REMARK SMILES IDX 10 12 11 14 8 16 3 17 4 18 80 19 5 20 6 21 7 22 2 23 1 24
REMARK SMILES IDX 22 25 23 26 24 27 25 28 26 29 27 30 79 31 28 32 78 33 29 34
REMARK SMILES IDX 30 35 31 36 72 37 32 38 77 39 71 40 73 41 33 42 76 43 70 44
REMARK SMILES IDX 69 45 34 47 60 48 43 49 59 50 44 51 47 52 58 53 74 54 45 55
REMARK SMILES IDX 46 56 57 58 75 59 48 60 35 61 36 62 41 63 37 64 38 65 40 66
REMARK SMILES IDX 42 67 39 68 61 69 62 70 67 71 63 72 64 73 66 74 68 75 65 76
REMARK SMILES IDX 49 77 50 78 55 79 51 80 52 81 54 82 56 83 53 84
REMARK H PARENT 9 13 12 15 73 46 47 57
REMARK Flexibility Score: inf
ROOT
ATOM      1  C   UNL     1       1.252  -6.785   1.954  1.00  0.00     0.274 C 
ENDROOT
BRANCH   1   2
ATOM      2  O   UNL     1       0.674  -5.479   1.799  1.00  0.00    -0.462 OA
BRANCH   2   3
ATOM      3  C   UNL     1       1.480  -4.551   1.217  1.00  0.00     0.311 C 
ATOM      4  O   UNL     1       2.703  -4.561   1.257  1.00  0.00    -0.252 OA
BRANCH   3   5
ATOM      5  C   UNL     1       0.669  -3.753   0.239  1.00  0.00     0.121 C 
ATOM      6  C   UNL     1      -0.619  -3.003   0.637  1.00  0.00     0.098 C 
ATOM      7  C   UNL     1      -0.947  -2.498  -0.747  1.00  0.00     0.026 C 
ATOM      8  C   UNL     1       0.365  -1.853  -1.192  1.00  0.00     0.003 C 
ATOM      9  C   UNL     1       1.450  -2.772  -0.634  1.00  0.00     0.017 C 
BRANCH   6  10
ATOM     10  N   UNL     1      -0.436  -1.935   1.647  1.00  0.00    -0.334 N 
ATOM     11  N   UNL     1      -1.760   0.077   1.298  1.00  0.00    -0.305 N 
ATOM     12  C   UNL     1      -1.038  -0.796   2.036  1.00  0.00     0.319 C 
ATOM     13  H   UNL     1      -2.548   0.446   1.759  1.00  0.00     0.171 HD
ATOM     14  O   UNL     1      -0.926  -0.525   3.240  1.00  0.00    -0.248 OA
ATOM     15  H   UNL     1       0.362  -2.110   2.195  1.00  0.00     0.165 HD
BRANCH  11  16
ATOM     16  C   UNL     1      -1.581   0.551  -0.021  1.00  0.00     0.082 A 
ATOM     17  C   UNL     1      -2.184   0.432  -2.359  1.00  0.00     0.121 A 
ATOM     18  C   UNL     1      -1.139   1.289  -2.696  1.00  0.00     0.049 A 
ATOM     19  C   UNL     1      -2.485   0.176  -1.018  1.00  0.00     0.075 A 
ATOM     20  C   UNL     1      -0.366   1.853  -1.679  1.00  0.00     0.045 A 
ATOM     21  C   UNL     1      -0.581   1.472  -0.350  1.00  0.00     0.147 A 
ATOM     22  F   UNL     1       0.207   1.988   0.603  1.00  0.00    -0.205 F 
BRANCH  17  23
ATOM     23  O   UNL     1      -2.932  -0.215  -3.307  1.00  0.00    -0.497 OA
ATOM     24  C   UNL     1      -2.133  -1.093  -4.109  1.00  0.00     0.278 C 
ENDBRANCH  17  23
ENDBRANCH  11  16
ENDBRANCH   6  10
ENDBRANCH   3   5
ENDBRANCH   2   3
ENDBRANCH   1   2
BRANCH   1  25
ATOM     25  C   UNL     1       0.249  -7.836   1.462  1.00  0.00     0.275 C 
BRANCH  25  26
ATOM     26  O   UNL     1       0.041  -7.790   0.028  1.00  0.00    -0.458 OA
BRANCH  26  27
ATOM     27  C   UNL     1      -0.985  -7.010  -0.389  1.00  0.00     0.338 C 
ATOM     28  O   UNL     1      -1.664  -6.258   0.289  1.00  0.00    -0.246 OA
BRANCH  27  29
ATOM     29  C   UNL     1      -1.193  -7.136  -1.845  1.00  0.00     0.060 A 
ATOM     30  C   UNL     1      -1.033  -6.006  -2.649  1.00  0.00     0.016 A 
ATOM     31  C   UNL     1      -1.708  -8.311  -2.393  1.00  0.00     0.016 A 
ATOM     32  C   UNL     1      -1.426  -6.024  -3.985  1.00  0.00     0.010 A 
ATOM     33  C   UNL     1      -2.067  -8.341  -3.749  1.00  0.00     0.010 A 
ATOM     34  C   UNL     1      -1.945  -7.193  -4.553  1.00  0.00    -0.014 A 
BRANCH  34  35
ATOM     35  C   UNL     1      -2.373  -7.205  -5.976  1.00  0.00     0.031 A 
ATOM     36  C   UNL     1      -3.824  -7.374  -6.335  1.00  0.00     0.074 A 
ATOM     37  C   UNL     1      -1.464  -7.042  -6.957  1.00  0.00     0.049 A 
ATOM     38  N   UNL     1      -4.367  -7.569  -7.510  1.00  0.00    -0.248 NA
ATOM     39  C   UNL     1      -4.790  -7.312  -5.228  1.00  0.00     0.031 C 
ATOM     40  C   UNL     1      -0.036  -6.795  -6.753  1.00  0.00     0.029 A 
ATOM     41  N   UNL     1      -1.608  -7.058  -8.323  1.00  0.00    -0.354 N 
ATOM     42  C   UNL     1      -5.731  -7.691  -7.282  1.00  0.00     0.074 A 
ATOM     43  C   UNL     1      -5.936  -7.545  -5.856  1.00  0.00     0.031 C 
ATOM     44  C   UNL     1       0.560  -6.664  -7.948  1.00  0.00     0.029 A 
ATOM     45  C   UNL     1      -0.425  -6.892  -9.001  1.00  0.00     0.049 A 
ATOM     46  H   UNL     1      -2.476  -7.177  -8.772  1.00  0.00     0.167 HD
ATOM     47  C   UNL     1      -6.720  -7.907  -8.182  1.00  0.00     0.037 A 
ATOM     48  C   UNL     1      -0.152  -6.959 -10.318  1.00  0.00     0.037 A 
ATOM     49  C   UNL     1      -6.521  -8.018  -9.604  1.00  0.00     0.049 A 
ATOM     50  C   UNL     1      -1.252  -7.275 -11.290  1.00  0.00     0.074 A 
ATOM     51  C   UNL     1      -7.468  -8.240 -10.590  1.00  0.00     0.029 A 
ATOM     52  N   UNL     1      -5.298  -7.902 -10.243  1.00  0.00    -0.354 N 
ATOM     53  N   UNL     1      -2.529  -7.457 -11.057  1.00  0.00    -0.248 NA
ATOM     54  C   UNL     1      -0.872  -7.421 -12.703  1.00  0.00     0.031 C 
ATOM     55  C   UNL     1      -6.811  -8.295 -11.823  1.00  0.00     0.029 A 
ATOM     56  C   UNL     1      -5.462  -8.065 -11.609  1.00  0.00     0.049 A 
ATOM     57  H   UNL     1      -4.439  -7.730  -9.794  1.00  0.00     0.167 HD
ATOM     58  C   UNL     1      -3.105  -7.731 -12.291  1.00  0.00     0.074 A 
ATOM     59  C   UNL     1      -2.043  -7.676 -13.273  1.00  0.00     0.031 C 
ATOM     60  C   UNL     1      -4.399  -8.008 -12.579  1.00  0.00     0.037 A 
BRANCH  47  61
ATOM     61  C   UNL     1      -8.117  -8.069  -7.660  1.00  0.00     0.057 A 
ATOM     62  C   UNL     1      -8.730  -9.329  -7.660  1.00  0.00     0.134 A 
ATOM     63  C   UNL     1      -8.879  -6.977  -7.230  1.00  0.00     0.134 A 
ATOM     64  F   UNL     1      -8.055 -10.415  -8.067  1.00  0.00    -0.206 F 
ATOM     65  C   UNL     1     -10.057  -9.495  -7.262  1.00  0.00     0.040 A 
ATOM     66  C   UNL     1     -10.201  -7.133  -6.810  1.00  0.00     0.040 A 
ATOM     67  F   UNL     1      -8.345  -5.747  -7.197  1.00  0.00    -0.206 F 
ATOM     68  C   UNL     1     -10.796  -8.394  -6.834  1.00  0.00     0.006 A 
ENDBRANCH  47  61
BRANCH  48  69
ATOM     69  C   UNL     1       1.242  -6.758 -10.788  1.00  0.00     0.057 A 
ATOM     70  C   UNL     1       2.245  -7.698 -10.521  1.00  0.00     0.134 A 
ATOM     71  C   UNL     1       1.605  -5.607 -11.494  1.00  0.00     0.134 A 
ATOM     72  F   UNL     1       1.958  -8.822  -9.848  1.00  0.00    -0.206 F 
ATOM     73  C   UNL     1       3.566  -7.488 -10.916  1.00  0.00     0.040 A 
ATOM     74  C   UNL     1       2.918  -5.395 -11.917  1.00  0.00     0.040 A 
ATOM     75  F   UNL     1       0.683  -4.682 -11.799  1.00  0.00    -0.206 F 
ATOM     76  C   UNL     1       3.905  -6.334 -11.619  1.00  0.00     0.006 A 
ENDBRANCH  48  69
BRANCH  60  77
ATOM     77  C   UNL     1      -4.754  -8.258 -14.013  1.00  0.00     0.057 A 
ATOM     78  C   UNL     1      -5.467  -7.305 -14.750  1.00  0.00     0.134 A 
ATOM     79  C   UNL     1      -4.459  -9.475 -14.638  1.00  0.00     0.134 A 
ATOM     80  F   UNL     1      -5.787  -6.122 -14.204  1.00  0.00    -0.206 F 
ATOM     81  C   UNL     1      -5.888  -7.559 -16.056  1.00  0.00     0.040 A 
ATOM     82  C   UNL     1      -4.858  -9.734 -15.951  1.00  0.00     0.040 A 
ATOM     83  F   UNL     1      -3.769 -10.424 -13.988  1.00  0.00    -0.206 F 
ATOM     84  C   UNL     1      -5.583  -8.778 -16.660  1.00  0.00     0.006 A 
ENDBRANCH  60  77
ENDBRANCH  34  35
ENDBRANCH  27  29
ENDBRANCH  26  27
ENDBRANCH  25  26
ENDBRANCH   1  25
TORSDOF 14
