REMARK SMILES CC[C@@H]1CCC[C@](CCCCCO)(C(=O)OCCOC(=O)c2ccc(-c3c4nc(c(-c5c(F)cccc5F)c5ccc([nH]5)c(-c5c(F)cccc5F)c5nc(c(-c6c(F)cccc6F)c6ccc3[nH]6)C=C5)C=C4)cc2)C1
REMARK SMILES IDX 14 1 15 2 7 3 3 4 4 5 76 6 5 7 6 8 2 9 1 10 8 11 9 12 10 13
REMARK SMILES IDX 11 14 12 15 13 16 16 18 17 19 18 20 19 21 20 22 21 23 22 24
REMARK SMILES IDX 23 25 75 26 24 27 74 28 25 29 26 30 27 31 68 32 28 33 73 34
REMARK SMILES IDX 67 35 69 36 29 37 72 38 66 39 65 40 30 42 56 43 39 44 55 45
REMARK SMILES IDX 40 46 43 47 54 48 70 49 41 50 42 51 53 53 71 54 44 55 31 56
REMARK SMILES IDX 32 57 37 58 33 59 34 60 36 61 38 62 35 63 57 64 58 65 63 66
REMARK SMILES IDX 59 67 60 68 62 69 64 70 61 71 45 72 46 73 51 74 47 75 48 76
REMARK SMILES IDX 50 77 52 78 49 79
REMARK H PARENT 13 17 69 41 43 52
REMARK Flexibility Score: inf
ROOT
ATOM      1  C   UNL     1       4.204   0.090  -4.423  1.00  0.00     0.312 C 
ATOM      2  O   UNL     1       4.973  -0.831  -4.172  1.00  0.00    -0.252 OA
ENDROOT
BRANCH   1   3
ATOM      3  C   UNL     1       2.667  -0.057  -4.413  1.00  0.00     0.068 C 
ATOM      4  C   UNL     1       0.644   0.313  -2.819  1.00  0.00    -0.010 C 
ATOM      5  C   UNL     1       0.468  -1.202  -2.668  1.00  0.00     0.003 C 
ATOM      6  C   UNL     1       2.117   0.647  -3.134  1.00  0.00     0.022 C 
ATOM      7  C   UNL     1       0.921  -1.932  -3.926  1.00  0.00     0.001 C 
ATOM      8  C   UNL     1       2.366  -1.584  -4.282  1.00  0.00     0.019 C 
BRANCH   4   9
ATOM      9  C   UNL     1       0.096   1.088  -1.602  1.00  0.00     0.000 C 
ATOM     10  C   UNL     1       0.659   0.698  -0.243  1.00  0.00     0.004 C 
ENDBRANCH   4   9
BRANCH   3  11
ATOM     11  C   UNL     1       1.967   0.522  -5.692  1.00  0.00     0.019 C 
BRANCH  11  12
ATOM     12  C   UNL     1       2.783   0.897  -6.941  1.00  0.00     0.001 C 
BRANCH  12  13
ATOM     13  C   UNL     1       3.641  -0.197  -7.576  1.00  0.00     0.002 C 
BRANCH  13  14
ATOM     14  C   UNL     1       2.861  -1.326  -8.250  1.00  0.00     0.028 C 
BRANCH  14  15
ATOM     15  C   UNL     1       1.998  -0.892  -9.429  1.00  0.00     0.156 C 
BRANCH  15  16
ATOM     16  O   UNL     1       2.775  -0.242 -10.424  1.00  0.00    -0.396 OA
ATOM     17  H   UNL     1       3.185   0.552 -10.047  1.00  0.00     0.210 HD
ENDBRANCH  15  16
ENDBRANCH  14  15
ENDBRANCH  13  14
ENDBRANCH  12  13
ENDBRANCH  11  12
ENDBRANCH   3  11
ENDBRANCH   1   3
BRANCH   1  18
ATOM     18  O   UNL     1       4.616   1.342  -4.761  1.00  0.00    -0.462 OA
BRANCH  18  19
ATOM     19  C   UNL     1       6.009   1.458  -5.137  1.00  0.00     0.274 C 
BRANCH  19  20
ATOM     20  C   UNL     1       6.753   2.378  -4.181  1.00  0.00     0.275 C 
BRANCH  20  21
ATOM     21  O   UNL     1       6.642   1.831  -2.861  1.00  0.00    -0.458 OA
BRANCH  21  22
ATOM     22  C   UNL     1       6.188   2.679  -1.916  1.00  0.00     0.338 C 
ATOM     23  O   UNL     1       6.046   3.890  -2.008  1.00  0.00    -0.246 OA
BRANCH  22  24
ATOM     24  C   UNL     1       5.804   1.914  -0.718  1.00  0.00     0.060 A 
ATOM     25  C   UNL     1       5.067   0.737  -0.849  1.00  0.00     0.016 A 
ATOM     26  C   UNL     1       6.042   2.452   0.545  1.00  0.00     0.016 A 
ATOM     27  C   UNL     1       4.455   0.172   0.267  1.00  0.00     0.010 A 
ATOM     28  C   UNL     1       5.512   1.822   1.674  1.00  0.00     0.010 A 
ATOM     29  C   UNL     1       4.656   0.713   1.543  1.00  0.00    -0.014 A 
BRANCH  29  30
ATOM     30  C   UNL     1       3.896   0.206   2.721  1.00  0.00     0.031 A 
ATOM     31  C   UNL     1       3.067   1.164   3.541  1.00  0.00     0.074 A 
ATOM     32  C   UNL     1       3.905  -1.098   3.061  1.00  0.00     0.049 A 
ATOM     33  N   UNL     1       2.560   1.009   4.738  1.00  0.00    -0.248 NA
ATOM     34  C   UNL     1       2.796   2.483   2.944  1.00  0.00     0.031 C 
ATOM     35  C   UNL     1       4.597  -2.165   2.337  1.00  0.00     0.029 A 
ATOM     36  N   UNL     1       3.295  -1.749   4.105  1.00  0.00    -0.354 N 
ATOM     37  C   UNL     1       2.007   2.238   5.076  1.00  0.00     0.074 A 
ATOM     38  C   UNL     1       2.209   3.120   3.947  1.00  0.00     0.031 C 
ATOM     39  C   UNL     1       4.324  -3.342   2.923  1.00  0.00     0.029 A 
ATOM     40  C   UNL     1       3.523  -3.103   4.118  1.00  0.00     0.049 A 
ATOM     41  H   UNL     1       2.745  -1.288   4.779  1.00  0.00     0.167 HD
ATOM     42  C   UNL     1       1.401   2.600   6.232  1.00  0.00     0.037 A 
ATOM     43  C   UNL     1       3.168  -4.043   5.014  1.00  0.00     0.037 A 
ATOM     44  C   UNL     1       1.106   1.693   7.310  1.00  0.00     0.049 A 
ATOM     45  C   UNL     1       2.442  -3.635   6.262  1.00  0.00     0.074 A 
ATOM     46  C   UNL     1       0.503   1.959   8.527  1.00  0.00     0.029 A 
ATOM     47  N   UNL     1       1.352   0.329   7.275  1.00  0.00    -0.354 N 
ATOM     48  N   UNL     1       2.055  -2.442   6.639  1.00  0.00    -0.248 NA
ATOM     49  C   UNL     1       2.134  -4.702   7.225  1.00  0.00     0.031 C 
ATOM     50  C   UNL     1       0.387   0.754   9.231  1.00  0.00     0.029 A 
ATOM     51  C   UNL     1       0.897  -0.263   8.441  1.00  0.00     0.049 A 
ATOM     52  H   UNL     1       1.786  -0.148   6.532  1.00  0.00     0.167 HD
ATOM     53  C   UNL     1       1.473  -2.609   7.888  1.00  0.00     0.074 A 
ATOM     54  C   UNL     1       1.523  -4.026   8.188  1.00  0.00     0.031 C 
ATOM     55  C   UNL     1       0.960  -1.672   8.721  1.00  0.00     0.037 A 
BRANCH  42  56
ATOM     56  C   UNL     1       1.056   4.048   6.410  1.00  0.00     0.057 A 
ATOM     57  C   UNL     1      -0.036   4.644   5.771  1.00  0.00     0.134 A 
ATOM     58  C   UNL     1       1.825   4.851   7.264  1.00  0.00     0.134 A 
ATOM     59  F   UNL     1      -0.799   3.934   4.926  1.00  0.00    -0.206 F 
ATOM     60  C   UNL     1      -0.344   5.993   5.963  1.00  0.00     0.040 A 
ATOM     61  C   UNL     1       1.515   6.194   7.480  1.00  0.00     0.040 A 
ATOM     62  F   UNL     1       2.885   4.340   7.909  1.00  0.00    -0.206 F 
ATOM     63  C   UNL     1       0.429   6.770   6.824  1.00  0.00     0.006 A 
ENDBRANCH  42  56
BRANCH  43  64
ATOM     64  C   UNL     1       3.538  -5.459   4.779  1.00  0.00     0.057 A 
ATOM     65  C   UNL     1       2.569  -6.407   4.435  1.00  0.00     0.134 A 
ATOM     66  C   UNL     1       4.865  -5.894   4.873  1.00  0.00     0.134 A 
ATOM     67  F   UNL     1       1.278  -6.054   4.354  1.00  0.00    -0.206 F 
ATOM     68  C   UNL     1       2.905  -7.740   4.193  1.00  0.00     0.040 A 
ATOM     69  C   UNL     1       5.220  -7.218   4.611  1.00  0.00     0.040 A 
ATOM     70  F   UNL     1       5.839  -5.031   5.198  1.00  0.00    -0.206 F 
ATOM     71  C   UNL     1       4.237  -8.146   4.272  1.00  0.00     0.006 A 
ENDBRANCH  43  64
BRANCH  55  72
ATOM     72  C   UNL     1       0.411  -2.157  10.026  1.00  0.00     0.057 A 
ATOM     73  C   UNL     1       1.256  -2.499  11.089  1.00  0.00     0.134 A 
ATOM     74  C   UNL     1      -0.969  -2.269  10.227  1.00  0.00     0.134 A 
ATOM     75  F   UNL     1       2.588  -2.424  10.951  1.00  0.00    -0.206 F 
ATOM     76  C   UNL     1       0.745  -2.957  12.304  1.00  0.00     0.040 A 
ATOM     77  C   UNL     1      -1.492  -2.710  11.442  1.00  0.00     0.040 A 
ATOM     78  F   UNL     1      -1.827  -1.952   9.246  1.00  0.00    -0.206 F 
ATOM     79  C   UNL     1      -0.634  -3.061  12.484  1.00  0.00     0.006 A 
ENDBRANCH  55  72
ENDBRANCH  29  30
ENDBRANCH  22  24
ENDBRANCH  21  22
ENDBRANCH  20  21
ENDBRANCH  19  20
ENDBRANCH  18  19
ENDBRANCH   1  18
TORSDOF 18
