REMARK SMILES Cc1ccc(OCC(=O)NNC(=O)[C@H]2CCCC[C@@H]2C(=O)OCCOC(=O)c2ccc(-c3c4nc(c(-c5c(F)cccc5F)c5ccc([nH]5)c(-c5c(F)cccc5F)c5nc(c(-c6c(F)cccc6F)c6ccc3[nH]6)C=C5)C=C4)cc2)cc1
REMARK SMILES IDX 22 1 20 2 21 3 19 4 14 5 15 6 16 7 18 8 17 9 12 10 11 11
REMARK SMILES IDX 13 13 10 14 8 15 9 16 7 18 6 19 5 20 1 21 2 22 3 23 83 24
REMARK SMILES IDX 4 25 82 26 23 27 24 28 25 29 26 30 27 31 28 32 29 33 81 34
REMARK SMILES IDX 30 35 80 36 31 37 32 38 33 39 74 40 34 41 79 42 73 43 75 44
REMARK SMILES IDX 35 45 78 46 72 47 71 48 36 50 62 51 45 52 61 53 46 54 49 55
REMARK SMILES IDX 60 56 76 57 47 58 48 59 59 61 77 62 50 63 37 64 38 65 43 66
REMARK SMILES IDX 39 67 40 68 42 69 44 70 41 71 63 72 64 73 69 74 65 75 66 76
REMARK SMILES IDX 68 77 70 78 67 79 51 80 52 81 57 82 53 83 54 84 56 85 58 86
REMARK SMILES IDX 55 87
REMARK H PARENT 11 12 10 17 75 49 49 60
REMARK Flexibility Score: inf
ROOT
ATOM      1  O   UNL     1      -4.789   4.247   4.485  1.00  0.00    -0.462 OA
ENDROOT
BRANCH   1   2
ATOM      2  C   UNL     1      -4.974   3.274   5.425  1.00  0.00     0.309 C 
ATOM      3  O   UNL     1      -6.071   2.980   5.887  1.00  0.00    -0.252 OA
BRANCH   2   4
ATOM      4  C   UNL     1      -3.666   2.663   5.909  1.00  0.00     0.111 C 
ATOM      5  C   UNL     1      -3.679   1.121   5.852  1.00  0.00     0.094 C 
ATOM      6  C   UNL     1      -4.637   0.494   6.885  1.00  0.00     0.014 C 
ATOM      7  C   UNL     1      -4.503   1.061   8.300  1.00  0.00     0.001 C 
ATOM      8  C   UNL     1      -3.422   3.170   7.337  1.00  0.00     0.016 C 
ATOM      9  C   UNL     1      -4.396   2.580   8.360  1.00  0.00     0.001 C 
BRANCH   5  10
ATOM     10  C   UNL     1      -2.268   0.559   6.068  1.00  0.00     0.242 C 
ATOM     11  N   UNL     1      -1.411   0.409   5.016  1.00  0.00    -0.267 N 
ATOM     12  H   UNL     1      -0.548  -0.024   5.208  1.00  0.00     0.191 HD
ATOM     13  O   UNL     1      -1.848   0.234   7.180  1.00  0.00    -0.273 OA
BRANCH  11  14
ATOM     14  N   UNL     1      -1.632   0.802   3.709  1.00  0.00    -0.265 N 
ATOM     15  C   UNL     1      -0.616   1.220   2.878  1.00  0.00     0.276 C 
ATOM     16  O   UNL     1      -0.856   1.464   1.695  1.00  0.00    -0.269 OA
ATOM     17  H   UNL     1      -2.552   0.782   3.358  1.00  0.00     0.191 HD
BRANCH  15  18
ATOM     18  C   UNL     1       0.813   1.289   3.438  1.00  0.00     0.331 C 
BRANCH  18  19
ATOM     19  O   UNL     1       0.959   1.886   4.716  1.00  0.00    -0.484 OA
BRANCH  19  20
ATOM     20  C   UNL     1       0.833   3.244   4.804  1.00  0.00     0.120 A 
ATOM     21  C   UNL     1       0.583   7.492   5.516  1.00  0.00     0.044 C 
ATOM     22  C   UNL     1       0.647   6.015   5.267  1.00  0.00    -0.051 A 
ATOM     23  C   UNL     1       0.849   5.131   6.332  1.00  0.00     0.007 A 
ATOM     24  C   UNL     1       0.534   5.499   3.972  1.00  0.00     0.007 A 
ATOM     25  C   UNL     1       0.939   3.757   6.099  1.00  0.00     0.047 A 
ATOM     26  C   UNL     1       0.625   4.122   3.741  1.00  0.00     0.047 A 
ENDBRANCH  19  20
ENDBRANCH  18  19
ENDBRANCH  15  18
ENDBRANCH  11  14
ENDBRANCH   5  10
ENDBRANCH   2   4
ENDBRANCH   1   2
BRANCH   1  27
ATOM     27  C   UNL     1      -5.995   4.965   4.174  1.00  0.00     0.274 C 
BRANCH  27  28
ATOM     28  C   UNL     1      -6.006   5.564   2.765  1.00  0.00     0.275 C 
BRANCH  28  29
ATOM     29  O   UNL     1      -5.318   4.839   1.713  1.00  0.00    -0.458 OA
BRANCH  29  30
ATOM     30  C   UNL     1      -5.501   3.561   1.308  1.00  0.00     0.338 C 
ATOM     31  O   UNL     1      -4.843   3.048   0.413  1.00  0.00    -0.246 OA
BRANCH  30  32
ATOM     32  C   UNL     1      -6.458   2.747   2.059  1.00  0.00     0.060 A 
ATOM     33  C   UNL     1      -5.970   1.624   2.738  1.00  0.00     0.016 A 
ATOM     34  C   UNL     1      -7.799   3.121   2.139  1.00  0.00     0.016 A 
ATOM     35  C   UNL     1      -6.808   0.934   3.607  1.00  0.00     0.010 A 
ATOM     36  C   UNL     1      -8.622   2.454   3.031  1.00  0.00     0.010 A 
ATOM     37  C   UNL     1      -8.122   1.379   3.782  1.00  0.00    -0.014 A 
BRANCH  37  38
ATOM     38  C   UNL     1      -9.097   0.603   4.539  1.00  0.00     0.031 A 
ATOM     39  C   UNL     1      -9.198   0.599   6.015  1.00  0.00     0.074 A 
ATOM     40  C   UNL     1      -9.840  -0.237   3.792  1.00  0.00     0.049 A 
ATOM     41  N   UNL     1      -9.551  -0.443   6.696  1.00  0.00    -0.248 NA
ATOM     42  C   UNL     1      -8.873   1.749   6.857  1.00  0.00     0.031 C 
ATOM     43  C   UNL     1     -10.968  -1.064   4.184  1.00  0.00     0.029 A 
ATOM     44  N   UNL     1      -9.487  -0.690   2.513  1.00  0.00    -0.354 N 
ATOM     45  C   UNL     1      -9.711  -0.054   8.006  1.00  0.00     0.074 A 
ATOM     46  C   UNL     1      -9.189   1.291   8.078  1.00  0.00     0.031 C 
ATOM     47  C   UNL     1     -11.060  -2.084   3.312  1.00  0.00     0.029 A 
ATOM     48  C   UNL     1      -9.875  -2.031   2.460  1.00  0.00     0.049 A 
ATOM     49  H   UNL     1      -9.055  -0.169   1.798  1.00  0.00     0.167 HD
ATOM     50  C   UNL     1     -10.404  -0.838   8.878  1.00  0.00     0.037 A 
ATOM     51  C   UNL     1      -8.941  -3.020   2.343  1.00  0.00     0.037 A 
ATOM     52  C   UNL     1     -10.944  -2.020   8.231  1.00  0.00     0.049 A 
ATOM     53  C   UNL     1      -9.037  -4.068   3.421  1.00  0.00     0.074 A 
ATOM     54  C   UNL     1     -12.157  -2.264   7.609  1.00  0.00     0.029 A 
ATOM     55  N   UNL     1     -10.102  -3.053   7.866  1.00  0.00    -0.354 N 
ATOM     56  N   UNL     1      -9.538  -3.848   4.603  1.00  0.00    -0.248 NA
ATOM     57  C   UNL     1      -8.509  -5.423   3.272  1.00  0.00     0.031 C 
ATOM     58  C   UNL     1     -12.043  -3.466   6.870  1.00  0.00     0.029 A 
ATOM     59  C   UNL     1     -10.763  -3.951   7.050  1.00  0.00     0.049 A 
ATOM     60  H   UNL     1      -9.162  -3.138   8.148  1.00  0.00     0.167 HD
ATOM     61  C   UNL     1      -9.494  -5.009   5.324  1.00  0.00     0.074 A 
ATOM     62  C   UNL     1      -8.786  -5.948   4.477  1.00  0.00     0.031 C 
ATOM     63  C   UNL     1     -10.065  -5.118   6.555  1.00  0.00     0.037 A 
BRANCH  50  64
ATOM     64  C   UNL     1     -10.838  -0.366  10.238  1.00  0.00     0.057 A 
ATOM     65  C   UNL     1     -12.146  -0.597  10.705  1.00  0.00     0.134 A 
ATOM     66  C   UNL     1     -10.004   0.339  11.120  1.00  0.00     0.134 A 
ATOM     67  F   UNL     1     -13.035  -1.298   9.990  1.00  0.00    -0.206 F 
ATOM     68  C   UNL     1     -12.617  -0.094  11.922  1.00  0.00     0.040 A 
ATOM     69  C   UNL     1     -10.471   0.871  12.333  1.00  0.00     0.040 A 
ATOM     70  F   UNL     1      -8.707   0.535  10.835  1.00  0.00    -0.206 F 
ATOM     71  C   UNL     1     -11.787   0.666  12.732  1.00  0.00     0.006 A 
ENDBRANCH  50  64
BRANCH  51  72
ATOM     72  C   UNL     1      -7.653  -2.641   1.692  1.00  0.00     0.057 A 
ATOM     73  C   UNL     1      -7.648  -2.029   0.425  1.00  0.00     0.134 A 
ATOM     74  C   UNL     1      -6.431  -2.678   2.373  1.00  0.00     0.134 A 
ATOM     75  F   UNL     1      -8.778  -1.957  -0.298  1.00  0.00    -0.206 F 
ATOM     76  C   UNL     1      -6.505  -1.421  -0.104  1.00  0.00     0.040 A 
ATOM     77  C   UNL     1      -5.275  -2.089   1.846  1.00  0.00     0.040 A 
ATOM     78  F   UNL     1      -6.339  -3.231   3.590  1.00  0.00    -0.206 F 
ATOM     79  C   UNL     1      -5.315  -1.438   0.616  1.00  0.00     0.006 A 
ENDBRANCH  51  72
BRANCH  63  80
ATOM     80  C   UNL     1     -10.081  -6.365   7.377  1.00  0.00     0.057 A 
ATOM     81  C   UNL     1     -10.375  -7.628   6.852  1.00  0.00     0.134 A 
ATOM     82  C   UNL     1      -9.929  -6.294   8.775  1.00  0.00     0.134 A 
ATOM     83  F   UNL     1     -10.624  -7.794   5.545  1.00  0.00    -0.206 F 
ATOM     84  C   UNL     1     -10.457  -8.765   7.663  1.00  0.00     0.040 A 
ATOM     85  C   UNL     1     -10.056  -7.412   9.600  1.00  0.00     0.040 A 
ATOM     86  F   UNL     1      -9.643  -5.136   9.390  1.00  0.00    -0.206 F 
ATOM     87  C   UNL     1     -10.306  -8.657   9.042  1.00  0.00     0.006 A 
ENDBRANCH  63  80
ENDBRANCH  37  38
ENDBRANCH  30  32
ENDBRANCH  29  30
ENDBRANCH  28  29
ENDBRANCH  27  28
ENDBRANCH   1  27
TORSDOF 16
