REMARK SMILES CC1(C)C(NC(=O)N[C@]2(C(=O)OCCOC(=O)c3ccc(-c4c5nc(c(-c6c(F)cccc6F)c6ccc([nH]6)c(-c6c(F)cccc6F)c6nc(c(-c7c(F)cccc7F)c7ccc4[nH]7)C=C6)C=C5)cc3)CC[C@@H](C)CC2)C1(C)C
REMARK SMILES IDX 13 1 12 2 10 3 11 4 9 5 75 6 74 7 76 8 73 9 77 10 72 11 8 12
REMARK SMILES IDX 6 13 7 15 5 16 4 18 2 19 78 20 1 21 3 22 79 23 80 24 14 25
REMARK SMILES IDX 15 26 16 27 17 28 18 29 19 30 71 31 20 32 70 33 21 34 22 35
REMARK SMILES IDX 23 36 64 37 24 38 69 39 63 40 65 41 25 42 68 43 62 44 61 45
REMARK SMILES IDX 26 47 52 48 35 49 51 50 36 51 39 52 50 53 66 54 37 55 38 56
REMARK SMILES IDX 49 58 67 59 40 60 27 61 28 62 33 63 29 64 30 65 32 66 34 67
REMARK SMILES IDX 31 68 53 69 54 70 59 71 55 72 56 73 58 74 60 75 57 76 41 77
REMARK SMILES IDX 42 78 47 79 43 80 44 81 46 82 48 83 45 84
REMARK H PARENT 8 14 5 17 65 46 39 57
REMARK Flexibility Score: inf
ROOT
ATOM      1  C   UNL     1      -0.824   2.699  -3.339  1.00  0.00     0.274 C 
ENDROOT
BRANCH   1   2
ATOM      2  O   UNL     1      -1.401   2.292  -2.040  1.00  0.00    -0.460 OA
BRANCH   2   3
ATOM      3  C   UNL     1      -1.019   1.204  -1.325  1.00  0.00     0.332 C 
ATOM      4  O   UNL     1       0.046   0.639  -1.551  1.00  0.00    -0.249 OA
BRANCH   3   5
ATOM      5  C   UNL     1      -1.986   0.828  -0.114  1.00  0.00     0.139 C 
ATOM      6  C   UNL     1       2.034   0.518   0.726  1.00  0.00     0.007 C 
ATOM      7  C   UNL     1       0.633   0.623   1.363  1.00  0.00    -0.014 C 
ATOM      8  C   UNL     1      -0.172  -0.643   0.985  1.00  0.00     0.006 C 
ATOM      9  C   UNL     1      -0.022   1.996   1.063  1.00  0.00     0.006 C 
ATOM     10  C   UNL     1      -1.655  -0.448   0.697  1.00  0.00     0.041 C 
ATOM     11  C   UNL     1      -1.561   1.959   0.904  1.00  0.00     0.041 C 
BRANCH   5  12
ATOM     12  N   UNL     1      -3.506   0.851  -0.316  1.00  0.00    -0.322 N 
ATOM     13  C   UNL     1      -4.556   0.301  -0.957  1.00  0.00     0.315 C 
ATOM     14  H   UNL     1      -3.862   1.563   0.263  1.00  0.00     0.166 HD
ATOM     15  O   UNL     1      -5.660   0.602  -0.476  1.00  0.00    -0.249 OA
ATOM     16  N   UNL     1      -4.620  -0.498  -2.044  1.00  0.00    -0.334 N 
ATOM     17  H   UNL     1      -5.512  -0.496  -2.461  1.00  0.00     0.165 HD
BRANCH  16  18
ATOM     18  C   UNL     1      -3.706  -1.339  -2.724  1.00  0.00     0.096 C 
ATOM     19  C   UNL     1      -3.563  -2.041  -4.097  1.00  0.00    -0.007 C 
ATOM     20  C   UNL     1      -3.091  -0.654  -3.916  1.00  0.00    -0.007 C 
ATOM     21  C   UNL     1      -2.401  -2.966  -4.487  1.00  0.00     0.014 C 
ATOM     22  C   UNL     1      -4.795  -2.270  -4.911  1.00  0.00     0.014 C 
ATOM     23  C   UNL     1      -3.577   0.354  -4.935  1.00  0.00     0.014 C 
ATOM     24  C   UNL     1      -1.808  -0.300  -3.414  1.00  0.00     0.014 C 
ENDBRANCH  16  18
ENDBRANCH   5  12
ENDBRANCH   3   5
ENDBRANCH   2   3
ENDBRANCH   1   2
BRANCH   1  25
ATOM     25  C   UNL     1       0.239   1.972  -4.303  1.00  0.00     0.275 C 
BRANCH  25  26
ATOM     26  O   UNL     1       0.549   0.560  -4.108  1.00  0.00    -0.458 OA
BRANCH  26  27
ATOM     27  C   UNL     1       1.784  -0.010  -4.266  1.00  0.00     0.338 C 
ATOM     28  O   UNL     1       2.736   0.561  -4.742  1.00  0.00    -0.246 OA
BRANCH  27  29
ATOM     29  C   UNL     1       1.905  -1.426  -3.642  1.00  0.00     0.060 A 
ATOM     30  C   UNL     1       0.931  -2.070  -2.882  1.00  0.00     0.016 A 
ATOM     31  C   UNL     1       3.130  -2.095  -3.669  1.00  0.00     0.016 A 
ATOM     32  C   UNL     1       1.191  -3.150  -2.002  1.00  0.00     0.010 A 
ATOM     33  C   UNL     1       3.377  -3.254  -2.864  1.00  0.00     0.010 A 
ATOM     34  C   UNL     1       2.432  -3.774  -1.951  1.00  0.00    -0.014 A 
BRANCH  34  35
ATOM     35  C   UNL     1       2.756  -4.883  -0.951  1.00  0.00     0.031 A 
ATOM     36  C   UNL     1       4.054  -4.835  -0.157  1.00  0.00     0.074 A 
ATOM     37  C   UNL     1       1.940  -5.931  -0.662  1.00  0.00     0.049 A 
ATOM     38  N   UNL     1       4.686  -5.790   0.488  1.00  0.00    -0.248 NA
ATOM     39  C   UNL     1       4.722  -3.528  -0.077  1.00  0.00     0.031 C 
ATOM     40  C   UNL     1       0.584  -6.142  -1.166  1.00  0.00     0.029 A 
ATOM     41  N   UNL     1       2.151  -7.048   0.138  1.00  0.00    -0.354 N 
ATOM     42  C   UNL     1       5.866  -5.224   0.966  1.00  0.00     0.074 A 
ATOM     43  C   UNL     1       5.847  -3.834   0.555  1.00  0.00     0.031 C 
ATOM     44  C   UNL     1       0.087  -7.286  -0.666  1.00  0.00     0.029 A 
ATOM     45  C   UNL     1       1.123  -7.969   0.101  1.00  0.00     0.049 A 
ATOM     46  H   UNL     1       2.962  -7.172   0.683  1.00  0.00     0.167 HD
ATOM     47  C   UNL     1       6.880  -5.799   1.665  1.00  0.00     0.037 A 
ATOM     48  C   UNL     1       1.021  -9.242   0.550  1.00  0.00     0.037 A 
ATOM     49  C   UNL     1       6.888  -7.158   2.156  1.00  0.00     0.049 A 
ATOM     50  C   UNL     1       2.189  -9.907   1.233  1.00  0.00     0.074 A 
ATOM     51  C   UNL     1       7.884  -7.814   2.865  1.00  0.00     0.029 A 
ATOM     52  N   UNL     1       5.848  -8.062   2.016  1.00  0.00    -0.354 N 
ATOM     53  N   UNL     1       3.357  -9.406   1.551  1.00  0.00    -0.248 NA
ATOM     54  C   UNL     1       2.032 -11.326   1.597  1.00  0.00     0.031 C 
ATOM     55  C   UNL     1       7.470  -9.129   3.104  1.00  0.00     0.029 A 
ATOM     56  C   UNL     1       6.189  -9.275   2.602  1.00  0.00     0.049 A 
ATOM     57  H   UNL     1       4.993  -7.874   1.566  1.00  0.00     0.167 HD
ATOM     58  C   UNL     1       4.061 -10.438   2.163  1.00  0.00     0.074 A 
ATOM     59  C   UNL     1       3.183 -11.586   2.199  1.00  0.00     0.031 C 
ATOM     60  C   UNL     1       5.329 -10.429   2.644  1.00  0.00     0.037 A 
BRANCH  47  61
ATOM     61  C   UNL     1       8.124  -4.981   1.887  1.00  0.00     0.057 A 
ATOM     62  C   UNL     1       8.179  -3.906   2.783  1.00  0.00     0.134 A 
ATOM     63  C   UNL     1       9.309  -5.317   1.214  1.00  0.00     0.134 A 
ATOM     64  F   UNL     1       7.083  -3.525   3.455  1.00  0.00    -0.206 F 
ATOM     65  C   UNL     1       9.356  -3.178   2.977  1.00  0.00     0.040 A 
ATOM     66  C   UNL     1      10.498  -4.618   1.425  1.00  0.00     0.040 A 
ATOM     67  F   UNL     1       9.335  -6.346   0.353  1.00  0.00    -0.206 F 
ATOM     68  C   UNL     1      10.522  -3.538   2.303  1.00  0.00     0.006 A 
ENDBRANCH  47  61
BRANCH  48  69
ATOM     69  C   UNL     1      -0.214 -10.040   0.282  1.00  0.00     0.057 A 
ATOM     70  C   UNL     1      -1.033 -10.500   1.323  1.00  0.00     0.134 A 
ATOM     71  C   UNL     1      -0.575 -10.411  -1.021  1.00  0.00     0.134 A 
ATOM     72  F   UNL     1      -0.719 -10.230   2.599  1.00  0.00    -0.206 F 
ATOM     73  C   UNL     1      -2.157 -11.295   1.079  1.00  0.00     0.040 A 
ATOM     74  C   UNL     1      -1.716 -11.174  -1.282  1.00  0.00     0.040 A 
ATOM     75  F   UNL     1       0.173 -10.028  -2.066  1.00  0.00    -0.206 F 
ATOM     76  C   UNL     1      -2.507 -11.624  -0.229  1.00  0.00     0.006 A 
ENDBRANCH  48  69
BRANCH  60  77
ATOM     77  C   UNL     1       5.832 -11.689   3.294  1.00  0.00     0.057 A 
ATOM     78  C   UNL     1       6.096 -12.854   2.559  1.00  0.00     0.134 A 
ATOM     79  C   UNL     1       6.048 -11.744   4.678  1.00  0.00     0.134 A 
ATOM     80  F   UNL     1       5.900 -12.879   1.232  1.00  0.00    -0.206 F 
ATOM     81  C   UNL     1       6.516 -14.033   3.180  1.00  0.00     0.040 A 
ATOM     82  C   UNL     1       6.497 -12.908   5.306  1.00  0.00     0.040 A 
ATOM     83  F   UNL     1       5.827 -10.666   5.445  1.00  0.00    -0.206 F 
ATOM     84  C   UNL     1       6.720 -14.062   4.558  1.00  0.00     0.006 A 
ENDBRANCH  60  77
ENDBRANCH  34  35
ENDBRANCH  27  29
ENDBRANCH  26  27
ENDBRANCH  25  26
ENDBRANCH   1  25
TORSDOF 13
