REMARK SMILES CCC[C@]1(C(=O)OCCOC(=O)c2ccc(-c3c4nc(c(-c5c(F)cccc5F)c5ccc([nH]5)c(-c5c(F)cccc5F)c5nc(c(-c6c(F)cccc6F)c6ccc3[nH]6)C=C5)C=C4)cc2)CCCN(C(=O)N[C@H]2CCOC2)C1
REMARK SMILES IDX 8 1 7 2 5 3 6 4 4 5 67 6 79 7 68 8 70 9 69 10 3 11 2 12 1 13
REMARK SMILES IDX 71 14 72 15 73 16 74 18 75 19 78 20 76 21 77 22 9 23 10 24
REMARK SMILES IDX 11 25 12 26 13 27 14 28 66 29 15 30 65 31 16 32 17 33 18 34
REMARK SMILES IDX 59 35 19 36 64 37 58 38 60 39 20 40 63 41 57 42 56 43 21 45
REMARK SMILES IDX 47 46 30 47 46 48 31 49 34 50 45 51 61 52 32 53 33 54 44 56
REMARK SMILES IDX 62 57 35 58 22 59 23 60 28 61 24 62 25 63 27 64 29 65 26 66
REMARK SMILES IDX 48 67 49 68 54 69 50 70 51 71 53 72 55 73 52 74 36 75 37 76
REMARK SMILES IDX 42 77 38 78 39 79 41 80 43 81 40 82
REMARK H PARENT 73 17 60 44 34 55
REMARK Flexibility Score: inf
ROOT
ATOM      1  C   UNL     1      -8.603  -3.373  -6.898  1.00  0.00     0.274 C 
ENDROOT
BRANCH   1   2
ATOM      2  O   UNL     1      -7.175  -3.230  -6.854  1.00  0.00    -0.462 OA
BRANCH   2   3
ATOM      3  C   UNL     1      -6.431  -4.134  -7.546  1.00  0.00     0.314 C 
ATOM      4  O   UNL     1      -6.902  -5.009  -8.259  1.00  0.00    -0.252 OA
BRANCH   3   5
ATOM      5  C   UNL     1      -4.934  -3.919  -7.285  1.00  0.00     0.086 C 
ATOM      6  C   UNL     1      -4.792  -3.371  -5.805  1.00  0.00     0.022 C 
ATOM      7  C   UNL     1      -4.224  -5.295  -7.443  1.00  0.00     0.140 C 
ATOM      8  C   UNL     1      -3.470  -3.664  -5.097  1.00  0.00     0.023 C 
ATOM      9  N   UNL     1      -2.938  -5.302  -6.734  1.00  0.00    -0.324 N 
ATOM     10  C   UNL     1      -3.142  -5.129  -5.306  1.00  0.00     0.121 C 
BRANCH   5  11
ATOM     11  C   UNL     1      -4.337  -2.878  -8.265  1.00  0.00     0.020 C 
BRANCH  11  12
ATOM     12  C   UNL     1      -4.530  -3.069  -9.777  1.00  0.00    -0.002 C 
ATOM     13  C   UNL     1      -5.903  -2.654 -10.293  1.00  0.00     0.004 C 
ENDBRANCH  11  12
ENDBRANCH   5  11
BRANCH   9  14
ATOM     14  C   UNL     1      -1.805  -5.026  -7.465  1.00  0.00     0.317 C 
ATOM     15  O   UNL     1      -1.823  -4.958  -8.697  1.00  0.00    -0.249 OA
ATOM     16  N   UNL     1      -0.612  -4.753  -6.888  1.00  0.00    -0.333 N 
ATOM     17  H   UNL     1       0.027  -4.303  -7.487  1.00  0.00     0.165 HD
BRANCH  16  18
ATOM     18  C   UNL     1      -0.098  -4.996  -5.560  1.00  0.00     0.112 C 
ATOM     19  C   UNL     1       0.120  -6.472  -5.311  1.00  0.00     0.056 C 
ATOM     20  C   UNL     1       1.284  -4.445  -5.230  1.00  0.00     0.185 C 
ATOM     21  C   UNL     1       0.945  -6.432  -4.051  1.00  0.00     0.162 C 
ATOM     22  O   UNL     1       1.794  -5.277  -4.166  1.00  0.00    -0.379 OA
ENDBRANCH  16  18
ENDBRANCH   9  14
ENDBRANCH   3   5
ENDBRANCH   2   3
ENDBRANCH   1   2
BRANCH   1  23
ATOM     23  C   UNL     1      -9.233  -2.097  -6.335  1.00  0.00     0.275 C 
BRANCH  23  24
ATOM     24  O   UNL     1      -8.803  -0.965  -7.115  1.00  0.00    -0.458 OA
BRANCH  24  25
ATOM     25  C   UNL     1      -7.719  -0.309  -6.631  1.00  0.00     0.338 C 
ATOM     26  O   UNL     1      -7.200  -0.449  -5.533  1.00  0.00    -0.246 OA
BRANCH  25  27
ATOM     27  C   UNL     1      -7.106   0.476  -7.721  1.00  0.00     0.060 A 
ATOM     28  C   UNL     1      -5.714   0.432  -7.843  1.00  0.00     0.016 A 
ATOM     29  C   UNL     1      -7.864   1.213  -8.633  1.00  0.00     0.016 A 
ATOM     30  C   UNL     1      -5.079   1.036  -8.926  1.00  0.00     0.010 A 
ATOM     31  C   UNL     1      -7.219   1.898  -9.668  1.00  0.00     0.010 A 
ATOM     32  C   UNL     1      -5.825   1.807  -9.823  1.00  0.00    -0.014 A 
BRANCH  32  33
ATOM     33  C   UNL     1      -5.128   2.669 -10.805  1.00  0.00     0.031 A 
ATOM     34  C   UNL     1      -4.513   3.949 -10.316  1.00  0.00     0.074 A 
ATOM     35  C   UNL     1      -5.045   2.328 -12.103  1.00  0.00     0.049 A 
ATOM     36  N   UNL     1      -3.964   4.919 -10.999  1.00  0.00    -0.248 NA
ATOM     37  C   UNL     1      -4.506   4.158  -8.859  1.00  0.00     0.031 C 
ATOM     38  C   UNL     1      -5.507   1.068 -12.680  1.00  0.00     0.029 A 
ATOM     39  N   UNL     1      -4.545   3.026 -13.174  1.00  0.00    -0.354 N 
ATOM     40  C   UNL     1      -3.546   5.848 -10.056  1.00  0.00     0.074 A 
ATOM     41  C   UNL     1      -3.896   5.327  -8.754  1.00  0.00     0.031 C 
ATOM     42  C   UNL     1      -5.296   1.095 -14.009  1.00  0.00     0.029 A 
ATOM     43  C   UNL     1      -4.727   2.390 -14.378  1.00  0.00     0.049 A 
ATOM     44  H   UNL     1      -4.099   3.900 -13.088  1.00  0.00     0.167 HD
ATOM     45  C   UNL     1      -2.943   7.042 -10.257  1.00  0.00     0.037 A 
ATOM     46  C   UNL     1      -4.499   2.828 -15.633  1.00  0.00     0.037 A 
ATOM     47  C   UNL     1      -2.655   7.589 -11.552  1.00  0.00     0.049 A 
ATOM     48  C   UNL     1      -3.955   4.220 -15.839  1.00  0.00     0.074 A 
ATOM     49  C   UNL     1      -2.115   8.823 -11.868  1.00  0.00     0.029 A 
ATOM     50  N   UNL     1      -2.901   6.937 -12.750  1.00  0.00    -0.354 N 
ATOM     51  N   UNL     1      -3.593   5.109 -14.945  1.00  0.00    -0.248 NA
ATOM     52  C   UNL     1      -3.803   4.676 -17.229  1.00  0.00     0.031 C 
ATOM     53  C   UNL     1      -2.075   8.934 -13.261  1.00  0.00     0.029 A 
ATOM     54  C   UNL     1      -2.542   7.750 -13.810  1.00  0.00     0.049 A 
ATOM     55  H   UNL     1      -3.277   6.031 -12.834  1.00  0.00     0.167 HD
ATOM     56  C   UNL     1      -3.140   6.210 -15.661  1.00  0.00     0.074 A 
ATOM     57  C   UNL     1      -3.272   5.880 -17.064  1.00  0.00     0.031 C 
ATOM     58  C   UNL     1      -2.657   7.389 -15.200  1.00  0.00     0.037 A 
BRANCH  45  59
ATOM     59  C   UNL     1      -2.633   7.856  -9.039  1.00  0.00     0.057 A 
ATOM     60  C   UNL     1      -1.579   7.524  -8.178  1.00  0.00     0.134 A 
ATOM     61  C   UNL     1      -3.411   8.973  -8.713  1.00  0.00     0.134 A 
ATOM     62  F   UNL     1      -0.816   6.448  -8.421  1.00  0.00    -0.206 F 
ATOM     63  C   UNL     1      -1.322   8.266  -7.024  1.00  0.00     0.040 A 
ATOM     64  C   UNL     1      -3.151   9.734  -7.574  1.00  0.00     0.040 A 
ATOM     65  F   UNL     1      -4.441   9.336  -9.493  1.00  0.00    -0.206 F 
ATOM     66  C   UNL     1      -2.108   9.377  -6.722  1.00  0.00     0.006 A 
ENDBRANCH  45  59
BRANCH  46  67
ATOM     67  C   UNL     1      -4.831   1.973 -16.802  1.00  0.00     0.057 A 
ATOM     68  C   UNL     1      -3.832   1.479 -17.649  1.00  0.00     0.134 A 
ATOM     69  C   UNL     1      -6.159   1.673 -17.133  1.00  0.00     0.134 A 
ATOM     70  F   UNL     1      -2.543   1.758 -17.406  1.00  0.00    -0.206 F 
ATOM     71  C   UNL     1      -4.140   0.734 -18.790  1.00  0.00     0.040 A 
ATOM     72  C   UNL     1      -6.480   0.908 -18.256  1.00  0.00     0.040 A 
ATOM     73  F   UNL     1      -7.165   2.123 -16.370  1.00  0.00    -0.206 F 
ATOM     74  C   UNL     1      -5.468   0.444 -19.093  1.00  0.00     0.006 A 
ENDBRANCH  46  67
BRANCH  58  75
ATOM     75  C   UNL     1      -2.177   8.389 -16.209  1.00  0.00     0.057 A 
ATOM     76  C   UNL     1      -3.063   9.150 -16.980  1.00  0.00     0.134 A 
ATOM     77  C   UNL     1      -0.807   8.646 -16.351  1.00  0.00     0.134 A 
ATOM     78  F   UNL     1      -4.386   8.945 -16.896  1.00  0.00    -0.206 F 
ATOM     79  C   UNL     1      -2.602  10.127 -17.864  1.00  0.00     0.040 A 
ATOM     80  C   UNL     1      -0.336   9.635 -17.214  1.00  0.00     0.040 A 
ATOM     81  F   UNL     1       0.093   7.957 -15.633  1.00  0.00    -0.206 F 
ATOM     82  C   UNL     1      -1.235  10.378 -17.976  1.00  0.00     0.006 A 
ENDBRANCH  58  75
ENDBRANCH  32  33
ENDBRANCH  25  27
ENDBRANCH  24  25
ENDBRANCH  23  24
ENDBRANCH   1  23
TORSDOF 15
