REMARK SMILES O=C(CCC(=O)N1CCC[C@@]2(CCC(=O)N(Cc3ccncc3)C2)C1)OCCOC(=O)c1ccc(-c2c3nc(c(-c4c(F)cccc4F)c4ccc([nH]4)c(-c4c(F)cccc4F)c4nc(c(-c5c(F)cccc5F)c5ccc2[nH]5)C=C4)C=C3)cc1
REMARK SMILES IDX 26 1 2 2 1 3 3 4 4 5 5 6 6 7 7 8 8 9 25 10 9 11 11 12 10 13
REMARK SMILES IDX 12 14 24 15 13 16 16 17 14 18 15 19 17 20 18 21 19 22 23 23
REMARK SMILES IDX 20 24 22 25 21 26 27 27 28 28 29 29 30 30 31 31 32 32 33 33
REMARK SMILES IDX 85 34 34 35 84 36 35 37 36 38 37 39 78 40 38 41 83 42 77 43
REMARK SMILES IDX 79 44 39 45 82 46 76 47 75 48 40 50 66 51 49 52 65 53 50 54
REMARK SMILES IDX 53 55 64 56 80 57 51 58 52 59 63 61 81 62 54 63 41 64 42 65
REMARK SMILES IDX 47 66 43 67 44 68 46 69 48 70 45 71 67 72 68 73 73 74 69 75
REMARK SMILES IDX 70 76 72 77 74 78 71 79 55 80 56 81 61 82 57 83 58 84 60 85
REMARK SMILES IDX 62 86 59 87
REMARK H PARENT 79 49 53 60
REMARK Flexibility Score: inf
ROOT
ATOM      1  O   UNL     1       3.490  -0.715  -0.685  1.00  0.00    -0.462 OA
ENDROOT
BRANCH   1   2
ATOM      2  C   UNL     1       2.918   0.464  -0.994  1.00  0.00     0.306 C 
ATOM      3  O   UNL     1       1.725   0.656  -0.761  1.00  0.00    -0.252 OA
BRANCH   2   4
ATOM      4  C   UNL     1       3.771   1.566  -1.553  1.00  0.00     0.132 C 
BRANCH   4   5
ATOM      5  C   UNL     1       4.407   2.451  -0.483  1.00  0.00     0.112 C 
BRANCH   5   6
ATOM      6  C   UNL     1       5.013   1.631   0.644  1.00  0.00     0.223 C 
ATOM      7  O   UNL     1       6.158   1.192   0.517  1.00  0.00    -0.275 OA
BRANCH   6   8
ATOM      8  N   UNL     1       4.181   1.260   1.697  1.00  0.00    -0.342 N 
ATOM      9  C   UNL     1       4.429  -0.059   2.305  1.00  0.00     0.119 C 
ATOM     10  C   UNL     1       2.977   2.020   2.046  1.00  0.00     0.128 C 
ATOM     11  C   UNL     1       3.603  -0.477   3.515  1.00  0.00     0.022 C 
ATOM     12  C   UNL     1       2.514   1.782   3.483  1.00  0.00     0.006 C 
ATOM     13  C   UNL     1       2.290   0.265   3.629  1.00  0.00     0.012 C 
ATOM     14  C   UNL     1       3.556   2.378   4.451  1.00  0.00     0.020 C 
ATOM     15  C   UNL     1       1.205   2.524   3.761  1.00  0.00     0.128 C 
ATOM     16  C   UNL     1       3.153   2.179   5.894  1.00  0.00     0.101 C 
ATOM     17  N   UNL     1       0.799   2.368   5.156  1.00  0.00    -0.338 N 
ATOM     18  C   UNL     1       1.702   2.466   6.209  1.00  0.00     0.222 C 
ATOM     19  O   UNL     1       1.373   2.596   7.387  1.00  0.00    -0.275 OA
BRANCH  17  20
ATOM     20  C   UNL     1      -0.571   1.953   5.438  1.00  0.00     0.155 C 
BRANCH  20  21
ATOM     21  C   UNL     1      -1.325   2.894   6.332  1.00  0.00    -0.026 A 
ATOM     22  C   UNL     1      -1.651   4.183   5.914  1.00  0.00     0.025 A 
ATOM     23  C   UNL     1      -1.649   2.508   7.636  1.00  0.00     0.025 A 
ATOM     24  C   UNL     1      -2.273   5.028   6.819  1.00  0.00     0.111 A 
ATOM     25  C   UNL     1      -2.261   3.428   8.468  1.00  0.00     0.111 A 
ATOM     26  N   UNL     1      -2.592   4.679   8.085  1.00  0.00    -0.265 NA
ENDBRANCH  20  21
ENDBRANCH  17  20
ENDBRANCH   6   8
ENDBRANCH   5   6
ENDBRANCH   4   5
ENDBRANCH   2   4
ENDBRANCH   1   2
BRANCH   1  27
ATOM     27  C   UNL     1       4.817  -1.181  -1.047  1.00  0.00     0.274 C 
BRANCH  27  28
ATOM     28  C   UNL     1       4.776  -2.712  -1.098  1.00  0.00     0.275 C 
BRANCH  28  29
ATOM     29  O   UNL     1       4.080  -3.103  -2.287  1.00  0.00    -0.458 OA
BRANCH  29  30
ATOM     30  C   UNL     1       2.734  -2.913  -2.213  1.00  0.00     0.338 C 
ATOM     31  O   UNL     1       2.019  -3.197  -1.281  1.00  0.00    -0.246 OA
BRANCH  30  32
ATOM     32  C   UNL     1       2.338  -2.074  -3.378  1.00  0.00     0.060 A 
ATOM     33  C   UNL     1       1.161  -1.318  -3.295  1.00  0.00     0.016 A 
ATOM     34  C   UNL     1       3.159  -1.972  -4.508  1.00  0.00     0.016 A 
ATOM     35  C   UNL     1       0.764  -0.520  -4.370  1.00  0.00     0.010 A 
ATOM     36  C   UNL     1       2.772  -1.171  -5.575  1.00  0.00     0.010 A 
ATOM     37  C   UNL     1       1.545  -0.490  -5.531  1.00  0.00    -0.014 A 
BRANCH  37  38
ATOM     38  C   UNL     1       0.996   0.000  -6.811  1.00  0.00     0.031 A 
ATOM     39  C   UNL     1       0.431  -1.030  -7.750  1.00  0.00     0.074 A 
ATOM     40  C   UNL     1       1.084   1.291  -7.170  1.00  0.00     0.049 A 
ATOM     41  N   UNL     1       0.052  -0.905  -8.993  1.00  0.00    -0.248 NA
ATOM     42  C   UNL     1       0.306  -2.398  -7.215  1.00  0.00     0.031 C 
ATOM     43  C   UNL     1       1.605   2.370  -6.335  1.00  0.00     0.029 A 
ATOM     44  N   UNL     1       0.765   1.899  -8.356  1.00  0.00    -0.354 N 
ATOM     45  C   UNL     1      -0.341  -2.177  -9.391  1.00  0.00     0.074 A 
ATOM     46  C   UNL     1      -0.120  -3.066  -8.274  1.00  0.00     0.031 C 
ATOM     47  C   UNL     1       1.596   3.511  -7.049  1.00  0.00     0.029 A 
ATOM     48  C   UNL     1       1.101   3.230  -8.396  1.00  0.00     0.049 A 
ATOM     49  H   UNL     1       0.337   1.428  -9.106  1.00  0.00     0.167 HD
ATOM     50  C   UNL     1      -0.848  -2.567 -10.582  1.00  0.00     0.037 A 
ATOM     51  C   UNL     1       1.041   4.104  -9.419  1.00  0.00     0.037 A 
ATOM     52  C   UNL     1      -1.059  -1.675 -11.688  1.00  0.00     0.049 A 
ATOM     53  C   UNL     1       0.525   3.634 -10.757  1.00  0.00     0.074 A 
ATOM     54  C   UNL     1      -1.605  -1.953 -12.927  1.00  0.00     0.029 A 
ATOM     55  N   UNL     1      -0.721  -0.330 -11.686  1.00  0.00    -0.354 N 
ATOM     56  N   UNL     1       0.103   2.444 -11.111  1.00  0.00    -0.248 NA
ATOM     57  C   UNL     1       0.480   4.630 -11.837  1.00  0.00     0.031 C 
ATOM     58  C   UNL     1      -1.546  -0.787 -13.696  1.00  0.00     0.029 A 
ATOM     59  C   UNL     1      -1.017   0.230 -12.916  1.00  0.00     0.049 A 
ATOM     60  H   UNL     1      -0.328   0.153 -10.924  1.00  0.00     0.167 HD
ATOM     61  C   UNL     1      -0.288   2.556 -12.441  1.00  0.00     0.074 A 
ATOM     62  C   UNL     1      -0.060   3.933 -12.826  1.00  0.00     0.031 C 
ATOM     63  C   UNL     1      -0.792   1.608 -13.270  1.00  0.00     0.037 A 
BRANCH  50  64
ATOM     64  C   UNL     1      -1.183  -4.019 -10.749  1.00  0.00     0.057 A 
ATOM     65  C   UNL     1      -2.259  -4.613 -10.076  1.00  0.00     0.134 A 
ATOM     66  C   UNL     1      -0.428  -4.831 -11.605  1.00  0.00     0.134 A 
ATOM     67  F   UNL     1      -3.009  -3.896  -9.225  1.00  0.00    -0.206 F 
ATOM     68  C   UNL     1      -2.559  -5.967 -10.232  1.00  0.00     0.040 A 
ATOM     69  C   UNL     1      -0.735  -6.179 -11.790  1.00  0.00     0.040 A 
ATOM     70  F   UNL     1       0.618  -4.326 -12.277  1.00  0.00    -0.206 F 
ATOM     71  C   UNL     1      -1.800  -6.753 -11.097  1.00  0.00     0.006 A 
ENDBRANCH  50  64
BRANCH  51  72
ATOM     72  C   UNL     1       1.489   5.507  -9.232  1.00  0.00     0.057 A 
ATOM     73  C   UNL     1       0.574   6.567  -9.262  1.00  0.00     0.134 A 
ATOM     74  C   UNL     1       2.839   5.828  -9.045  1.00  0.00     0.134 A 
ATOM     75  F   UNL     1      -0.730   6.326  -9.460  1.00  0.00    -0.206 F 
ATOM     76  C   UNL     1       0.987   7.894  -9.136  1.00  0.00     0.040 A 
ATOM     77  C   UNL     1       3.263   7.149  -8.892  1.00  0.00     0.040 A 
ATOM     78  F   UNL     1       3.766   4.860  -9.003  1.00  0.00    -0.206 F 
ATOM     79  C   UNL     1       2.336   8.188  -8.946  1.00  0.00     0.006 A 
ENDBRANCH  51  72
BRANCH  63  80
ATOM     80  C   UNL     1      -1.168   2.031 -14.660  1.00  0.00     0.057 A 
ATOM     81  C   UNL     1      -0.203   2.316 -15.634  1.00  0.00     0.134 A 
ATOM     82  C   UNL     1      -2.514   2.087 -15.045  1.00  0.00     0.134 A 
ATOM     83  F   UNL     1       1.103   2.290 -15.326  1.00  0.00    -0.206 F 
ATOM     84  C   UNL     1      -0.565   2.657 -16.938  1.00  0.00     0.040 A 
ATOM     85  C   UNL     1      -2.886   2.398 -16.352  1.00  0.00     0.040 A 
ATOM     86  F   UNL     1      -3.487   1.813 -14.162  1.00  0.00    -0.206 F 
ATOM     87  C   UNL     1      -1.910   2.689 -17.302  1.00  0.00     0.006 A 
ENDBRANCH  63  80
ENDBRANCH  37  38
ENDBRANCH  30  32
ENDBRANCH  29  30
ENDBRANCH  28  29
ENDBRANCH  27  28
ENDBRANCH   1  27
TORSDOF 16
