REMARK SMILES O=C(Cc1ccccc1Nc1c(F)cccc1C(F)(F)F)OCCOC(=O)c1ccc(-c2c3nc(c(-c4c(F)cccc4F)c4ccc([nH]4)c(-c4c(F)cccc4F)c4nc(c(-c5c(F)cccc5F)c5ccc2[nH]5)C=C4)C=C3)cc1
REMARK SMILES IDX 23 1 22 2 2 3 1 4 3 5 4 6 5 7 9 8 6 9 8 10 7 11 10 12 11 14
REMARK SMILES IDX 12 15 17 16 13 17 14 18 16 19 15 20 18 21 19 22 20 23 21 24
REMARK SMILES IDX 24 25 25 26 26 27 27 28 28 29 29 30 81 31 30 32 80 33 31 34
REMARK SMILES IDX 32 35 33 36 74 37 34 38 79 39 73 40 75 41 35 42 78 43 72 44
REMARK SMILES IDX 71 45 36 47 62 48 45 49 61 50 46 51 49 52 60 53 76 54 47 55
REMARK SMILES IDX 48 56 59 58 77 59 50 60 37 61 38 62 43 63 39 64 40 65 42 66
REMARK SMILES IDX 44 67 41 68 63 69 64 70 69 71 65 72 66 73 68 74 70 75 67 76
REMARK SMILES IDX 51 77 52 78 57 79 53 80 54 81 56 82 58 83 55 84
REMARK H PARENT 10 13 75 46 49 57
REMARK Flexibility Score: inf
ROOT
ATOM      1  C   UNL     1       3.823   1.028  -0.849  1.00  0.00     0.274 C 
ENDROOT
BRANCH   1   2
ATOM      2  O   UNL     1       2.523   0.415  -0.769  1.00  0.00    -0.462 OA
BRANCH   2   3
ATOM      3  C   UNL     1       2.373  -0.864  -0.329  1.00  0.00     0.310 C 
ATOM      4  O   UNL     1       1.504  -1.588  -0.810  1.00  0.00    -0.252 OA
BRANCH   3   5
ATOM      5  C   UNL     1       3.165  -1.280   0.893  1.00  0.00     0.160 C 
BRANCH   5   6
ATOM      6  C   UNL     1       4.102  -2.450   0.710  1.00  0.00    -0.013 A 
ATOM      7  C   UNL     1       3.547  -3.738   0.607  1.00  0.00     0.006 A 
ATOM      8  C   UNL     1       5.505  -2.293   0.658  1.00  0.00     0.042 A 
ATOM      9  C   UNL     1       4.364  -4.858   0.480  1.00  0.00     0.000 A 
ATOM     10  C   UNL     1       6.309  -3.434   0.541  1.00  0.00     0.026 A 
ATOM     11  C   UNL     1       5.745  -4.707   0.453  1.00  0.00     0.002 A 
BRANCH   8  12
ATOM     12  N   UNL     1       6.092  -1.017   0.777  1.00  0.00    -0.352 N 
ATOM     13  H   UNL     1       5.609  -0.404   1.375  1.00  0.00     0.167 HD
BRANCH  12  14
ATOM     14  C   UNL     1       7.251  -0.462   0.190  1.00  0.00     0.087 A 
ATOM     15  C   UNL     1       7.999   0.429   0.990  1.00  0.00     0.147 A 
ATOM     16  C   UNL     1       7.713  -0.720  -1.114  1.00  0.00     0.082 A 
ATOM     17  F   UNL     1       7.542   0.739   2.215  1.00  0.00    -0.205 F 
ATOM     18  C   UNL     1       9.191   1.005   0.565  1.00  0.00     0.041 A 
ATOM     19  C   UNL     1       8.944  -0.152  -1.526  1.00  0.00     0.015 A 
ATOM     20  C   UNL     1       9.678   0.697  -0.697  1.00  0.00     0.004 A 
BRANCH  16  21
ATOM     21  C   UNL     1       6.955  -1.526  -2.145  1.00  0.00     0.418 C 
ATOM     22  F   UNL     1       7.231  -1.104  -3.419  1.00  0.00    -0.166 F 
ATOM     23  F   UNL     1       7.284  -2.846  -2.135  1.00  0.00    -0.166 F 
ATOM     24  F   UNL     1       5.601  -1.446  -2.054  1.00  0.00    -0.166 F 
ENDBRANCH  16  21
ENDBRANCH  12  14
ENDBRANCH   8  12
ENDBRANCH   5   6
ENDBRANCH   3   5
ENDBRANCH   2   3
ENDBRANCH   1   2
BRANCH   1  25
ATOM     25  C   UNL     1       3.976   2.226   0.092  1.00  0.00     0.275 C 
BRANCH  25  26
ATOM     26  O   UNL     1       3.686   1.857   1.452  1.00  0.00    -0.458 OA
BRANCH  26  27
ATOM     27  C   UNL     1       2.399   2.067   1.828  1.00  0.00     0.338 C 
ATOM     28  O   UNL     1       1.552   2.689   1.210  1.00  0.00    -0.246 OA
BRANCH  27  29
ATOM     29  C   UNL     1       2.090   1.273   3.040  1.00  0.00     0.060 A 
ATOM     30  C   UNL     1       0.816   0.695   3.120  1.00  0.00     0.016 A 
ATOM     31  C   UNL     1       3.008   1.093   4.080  1.00  0.00     0.016 A 
ATOM     32  C   UNL     1       0.435  -0.006   4.264  1.00  0.00     0.010 A 
ATOM     33  C   UNL     1       2.623   0.387   5.228  1.00  0.00     0.010 A 
ATOM     34  C   UNL     1       1.320  -0.127   5.343  1.00  0.00    -0.014 A 
BRANCH  34  35
ATOM     35  C   UNL     1       0.803  -0.620   6.645  1.00  0.00     0.031 A 
ATOM     36  C   UNL     1       0.363   0.388   7.673  1.00  0.00     0.074 A 
ATOM     37  C   UNL     1       0.659  -1.933   6.895  1.00  0.00     0.049 A 
ATOM     38  N   UNL     1      -0.212   0.196   8.834  1.00  0.00    -0.248 NA
ATOM     39  C   UNL     1       0.602   1.803   7.346  1.00  0.00     0.031 C 
ATOM     40  C   UNL     1       1.024  -3.016   5.984  1.00  0.00     0.029 A 
ATOM     41  N   UNL     1       0.152  -2.575   7.998  1.00  0.00    -0.354 N 
ATOM     42  C   UNL     1      -0.416   1.462   9.366  1.00  0.00     0.074 A 
ATOM     43  C   UNL     1       0.140   2.412   8.427  1.00  0.00     0.031 C 
ATOM     44  C   UNL     1       0.721  -4.192   6.564  1.00  0.00     0.029 A 
ATOM     45  C   UNL     1       0.151  -3.944   7.888  1.00  0.00     0.049 A 
ATOM     46  H   UNL     1      -0.178  -2.099   8.793  1.00  0.00     0.167 HD
ATOM     47  C   UNL     1      -1.028   1.810  10.523  1.00  0.00     0.037 A 
ATOM     48  C   UNL     1      -0.269  -4.886   8.755  1.00  0.00     0.037 A 
ATOM     49  C   UNL     1      -1.579   0.876  11.467  1.00  0.00     0.049 A 
ATOM     50  C   UNL     1      -0.882  -4.476  10.070  1.00  0.00     0.074 A 
ATOM     51  C   UNL     1      -2.244   1.139  12.652  1.00  0.00     0.029 A 
ATOM     52  N   UNL     1      -1.517  -0.502  11.339  1.00  0.00    -0.354 N 
ATOM     53  N   UNL     1      -1.130  -3.275  10.532  1.00  0.00    -0.248 NA
ATOM     54  C   UNL     1      -1.282  -5.561  10.980  1.00  0.00     0.031 C 
ATOM     55  C   UNL     1      -2.543  -0.083  13.265  1.00  0.00     0.029 A 
ATOM     56  C   UNL     1      -2.104  -1.105  12.439  1.00  0.00     0.049 A 
ATOM     57  H   UNL     1      -1.114  -0.982  10.579  1.00  0.00     0.167 HD
ATOM     58  C   UNL     1      -1.749  -3.460  11.763  1.00  0.00     0.074 A 
ATOM     59  C   UNL     1      -1.842  -4.888  11.975  1.00  0.00     0.031 C 
ATOM     60  C   UNL     1      -2.205  -2.528  12.636  1.00  0.00     0.037 A 
BRANCH  47  61
ATOM     61  C   UNL     1      -1.119   3.274  10.832  1.00  0.00     0.057 A 
ATOM     62  C   UNL     1      -1.990   4.122  10.135  1.00  0.00     0.134 A 
ATOM     63  C   UNL     1      -0.334   3.841  11.843  1.00  0.00     0.134 A 
ATOM     64  F   UNL     1      -2.757   3.642   9.144  1.00  0.00    -0.206 F 
ATOM     65  C   UNL     1      -2.058   5.487  10.416  1.00  0.00     0.040 A 
ATOM     66  C   UNL     1      -0.410   5.200  12.149  1.00  0.00     0.040 A 
ATOM     67  F   UNL     1       0.520   3.083  12.548  1.00  0.00    -0.206 F 
ATOM     68  C   UNL     1      -1.270   6.028  11.429  1.00  0.00     0.006 A 
ENDBRANCH  47  61
BRANCH  48  69
ATOM     69  C   UNL     1      -0.150  -6.325   8.410  1.00  0.00     0.057 A 
ATOM     70  C   UNL     1      -1.284  -7.101   8.143  1.00  0.00     0.134 A 
ATOM     71  C   UNL     1       1.093  -6.967   8.387  1.00  0.00     0.134 A 
ATOM     72  F   UNL     1      -2.505  -6.546   8.178  1.00  0.00    -0.206 F 
ATOM     73  C   UNL     1      -1.189  -8.469   7.885  1.00  0.00     0.040 A 
ATOM     74  C   UNL     1       1.205  -8.331   8.109  1.00  0.00     0.040 A 
ATOM     75  F   UNL     1       2.216  -6.279   8.640  1.00  0.00    -0.206 F 
ATOM     76  C   UNL     1       0.060  -9.087   7.865  1.00  0.00     0.006 A 
ENDBRANCH  48  69
BRANCH  60  77
ATOM     77  C   UNL     1      -2.885  -3.019  13.882  1.00  0.00     0.057 A 
ATOM     78  C   UNL     1      -2.171  -3.606  14.934  1.00  0.00     0.134 A 
ATOM     79  C   UNL     1      -4.268  -2.865  14.046  1.00  0.00     0.134 A 
ATOM     80  F   UNL     1      -0.846  -3.793  14.836  1.00  0.00    -0.206 F 
ATOM     81  C   UNL     1      -2.812  -4.042  16.096  1.00  0.00     0.040 A 
ATOM     82  C   UNL     1      -4.915  -3.274  15.212  1.00  0.00     0.040 A 
ATOM     83  F   UNL     1      -5.010  -2.302  13.080  1.00  0.00    -0.206 F 
ATOM     84  C   UNL     1      -4.187  -3.870  16.240  1.00  0.00     0.006 A 
ENDBRANCH  60  77
ENDBRANCH  34  35
ENDBRANCH  27  29
ENDBRANCH  26  27
ENDBRANCH  25  26
ENDBRANCH   1  25
TORSDOF 15
