REMARK SMILES CCOc1cc([C@@H]2[NH2+][C@H](C(=O)OCCOC(=O)c3ccc(-c4c5nc(c(-c6c(F)cccc6F)c6ccc([nH]6)c(-c6c(F)cccc6F)c6nc(c(-c7c(F)cccc7F)c7ccc4[nH]7)C=C6)C=C5)cc3)CS2)ccc1OCc1ccc(Cl)cc1
REMARK SMILES IDX 13 1 12 2 10 3 11 4 9 5 7 6 8 7 73 8 72 11 6 12 4 13 5 14
REMARK SMILES IDX 76 15 75 16 74 17 3 18 2 19 1 20 77 21 78 22 79 23 80 24
REMARK SMILES IDX 85 25 81 26 84 27 82 28 83 29 14 30 15 31 16 32 17 33 18 34
REMARK SMILES IDX 19 35 71 36 20 37 70 38 21 39 22 40 23 41 64 42 24 43 69 44
REMARK SMILES IDX 63 45 65 46 25 47 68 48 62 49 61 50 26 52 52 53 35 54 51 55
REMARK SMILES IDX 36 56 39 57 50 58 66 59 37 60 38 61 49 63 67 64 40 65 27 66
REMARK SMILES IDX 28 67 33 68 29 69 30 70 32 71 34 72 31 73 53 74 54 75 59 76
REMARK SMILES IDX 55 77 56 78 58 79 60 80 57 81 41 82 42 83 47 84 43 85 44 86
REMARK SMILES IDX 46 87 48 88 45 89
REMARK H PARENT 8 9 8 10 65 51 39 62
REMARK Flexibility Score: inf
ROOT
ATOM      1  C   UNL     1       6.131  -3.837   0.331  1.00  0.00     0.274 C 
ENDROOT
BRANCH   1   2
ATOM      2  O   UNL     1       5.822  -4.031  -1.060  1.00  0.00    -0.458 OA
BRANCH   2   3
ATOM      3  C   UNL     1       6.841  -4.072  -1.952  1.00  0.00     0.365 C 
ATOM      4  O   UNL     1       8.025  -3.916  -1.669  1.00  0.00    -0.245 OA
BRANCH   3   5
ATOM      5  C   UNL     1       6.377  -4.410  -3.379  1.00  0.00     0.304 C 
ATOM      6  C   UNL     1       4.308  -3.384  -4.033  1.00  0.00     0.274 C 
ATOM      7  N   UNL     1       4.905  -4.609  -3.500  1.00  0.00    -0.319 N 
ATOM      8  S   UNL     1       5.458  -2.826  -5.313  1.00  0.00    -0.087 SA
ATOM      9  H   UNL     1       4.715  -5.386  -4.133  1.00  0.00     0.348 HD
ATOM     10  H   UNL     1       4.506  -4.820  -2.586  1.00  0.00     0.348 HD
ATOM     11  C   UNL     1       6.909  -3.400  -4.394  1.00  0.00     0.153 C 
BRANCH   6  12
ATOM     12  C   UNL     1       3.970  -2.373  -2.946  1.00  0.00     0.024 A 
ATOM     13  C   UNL     1       2.450  -1.652  -1.154  1.00  0.00     0.161 A 
ATOM     14  C   UNL     1       2.788  -2.542  -2.187  1.00  0.00     0.061 A 
ATOM     15  C   UNL     1       3.313  -0.588  -0.859  1.00  0.00     0.161 A 
ATOM     16  C   UNL     1       4.503  -0.440  -1.565  1.00  0.00     0.051 A 
ATOM     17  C   UNL     1       4.818  -1.307  -2.606  1.00  0.00     0.015 A 
BRANCH  13  18
ATOM     18  O   UNL     1       1.352  -1.831  -0.355  1.00  0.00    -0.490 OA
BRANCH  18  19
ATOM     19  C   UNL     1       0.140  -2.198  -1.019  1.00  0.00     0.226 C 
ATOM     20  C   UNL     1      -1.016  -1.595  -0.231  1.00  0.00     0.049 C 
ENDBRANCH  18  19
ENDBRANCH  13  18
BRANCH  15  21
ATOM     21  O   UNL     1       3.130   0.352   0.119  1.00  0.00    -0.485 OA
BRANCH  21  22
ATOM     22  C   UNL     1       1.883   1.050   0.093  1.00  0.00     0.265 C 
BRANCH  22  23
ATOM     23  C   UNL     1       1.641   1.900  -1.140  1.00  0.00    -0.011 A 
ATOM     24  C   UNL     1       2.013   3.251  -1.159  1.00  0.00     0.009 A 
ATOM     25  C   UNL     1       1.014   1.362  -2.275  1.00  0.00     0.009 A 
ATOM     26  C   UNL     1       1.724   4.051  -2.269  1.00  0.00     0.021 A 
ATOM     27  C   UNL     1       0.736   2.155  -3.390  1.00  0.00     0.021 A 
ATOM     28  C   UNL     1       1.080   3.502  -3.376  1.00  0.00     0.041 A 
ATOM     29  Cl  UNL     1       0.695   4.493  -4.728  1.00  0.00    -0.084 Cl
ENDBRANCH  22  23
ENDBRANCH  21  22
ENDBRANCH  15  21
ENDBRANCH   6  12
ENDBRANCH   3   5
ENDBRANCH   2   3
ENDBRANCH   1   2
BRANCH   1  30
ATOM     30  C   UNL     1       5.500  -4.972   1.135  1.00  0.00     0.275 C 
BRANCH  30  31
ATOM     31  O   UNL     1       6.147  -6.213   0.792  1.00  0.00    -0.458 OA
BRANCH  31  32
ATOM     32  C   UNL     1       5.479  -6.994  -0.088  1.00  0.00     0.338 C 
ATOM     33  O   UNL     1       4.356  -6.851  -0.533  1.00  0.00    -0.246 OA
BRANCH  32  34
ATOM     34  C   UNL     1       6.392  -8.050  -0.543  1.00  0.00     0.060 A 
ATOM     35  C   UNL     1       7.069  -7.863  -1.748  1.00  0.00     0.016 A 
ATOM     36  C   UNL     1       6.530  -9.235   0.175  1.00  0.00     0.016 A 
ATOM     37  C   UNL     1       7.881  -8.868  -2.259  1.00  0.00     0.010 A 
ATOM     38  C   UNL     1       7.365 -10.237  -0.325  1.00  0.00     0.010 A 
ATOM     39  C   UNL     1       8.037 -10.064  -1.549  1.00  0.00    -0.014 A 
BRANCH  39  40
ATOM     40  C   UNL     1       8.880 -11.148  -2.105  1.00  0.00     0.031 A 
ATOM     41  C   UNL     1       8.238 -12.403  -2.618  1.00  0.00     0.074 A 
ATOM     42  C   UNL     1      10.216 -10.999  -2.150  1.00  0.00     0.049 A 
ATOM     43  N   UNL     1       8.798 -13.514  -3.022  1.00  0.00    -0.248 NA
ATOM     44  C   UNL     1       6.768 -12.411  -2.682  1.00  0.00     0.031 C 
ATOM     45  C   UNL     1      10.947  -9.804  -1.726  1.00  0.00     0.029 A 
ATOM     46  N   UNL     1      11.197 -11.862  -2.566  1.00  0.00    -0.354 N 
ATOM     47  C   UNL     1       7.753 -14.362  -3.360  1.00  0.00     0.074 A 
ATOM     48  C   UNL     1       6.523 -13.643  -3.106  1.00  0.00     0.031 C 
ATOM     49  C   UNL     1      12.262 -10.010  -1.902  1.00  0.00     0.029 A 
ATOM     50  C   UNL     1      12.467 -11.368  -2.396  1.00  0.00     0.049 A 
ATOM     51  H   UNL     1      11.009 -12.749  -2.949  1.00  0.00     0.167 HD
ATOM     52  C   UNL     1       7.818 -15.628  -3.839  1.00  0.00     0.037 A 
ATOM     53  C   UNL     1      13.662 -11.959  -2.581  1.00  0.00     0.037 A 
ATOM     54  C   UNL     1       9.047 -16.328  -4.106  1.00  0.00     0.049 A 
ATOM     55  C   UNL     1      13.707 -13.384  -3.054  1.00  0.00     0.074 A 
ATOM     56  C   UNL     1       9.222 -17.606  -4.607  1.00  0.00     0.029 A 
ATOM     57  N   UNL     1      10.314 -15.806  -3.891  1.00  0.00    -0.354 N 
ATOM     58  N   UNL     1      12.714 -14.185  -3.357  1.00  0.00    -0.248 NA
ATOM     59  C   UNL     1      15.037 -13.993  -3.198  1.00  0.00     0.031 C 
ATOM     60  C   UNL     1      10.595 -17.871  -4.659  1.00  0.00     0.029 A 
ATOM     61  C   UNL     1      11.276 -16.743  -4.228  1.00  0.00     0.049 A 
ATOM     62  H   UNL     1      10.502 -14.902  -3.549  1.00  0.00     0.167 HD
ATOM     63  C   UNL     1      13.296 -15.386  -3.738  1.00  0.00     0.074 A 
ATOM     64  C   UNL     1      14.730 -15.202  -3.647  1.00  0.00     0.031 C 
ATOM     65  C   UNL     1      12.698 -16.539  -4.126  1.00  0.00     0.037 A 
BRANCH  52  66
ATOM     66  C   UNL     1       6.522 -16.346  -4.071  1.00  0.00     0.057 A 
ATOM     67  C   UNL     1       5.680 -16.033  -5.144  1.00  0.00     0.134 A 
ATOM     68  C   UNL     1       6.125 -17.386  -3.219  1.00  0.00     0.134 A 
ATOM     69  F   UNL     1       5.995 -15.037  -5.987  1.00  0.00    -0.206 F 
ATOM     70  C   UNL     1       4.479 -16.715  -5.353  1.00  0.00     0.040 A 
ATOM     71  C   UNL     1       4.938 -18.089  -3.430  1.00  0.00     0.040 A 
ATOM     72  F   UNL     1       6.887 -17.738  -2.173  1.00  0.00    -0.206 F 
ATOM     73  C   UNL     1       4.109 -17.750  -4.497  1.00  0.00     0.006 A 
ENDBRANCH  52  66
BRANCH  53  74
ATOM     74  C   UNL     1      14.911 -11.215  -2.281  1.00  0.00     0.057 A 
ATOM     75  C   UNL     1      15.777 -10.811  -3.303  1.00  0.00     0.134 A 
ATOM     76  C   UNL     1      15.266 -10.887  -0.966  1.00  0.00     0.134 A 
ATOM     77  F   UNL     1      15.502 -11.115  -4.579  1.00  0.00    -0.206 F 
ATOM     78  C   UNL     1      16.956 -10.117  -3.028  1.00  0.00     0.040 A 
ATOM     79  C   UNL     1      16.429 -10.172  -0.679  1.00  0.00     0.040 A 
ATOM     80  F   UNL     1      14.477 -11.245   0.058  1.00  0.00    -0.206 F 
ATOM     81  C   UNL     1      17.281  -9.789  -1.712  1.00  0.00     0.006 A 
ENDBRANCH  53  74
BRANCH  65  82
ATOM     82  C   UNL     1      13.599 -17.679  -4.495  1.00  0.00     0.057 A 
ATOM     83  C   UNL     1      14.286 -18.418  -3.525  1.00  0.00     0.134 A 
ATOM     84  C   UNL     1      13.756 -18.060  -5.834  1.00  0.00     0.134 A 
ATOM     85  F   UNL     1      14.187 -18.093  -2.227  1.00  0.00    -0.206 F 
ATOM     86  C   UNL     1      15.115 -19.485  -3.874  1.00  0.00     0.040 A 
ATOM     87  C   UNL     1      14.564 -19.139  -6.194  1.00  0.00     0.040 A 
ATOM     88  F   UNL     1      13.120 -17.396  -6.811  1.00  0.00    -0.206 F 
ATOM     89  C   UNL     1      15.251 -19.851  -5.212  1.00  0.00     0.006 A 
ENDBRANCH  65  82
ENDBRANCH  39  40
ENDBRANCH  32  34
ENDBRANCH  31  32
ENDBRANCH  30  31
ENDBRANCH   1  30
TORSDOF 17
