REMARK SMILES O=C(CCN1C(=O)[C@@H]2[C@@H](C1=O)[C@H]1c3ccccc3[C@]2(Br)c2ccccc21)OCCOC(=O)c1ccc(-c2c3nc(c(-c4c(F)cccc4F)c4ccc([nH]4)c(-c4c(F)cccc4F)c4nc(c(-c5c(F)cccc5F)c5ccc2[nH]5)C=C4)C=C3)cc1
REMARK SMILES IDX 28 1 27 2 2 3 1 4 3 5 4 6 5 7 6 8 10 9 7 10 8 11 9 12 11 13
REMARK SMILES IDX 19 14 12 15 21 16 20 17 18 18 26 19 13 20 22 21 17 22 25 23
REMARK SMILES IDX 14 24 23 25 16 26 24 27 15 28 29 29 30 30 31 31 32 32 33 33
REMARK SMILES IDX 34 34 86 35 35 36 85 37 36 38 37 39 38 40 79 41 39 42 84 43
REMARK SMILES IDX 78 44 80 45 40 46 83 47 77 48 76 49 41 51 67 52 50 53 66 54
REMARK SMILES IDX 51 55 54 56 65 57 81 58 52 59 53 60 64 62 82 63 55 64 42 65
REMARK SMILES IDX 43 66 48 67 44 68 45 69 47 70 49 71 46 72 68 73 69 74 74 75
REMARK SMILES IDX 70 76 71 77 73 78 75 79 72 80 56 81 57 82 62 83 58 84 59 85
REMARK SMILES IDX 61 86 63 87 60 88
REMARK H PARENT 80 50 54 61
REMARK Flexibility Score: inf
ROOT
ATOM      1  C   UNL     1       3.194  -1.045  -1.091  1.00  0.00     0.274 C 
ENDROOT
BRANCH   1   2
ATOM      2  O   UNL     1       2.045  -0.520  -0.401  1.00  0.00    -0.462 OA
BRANCH   2   3
ATOM      3  C   UNL     1       2.182   0.023   0.839  1.00  0.00     0.307 C 
ATOM      4  O   UNL     1       1.420  -0.282   1.750  1.00  0.00    -0.252 OA
BRANCH   3   5
ATOM      5  C   UNL     1       3.172   1.155   0.992  1.00  0.00     0.144 C 
BRANCH   5   6
ATOM      6  C   UNL     1       4.154   0.978   2.147  1.00  0.00     0.140 C 
BRANCH   6   7
ATOM      7  N   UNL     1       5.238   0.045   1.880  1.00  0.00    -0.281 N 
ATOM      8  C   UNL     1       5.776  -0.829   2.834  1.00  0.00     0.235 C 
ATOM      9  C   UNL     1       5.934  -0.051   0.677  1.00  0.00     0.234 C 
ATOM     10  O   UNL     1       5.377  -1.046   3.960  1.00  0.00    -0.274 OA
ATOM     11  C   UNL     1       7.046  -1.322   2.191  1.00  0.00     0.118 C 
ATOM     12  C   UNL     1       6.482  -1.428   0.765  1.00  0.00     0.105 C 
ATOM     13  O   UNL     1       5.980   0.703  -0.269  1.00  0.00    -0.274 OA
ATOM     14  C   UNL     1       7.955  -2.535   2.428  1.00  0.00     0.088 C 
ATOM     15  C   UNL     1       7.418  -2.183  -0.167  1.00  0.00     0.063 C 
ATOM     16  C   UNL     1       9.195  -2.102   1.561  1.00  0.00    -0.022 A 
ATOM     17  Br  UNL     1       8.368  -2.732   4.297  1.00  0.00    -0.074 Br
ATOM     18  C   UNL     1       7.383  -3.794   1.745  1.00  0.00    -0.022 A 
ATOM     19  C   UNL     1       8.854  -1.861   0.188  1.00  0.00    -0.035 A 
ATOM     20  C   UNL     1       7.174  -3.626   0.332  1.00  0.00    -0.035 A 
ATOM     21  C   UNL     1      10.500  -1.857   1.975  1.00  0.00     0.006 A 
ATOM     22  C   UNL     1       7.080  -5.021   2.326  1.00  0.00     0.006 A 
ATOM     23  C   UNL     1       9.786  -1.394  -0.730  1.00  0.00     0.005 A 
ATOM     24  C   UNL     1       6.709  -4.667  -0.464  1.00  0.00     0.005 A 
ATOM     25  C   UNL     1      11.435  -1.382   1.046  1.00  0.00     0.000 A 
ATOM     26  C   UNL     1       6.605  -6.062   1.521  1.00  0.00     0.000 A 
ATOM     27  C   UNL     1      11.082  -1.151  -0.291  1.00  0.00     0.000 A 
ATOM     28  C   UNL     1       6.431  -5.891   0.141  1.00  0.00     0.000 A 
ENDBRANCH   6   7
ENDBRANCH   5   6
ENDBRANCH   3   5
ENDBRANCH   2   3
ENDBRANCH   1   2
BRANCH   1  29
ATOM     29  C   UNL     1       3.517  -0.345  -2.416  1.00  0.00     0.275 C 
BRANCH  29  30
ATOM     30  O   UNL     1       3.450   1.077  -2.282  1.00  0.00    -0.458 OA
BRANCH  30  31
ATOM     31  C   UNL     1       2.209   1.591  -2.464  1.00  0.00     0.338 C 
ATOM     32  O   UNL     1       1.240   1.015  -2.927  1.00  0.00    -0.246 OA
BRANCH  31  33
ATOM     33  C   UNL     1       2.141   2.910  -1.803  1.00  0.00     0.060 A 
ATOM     34  C   UNL     1       3.204   3.817  -1.847  1.00  0.00     0.016 A 
ATOM     35  C   UNL     1       0.976   3.219  -1.089  1.00  0.00     0.016 A 
ATOM     36  C   UNL     1       3.077   5.055  -1.215  1.00  0.00     0.010 A 
ATOM     37  C   UNL     1       0.849   4.458  -0.463  1.00  0.00     0.010 A 
ATOM     38  C   UNL     1       1.886   5.397  -0.549  1.00  0.00    -0.014 A 
BRANCH  38  39
ATOM     39  C   UNL     1       1.651   6.799  -0.128  1.00  0.00     0.031 A 
ATOM     40  C   UNL     1       1.686   7.228   1.306  1.00  0.00     0.074 A 
ATOM     41  C   UNL     1       1.359   7.695  -1.090  1.00  0.00     0.049 A 
ATOM     42  N   UNL     1       1.574   8.434   1.804  1.00  0.00    -0.248 NA
ATOM     43  C   UNL     1       1.859   6.171   2.311  1.00  0.00     0.031 C 
ATOM     44  C   UNL     1       1.244   7.386  -2.517  1.00  0.00     0.029 A 
ATOM     45  N   UNL     1       1.107   9.040  -1.017  1.00  0.00    -0.354 N 
ATOM     46  C   UNL     1       1.682   8.290   3.180  1.00  0.00     0.074 A 
ATOM     47  C   UNL     1       1.820   6.870   3.439  1.00  0.00     0.031 C 
ATOM     48  C   UNL     1       0.978   8.515  -3.189  1.00  0.00     0.029 A 
ATOM     49  C   UNL     1       0.872   9.617  -2.240  1.00  0.00     0.049 A 
ATOM     50  H   UNL     1       1.096   9.542  -0.171  1.00  0.00     0.167 HD
ATOM     51  C   UNL     1       1.678   9.255   4.133  1.00  0.00     0.037 A 
ATOM     52  C   UNL     1       0.605  10.894  -2.563  1.00  0.00     0.037 A 
ATOM     53  C   UNL     1       1.496  10.664   3.871  1.00  0.00     0.049 A 
ATOM     54  C   UNL     1       0.551  11.933  -1.482  1.00  0.00     0.074 A 
ATOM     55  C   UNL     1       1.525  11.721   4.767  1.00  0.00     0.029 A 
ATOM     56  N   UNL     1       1.220  11.211   2.626  1.00  0.00    -0.354 N 
ATOM     57  N   UNL     1       0.760  11.800  -0.195  1.00  0.00    -0.248 NA
ATOM     58  C   UNL     1       0.232  13.303  -1.904  1.00  0.00     0.031 C 
ATOM     59  C   UNL     1       1.206  12.896   4.075  1.00  0.00     0.029 A 
ATOM     60  C   UNL     1       1.039  12.584   2.736  1.00  0.00     0.049 A 
ATOM     61  H   UNL     1       1.160  10.701   1.786  1.00  0.00     0.167 HD
ATOM     62  C   UNL     1       0.626  13.073   0.343  1.00  0.00     0.074 A 
ATOM     63  C   UNL     1       0.337  13.965  -0.762  1.00  0.00     0.031 C 
ATOM     64  C   UNL     1       0.737  13.466   1.636  1.00  0.00     0.037 A 
BRANCH  51  65
ATOM     65  C   UNL     1       1.866   8.816   5.559  1.00  0.00     0.057 A 
ATOM     66  C   UNL     1       0.828   8.936   6.492  1.00  0.00     0.134 A 
ATOM     67  C   UNL     1       3.088   8.307   6.019  1.00  0.00     0.134 A 
ATOM     68  F   UNL     1      -0.365   9.427   6.126  1.00  0.00    -0.206 F 
ATOM     69  C   UNL     1       0.997   8.561   7.827  1.00  0.00     0.040 A 
ATOM     70  C   UNL     1       3.261   7.903   7.345  1.00  0.00     0.040 A 
ATOM     71  F   UNL     1       4.125   8.163   5.179  1.00  0.00    -0.206 F 
ATOM     72  C   UNL     1       2.214   8.034   8.254  1.00  0.00     0.006 A 
ENDBRANCH  51  65
BRANCH  52  73
ATOM     73  C   UNL     1       0.405  11.268  -3.984  1.00  0.00     0.057 A 
ATOM     74  C   UNL     1      -0.730  10.863  -4.695  1.00  0.00     0.134 A 
ATOM     75  C   UNL     1       1.352  12.044  -4.662  1.00  0.00     0.134 A 
ATOM     76  F   UNL     1      -1.667  10.108  -4.102  1.00  0.00    -0.206 F 
ATOM     77  C   UNL     1      -0.916  11.213  -6.032  1.00  0.00     0.040 A 
ATOM     78  C   UNL     1       1.166  12.424  -5.991  1.00  0.00     0.040 A 
ATOM     79  F   UNL     1       2.453  12.472  -4.027  1.00  0.00    -0.206 F 
ATOM     80  C   UNL     1       0.031  12.004  -6.681  1.00  0.00     0.006 A 
ENDBRANCH  52  73
BRANCH  64  81
ATOM     81  C   UNL     1       0.571  14.935   1.914  1.00  0.00     0.057 A 
ATOM     82  C   UNL     1       1.667  15.716   2.303  1.00  0.00     0.134 A 
ATOM     83  C   UNL     1      -0.665  15.582   1.784  1.00  0.00     0.134 A 
ATOM     84  F   UNL     1       2.880  15.162   2.453  1.00  0.00    -0.206 F 
ATOM     85  C   UNL     1       1.542  17.085   2.545  1.00  0.00     0.040 A 
ATOM     86  C   UNL     1      -0.797  16.957   1.992  1.00  0.00     0.040 A 
ATOM     87  F   UNL     1      -1.754  14.899   1.397  1.00  0.00    -0.206 F 
ATOM     88  C   UNL     1       0.309  17.712   2.377  1.00  0.00     0.006 A 
ENDBRANCH  64  81
ENDBRANCH  38  39
ENDBRANCH  31  33
ENDBRANCH  30  31
ENDBRANCH  29  30
ENDBRANCH   1  29
TORSDOF 13
