REMARK SMILES Cc1cc(/C=C2/C(=O)NC(=S)N=C2OCCOC(=O)c2ccc(-c3c4nc(c(-c5c(F)cccc5F)c5ccc([nH]5)c(-c5c(F)cccc5F)c5nc(c(-c6c(F)cccc6F)c6ccc3[nH]6)C=C5)C=C4)cc2)c(C)n1-c1cccc(C(=O)[O-])c1
REMARK SMILES IDX 15 1 14 2 13 3 5 4 6 5 7 6 8 7 9 8 12 9 10 10 11 12 4 13
REMARK SMILES IDX 1 14 2 15 3 16 76 17 74 18 75 19 77 20 78 21 85 22 79 23
REMARK SMILES IDX 81 24 80 25 82 26 83 27 84 28 16 29 17 30 18 31 19 32 20 33
REMARK SMILES IDX 21 34 73 35 22 36 72 37 23 38 24 39 25 40 66 41 26 42 71 43
REMARK SMILES IDX 65 44 67 45 27 46 70 47 64 48 63 49 28 51 54 52 37 53 53 54
REMARK SMILES IDX 38 55 41 56 52 57 68 58 39 59 40 60 51 62 69 63 42 64 29 65
REMARK SMILES IDX 30 66 35 67 31 68 32 69 34 70 36 71 33 72 55 73 56 74 61 75
REMARK SMILES IDX 57 76 58 77 60 78 62 79 59 80 43 81 44 82 49 83 45 84 46 85
REMARK SMILES IDX 48 86 50 87 47 88
REMARK H PARENT 9 11 67 50 41 61
REMARK Flexibility Score: inf
ROOT
ATOM      1  C   UNL     1      -2.266  -4.782   5.561  1.00  0.00     0.273 C 
ENDROOT
BRANCH   1   2
ATOM      2  O   UNL     1      -1.336  -4.617   4.422  1.00  0.00    -0.473 OA
BRANCH   2   3
ATOM      3  C   UNL     1      -0.666  -5.716   4.020  1.00  0.00     0.229 C 
ATOM      4  C   UNL     1       0.268  -4.785   1.713  1.00  0.00     0.029 C 
ATOM      5  C   UNL     1      -0.065  -5.707   2.651  1.00  0.00     0.103 C 
ATOM      6  C   UNL     1       0.326  -7.097   2.208  1.00  0.00     0.262 C 
ATOM      7  O   UNL     1       0.716  -7.387   1.080  1.00  0.00    -0.269 OA
ATOM      8  N   UNL     1       0.247  -8.070   3.161  1.00  0.00    -0.297 N 
ATOM      9  N   UNL     1      -0.673  -6.720   4.826  1.00  0.00    -0.184 NA
ATOM     10  C   UNL     1      -0.180  -7.920   4.445  1.00  0.00     0.203 C 
ATOM     11  H   UNL     1       0.528  -8.975   2.893  1.00  0.00     0.172 HD
ATOM     12  S   UNL     1      -0.140  -9.248   5.464  1.00  0.00    -0.038 S 
BRANCH   4  13
ATOM     13  C   UNL     1       0.224  -3.357   1.581  1.00  0.00    -0.003 A 
ATOM     14  C   UNL     1       1.207  -0.116  -0.062  1.00  0.00     0.065 C 
ATOM     15  C   UNL     1       0.701  -1.270   0.735  1.00  0.00     0.020 A 
ATOM     16  C   UNL     1       1.058  -2.610   0.679  1.00  0.00     0.031 A 
ATOM     17  N   UNL     1      -0.226  -1.177   1.750  1.00  0.00    -0.318 N 
ATOM     18  C   UNL     1      -0.701  -2.451   2.046  1.00  0.00     0.027 A 
ATOM     19  C   UNL     1      -2.042  -2.622   2.664  1.00  0.00     0.065 C 
BRANCH  17  20
ATOM     20  C   UNL     1      -0.732  -0.021   2.379  1.00  0.00     0.046 A 
ATOM     21  C   UNL     1      -0.530   0.086   3.763  1.00  0.00     0.026 A 
ATOM     22  C   UNL     1      -1.696   0.742   1.719  1.00  0.00     0.036 A 
ATOM     23  C   UNL     1      -1.331   0.941   4.510  1.00  0.00     0.003 A 
ATOM     24  C   UNL     1      -2.527   1.569   2.486  1.00  0.00    -0.001 A 
ATOM     25  C   UNL     1      -2.342   1.662   3.877  1.00  0.00     0.010 A 
BRANCH  24  26
ATOM     26  C   UNL     1      -3.680   2.267   1.888  1.00  0.00     0.072 C 
ATOM     27  O   UNL     1      -4.508   2.944   2.507  1.00  0.00    -0.545 OA
ATOM     28  O   UNL     1      -3.795   2.077   0.569  1.00  0.00    -0.545 OA
ENDBRANCH  24  26
ENDBRANCH  17  20
ENDBRANCH   4  13
ENDBRANCH   2   3
ENDBRANCH   1   2
BRANCH   1  29
ATOM     29  C   UNL     1      -3.635  -5.402   5.123  1.00  0.00     0.274 C 
BRANCH  29  30
ATOM     30  O   UNL     1      -4.239  -6.447   5.994  1.00  0.00    -0.458 OA
BRANCH  30  31
ATOM     31  C   UNL     1      -4.756  -7.573   5.375  1.00  0.00     0.338 C 
ATOM     32  O   UNL     1      -4.537  -7.841   4.199  1.00  0.00    -0.246 OA
BRANCH  31  33
ATOM     33  C   UNL     1      -5.605  -8.534   6.245  1.00  0.00     0.060 A 
ATOM     34  C   UNL     1      -5.041  -9.720   6.686  1.00  0.00     0.016 A 
ATOM     35  C   UNL     1      -7.010  -8.482   6.429  1.00  0.00     0.016 A 
ATOM     36  C   UNL     1      -5.827 -10.735   7.361  1.00  0.00     0.010 A 
ATOM     37  C   UNL     1      -7.825  -9.569   7.062  1.00  0.00     0.010 A 
ATOM     38  C   UNL     1      -7.266 -10.758   7.575  1.00  0.00    -0.014 A 
BRANCH  38  39
ATOM     39  C   UNL     1      -7.976 -12.252   7.947  1.00  0.00     0.031 A 
ATOM     40  C   UNL     1      -7.131 -13.164   7.121  1.00  0.00     0.074 A 
ATOM     41  C   UNL     1      -9.034 -12.952   8.591  1.00  0.00     0.049 A 
ATOM     42  N   UNL     1      -7.052 -12.966   5.833  1.00  0.00    -0.248 NA
ATOM     43  C   UNL     1      -6.048 -13.976   7.681  1.00  0.00     0.031 C 
ATOM     44  C   UNL     1     -10.197 -12.402   9.322  1.00  0.00     0.029 A 
ATOM     45  N   UNL     1      -9.349 -14.373   8.756  1.00  0.00    -0.354 N 
ATOM     46  C   UNL     1      -6.125 -13.859   5.366  1.00  0.00     0.074 A 
ATOM     47  C   UNL     1      -5.377 -14.251   6.554  1.00  0.00     0.031 C 
ATOM     48  C   UNL     1     -10.956 -13.371   9.928  1.00  0.00     0.029 A 
ATOM     49  C   UNL     1     -10.461 -14.724   9.650  1.00  0.00     0.049 A 
ATOM     50  H   UNL     1      -8.834 -15.068   8.286  1.00  0.00     0.167 HD
ATOM     51  C   UNL     1      -6.551 -14.646   4.336  1.00  0.00     0.037 A 
ATOM     52  C   UNL     1     -11.014 -15.958  10.066  1.00  0.00     0.037 A 
ATOM     53  C   UNL     1      -6.925 -15.958   4.785  1.00  0.00     0.049 A 
ATOM     54  C   UNL     1     -10.625 -16.956   9.068  1.00  0.00     0.074 A 
ATOM     55  C   UNL     1      -6.386 -16.822   5.720  1.00  0.00     0.029 A 
ATOM     56  N   UNL     1      -8.249 -16.308   4.641  1.00  0.00    -0.354 N 
ATOM     57  N   UNL     1     -11.281 -17.077   7.956  1.00  0.00    -0.248 NA
ATOM     58  C   UNL     1      -9.601 -17.967   9.306  1.00  0.00     0.031 C 
ATOM     59  C   UNL     1      -7.494 -17.205   6.502  1.00  0.00     0.029 A 
ATOM     60  C   UNL     1      -8.653 -16.966   5.776  1.00  0.00     0.049 A 
ATOM     61  H   UNL     1      -8.812 -16.117   3.857  1.00  0.00     0.167 HD
ATOM     62  C   UNL     1     -10.402 -17.741   7.173  1.00  0.00     0.074 A 
ATOM     63  C   UNL     1      -9.568 -18.505   8.084  1.00  0.00     0.031 C 
ATOM     64  C   UNL     1     -10.057 -17.082   6.043  1.00  0.00     0.037 A 
BRANCH  51  65
ATOM     65  C   UNL     1      -7.282 -13.894   3.255  1.00  0.00     0.057 A 
ATOM     66  C   UNL     1      -6.689 -13.757   2.001  1.00  0.00     0.134 A 
ATOM     67  C   UNL     1      -8.496 -13.209   3.465  1.00  0.00     0.134 A 
ATOM     68  F   UNL     1      -5.577 -14.442   1.699  1.00  0.00    -0.206 F 
ATOM     69  C   UNL     1      -7.229 -12.907   1.031  1.00  0.00     0.040 A 
ATOM     70  C   UNL     1      -9.005 -12.305   2.535  1.00  0.00     0.040 A 
ATOM     71  F   UNL     1      -9.223 -13.409   4.577  1.00  0.00    -0.206 F 
ATOM     72  C   UNL     1      -8.363 -12.145   1.314  1.00  0.00     0.006 A 
ENDBRANCH  51  65
BRANCH  52  73
ATOM     73  C   UNL     1     -12.022 -16.723  11.034  1.00  0.00     0.057 A 
ATOM     74  C   UNL     1     -12.789 -17.865  10.586  1.00  0.00     0.134 A 
ATOM     75  C   UNL     1     -11.890 -16.706  12.430  1.00  0.00     0.134 A 
ATOM     76  F   UNL     1     -13.089 -18.047   9.293  1.00  0.00    -0.206 F 
ATOM     77  C   UNL     1     -13.247 -18.921  11.412  1.00  0.00     0.040 A 
ATOM     78  C   UNL     1     -12.392 -17.744  13.278  1.00  0.00     0.040 A 
ATOM     79  F   UNL     1     -11.192 -15.731  13.024  1.00  0.00    -0.206 F 
ATOM     80  C   UNL     1     -13.033 -18.874  12.772  1.00  0.00     0.006 A 
ENDBRANCH  52  73
BRANCH  64  81
ATOM     81  C   UNL     1     -11.166 -16.344   5.315  1.00  0.00     0.057 A 
ATOM     82  C   UNL     1     -12.026 -15.360   5.852  1.00  0.00     0.134 A 
ATOM     83  C   UNL     1     -11.432 -16.724   3.997  1.00  0.00     0.134 A 
ATOM     84  F   UNL     1     -11.838 -14.831   7.068  1.00  0.00    -0.206 F 
ATOM     85  C   UNL     1     -13.127 -14.857   5.146  1.00  0.00     0.040 A 
ATOM     86  C   UNL     1     -12.499 -16.194   3.263  1.00  0.00     0.040 A 
ATOM     87  F   UNL     1     -10.642 -17.619   3.386  1.00  0.00    -0.206 F 
ATOM     88  C   UNL     1     -13.366 -15.276   3.845  1.00  0.00     0.006 A 
ENDBRANCH  64  81
ENDBRANCH  38  39
ENDBRANCH  31  33
ENDBRANCH  30  31
ENDBRANCH  29  30
ENDBRANCH   1  29
TORSDOF 13
