REMARK SMILES O=C(OCCOC(=O)[C@H]1[C@@H](C(=O)NNC(=O)c2ccccc2Cl)[C@H]2C=C[C@@H]1C2)c1ccc(-c2c3nc(c(-c4c(F)cccc4F)c4ccc([nH]4)c(-c4c(F)cccc4F)c4nc(c(-c5c(F)cccc5F)c5ccc2[nH]5)C=C4)C=C3)cc1
REMARK SMILES IDX 5 1 4 2 3 3 2 4 1 5 29 6 30 7 82 8 31 9 81 10 32 11 33 12
REMARK SMILES IDX 34 13 75 14 35 15 80 16 74 17 76 18 36 19 79 20 73 21 72 22
REMARK SMILES IDX 37 24 63 25 46 26 62 27 47 28 50 29 61 30 77 31 48 32 49 33
REMARK SMILES IDX 60 35 78 36 51 37 38 38 39 39 44 40 40 41 41 42 43 43 45 44
REMARK SMILES IDX 42 45 64 46 65 47 70 48 66 49 67 50 69 51 71 52 68 53 52 54
REMARK SMILES IDX 53 55 58 56 54 57 55 58 57 59 59 60 56 61 6 62 7 63 8 64
REMARK SMILES IDX 9 65 10 66 27 67 24 68 26 69 28 70 25 71 11 72 12 73 13 74
REMARK SMILES IDX 14 76 15 77 16 79 17 80 18 81 22 82 19 83 21 84 23 85 20 86
REMARK H PARENT 76 23 50 34 13 75 14 78
REMARK Flexibility Score: inf
ROOT
ATOM      1  C   UNL     1       5.164  -3.282  -3.617  1.00  0.00     0.274 C 
ENDROOT
BRANCH   1   2
ATOM      2  C   UNL     1       5.831  -2.588  -4.808  1.00  0.00     0.275 C 
BRANCH   2   3
ATOM      3  O   UNL     1       5.291  -1.296  -5.104  1.00  0.00    -0.458 OA
BRANCH   3   4
ATOM      4  C   UNL     1       4.497  -1.160  -6.192  1.00  0.00     0.338 C 
ATOM      5  O   UNL     1       4.683  -0.313  -7.057  1.00  0.00    -0.246 OA
BRANCH   4   6
ATOM      6  C   UNL     1       3.193  -1.832  -6.043  1.00  0.00     0.060 A 
ATOM      7  C   UNL     1       2.995  -3.194  -6.288  1.00  0.00     0.016 A 
ATOM      8  C   UNL     1       2.122  -1.028  -5.669  1.00  0.00     0.016 A 
ATOM      9  C   UNL     1       1.725  -3.763  -6.103  1.00  0.00     0.010 A 
ATOM     10  C   UNL     1       0.872  -1.600  -5.458  1.00  0.00     0.010 A 
ATOM     11  C   UNL     1       0.652  -2.972  -5.672  1.00  0.00    -0.014 A 
BRANCH  11  12
ATOM     12  C   UNL     1      -0.732  -3.498  -5.501  1.00  0.00     0.031 A 
ATOM     13  C   UNL     1      -1.841  -2.913  -6.337  1.00  0.00     0.074 A 
ATOM     14  C   UNL     1      -1.041  -4.361  -4.512  1.00  0.00     0.049 A 
ATOM     15  N   UNL     1      -3.134  -3.101  -6.254  1.00  0.00    -0.248 NA
ATOM     16  C   UNL     1      -1.439  -1.962  -7.387  1.00  0.00     0.031 C 
ATOM     17  C   UNL     1      -0.098  -4.976  -3.580  1.00  0.00     0.029 A 
ATOM     18  N   UNL     1      -2.268  -4.803  -4.073  1.00  0.00    -0.354 N 
ATOM     19  C   UNL     1      -3.690  -2.302  -7.244  1.00  0.00     0.074 A 
ATOM     20  C   UNL     1      -2.611  -1.535  -7.827  1.00  0.00     0.031 C 
ATOM     21  C   UNL     1      -0.782  -5.602  -2.606  1.00  0.00     0.029 A 
ATOM     22  C   UNL     1      -2.209  -5.487  -2.881  1.00  0.00     0.049 A 
ATOM     23  H   UNL     1      -3.106  -4.646  -4.564  1.00  0.00     0.167 HD
ATOM     24  C   UNL     1      -4.967  -2.267  -7.692  1.00  0.00     0.037 A 
ATOM     25  C   UNL     1      -3.194  -5.967  -2.099  1.00  0.00     0.037 A 
ATOM     26  C   UNL     1      -6.031  -3.068  -7.159  1.00  0.00     0.049 A 
ATOM     27  C   UNL     1      -4.613  -5.915  -2.587  1.00  0.00     0.074 A 
ATOM     28  C   UNL     1      -7.319  -3.234  -7.635  1.00  0.00     0.029 A 
ATOM     29  N   UNL     1      -5.921  -3.844  -6.016  1.00  0.00    -0.354 N 
ATOM     30  N   UNL     1      -5.102  -5.303  -3.636  1.00  0.00    -0.248 NA
ATOM     31  C   UNL     1      -5.604  -6.691  -1.826  1.00  0.00     0.031 C 
ATOM     32  C   UNL     1      -7.990  -4.114  -6.777  1.00  0.00     0.029 A 
ATOM     33  C   UNL     1      -7.114  -4.500  -5.775  1.00  0.00     0.049 A 
ATOM     34  H   UNL     1      -5.113  -3.917  -5.458  1.00  0.00     0.167 HD
ATOM     35  C   UNL     1      -6.432  -5.692  -3.715  1.00  0.00     0.074 A 
ATOM     36  C   UNL     1      -6.688  -6.552  -2.578  1.00  0.00     0.031 C 
ATOM     37  C   UNL     1      -7.344  -5.395  -4.671  1.00  0.00     0.037 A 
BRANCH  24  38
ATOM     38  C   UNL     1      -5.230  -1.393  -8.881  1.00  0.00     0.057 A 
ATOM     39  C   UNL     1      -4.711  -1.722 -10.143  1.00  0.00     0.134 A 
ATOM     40  C   UNL     1      -5.954  -0.203  -8.769  1.00  0.00     0.134 A 
ATOM     41  F   UNL     1      -3.997  -2.846 -10.312  1.00  0.00    -0.206 F 
ATOM     42  C   UNL     1      -4.855  -0.871 -11.237  1.00  0.00     0.040 A 
ATOM     43  C   UNL     1      -6.127   0.646  -9.865  1.00  0.00     0.040 A 
ATOM     44  F   UNL     1      -6.483   0.167  -7.593  1.00  0.00    -0.206 F 
ATOM     45  C   UNL     1      -5.564   0.320 -11.099  1.00  0.00     0.006 A 
ENDBRANCH  24  38
BRANCH  25  46
ATOM     46  C   UNL     1      -2.872  -6.623  -0.810  1.00  0.00     0.057 A 
ATOM     47  C   UNL     1      -2.781  -8.015  -0.711  1.00  0.00     0.134 A 
ATOM     48  C   UNL     1      -2.677  -5.874   0.355  1.00  0.00     0.134 A 
ATOM     49  F   UNL     1      -2.975  -8.782  -1.794  1.00  0.00    -0.206 F 
ATOM     50  C   UNL     1      -2.528  -8.645   0.508  1.00  0.00     0.040 A 
ATOM     51  C   UNL     1      -2.414  -6.490   1.580  1.00  0.00     0.040 A 
ATOM     52  F   UNL     1      -2.752  -4.536   0.321  1.00  0.00    -0.206 F 
ATOM     53  C   UNL     1      -2.345  -7.881   1.660  1.00  0.00     0.006 A 
ENDBRANCH  25  46
BRANCH  37  54
ATOM     54  C   UNL     1      -8.663  -6.097  -4.606  1.00  0.00     0.057 A 
ATOM     55  C   UNL     1      -9.674  -5.709  -3.721  1.00  0.00     0.134 A 
ATOM     56  C   UNL     1      -8.934  -7.156  -5.482  1.00  0.00     0.134 A 
ATOM     57  F   UNL     1      -9.466  -4.714  -2.846  1.00  0.00    -0.206 F 
ATOM     58  C   UNL     1     -10.910  -6.356  -3.705  1.00  0.00     0.040 A 
ATOM     59  C   UNL     1     -10.171  -7.799  -5.488  1.00  0.00     0.040 A 
ATOM     60  F   UNL     1      -8.002  -7.575  -6.353  1.00  0.00    -0.206 F 
ATOM     61  C   UNL     1     -11.164  -7.399  -4.596  1.00  0.00     0.006 A 
ENDBRANCH  37  54
ENDBRANCH  11  12
ENDBRANCH   4   6
ENDBRANCH   3   4
ENDBRANCH   2   3
ENDBRANCH   1   2
BRANCH   1  62
ATOM     62  O   UNL     1       4.146  -2.511  -2.961  1.00  0.00    -0.462 OA
BRANCH  62  63
ATOM     63  C   UNL     1       4.598  -1.671  -2.000  1.00  0.00     0.310 C 
ATOM     64  O   UNL     1       5.787  -1.436  -1.809  1.00  0.00    -0.252 OA
BRANCH  63  65
ATOM     65  C   UNL     1       3.520  -1.129  -1.083  1.00  0.00     0.119 C 
ATOM     66  C   UNL     1       2.826   0.244  -1.349  1.00  0.00     0.102 C 
ATOM     67  C   UNL     1       2.328  -2.074  -0.803  1.00  0.00     0.027 C 
ATOM     68  C   UNL     1       1.325  -0.087  -1.042  1.00  0.00     0.025 C 
ATOM     69  C   UNL     1       1.422  -2.159  -2.000  1.00  0.00    -0.027 C 
ATOM     70  C   UNL     1       1.451  -1.151   0.057  1.00  0.00     0.017 C 
ATOM     71  C   UNL     1       0.779  -0.991  -2.112  1.00  0.00    -0.027 C 
BRANCH  66  72
ATOM     72  C   UNL     1       3.029   0.915  -2.703  1.00  0.00     0.242 C 
ATOM     73  O   UNL     1       2.087   1.222  -3.437  1.00  0.00    -0.273 OA
ATOM     74  N   UNL     1       4.287   1.286  -3.093  1.00  0.00    -0.267 N 
ATOM     75  H   UNL     1       4.430   1.495  -4.045  1.00  0.00     0.191 HD
BRANCH  74  76
ATOM     76  N   UNL     1       5.377   1.389  -2.239  1.00  0.00    -0.263 N 
ATOM     77  C   UNL     1       6.680   1.593  -2.642  1.00  0.00     0.271 C 
ATOM     78  H   UNL     1       5.206   1.309  -1.272  1.00  0.00     0.191 HD
ATOM     79  O   UNL     1       7.590   1.610  -1.815  1.00  0.00    -0.267 OA
BRANCH  77  80
ATOM     80  C   UNL     1       7.021   1.762  -4.069  1.00  0.00     0.060 A 
ATOM     81  C   UNL     1       7.943   0.853  -4.608  1.00  0.00     0.015 A 
ATOM     82  C   UNL     1       6.568   2.833  -4.846  1.00  0.00     0.053 A 
ATOM     83  C   UNL     1       8.380   0.992  -5.926  1.00  0.00     0.001 A 
ATOM     84  C   UNL     1       7.002   2.962  -6.170  1.00  0.00     0.021 A 
ATOM     85  Cl  UNL     1       5.516   4.058  -4.232  1.00  0.00    -0.083 Cl
ATOM     86  C   UNL     1       7.905   2.043  -6.708  1.00  0.00     0.002 A 
ENDBRANCH  77  80
ENDBRANCH  74  76
ENDBRANCH  66  72
ENDBRANCH  63  65
ENDBRANCH  62  63
ENDBRANCH   1  62
TORSDOF 14
