REMARK SMILES Cn1ccc(NC(=O)[C@@H]2CCCC[C@@H]2C(=O)OCCOC(=O)c2ccc(-c3c4nc(c(-c5c(F)cccc5F)c5ccc([nH]5)c(-c5c(F)cccc5F)c5nc(c(-c6c(F)cccc6F)c6ccc3[nH]6)C=C5)C=C4)cc2)n1
REMARK SMILES IDX 18 1 17 2 15 3 16 4 14 5 9 6 10 7 11 8 13 9 12 10 7 11 6 12
REMARK SMILES IDX 8 14 5 15 1 16 2 17 3 18 77 19 4 20 19 21 20 22 21 23 22 24
REMARK SMILES IDX 23 25 24 26 76 27 25 28 75 29 26 30 27 31 28 32 69 33 29 34
REMARK SMILES IDX 74 35 68 36 70 37 30 38 73 39 67 40 66 41 31 43 57 44 40 45
REMARK SMILES IDX 56 46 41 47 44 48 55 49 71 50 42 51 43 52 54 54 72 55 45 56
REMARK SMILES IDX 32 57 33 58 38 59 34 60 35 61 37 62 39 63 36 64 58 65 59 66
REMARK SMILES IDX 64 67 60 68 61 69 63 70 65 71 62 72 46 73 47 74 52 75 48 76
REMARK SMILES IDX 49 77 51 78 53 79 50 80
REMARK H PARENT 6 13 70 42 44 53
REMARK Flexibility Score: inf
ROOT
ATOM      1  C   UNL     1       2.396   2.320   3.450  1.00  0.00     0.274 C 
ENDROOT
BRANCH   1   2
ATOM      2  O   UNL     1       1.782   2.812   2.239  1.00  0.00    -0.462 OA
BRANCH   2   3
ATOM      3  C   UNL     1       0.504   2.428   2.016  1.00  0.00     0.309 C 
ATOM      4  O   UNL     1      -0.181   1.801   2.820  1.00  0.00    -0.252 OA
BRANCH   3   5
ATOM      5  C   UNL     1      -0.030   2.813   0.645  1.00  0.00     0.111 C 
ATOM      6  C   UNL     1       0.983   3.227  -0.449  1.00  0.00     0.093 C 
ATOM      7  C   UNL     1       1.235   4.753  -0.406  1.00  0.00     0.014 C 
ATOM      8  C   UNL     1      -0.054   5.563  -0.468  1.00  0.00     0.001 C 
ATOM      9  C   UNL     1      -1.269   3.719   0.710  1.00  0.00     0.016 C 
ATOM     10  C   UNL     1      -0.958   5.205   0.697  1.00  0.00     0.001 C 
BRANCH   6  11
ATOM     11  C   UNL     1       2.340   2.494  -0.439  1.00  0.00     0.229 C 
ATOM     12  N   UNL     1       2.455   1.140  -0.497  1.00  0.00    -0.309 N 
ATOM     13  H   UNL     1       3.374   0.799  -0.402  1.00  0.00     0.171 HD
ATOM     14  O   UNL     1       3.404   3.124  -0.358  1.00  0.00    -0.274 OA
BRANCH  12  15
ATOM     15  C   UNL     1       1.499   0.173  -0.666  1.00  0.00     0.154 A 
ATOM     16  C   UNL     1      -1.829  -0.774  -0.873  1.00  0.00     0.173 C 
ATOM     17  N   UNL     1      -0.386  -0.762  -0.855  1.00  0.00    -0.274 N 
ATOM     18  C   UNL     1       0.448  -1.770  -0.477  1.00  0.00     0.110 A 
ATOM     19  N   UNL     1       0.260   0.389  -1.099  1.00  0.00    -0.155 NA
ATOM     20  C   UNL     1       1.695  -1.197  -0.373  1.00  0.00     0.068 A 
ENDBRANCH  12  15
ENDBRANCH   6  11
ENDBRANCH   3   5
ENDBRANCH   2   3
ENDBRANCH   1   2
BRANCH   1  21
ATOM     21  C   UNL     1       2.537   3.442   4.471  1.00  0.00     0.275 C 
BRANCH  21  22
ATOM     22  O   UNL     1       1.232   3.973   4.750  1.00  0.00    -0.458 OA
BRANCH  22  23
ATOM     23  C   UNL     1       1.105   5.314   4.653  1.00  0.00     0.338 C 
ATOM     24  O   UNL     1       2.009   6.131   4.530  1.00  0.00    -0.246 OA
BRANCH  23  25
ATOM     25  C   UNL     1      -0.325   5.693   4.663  1.00  0.00     0.060 A 
ATOM     26  C   UNL     1      -1.299   4.841   4.143  1.00  0.00     0.016 A 
ATOM     27  C   UNL     1      -0.686   6.975   5.079  1.00  0.00     0.016 A 
ATOM     28  C   UNL     1      -2.596   5.306   3.927  1.00  0.00     0.010 A 
ATOM     29  C   UNL     1      -2.016   7.396   4.971  1.00  0.00     0.010 A 
ATOM     30  C   UNL     1      -2.983   6.582   4.355  1.00  0.00    -0.014 A 
BRANCH  30  31
ATOM     31  C   UNL     1      -4.371   7.088   4.138  1.00  0.00     0.031 A 
ATOM     32  C   UNL     1      -4.596   8.421   3.470  1.00  0.00     0.074 A 
ATOM     33  C   UNL     1      -5.444   6.378   4.543  1.00  0.00     0.049 A 
ATOM     34  N   UNL     1      -5.665   9.176   3.467  1.00  0.00    -0.248 NA
ATOM     35  C   UNL     1      -3.461   8.989   2.725  1.00  0.00     0.031 C 
ATOM     36  C   UNL     1      -5.410   5.048   5.153  1.00  0.00     0.029 A 
ATOM     37  N   UNL     1      -6.784   6.685   4.501  1.00  0.00    -0.354 N 
ATOM     38  C   UNL     1      -5.304  10.344   2.807  1.00  0.00     0.074 A 
ATOM     39  C   UNL     1      -3.925  10.187   2.394  1.00  0.00     0.031 C 
ATOM     40  C   UNL     1      -6.665   4.634   5.382  1.00  0.00     0.029 A 
ATOM     41  C   UNL     1      -7.586   5.712   5.046  1.00  0.00     0.049 A 
ATOM     42  H   UNL     1      -7.134   7.521   4.118  1.00  0.00     0.167 HD
ATOM     43  C   UNL     1      -6.052  11.451   2.584  1.00  0.00     0.037 A 
ATOM     44  C   UNL     1      -8.906   5.704   5.311  1.00  0.00     0.037 A 
ATOM     45  C   UNL     1      -7.449  11.569   2.913  1.00  0.00     0.049 A 
ATOM     46  C   UNL     1      -9.721   6.933   5.044  1.00  0.00     0.074 A 
ATOM     47  C   UNL     1      -8.297  12.646   2.715  1.00  0.00     0.029 A 
ATOM     48  N   UNL     1      -8.213  10.559   3.477  1.00  0.00    -0.354 N 
ATOM     49  N   UNL     1      -9.341   8.080   4.540  1.00  0.00    -0.248 NA
ATOM     50  C   UNL     1     -11.141   6.879   5.421  1.00  0.00     0.031 C 
ATOM     51  C   UNL     1      -9.571  12.293   3.173  1.00  0.00     0.029 A 
ATOM     52  C   UNL     1      -9.522  10.986   3.630  1.00  0.00     0.049 A 
ATOM     53  H   UNL     1      -7.875   9.670   3.732  1.00  0.00     0.167 HD
ATOM     54  C   UNL     1     -10.467   8.889   4.550  1.00  0.00     0.074 A 
ATOM     55  C   UNL     1     -11.554   8.092   5.080  1.00  0.00     0.031 C 
ATOM     56  C   UNL     1     -10.588  10.183   4.166  1.00  0.00     0.037 A 
BRANCH  43  57
ATOM     57  C   UNL     1      -5.370  12.646   1.988  1.00  0.00     0.057 A 
ATOM     58  C   UNL     1      -5.049  12.727   0.630  1.00  0.00     0.134 A 
ATOM     59  C   UNL     1      -5.085  13.762   2.789  1.00  0.00     0.134 A 
ATOM     60  F   UNL     1      -5.284  11.689  -0.187  1.00  0.00    -0.206 F 
ATOM     61  C   UNL     1      -4.457  13.870   0.088  1.00  0.00     0.040 A 
ATOM     62  C   UNL     1      -4.513  14.918   2.256  1.00  0.00     0.040 A 
ATOM     63  F   UNL     1      -5.374  13.751   4.099  1.00  0.00    -0.206 F 
ATOM     64  C   UNL     1      -4.195  14.973   0.901  1.00  0.00     0.006 A 
ENDBRANCH  43  57
BRANCH  44  65
ATOM     65  C   UNL     1      -9.519   4.503   5.931  1.00  0.00     0.057 A 
ATOM     66  C   UNL     1     -10.368   3.669   5.197  1.00  0.00     0.134 A 
ATOM     67  C   UNL     1      -9.247   4.147   7.257  1.00  0.00     0.134 A 
ATOM     68  F   UNL     1     -10.686   3.973   3.931  1.00  0.00    -0.206 F 
ATOM     69  C   UNL     1     -10.923   2.518   5.760  1.00  0.00     0.040 A 
ATOM     70  C   UNL     1      -9.773   2.987   7.825  1.00  0.00     0.040 A 
ATOM     71  F   UNL     1      -8.438   4.908   8.010  1.00  0.00    -0.206 F 
ATOM     72  C   UNL     1     -10.616   2.169   7.075  1.00  0.00     0.006 A 
ENDBRANCH  44  65
BRANCH  56  73
ATOM     73  C   UNL     1     -11.943  10.805   4.301  1.00  0.00     0.057 A 
ATOM     74  C   UNL     1     -12.431  11.228   5.543  1.00  0.00     0.134 A 
ATOM     75  C   UNL     1     -12.758  10.994   3.180  1.00  0.00     0.134 A 
ATOM     76  F   UNL     1     -11.700  11.058   6.655  1.00  0.00    -0.206 F 
ATOM     77  C   UNL     1     -13.696  11.803   5.668  1.00  0.00     0.040 A 
ATOM     78  C   UNL     1     -14.018  11.583   3.290  1.00  0.00     0.040 A 
ATOM     79  F   UNL     1     -12.343  10.612   1.963  1.00  0.00    -0.206 F 
ATOM     80  C   UNL     1     -14.492  11.985   4.538  1.00  0.00     0.006 A 
ENDBRANCH  56  73
ENDBRANCH  30  31
ENDBRANCH  23  25
ENDBRANCH  22  23
ENDBRANCH  21  22
ENDBRANCH   1  21
TORSDOF 13
