REMARK SMILES CC(C)C[C@@H](NS(=O)(=O)c1ccc(CC#N)cc1)C(=O)OCCOC(=O)c1ccc(-c2c3nc(c(-c4c(F)cccc4F)c4ccc([nH]4)c(-c4c(F)cccc4F)c4nc(c(-c5c(F)cccc5F)c5ccc2[nH]5)C=C4)C=C3)cc1
REMARK SMILES IDX 21 1 19 2 20 3 5 4 4 5 2 6 1 7 3 8 6 9 7 11 8 12 9 13 10 14
REMARK SMILES IDX 11 15 18 16 12 17 17 18 13 19 14 20 15 21 16 22 22 23 23 24
REMARK SMILES IDX 24 25 25 26 26 27 27 28 28 29 80 30 29 31 79 32 30 33 31 34
REMARK SMILES IDX 32 35 73 36 33 37 78 38 72 39 74 40 34 41 77 42 71 43 70 44
REMARK SMILES IDX 35 46 61 47 44 48 60 49 45 50 48 51 59 52 75 53 46 54 47 55
REMARK SMILES IDX 58 57 76 58 49 59 36 60 37 61 42 62 38 63 39 64 41 65 43 66
REMARK SMILES IDX 40 67 62 68 63 69 68 70 64 71 65 72 67 73 69 74 66 75 50 76
REMARK SMILES IDX 51 77 56 78 52 79 53 80 55 81 57 82 54 83
REMARK H PARENT 6 10 74 45 48 56
REMARK Flexibility Score: inf
ROOT
ATOM      1  O   UNL     1      -3.725   1.809   0.672  1.00  0.00    -0.461 OA
ENDROOT
BRANCH   1   2
ATOM      2  C   UNL     1      -3.094   0.736   1.221  1.00  0.00     0.324 C 
ATOM      3  O   UNL     1      -3.657  -0.314   1.510  1.00  0.00    -0.250 OA
BRANCH   2   4
ATOM      4  C   UNL     1      -1.612   0.970   1.503  1.00  0.00     0.180 C 
BRANCH   4   5
ATOM      5  C   UNL     1      -0.945   1.793   0.389  1.00  0.00     0.035 C 
BRANCH   5   6
ATOM      6  C   UNL     1       0.581   1.600   0.234  1.00  0.00    -0.015 C 
ATOM      7  C   UNL     1       1.001   0.136   0.074  1.00  0.00     0.007 C 
ATOM      8  C   UNL     1       1.064   2.385  -0.992  1.00  0.00     0.007 C 
ENDBRANCH   5   6
ENDBRANCH   4   5
BRANCH   4   9
ATOM      9  N   UNL     1      -1.402   1.590   2.829  1.00  0.00    -0.197 NA
ATOM     10  H   UNL     1      -2.033   2.390   2.892  1.00  0.00     0.142 HD
BRANCH   9  11
ATOM     11  S   UNL     1      -1.658   0.639   4.207  1.00  0.00     0.241 S 
ATOM     12  O   UNL     1      -1.142  -0.682   3.916  1.00  0.00    -0.207 OA
ATOM     13  O   UNL     1      -1.171   1.415   5.323  1.00  0.00    -0.207 OA
BRANCH  11  14
ATOM     14  C   UNL     1      -3.423   0.562   4.344  1.00  0.00     0.082 A 
ATOM     15  C   UNL     1      -4.157   1.746   4.270  1.00  0.00     0.022 A 
ATOM     16  C   UNL     1      -4.069  -0.679   4.373  1.00  0.00     0.022 A 
ATOM     17  C   UNL     1      -5.544   1.680   4.154  1.00  0.00     0.006 A 
ATOM     18  C   UNL     1      -5.461  -0.740   4.257  1.00  0.00     0.006 A 
ATOM     19  C   UNL     1      -6.210   0.437   4.121  1.00  0.00    -0.034 A 
BRANCH  19  20
ATOM     20  C   UNL     1      -7.726   0.393   4.030  1.00  0.00     0.155 C 
BRANCH  20  21
ATOM     21  C   UNL     1      -8.245   1.061   5.293  1.00  0.00     0.067 C 
ATOM     22  N   UNL     1      -8.675   1.615   6.341  1.00  0.00    -0.198 NA
ENDBRANCH  20  21
ENDBRANCH  19  20
ENDBRANCH  11  14
ENDBRANCH   9  11
ENDBRANCH   4   9
ENDBRANCH   2   4
ENDBRANCH   1   2
BRANCH   1  23
ATOM     23  C   UNL     1      -5.146   1.658   0.473  1.00  0.00     0.274 C 
BRANCH  23  24
ATOM     24  C   UNL     1      -5.520   1.008  -0.867  1.00  0.00     0.275 C 
BRANCH  24  25
ATOM     25  O   UNL     1      -5.199  -0.396  -0.905  1.00  0.00    -0.458 OA
BRANCH  25  26
ATOM     26  C   UNL     1      -3.960  -0.683  -1.373  1.00  0.00     0.338 C 
ATOM     27  O   UNL     1      -3.159   0.113  -1.841  1.00  0.00    -0.246 OA
BRANCH  26  28
ATOM     28  C   UNL     1      -3.591  -2.079  -1.062  1.00  0.00     0.060 A 
ATOM     29  C   UNL     1      -2.332  -2.294  -0.488  1.00  0.00     0.016 A 
ATOM     30  C   UNL     1      -4.421  -3.159  -1.362  1.00  0.00     0.016 A 
ATOM     31  C   UNL     1      -1.887  -3.581  -0.216  1.00  0.00     0.010 A 
ATOM     32  C   UNL     1      -3.962  -4.459  -1.119  1.00  0.00     0.010 A 
ATOM     33  C   UNL     1      -2.686  -4.673  -0.564  1.00  0.00    -0.014 A 
BRANCH  33  34
ATOM     34  C   UNL     1      -2.112  -6.033  -0.481  1.00  0.00     0.031 A 
ATOM     35  C   UNL     1      -1.521  -6.643  -1.719  1.00  0.00     0.074 A 
ATOM     36  C   UNL     1      -2.066  -6.689   0.691  1.00  0.00     0.049 A 
ATOM     37  N   UNL     1      -1.028  -7.841  -1.900  1.00  0.00    -0.248 NA
ATOM     38  C   UNL     1      -1.475  -5.783  -2.913  1.00  0.00     0.031 C 
ATOM     39  C   UNL     1      -2.530  -6.162   1.973  1.00  0.00     0.029 A 
ATOM     40  N   UNL     1      -1.602  -7.944   0.988  1.00  0.00    -0.354 N 
ATOM     41  C   UNL     1      -0.628  -7.884  -3.228  1.00  0.00     0.074 A 
ATOM     42  C   UNL     1      -0.943  -6.598  -3.812  1.00  0.00     0.031 C 
ATOM     43  C   UNL     1      -2.339  -7.097   2.921  1.00  0.00     0.029 A 
ATOM     44  C   UNL     1      -1.775  -8.295   2.304  1.00  0.00     0.049 A 
ATOM     45  H   UNL     1      -1.184  -8.537   0.322  1.00  0.00     0.167 HD
ATOM     46  C   UNL     1      -0.049  -8.907  -3.900  1.00  0.00     0.037 A 
ATOM     47  C   UNL     1      -1.531  -9.463   2.927  1.00  0.00     0.037 A 
ATOM     48  C   UNL     1       0.268 -10.181  -3.314  1.00  0.00     0.049 A 
ATOM     49  C   UNL     1      -0.959 -10.612   2.141  1.00  0.00     0.074 A 
ATOM     50  C   UNL     1       0.843 -11.288  -3.912  1.00  0.00     0.029 A 
ATOM     51  N   UNL     1       0.038 -10.514  -1.988  1.00  0.00    -0.354 N 
ATOM     52  N   UNL     1      -0.610 -10.656   0.877  1.00  0.00    -0.248 NA
ATOM     53  C   UNL     1      -0.753 -11.874   2.865  1.00  0.00     0.031 C 
ATOM     54  C   UNL     1       0.929 -12.305  -2.955  1.00  0.00     0.029 A 
ATOM     55  C   UNL     1       0.444 -11.817  -1.752  1.00  0.00     0.049 A 
ATOM     56  H   UNL     1      -0.355  -9.914  -1.314  1.00  0.00     0.167 HD
ATOM     57  C   UNL     1      -0.125 -11.939   0.661  1.00  0.00     0.074 A 
ATOM     58  C   UNL     1      -0.215 -12.640   1.925  1.00  0.00     0.031 C 
ATOM     59  C   UNL     1       0.352 -12.490  -0.482  1.00  0.00     0.037 A 
BRANCH  46  60
ATOM     60  C   UNL     1       0.238  -8.696  -5.355  1.00  0.00     0.057 A 
ATOM     61  C   UNL     1       1.301  -7.895  -5.791  1.00  0.00     0.134 A 
ATOM     62  C   UNL     1      -0.551  -9.315  -6.331  1.00  0.00     0.134 A 
ATOM     63  F   UNL     1       2.081  -7.258  -4.905  1.00  0.00    -0.206 F 
ATOM     64  C   UNL     1       1.558  -7.705  -7.150  1.00  0.00     0.040 A 
ATOM     65  C   UNL     1      -0.292  -9.149  -7.692  1.00  0.00     0.040 A 
ATOM     66  F   UNL     1      -1.586 -10.092  -5.978  1.00  0.00    -0.206 F 
ATOM     67  C   UNL     1       0.764  -8.338  -8.105  1.00  0.00     0.006 A 
ENDBRANCH  46  60
BRANCH  47  68
ATOM     68  C   UNL     1      -1.856  -9.618   4.367  1.00  0.00     0.057 A 
ATOM     69  C   UNL     1      -0.850  -9.741   5.330  1.00  0.00     0.134 A 
ATOM     70  C   UNL     1      -3.184  -9.665   4.809  1.00  0.00     0.134 A 
ATOM     71  F   UNL     1       0.441  -9.731   4.964  1.00  0.00    -0.206 F 
ATOM     72  C   UNL     1      -1.151  -9.916   6.682  1.00  0.00     0.040 A 
ATOM     73  C   UNL     1      -3.499  -9.818   6.160  1.00  0.00     0.040 A 
ATOM     74  F   UNL     1      -4.194  -9.557   3.934  1.00  0.00    -0.206 F 
ATOM     75  C   UNL     1      -2.480  -9.950   7.101  1.00  0.00     0.006 A 
ENDBRANCH  47  68
BRANCH  59  76
ATOM     76  C   UNL     1       0.842 -13.904  -0.408  1.00  0.00     0.057 A 
ATOM     77  C   UNL     1      -0.042 -14.987  -0.345  1.00  0.00     0.134 A 
ATOM     78  C   UNL     1       2.214 -14.186  -0.446  1.00  0.00     0.134 A 
ATOM     79  F   UNL     1      -1.367 -14.781  -0.295  1.00  0.00    -0.206 F 
ATOM     80  C   UNL     1       0.421 -16.303  -0.306  1.00  0.00     0.040 A 
ATOM     81  C   UNL     1       2.688 -15.497  -0.428  1.00  0.00     0.040 A 
ATOM     82  F   UNL     1       3.111 -13.191  -0.515  1.00  0.00    -0.206 F 
ATOM     83  C   UNL     1       1.791 -16.561  -0.354  1.00  0.00     0.006 A 
ENDBRANCH  59  76
ENDBRANCH  33  34
ENDBRANCH  26  28
ENDBRANCH  25  26
ENDBRANCH  24  25
ENDBRANCH  23  24
ENDBRANCH   1  23
TORSDOF 18
