REMARK SMILES C#CC[N@H+](CC(=O)OCCOC(=O)c1ccc(-c2c3nc(c(-c4c(F)cccc4F)c4ccc([nH]4)c(-c4c(F)cccc4F)c4nc(c(-c5c(F)cccc5F)c5ccc2[nH]5)C=C4)C=C3)cc1)[C@H](C)C(=O)NCCC
REMARK SMILES IDX 8 1 6 2 7 3 5 4 4 5 3 7 2 8 1 9 68 10 69 11 70 12 71 13
REMARK SMILES IDX 72 14 73 16 74 17 75 18 9 19 10 20 11 21 12 22 13 23 14 24
REMARK SMILES IDX 15 25 67 26 16 27 66 28 17 29 18 30 19 31 60 32 20 33 65 34
REMARK SMILES IDX 59 35 61 36 21 37 64 38 58 39 57 40 22 42 48 43 31 44 47 45
REMARK SMILES IDX 32 46 35 47 46 48 62 49 33 50 34 51 45 53 63 54 36 55 23 56
REMARK SMILES IDX 24 57 29 58 25 59 26 60 28 61 30 62 27 63 49 64 50 65 55 66
REMARK SMILES IDX 51 67 52 68 54 69 56 70 53 71 37 72 38 73 43 74 39 75 40 76
REMARK SMILES IDX 42 77 44 78 41 79
REMARK H PARENT 4 6 72 15 61 41 35 52
REMARK Flexibility Score: inf
ROOT
ATOM      1  O   UNL     1      -4.141  -3.318  -2.021  1.00  0.00    -0.458 OA
ENDROOT
BRANCH   1   2
ATOM      2  C   UNL     1      -4.636  -3.097  -0.774  1.00  0.00     0.361 C 
ATOM      3  O   UNL     1      -5.676  -3.583  -0.346  1.00  0.00    -0.245 OA
BRANCH   2   4
ATOM      4  C   UNL     1      -3.792  -2.092   0.012  1.00  0.00     0.387 C 
BRANCH   4   5
ATOM      5  N   UNL     1      -2.384  -2.481   0.332  1.00  0.00    -0.306 N 
ATOM      6  H   UNL     1      -2.352  -3.362   0.844  1.00  0.00     0.350 HD
BRANCH   5   7
ATOM      7  C   UNL     1      -1.628  -2.856  -0.869  1.00  0.00     0.355 C 
BRANCH   7   8
ATOM      8  C   UNL     1      -0.246  -3.336  -0.711  1.00  0.00    -0.047 C 
ATOM      9  C   UNL     1       0.898  -3.691  -0.693  1.00  0.00     0.010 C 
ENDBRANCH   7   8
ENDBRANCH   5   7
BRANCH   5  10
ATOM     10  C   UNL     1      -1.778  -1.531   1.327  1.00  0.00     0.272 C 
ATOM     11  C   UNL     1      -2.420  -0.142   1.528  1.00  0.00     0.086 C 
BRANCH  10  12
ATOM     12  C   UNL     1      -0.245  -1.381   1.357  1.00  0.00     0.278 C 
ATOM     13  O   UNL     1       0.431  -1.905   2.250  1.00  0.00    -0.268 OA
ATOM     14  N   UNL     1       0.413  -0.586   0.458  1.00  0.00    -0.351 N 
ATOM     15  H   UNL     1       1.336  -0.348   0.703  1.00  0.00     0.163 HD
BRANCH  14  16
ATOM     16  C   UNL     1      -0.054  -0.043  -0.801  1.00  0.00     0.116 C 
BRANCH  16  17
ATOM     17  C   UNL     1       0.609   1.273  -1.169  1.00  0.00     0.018 C 
ATOM     18  C   UNL     1       2.068   1.085  -1.559  1.00  0.00     0.006 C 
ENDBRANCH  16  17
ENDBRANCH  14  16
ENDBRANCH  10  12
ENDBRANCH   5  10
ENDBRANCH   4   5
ENDBRANCH   2   4
ENDBRANCH   1   2
BRANCH   1  19
ATOM     19  C   UNL     1      -4.725  -4.402  -2.767  1.00  0.00     0.274 C 
BRANCH  19  20
ATOM     20  C   UNL     1      -4.111  -5.751  -2.375  1.00  0.00     0.275 C 
BRANCH  20  21
ATOM     21  O   UNL     1      -4.552  -6.146  -1.061  1.00  0.00    -0.458 OA
BRANCH  21  22
ATOM     22  C   UNL     1      -3.600  -6.164  -0.100  1.00  0.00     0.338 C 
ATOM     23  O   UNL     1      -2.404  -5.983  -0.237  1.00  0.00    -0.246 OA
BRANCH  22  24
ATOM     24  C   UNL     1      -4.219  -6.409   1.209  1.00  0.00     0.060 A 
ATOM     25  C   UNL     1      -4.414  -5.339   2.086  1.00  0.00     0.016 A 
ATOM     26  C   UNL     1      -4.476  -7.718   1.616  1.00  0.00     0.016 A 
ATOM     27  C   UNL     1      -4.850  -5.577   3.387  1.00  0.00     0.010 A 
ATOM     28  C   UNL     1      -4.929  -7.954   2.916  1.00  0.00     0.010 A 
ATOM     29  C   UNL     1      -5.095  -6.888   3.819  1.00  0.00    -0.014 A 
BRANCH  29  30
ATOM     30  C   UNL     1      -5.451  -7.145   5.236  1.00  0.00     0.031 A 
ATOM     31  C   UNL     1      -4.471  -7.841   6.140  1.00  0.00     0.074 A 
ATOM     32  C   UNL     1      -6.641  -6.738   5.715  1.00  0.00     0.049 A 
ATOM     33  N   UNL     1      -4.612  -8.214   7.387  1.00  0.00    -0.248 NA
ATOM     34  C   UNL     1      -3.160  -8.171   5.560  1.00  0.00     0.031 C 
ATOM     35  C   UNL     1      -7.661  -6.026   4.944  1.00  0.00     0.029 A 
ATOM     36  N   UNL     1      -7.193  -6.865   6.964  1.00  0.00    -0.354 N 
ATOM     37  C   UNL     1      -3.419  -8.837   7.734  1.00  0.00     0.074 A 
ATOM     38  C   UNL     1      -2.580  -8.825   6.555  1.00  0.00     0.031 C 
ATOM     39  C   UNL     1      -8.711  -5.769   5.740  1.00  0.00     0.029 A 
ATOM     40  C   UNL     1      -8.460  -6.344   7.059  1.00  0.00     0.049 A 
ATOM     41  H   UNL     1      -6.726  -7.289   7.720  1.00  0.00     0.167 HD
ATOM     42  C   UNL     1      -3.054  -9.360   8.930  1.00  0.00     0.037 A 
ATOM     43  C   UNL     1      -9.331  -6.352   8.085  1.00  0.00     0.037 A 
ATOM     44  C   UNL     1      -3.894  -9.358  10.101  1.00  0.00     0.049 A 
ATOM     45  C   UNL     1      -8.925  -6.995   9.384  1.00  0.00     0.074 A 
ATOM     46  C   UNL     1      -3.612  -9.845  11.366  1.00  0.00     0.029 A 
ATOM     47  N   UNL     1      -5.183  -8.845  10.150  1.00  0.00    -0.354 N 
ATOM     48  N   UNL     1      -7.790  -7.569   9.706  1.00  0.00    -0.248 NA
ATOM     49  C   UNL     1      -9.920  -6.986  10.464  1.00  0.00     0.031 C 
ATOM     50  C   UNL     1      -4.752  -9.686  12.161  1.00  0.00     0.029 A 
ATOM     51  C   UNL     1      -5.719  -9.031  11.415  1.00  0.00     0.049 A 
ATOM     52  H   UNL     1      -5.648  -8.414   9.397  1.00  0.00     0.167 HD
ATOM     53  C   UNL     1      -7.923  -7.958  11.033  1.00  0.00     0.074 A 
ATOM     54  C   UNL     1      -9.242  -7.538  11.459  1.00  0.00     0.031 C 
ATOM     55  C   UNL     1      -7.033  -8.603  11.828  1.00  0.00     0.037 A 
BRANCH  42  56
ATOM     56  C   UNL     1      -1.700 -10.007   9.022  1.00  0.00     0.057 A 
ATOM     57  C   UNL     1      -0.512  -9.268   8.949  1.00  0.00     0.134 A 
ATOM     58  C   UNL     1      -1.584 -11.390   9.215  1.00  0.00     0.134 A 
ATOM     59  F   UNL     1      -0.547  -7.940   8.757  1.00  0.00    -0.206 F 
ATOM     60  C   UNL     1       0.739  -9.883   9.032  1.00  0.00     0.040 A 
ATOM     61  C   UNL     1      -0.340 -12.012   9.333  1.00  0.00     0.040 A 
ATOM     62  F   UNL     1      -2.679 -12.161   9.303  1.00  0.00    -0.206 F 
ATOM     63  C   UNL     1       0.827 -11.259   9.232  1.00  0.00     0.006 A 
ENDBRANCH  42  56
BRANCH  43  64
ATOM     64  C   UNL     1     -10.678  -5.744   7.927  1.00  0.00     0.057 A 
ATOM     65  C   UNL     1     -11.051  -4.604   8.649  1.00  0.00     0.134 A 
ATOM     66  C   UNL     1     -11.632  -6.299   7.064  1.00  0.00     0.134 A 
ATOM     67  F   UNL     1     -10.190  -4.037   9.507  1.00  0.00    -0.206 F 
ATOM     68  C   UNL     1     -12.329  -4.054   8.540  1.00  0.00     0.040 A 
ATOM     69  C   UNL     1     -12.902  -5.740   6.920  1.00  0.00     0.040 A 
ATOM     70  F   UNL     1     -11.338  -7.388   6.339  1.00  0.00    -0.206 F 
ATOM     71  C   UNL     1     -13.258  -4.620   7.668  1.00  0.00     0.006 A 
ENDBRANCH  43  64
BRANCH  55  72
ATOM     72  C   UNL     1      -7.439  -8.845  13.255  1.00  0.00     0.057 A 
ATOM     73  C   UNL     1      -8.455  -9.745  13.602  1.00  0.00     0.134 A 
ATOM     74  C   UNL     1      -6.790  -8.174  14.300  1.00  0.00     0.134 A 
ATOM     75  F   UNL     1      -9.127 -10.413  12.651  1.00  0.00    -0.206 F 
ATOM     76  C   UNL     1      -8.838  -9.939  14.931  1.00  0.00     0.040 A 
ATOM     77  C   UNL     1      -7.138  -8.387  15.635  1.00  0.00     0.040 A 
ATOM     78  F   UNL     1      -5.799  -7.307  14.043  1.00  0.00    -0.206 F 
ATOM     79  C   UNL     1      -8.173  -9.263  15.952  1.00  0.00     0.006 A 
ENDBRANCH  55  72
ENDBRANCH  29  30
ENDBRANCH  22  24
ENDBRANCH  21  22
ENDBRANCH  20  21
ENDBRANCH  19  20
ENDBRANCH   1  19
TORSDOF 18
