REMARK SMILES CC(C)[N@@H+](C)Cc1cc2c(cc1Cl)C=C(C(=O)OCCOC(=O)c1ccc(-c3c4nc(c(-c5c(F)cccc5F)c5ccc([nH]5)c(-c5c(F)cccc5F)c5nc(c(-c6c(F)cccc6F)c6ccc3[nH]6)C=C5)C=C4)cc1)[C@@H](C(F)(F)F)O2
REMARK SMILES IDX 19 1 18 2 16 3 17 4 15 5 7 6 8 7 12 8 9 9 11 10 13 11 10 12
REMARK SMILES IDX 83 13 14 14 78 15 6 16 4 17 5 18 2 20 1 21 3 22 79 23 80 24
REMARK SMILES IDX 81 25 82 26 20 27 21 28 22 29 23 30 24 31 25 32 77 33 26 34
REMARK SMILES IDX 76 35 27 36 28 37 29 38 70 39 30 40 75 41 69 42 71 43 31 44
REMARK SMILES IDX 74 45 68 46 67 47 32 49 58 50 41 51 57 52 42 53 45 54 56 55
REMARK SMILES IDX 72 56 43 57 44 58 55 60 73 61 46 62 33 63 34 64 39 65 35 66
REMARK SMILES IDX 36 67 38 68 40 69 37 70 59 71 60 72 65 73 61 74 62 75 64 76
REMARK SMILES IDX 66 77 63 78 47 79 48 80 53 81 49 82 50 83 52 84 54 85 51 86
REMARK H PARENT 4 19 71 48 45 59
REMARK Flexibility Score: inf
ROOT
ATOM      1  C   UNL     1       3.783  -9.945   1.222  1.00  0.00     0.275 C 
ENDROOT
BRANCH   1   2
ATOM      2  O   UNL     1       3.275  -8.595   1.252  1.00  0.00    -0.459 OA
BRANCH   2   3
ATOM      3  C   UNL     1       2.456  -8.246   0.230  1.00  0.00     0.338 C 
ATOM      4  O   UNL     1       2.152  -8.931  -0.727  1.00  0.00    -0.246 OA
BRANCH   3   5
ATOM      5  C   UNL     1       1.878  -6.910   0.491  1.00  0.00     0.087 C 
ATOM      6  C   UNL     1      -0.999  -2.820   0.463  1.00  0.00     0.029 A 
ATOM      7  C   UNL     1       0.271  -3.115   0.999  1.00  0.00     0.058 A 
ATOM      8  C   UNL     1      -1.835  -3.890   0.111  1.00  0.00     0.050 A 
ATOM      9  C   UNL     1       0.788  -4.404   0.938  1.00  0.00     0.128 A 
ATOM     10  C   UNL     1      -1.333  -5.190   0.092  1.00  0.00     0.033 A 
ATOM     11  Cl  UNL     1      -3.486  -3.682  -0.349  1.00  0.00    -0.084 Cl
ATOM     12  C   UNL     1       0.001  -5.426   0.427  1.00  0.00     0.019 A 
ATOM     13  O   UNL     1       2.080  -4.575   1.347  1.00  0.00    -0.475 OA
ATOM     14  C   UNL     1       0.586  -6.726   0.202  1.00  0.00     0.027 C 
ATOM     15  C   UNL     1       2.772  -5.793   0.947  1.00  0.00     0.316 C 
BRANCH   6  16
ATOM     16  C   UNL     1      -1.352  -1.377   0.169  1.00  0.00     0.300 C 
BRANCH  16  17
ATOM     17  N   UNL     1      -0.929  -0.865  -1.150  1.00  0.00    -0.332 N 
ATOM     18  C   UNL     1      -1.605  -1.502  -2.276  1.00  0.00     0.333 C 
ATOM     19  H   UNL     1      -1.274   0.091  -1.058  1.00  0.00     0.348 HD
BRANCH  17  20
ATOM     20  C   UNL     1       0.496  -0.595  -1.414  1.00  0.00     0.177 C 
ATOM     21  C   UNL     1       1.196   0.178  -0.291  1.00  0.00     0.075 C 
ATOM     22  C   UNL     1       1.340  -1.784  -1.901  1.00  0.00     0.075 C 
ENDBRANCH  17  20
ENDBRANCH  16  17
ENDBRANCH   6  16
BRANCH  15  23
ATOM     23  C   UNL     1       3.791  -5.460  -0.159  1.00  0.00     0.430 C 
ATOM     24  F   UNL     1       4.590  -4.425   0.192  1.00  0.00    -0.167 F 
ATOM     25  F   UNL     1       4.606  -6.514  -0.412  1.00  0.00    -0.167 F 
ATOM     26  F   UNL     1       3.189  -5.130  -1.325  1.00  0.00    -0.167 F 
ENDBRANCH  15  23
ENDBRANCH   3   5
ENDBRANCH   2   3
ENDBRANCH   1   2
BRANCH   1  27
ATOM     27  C   UNL     1       3.086 -10.814   2.271  1.00  0.00     0.275 C 
BRANCH  27  28
ATOM     28  O   UNL     1       1.713 -11.049   1.902  1.00  0.00    -0.458 OA
BRANCH  28  29
ATOM     29  C   UNL     1       0.797 -10.326   2.584  1.00  0.00     0.338 C 
ATOM     30  O   UNL     1       0.996  -9.526   3.483  1.00  0.00    -0.246 OA
BRANCH  29  31
ATOM     31  C   UNL     1      -0.530 -10.530   1.986  1.00  0.00     0.060 A 
ATOM     32  C   UNL     1      -1.520 -11.280   2.603  1.00  0.00     0.016 A 
ATOM     33  C   UNL     1      -0.827  -9.806   0.840  1.00  0.00     0.016 A 
ATOM     34  C   UNL     1      -2.804 -11.303   2.039  1.00  0.00     0.010 A 
ATOM     35  C   UNL     1      -2.134  -9.690   0.384  1.00  0.00     0.010 A 
ATOM     36  C   UNL     1      -3.142 -10.477   0.944  1.00  0.00    -0.014 A 
BRANCH  36  37
ATOM     37  C   UNL     1      -4.524 -10.450   0.375  1.00  0.00     0.031 A 
ATOM     38  C   UNL     1      -4.772 -10.691  -1.101  1.00  0.00     0.074 A 
ATOM     39  C   UNL     1      -5.572 -10.180   1.181  1.00  0.00     0.049 A 
ATOM     40  N   UNL     1      -5.910 -10.744  -1.752  1.00  0.00    -0.248 NA
ATOM     41  C   UNL     1      -3.594 -10.847  -1.972  1.00  0.00     0.031 C 
ATOM     42  C   UNL     1      -5.481  -9.812   2.596  1.00  0.00     0.029 A 
ATOM     43  N   UNL     1      -6.923 -10.193   0.933  1.00  0.00    -0.354 N 
ATOM     44  C   UNL     1      -5.578 -10.918  -3.092  1.00  0.00     0.074 A 
ATOM     45  C   UNL     1      -4.138 -10.866  -3.178  1.00  0.00     0.031 C 
ATOM     46  C   UNL     1      -6.718  -9.724   3.110  1.00  0.00     0.029 A 
ATOM     47  C   UNL     1      -7.690  -9.982   2.055  1.00  0.00     0.049 A 
ATOM     48  H   UNL     1      -7.305 -10.339   0.037  1.00  0.00     0.167 HD
ATOM     49  C   UNL     1      -6.387 -11.153  -4.155  1.00  0.00     0.037 A 
ATOM     50  C   UNL     1      -9.026 -10.014   2.220  1.00  0.00     0.037 A 
ATOM     51  C   UNL     1      -7.819 -11.258  -4.069  1.00  0.00     0.049 A 
ATOM     52  C   UNL     1      -9.904 -10.316   1.037  1.00  0.00     0.074 A 
ATOM     53  C   UNL     1      -8.725 -11.572  -5.067  1.00  0.00     0.029 A 
ATOM     54  N   UNL     1      -8.552 -11.055  -2.910  1.00  0.00    -0.354 N 
ATOM     55  N   UNL     1      -9.564 -10.580  -0.201  1.00  0.00    -0.248 NA
ATOM     56  C   UNL     1     -11.353 -10.330   1.279  1.00  0.00     0.031 C 
ATOM     57  C   UNL     1     -10.011 -11.523  -4.519  1.00  0.00     0.029 A 
ATOM     58  C   UNL     1      -9.902 -11.223  -3.171  1.00  0.00     0.049 A 
ATOM     59  H   UNL     1      -8.170 -10.826  -2.032  1.00  0.00     0.167 HD
ATOM     60  C   UNL     1     -10.754 -10.812  -0.880  1.00  0.00     0.074 A 
ATOM     61  C   UNL     1     -11.820 -10.686   0.091  1.00  0.00     0.031 C 
ATOM     62  C   UNL     1     -10.948 -11.098  -2.190  1.00  0.00     0.037 A 
BRANCH  49  63
ATOM     63  C   UNL     1      -5.733 -11.351  -5.496  1.00  0.00     0.057 A 
ATOM     64  C   UNL     1      -5.910 -10.423  -6.530  1.00  0.00     0.134 A 
ATOM     65  C   UNL     1      -4.939 -12.475  -5.771  1.00  0.00     0.134 A 
ATOM     66  F   UNL     1      -6.666  -9.330  -6.345  1.00  0.00    -0.206 F 
ATOM     67  C   UNL     1      -5.317 -10.601  -7.782  1.00  0.00     0.040 A 
ATOM     68  C   UNL     1      -4.315 -12.647  -7.008  1.00  0.00     0.040 A 
ATOM     69  F   UNL     1      -4.720 -13.400  -4.824  1.00  0.00    -0.206 F 
ATOM     70  C   UNL     1      -4.508 -11.711  -8.020  1.00  0.00     0.006 A 
ENDBRANCH  49  63
BRANCH  50  71
ATOM     71  C   UNL     1      -9.623  -9.801   3.564  1.00  0.00     0.057 A 
ATOM     72  C   UNL     1      -9.597  -8.549   4.190  1.00  0.00     0.134 A 
ATOM     73  C   UNL     1     -10.261 -10.847   4.244  1.00  0.00     0.134 A 
ATOM     74  F   UNL     1      -8.994  -7.508   3.599  1.00  0.00    -0.206 F 
ATOM     75  C   UNL     1     -10.184  -8.345   5.441  1.00  0.00     0.040 A 
ATOM     76  C   UNL     1     -10.877 -10.650   5.481  1.00  0.00     0.040 A 
ATOM     77  F   UNL     1     -10.333 -12.066   3.690  1.00  0.00    -0.206 F 
ATOM     78  C   UNL     1     -10.837  -9.395   6.084  1.00  0.00     0.006 A 
ENDBRANCH  50  71
BRANCH  62  79
ATOM     79  C   UNL     1     -12.363 -11.320  -2.636  1.00  0.00     0.057 A 
ATOM     80  C   UNL     1     -12.806 -12.599  -2.995  1.00  0.00     0.134 A 
ATOM     81  C   UNL     1     -13.283 -10.267  -2.727  1.00  0.00     0.134 A 
ATOM     82  F   UNL     1     -11.973 -13.649  -2.940  1.00  0.00    -0.206 F 
ATOM     83  C   UNL     1     -14.113 -12.824  -3.426  1.00  0.00     0.040 A 
ATOM     84  C   UNL     1     -14.601 -10.484  -3.128  1.00  0.00     0.040 A 
ATOM     85  F   UNL     1     -12.925  -9.020  -2.384  1.00  0.00    -0.206 F 
ATOM     86  C   UNL     1     -15.018 -11.765  -3.485  1.00  0.00     0.006 A 
ENDBRANCH  62  79
ENDBRANCH  36  37
ENDBRANCH  29  31
ENDBRANCH  28  29
ENDBRANCH  27  28
ENDBRANCH   1  27
TORSDOF 15
