REMARK SMILES Cc1ccc(-c2cc(Cl)cc3c2O[C@H](C(F)(F)F)C(C(=O)OCCOC(=O)c2ccc(-c4c5nc(c(-c6c(F)cccc6F)c6ccc([nH]6)c(-c6c(F)cccc6F)c6nc(c(-c7c(F)cccc7F)c7ccc4[nH]7)C=C6)C=C5)cc2)=C3)cc1F
REMARK SMILES IDX 24 1 23 2 22 3 20 4 21 5 19 6 6 7 7 8 12 9 8 10 11 11 13 12
REMARK SMILES IDX 9 13 10 14 82 15 14 16 5 17 1 18 2 19 3 20 84 21 4 22 83 23
REMARK SMILES IDX 85 24 15 25 16 26 17 27 18 28 25 29 26 30 27 31 28 32 29 33
REMARK SMILES IDX 81 34 30 35 80 36 31 37 32 38 33 39 74 40 34 41 79 42 73 43
REMARK SMILES IDX 75 44 35 45 78 46 72 47 71 48 36 50 62 51 45 52 61 53 46 54
REMARK SMILES IDX 49 55 60 56 76 57 47 58 48 59 59 61 77 62 50 63 37 64 38 65
REMARK SMILES IDX 43 66 39 67 40 68 42 69 44 70 41 71 63 72 64 73 69 74 65 75
REMARK SMILES IDX 66 76 68 77 70 78 67 79 51 80 52 81 57 82 53 83 54 84 56 85
REMARK SMILES IDX 58 86 55 87
REMARK H PARENT 75 49 49 60
REMARK Flexibility Score: inf
ROOT
ATOM      1  C   UNL     1      -4.428  -4.819   7.537  1.00  0.00     0.275 C 
ENDROOT
BRANCH   1   2
ATOM      2  C   UNL     1      -3.101  -4.978   6.781  1.00  0.00     0.275 C 
BRANCH   2   3
ATOM      3  O   UNL     1      -3.074  -4.261   5.524  1.00  0.00    -0.459 OA
BRANCH   3   4
ATOM      4  C   UNL     1      -3.048  -5.016   4.396  1.00  0.00     0.338 C 
ATOM      5  O   UNL     1      -3.175  -6.228   4.326  1.00  0.00    -0.246 OA
BRANCH   4   6
ATOM      6  C   UNL     1      -2.889  -4.147   3.212  1.00  0.00     0.087 C 
ATOM      7  C   UNL     1      -2.627  -1.520  -0.059  1.00  0.00     0.026 A 
ATOM      8  C   UNL     1      -3.588  -1.610  -1.079  1.00  0.00     0.033 A 
ATOM      9  C   UNL     1      -2.710  -2.411   1.034  1.00  0.00     0.135 A 
ATOM     10  C   UNL     1      -4.563  -2.605  -1.036  1.00  0.00     0.042 A 
ATOM     11  C   UNL     1      -3.661  -3.431   1.049  1.00  0.00     0.019 A 
ATOM     12  O   UNL     1      -1.860  -2.186   2.089  1.00  0.00    -0.475 OA
ATOM     13  Cl  UNL     1      -5.760  -2.689  -2.271  1.00  0.00    -0.084 Cl
ATOM     14  C   UNL     1      -4.582  -3.534   0.001  1.00  0.00     0.032 A 
ATOM     15  C   UNL     1      -3.721  -4.335   2.184  1.00  0.00     0.027 C 
ATOM     16  C   UNL     1      -1.756  -3.169   3.149  1.00  0.00     0.316 C 
BRANCH   7  17
ATOM     17  C   UNL     1      -1.516  -0.563  -0.159  1.00  0.00    -0.012 A 
ATOM     18  C   UNL     1       1.865   2.120  -0.055  1.00  0.00     0.047 C 
ATOM     19  C   UNL     1       0.678   1.212  -0.147  1.00  0.00    -0.015 A 
ATOM     20  C   UNL     1      -0.631   1.704  -0.110  1.00  0.00     0.007 A 
ATOM     21  C   UNL     1       0.874  -0.166  -0.231  1.00  0.00     0.126 A 
ATOM     22  C   UNL     1      -1.720   0.823  -0.120  1.00  0.00     0.009 A 
ATOM     23  C   UNL     1      -0.200  -1.044  -0.245  1.00  0.00     0.048 A 
ATOM     24  F   UNL     1       2.118  -0.665  -0.273  1.00  0.00    -0.207 F 
ENDBRANCH   7  17
BRANCH  16  25
ATOM     25  C   UNL     1      -0.418  -3.912   3.009  1.00  0.00     0.430 C 
ATOM     26  F   UNL     1       0.622  -3.050   2.922  1.00  0.00    -0.167 F 
ATOM     27  F   UNL     1      -0.184  -4.701   4.086  1.00  0.00    -0.167 F 
ATOM     28  F   UNL     1      -0.384  -4.700   1.910  1.00  0.00    -0.167 F 
ENDBRANCH  16  25
ENDBRANCH   4   6
ENDBRANCH   3   4
ENDBRANCH   2   3
ENDBRANCH   1   2
BRANCH   1  29
ATOM     29  O   UNL     1      -5.476  -5.474   6.812  1.00  0.00    -0.458 OA
BRANCH  29  30
ATOM     30  C   UNL     1      -6.495  -4.679   6.377  1.00  0.00     0.338 C 
ATOM     31  O   UNL     1      -6.748  -3.549   6.707  1.00  0.00    -0.246 OA
BRANCH  30  32
ATOM     32  C   UNL     1      -6.997  -5.340   5.154  1.00  0.00     0.060 A 
ATOM     33  C   UNL     1      -7.247  -6.716   5.107  1.00  0.00     0.016 A 
ATOM     34  C   UNL     1      -6.909  -4.586   3.988  1.00  0.00     0.016 A 
ATOM     35  C   UNL     1      -7.187  -7.377   3.879  1.00  0.00     0.010 A 
ATOM     36  C   UNL     1      -6.883  -5.248   2.771  1.00  0.00     0.010 A 
ATOM     37  C   UNL     1      -6.891  -6.649   2.724  1.00  0.00    -0.014 A 
BRANCH  37  38
ATOM     38  C   UNL     1      -6.328  -7.274   1.520  1.00  0.00     0.031 A 
ATOM     39  C   UNL     1      -7.064  -7.327   0.235  1.00  0.00     0.074 A 
ATOM     40  C   UNL     1      -5.069  -7.781   1.528  1.00  0.00     0.049 A 
ATOM     41  N   UNL     1      -6.928  -8.289  -0.620  1.00  0.00    -0.248 NA
ATOM     42  C   UNL     1      -8.011  -6.305  -0.194  1.00  0.00     0.031 C 
ATOM     43  C   UNL     1      -4.270  -8.147   0.357  1.00  0.00     0.029 A 
ATOM     44  N   UNL     1      -4.286  -8.193   2.600  1.00  0.00    -0.354 N 
ATOM     45  C   UNL     1      -7.542  -7.904  -1.786  1.00  0.00     0.074 A 
ATOM     46  C   UNL     1      -8.253  -6.688  -1.454  1.00  0.00     0.031 C 
ATOM     47  C   UNL     1      -3.243  -8.918   0.742  1.00  0.00     0.029 A 
ATOM     48  C   UNL     1      -3.390  -9.182   2.158  1.00  0.00     0.049 A 
ATOM     49  H   UNL     1      -4.349  -7.849   3.521  1.00  0.00     0.167 HD
ATOM     50  C   UNL     1      -7.299  -8.570  -2.950  1.00  0.00     0.037 A 
ATOM     51  C   UNL     1      -3.320 -10.415   2.739  1.00  0.00     0.037 A 
ATOM     52  C   UNL     1      -6.287  -9.607  -2.792  1.00  0.00     0.049 A 
ATOM     53  C   UNL     1      -3.711 -11.552   1.828  1.00  0.00     0.074 A 
ATOM     54  C   UNL     1      -4.923  -9.611  -3.035  1.00  0.00     0.029 A 
ATOM     55  N   UNL     1      -6.561 -10.753  -2.059  1.00  0.00    -0.354 N 
ATOM     56  N   UNL     1      -4.199 -11.385   0.632  1.00  0.00    -0.248 NA
ATOM     57  C   UNL     1      -3.664 -12.963   2.213  1.00  0.00     0.031 C 
ATOM     58  C   UNL     1      -4.368 -10.752  -2.414  1.00  0.00     0.029 A 
ATOM     59  C   UNL     1      -5.393 -11.446  -1.796  1.00  0.00     0.049 A 
ATOM     60  H   UNL     1      -7.458 -11.034  -1.768  1.00  0.00     0.167 HD
ATOM     61  C   UNL     1      -4.657 -12.584   0.156  1.00  0.00     0.074 A 
ATOM     62  C   UNL     1      -4.236 -13.552   1.148  1.00  0.00     0.031 C 
ATOM     63  C   UNL     1      -5.400 -12.656  -0.987  1.00  0.00     0.037 A 
BRANCH  50  64
ATOM     64  C   UNL     1      -7.795  -8.100  -4.294  1.00  0.00     0.057 A 
ATOM     65  C   UNL     1      -7.026  -8.253  -5.464  1.00  0.00     0.134 A 
ATOM     66  C   UNL     1      -9.047  -7.492  -4.489  1.00  0.00     0.134 A 
ATOM     67  F   UNL     1      -5.842  -8.879  -5.455  1.00  0.00    -0.206 F 
ATOM     68  C   UNL     1      -7.432  -7.763  -6.711  1.00  0.00     0.040 A 
ATOM     69  C   UNL     1      -9.446  -6.954  -5.721  1.00  0.00     0.040 A 
ATOM     70  F   UNL     1      -9.946  -7.423  -3.496  1.00  0.00    -0.206 F 
ATOM     71  C   UNL     1      -8.633  -7.082  -6.838  1.00  0.00     0.006 A 
ENDBRANCH  50  64
BRANCH  51  72
ATOM     72  C   UNL     1      -3.576 -10.370   4.198  1.00  0.00     0.057 A 
ATOM     73  C   UNL     1      -2.575  -9.816   5.010  1.00  0.00     0.134 A 
ATOM     74  C   UNL     1      -4.882 -10.384   4.695  1.00  0.00     0.134 A 
ATOM     75  F   UNL     1      -1.298  -9.806   4.594  1.00  0.00    -0.206 F 
ATOM     76  C   UNL     1      -2.886  -9.147   6.193  1.00  0.00     0.040 A 
ATOM     77  C   UNL     1      -5.203  -9.720   5.882  1.00  0.00     0.040 A 
ATOM     78  F   UNL     1      -5.884 -10.902   3.970  1.00  0.00    -0.206 F 
ATOM     79  C   UNL     1      -4.213  -9.054   6.604  1.00  0.00     0.006 A 
ENDBRANCH  51  72
BRANCH  63  80
ATOM     80  C   UNL     1      -6.141 -13.874  -1.466  1.00  0.00     0.057 A 
ATOM     81  C   UNL     1      -6.701 -14.839  -0.615  1.00  0.00     0.134 A 
ATOM     82  C   UNL     1      -6.428 -14.042  -2.837  1.00  0.00     0.134 A 
ATOM     83  F   UNL     1      -6.609 -14.735   0.718  1.00  0.00    -0.206 F 
ATOM     84  C   UNL     1      -7.431 -15.933  -1.097  1.00  0.00     0.040 A 
ATOM     85  C   UNL     1      -7.198 -15.101  -3.326  1.00  0.00     0.040 A 
ATOM     86  F   UNL     1      -5.987 -13.169  -3.757  1.00  0.00    -0.206 F 
ATOM     87  C   UNL     1      -7.687 -16.064  -2.456  1.00  0.00     0.006 A 
ENDBRANCH  63  80
ENDBRANCH  37  38
ENDBRANCH  30  32
ENDBRANCH  29  30
ENDBRANCH   1  29
TORSDOF 13
