REMARK SMILES O=C(OCCOC(=O)[C@H]1CCC(=O)N(C2CCCCC2)[C@H]1c1ccccc1)c1ccc(-c2c3nc(c(-c4c(F)cccc4F)c4ccc([nH]4)c(-c4c(F)cccc4F)c4nc(c(-c5c(F)cccc5F)c5ccc2[nH]5)C=C4)C=C3)cc1
REMARK SMILES IDX 4 1 3 2 2 3 1 4 28 5 29 6 81 7 30 8 80 9 31 10 32 11 33 12
REMARK SMILES IDX 74 13 34 14 79 15 73 16 75 17 35 18 78 19 72 20 71 21 36 23
REMARK SMILES IDX 62 24 45 25 61 26 46 27 49 28 60 29 76 30 47 31 48 32 59 34
REMARK SMILES IDX 77 35 50 36 37 37 38 38 43 39 39 40 40 41 42 42 44 43 41 44
REMARK SMILES IDX 63 45 64 46 69 47 65 48 66 49 68 50 70 51 67 52 51 53 52 54
REMARK SMILES IDX 57 55 53 56 54 57 56 58 58 59 55 60 5 61 6 62 7 63 8 64 9 65
REMARK SMILES IDX 10 66 21 67 11 68 14 69 12 70 13 71 22 72 23 73 27 74 24 75
REMARK SMILES IDX 26 76 25 77 15 78 16 79 20 80 17 81 19 82 18 83
REMARK H PARENT 75 22 49 33
REMARK Flexibility Score: inf
ROOT
ATOM      1  C   UNL     1       5.642  -5.151  -3.018  1.00  0.00     0.275 C 
ENDROOT
BRANCH   1   2
ATOM      2  O   UNL     1       5.177  -4.418  -4.150  1.00  0.00    -0.458 OA
BRANCH   2   3
ATOM      3  C   UNL     1       3.876  -4.115  -4.338  1.00  0.00     0.338 C 
ATOM      4  O   UNL     1       3.506  -3.434  -5.287  1.00  0.00    -0.246 OA
BRANCH   3   5
ATOM      5  C   UNL     1       2.864  -4.548  -3.353  1.00  0.00     0.060 A 
ATOM      6  C   UNL     1       3.116  -4.783  -1.616  1.00  0.00     0.016 A 
ATOM      7  C   UNL     1       1.175  -4.617  -3.929  1.00  0.00     0.016 A 
ATOM      8  C   UNL     1       1.886  -5.003  -0.423  1.00  0.00     0.010 A 
ATOM      9  C   UNL     1      -0.282  -4.866  -2.545  1.00  0.00     0.010 A 
ATOM     10  C   UNL     1       0.216  -4.994  -0.792  1.00  0.00    -0.014 A 
BRANCH  10  11
ATOM     11  C   UNL     1      -0.653  -5.098   0.414  1.00  0.00     0.031 A 
ATOM     12  C   UNL     1      -1.841  -5.957   0.226  1.00  0.00     0.074 A 
ATOM     13  C   UNL     1      -0.418  -4.406   1.572  1.00  0.00     0.049 A 
ATOM     14  N   UNL     1      -2.989  -5.913   0.825  1.00  0.00    -0.248 NA
ATOM     15  C   UNL     1      -1.742  -6.972  -0.838  1.00  0.00     0.031 C 
ATOM     16  C   UNL     1       0.768  -3.595   1.924  1.00  0.00     0.029 A 
ATOM     17  N   UNL     1      -1.241  -4.151   2.656  1.00  0.00    -0.354 N 
ATOM     18  C   UNL     1      -3.753  -6.865   0.172  1.00  0.00     0.074 A 
ATOM     19  C   UNL     1      -3.001  -7.353  -0.955  1.00  0.00     0.031 C 
ATOM     20  C   UNL     1       0.541  -2.839   3.007  1.00  0.00     0.029 A 
ATOM     21  C   UNL     1      -0.805  -3.087   3.449  1.00  0.00     0.049 A 
ATOM     22  H   UNL     1      -2.055  -4.670   2.849  1.00  0.00     0.167 HD
ATOM     23  C   UNL     1      -4.945  -7.351   0.560  1.00  0.00     0.037 A 
ATOM     24  C   UNL     1      -1.456  -2.322   4.353  1.00  0.00     0.037 A 
ATOM     25  C   UNL     1      -5.584  -6.897   1.756  1.00  0.00     0.049 A 
ATOM     26  C   UNL     1      -2.868  -2.754   4.646  1.00  0.00     0.074 A 
ATOM     27  C   UNL     1      -6.736  -7.365   2.346  1.00  0.00     0.029 A 
ATOM     28  N   UNL     1      -5.100  -5.862   2.547  1.00  0.00    -0.354 N 
ATOM     29  N   UNL     1      -3.568  -3.707   4.072  1.00  0.00    -0.248 NA
ATOM     30  C   UNL     1      -3.568  -2.057   5.726  1.00  0.00     0.031 C 
ATOM     31  C   UNL     1      -6.993  -6.559   3.455  1.00  0.00     0.029 A 
ATOM     32  C   UNL     1      -5.959  -5.641   3.601  1.00  0.00     0.049 A 
ATOM     33  H   UNL     1      -4.268  -5.362   2.380  1.00  0.00     0.167 HD
ATOM     34  C   UNL     1      -4.758  -3.781   4.776  1.00  0.00     0.074 A 
ATOM     35  C   UNL     1      -4.689  -2.759   5.803  1.00  0.00     0.031 C 
ATOM     36  C   UNL     1      -5.803  -4.628   4.615  1.00  0.00     0.037 A 
BRANCH  23  37
ATOM     37  C   UNL     1      -5.569  -8.412  -0.284  1.00  0.00     0.057 A 
ATOM     38  C   UNL     1      -4.997  -9.685  -0.436  1.00  0.00     0.134 A 
ATOM     39  C   UNL     1      -6.758  -8.150  -0.971  1.00  0.00     0.134 A 
ATOM     40  F   UNL     1      -3.838  -9.989   0.168  1.00  0.00    -0.206 F 
ATOM     41  C   UNL     1      -5.573 -10.649  -1.262  1.00  0.00     0.040 A 
ATOM     42  C   UNL     1      -7.363  -9.118  -1.771  1.00  0.00     0.040 A 
ATOM     43  F   UNL     1      -7.344  -6.947  -0.884  1.00  0.00    -0.206 F 
ATOM     44  C   UNL     1      -6.767 -10.369  -1.923  1.00  0.00     0.006 A 
ENDBRANCH  23  37
BRANCH  24  45
ATOM     45  C   UNL     1      -0.859  -1.109   5.021  1.00  0.00     0.057 A 
ATOM     46  C   UNL     1      -0.593  -1.108   6.394  1.00  0.00     0.134 A 
ATOM     47  C   UNL     1      -0.623   0.113   4.367  1.00  0.00     0.134 A 
ATOM     48  F   UNL     1      -0.780  -2.224   7.111  1.00  0.00    -0.206 F 
ATOM     49  C   UNL     1      -0.192   0.050   7.080  1.00  0.00     0.040 A 
ATOM     50  C   UNL     1      -0.210   1.274   5.031  1.00  0.00     0.040 A 
ATOM     51  F   UNL     1      -0.795   0.244   3.056  1.00  0.00    -0.206 F 
ATOM     52  C   UNL     1      -0.011   1.251   6.401  1.00  0.00     0.006 A 
ENDBRANCH  24  45
BRANCH  36  53
ATOM     53  C   UNL     1      -6.903  -4.536   5.621  1.00  0.00     0.057 A 
ATOM     54  C   UNL     1      -7.808  -3.472   5.627  1.00  0.00     0.134 A 
ATOM     55  C   UNL     1      -7.110  -5.588   6.524  1.00  0.00     0.134 A 
ATOM     56  F   UNL     1      -7.645  -2.434   4.793  1.00  0.00    -0.206 F 
ATOM     57  C   UNL     1      -8.883  -3.451   6.510  1.00  0.00     0.040 A 
ATOM     58  C   UNL     1      -8.207  -5.599   7.378  1.00  0.00     0.040 A 
ATOM     59  F   UNL     1      -6.280  -6.642   6.546  1.00  0.00    -0.206 F 
ATOM     60  C   UNL     1      -9.094  -4.525   7.376  1.00  0.00     0.006 A 
ENDBRANCH  36  53
ENDBRANCH  10  11
ENDBRANCH   3   5
ENDBRANCH   2   3
ENDBRANCH   1   2
BRANCH   1  61
ATOM     61  C   UNL     1       6.052  -4.213  -1.836  1.00  0.00     0.274 C 
BRANCH  61  62
ATOM     62  O   UNL     1       5.010  -3.282  -1.304  1.00  0.00    -0.462 OA
BRANCH  62  63
ATOM     63  C   UNL     1       4.549  -2.260  -2.072  1.00  0.00     0.311 C 
ATOM     64  O   UNL     1       5.287  -1.779  -2.927  1.00  0.00    -0.252 OA
BRANCH  63  65
ATOM     65  C   UNL     1       3.089  -1.677  -1.748  1.00  0.00     0.127 C 
ATOM     66  C   UNL     1       2.754  -0.744  -2.920  1.00  0.00     0.028 C 
ATOM     67  C   UNL     1       1.695  -2.430  -1.383  1.00  0.00     0.130 C 
ATOM     68  C   UNL     1       1.829   0.358  -2.482  1.00  0.00     0.101 C 
ATOM     69  N   UNL     1       0.475  -1.345  -1.272  1.00  0.00    -0.332 N 
ATOM     70  C   UNL     1       0.539  -0.085  -1.863  1.00  0.00     0.223 C 
ATOM     71  O   UNL     1      -0.398   0.716  -1.864  1.00  0.00    -0.275 OA
BRANCH  67  72
ATOM     72  C   UNL     1       1.176  -3.692  -2.282  1.00  0.00    -0.025 A 
ATOM     73  C   UNL     1      -0.013  -2.955  -3.464  1.00  0.00     0.006 A 
ATOM     74  C   UNL     1       1.374  -5.711  -2.431  1.00  0.00     0.006 A 
ATOM     75  C   UNL     1      -0.889  -3.994  -4.580  1.00  0.00     0.000 A 
ATOM     76  C   UNL     1       0.438  -6.614  -3.658  1.00  0.00     0.000 A 
ATOM     77  C   UNL     1      -0.654  -5.734  -4.669  1.00  0.00     0.000 A 
ENDBRANCH  67  72
BRANCH  69  78
ATOM     78  C   UNL     1      -0.874  -1.672  -0.600  1.00  0.00     0.085 C 
ATOM     79  C   UNL     1      -1.163  -0.756   0.608  1.00  0.00     0.025 C 
ATOM     80  C   UNL     1      -2.157  -1.694  -1.498  1.00  0.00     0.025 C 
ATOM     81  C   UNL     1      -2.494  -1.056   1.320  1.00  0.00     0.002 C 
ATOM     82  C   UNL     1      -3.467  -1.979  -0.738  1.00  0.00     0.002 C 
ATOM     83  C   UNL     1      -3.689  -1.001   0.397  1.00  0.00     0.000 C 
ENDBRANCH  69  78
ENDBRANCH  63  65
ENDBRANCH  62  63
ENDBRANCH  61  62
ENDBRANCH   1  61
TORSDOF 13
