REMARK SMILES COc1ccc(-n2ncc([C@H]3CC(=O)Nc4n[nH]c(C(=O)OCCOC(=O)c5ccc(-c6c7nc(c(-c8c(F)cccc8F)c8ccc([nH]8)c(-c8c(F)cccc8F)c8nc(c(-c9c(F)cccc9F)c9ccc6[nH]9)C=C8)C=C7)cc5)c43)c2C)cc1
REMARK SMILES IDX 23 1 22 2 20 3 21 4 19 5 11 6 12 7 82 8 13 9 16 10 14 11
REMARK SMILES IDX 15 12 17 13 18 14 10 17 7 18 8 19 83 20 9 21 84 22 6 23 3 24
REMARK SMILES IDX 4 25 86 26 5 27 85 28 2 29 1 30 24 31 25 32 26 33 27 34
REMARK SMILES IDX 28 35 29 36 81 37 30 38 80 39 31 40 32 41 33 42 74 43 34 44
REMARK SMILES IDX 79 45 73 46 75 47 35 48 78 49 72 50 71 51 36 53 62 54 45 55
REMARK SMILES IDX 61 56 46 57 49 58 60 59 76 60 47 61 48 62 59 64 77 65 50 66
REMARK SMILES IDX 37 67 38 68 43 69 39 70 40 71 42 72 44 73 41 74 63 75 64 76
REMARK SMILES IDX 69 77 65 78 66 79 68 80 70 81 67 82 51 83 52 84 57 85 53 86
REMARK SMILES IDX 54 87 56 88 58 89 55 90
REMARK H PARENT 15 15 18 16 75 52 49 63
REMARK Flexibility Score: inf
ROOT
ATOM      1  C   UNL     1       5.583   4.260   8.029  1.00  0.00     0.275 C 
ENDROOT
BRANCH   1   2
ATOM      2  O   UNL     1       4.287   3.832   8.483  1.00  0.00    -0.457 OA
BRANCH   2   3
ATOM      3  C   UNL     1       4.157   2.485   8.651  1.00  0.00     0.356 C 
ATOM      4  O   UNL     1       5.020   1.663   8.396  1.00  0.00    -0.244 OA
BRANCH   3   5
ATOM      5  C   UNL     1       2.901   2.134   9.258  1.00  0.00     0.149 A 
ATOM      6  C   UNL     1       1.093   4.042   8.980  1.00  0.00     0.068 C 
ATOM      7  C   UNL     1      -0.368   4.231   9.442  1.00  0.00     0.114 C 
ATOM      8  C   UNL     1       1.659   2.730   9.413  1.00  0.00     0.037 A 
ATOM      9  C   UNL     1      -1.166   2.982   9.806  1.00  0.00     0.226 C 
ATOM     10  C   UNL     1       0.846   1.709   9.932  1.00  0.00     0.159 A 
ATOM     11  O   UNL     1      -2.391   3.031   9.937  1.00  0.00    -0.275 OA
ATOM     12  N   UNL     1      -0.500   1.824  10.069  1.00  0.00    -0.309 N 
ATOM     13  N   UNL     1       1.510   0.593  10.197  1.00  0.00    -0.157 NA
ATOM     14  N   UNL     1       2.765   0.896   9.834  1.00  0.00    -0.269 N 
ATOM     15  H   UNL     1      -1.014   1.040  10.369  1.00  0.00     0.171 HD
ATOM     16  H   UNL     1       3.524   0.283   9.969  1.00  0.00     0.190 HD
BRANCH   6  17
ATOM     17  C   UNL     1       1.288   4.200   7.496  1.00  0.00     0.002 A 
ATOM     18  N   UNL     1       1.481   3.826   5.323  1.00  0.00    -0.238 N 
ATOM     19  N   UNL     1       2.411   4.769   5.587  1.00  0.00    -0.176 NA
ATOM     20  C   UNL     1       0.775   3.443   6.452  1.00  0.00     0.045 A 
ATOM     21  C   UNL     1       2.217   5.064   6.871  1.00  0.00     0.140 A 
ATOM     22  C   UNL     1      -0.186   2.305   6.483  1.00  0.00     0.067 C 
BRANCH  18  23
ATOM     23  C   UNL     1       1.348   3.295   4.028  1.00  0.00     0.065 A 
ATOM     24  C   UNL     1       0.979   2.024   1.588  1.00  0.00     0.119 A 
ATOM     25  C   UNL     1      -0.076   2.722   2.179  1.00  0.00     0.048 A 
ATOM     26  C   UNL     1       2.238   2.004   2.198  1.00  0.00     0.048 A 
ATOM     27  C   UNL     1       0.097   3.343   3.410  1.00  0.00     0.032 A 
ATOM     28  C   UNL     1       2.435   2.663   3.417  1.00  0.00     0.032 A 
BRANCH  24  29
ATOM     29  O   UNL     1       0.687   1.450   0.382  1.00  0.00    -0.497 OA
ATOM     30  C   UNL     1       1.276   0.172   0.167  1.00  0.00     0.278 C 
ENDBRANCH  24  29
ENDBRANCH  18  23
ENDBRANCH   6  17
ENDBRANCH   3   5
ENDBRANCH   2   3
ENDBRANCH   1   2
BRANCH   1  31
ATOM     31  C   UNL     1       6.527   4.540   9.191  1.00  0.00     0.275 C 
BRANCH  31  32
ATOM     32  O   UNL     1       6.777   3.382   9.988  1.00  0.00    -0.458 OA
BRANCH  32  33
ATOM     33  C   UNL     1       5.923   3.220  11.022  1.00  0.00     0.338 C 
ATOM     34  O   UNL     1       4.815   3.714  11.156  1.00  0.00    -0.246 OA
BRANCH  33  35
ATOM     35  C   UNL     1       6.604   2.526  12.114  1.00  0.00     0.060 A 
ATOM     36  C   UNL     1       5.832   2.173  13.224  1.00  0.00     0.016 A 
ATOM     37  C   UNL     1       8.005   2.507  12.146  1.00  0.00     0.016 A 
ATOM     38  C   UNL     1       6.472   1.962  14.425  1.00  0.00     0.010 A 
ATOM     39  C   UNL     1       8.641   2.307  13.348  1.00  0.00     0.010 A 
ATOM     40  C   UNL     1       7.866   2.104  14.486  1.00  0.00    -0.014 A 
BRANCH  40  41
ATOM     41  C   UNL     1       8.525   1.817  15.744  1.00  0.00     0.031 A 
ATOM     42  C   UNL     1       8.409   0.381  16.085  1.00  0.00     0.074 A 
ATOM     43  C   UNL     1       9.250   2.724  16.428  1.00  0.00     0.049 A 
ATOM     44  N   UNL     1       7.700  -0.137  17.031  1.00  0.00    -0.248 NA
ATOM     45  C   UNL     1       8.946  -0.606  15.131  1.00  0.00     0.031 C 
ATOM     46  C   UNL     1       9.603   4.084  16.013  1.00  0.00     0.029 A 
ATOM     47  N   UNL     1       9.913   2.588  17.611  1.00  0.00    -0.354 N 
ATOM     48  C   UNL     1       7.931  -1.505  16.949  1.00  0.00     0.074 A 
ATOM     49  C   UNL     1       8.488  -1.746  15.647  1.00  0.00     0.031 C 
ATOM     50  C   UNL     1      10.595   4.552  16.805  1.00  0.00     0.029 A 
ATOM     51  C   UNL     1      10.857   3.584  17.857  1.00  0.00     0.049 A 
ATOM     52  H   UNL     1       9.741   1.850  18.238  1.00  0.00     0.167 HD
ATOM     53  C   UNL     1       7.994  -2.239  18.091  1.00  0.00     0.037 A 
ATOM     54  C   UNL     1      11.814   3.570  18.822  1.00  0.00     0.037 A 
ATOM     55  C   UNL     1       7.333  -1.545  19.175  1.00  0.00     0.049 A 
ATOM     56  C   UNL     1      11.392   2.583  19.843  1.00  0.00     0.074 A 
ATOM     57  C   UNL     1       6.063  -1.063  19.421  1.00  0.00     0.029 A 
ATOM     58  N   UNL     1       8.159  -0.915  20.069  1.00  0.00    -0.354 N 
ATOM     59  N   UNL     1      10.376   2.753  20.640  1.00  0.00    -0.248 NA
ATOM     60  C   UNL     1      11.839   1.209  19.687  1.00  0.00     0.031 C 
ATOM     61  C   UNL     1       6.251   0.129  20.186  1.00  0.00     0.029 A 
ATOM     62  C   UNL     1       7.616   0.284  20.429  1.00  0.00     0.049 A 
ATOM     63  H   UNL     1       9.013  -1.273  20.401  1.00  0.00     0.167 HD
ATOM     64  C   UNL     1       9.772   1.508  20.700  1.00  0.00     0.074 A 
ATOM     65  C   UNL     1      10.784   0.576  20.204  1.00  0.00     0.031 C 
ATOM     66  C   UNL     1       8.417   1.409  20.855  1.00  0.00     0.037 A 
BRANCH  53  67
ATOM     67  C   UNL     1       9.101  -3.248  18.357  1.00  0.00     0.057 A 
ATOM     68  C   UNL     1       9.093  -3.930  19.589  1.00  0.00     0.134 A 
ATOM     69  C   UNL     1      10.324  -3.320  17.652  1.00  0.00     0.134 A 
ATOM     70  F   UNL     1       7.994  -3.942  20.359  1.00  0.00    -0.206 F 
ATOM     71  C   UNL     1      10.241  -4.521  20.130  1.00  0.00     0.040 A 
ATOM     72  C   UNL     1      11.461  -3.949  18.163  1.00  0.00     0.040 A 
ATOM     73  F   UNL     1      10.533  -2.711  16.482  1.00  0.00    -0.206 F 
ATOM     74  C   UNL     1      11.436  -4.517  19.424  1.00  0.00     0.006 A 
ENDBRANCH  53  67
BRANCH  54  75
ATOM     75  C   UNL     1      13.200   4.100  18.791  1.00  0.00     0.057 A 
ATOM     76  C   UNL     1      13.972   4.180  19.963  1.00  0.00     0.134 A 
ATOM     77  C   UNL     1      13.904   4.254  17.585  1.00  0.00     0.134 A 
ATOM     78  F   UNL     1      13.405   4.005  21.166  1.00  0.00    -0.206 F 
ATOM     79  C   UNL     1      15.361   4.364  19.935  1.00  0.00     0.040 A 
ATOM     80  C   UNL     1      15.290   4.445  17.543  1.00  0.00     0.040 A 
ATOM     81  F   UNL     1      13.287   4.127  16.401  1.00  0.00    -0.206 F 
ATOM     82  C   UNL     1      16.027   4.484  18.720  1.00  0.00     0.006 A 
ENDBRANCH  54  75
BRANCH  66  83
ATOM     83  C   UNL     1       7.685   2.633  21.333  1.00  0.00     0.057 A 
ATOM     84  C   UNL     1       7.611   3.850  20.639  1.00  0.00     0.134 A 
ATOM     85  C   UNL     1       6.944   2.534  22.516  1.00  0.00     0.134 A 
ATOM     86  F   UNL     1       8.208   4.011  19.450  1.00  0.00    -0.206 F 
ATOM     87  C   UNL     1       6.878   4.934  21.133  1.00  0.00     0.040 A 
ATOM     88  C   UNL     1       6.178   3.595  23.000  1.00  0.00     0.040 A 
ATOM     89  F   UNL     1       6.927   1.383  23.208  1.00  0.00    -0.206 F 
ATOM     90  C   UNL     1       6.155   4.806  22.316  1.00  0.00     0.006 A 
ENDBRANCH  66  83
ENDBRANCH  40  41
ENDBRANCH  33  35
ENDBRANCH  32  33
ENDBRANCH  31  32
ENDBRANCH   1  31
TORSDOF 14
