REMARK SMILES Cc1ccc(S(=O)(=O)N2CCN(C(=O)[C@H]3CCCC[C@@H]3C(=O)OCCOC(=O)c3ccc(-c4c5nc(c(-c6c(F)cccc6F)c6ccc([nH]6)c(-c6c(F)cccc6F)c6nc(c(-c7c(F)cccc7F)c7ccc4[nH]7)C=C6)C=C5)cc3)CC2)cc1C
REMARK SMILES IDX 24 1 23 2 21 3 22 4 20 5 15 6 16 7 17 8 19 9 18 10 13 11
REMARK SMILES IDX 9 12 10 13 84 14 11 15 83 16 12 17 14 18 6 19 7 20 8 21 5 22
REMARK SMILES IDX 1 23 2 24 3 25 86 26 4 27 85 28 87 29 25 30 26 31 27 32
REMARK SMILES IDX 28 33 29 34 30 35 82 36 31 37 81 38 32 39 33 40 34 41 75 42
REMARK SMILES IDX 35 43 80 44 74 45 76 46 36 47 79 48 73 49 72 50 37 52 63 53
REMARK SMILES IDX 46 54 62 55 47 56 50 57 61 58 77 59 48 60 49 61 60 63 78 64
REMARK SMILES IDX 51 65 38 66 39 67 44 68 40 69 41 70 43 71 45 72 42 73 64 74
REMARK SMILES IDX 65 75 70 76 66 77 67 78 69 79 71 80 68 81 52 82 53 83 58 84
REMARK SMILES IDX 54 85 55 86 57 87 59 88 56 89
REMARK H PARENT 76 51 50 62
REMARK Flexibility Score: inf
ROOT
ATOM      1  C   UNL     1      -3.090   3.282  -3.078  1.00  0.00     0.274 C 
ENDROOT
BRANCH   1   2
ATOM      2  O   UNL     1      -3.626   4.336  -2.252  1.00  0.00    -0.462 OA
BRANCH   2   3
ATOM      3  C   UNL     1      -4.812   4.066  -1.637  1.00  0.00     0.309 C 
ATOM      4  O   UNL     1      -5.391   2.988  -1.685  1.00  0.00    -0.252 OA
BRANCH   3   5
ATOM      5  C   UNL     1      -5.330   5.284  -0.880  1.00  0.00     0.111 C 
ATOM      6  C   UNL     1      -6.421   4.895   0.161  1.00  0.00     0.093 C 
ATOM      7  C   UNL     1      -7.764   4.551  -0.504  1.00  0.00     0.014 C 
ATOM      8  C   UNL     1      -8.219   5.596  -1.512  1.00  0.00     0.001 C 
ATOM      9  C   UNL     1      -5.832   6.325  -1.889  1.00  0.00     0.016 C 
ATOM     10  C   UNL     1      -7.145   5.906  -2.544  1.00  0.00     0.001 C 
BRANCH   6  11
ATOM     11  C   UNL     1      -6.586   5.985   1.231  1.00  0.00     0.226 C 
ATOM     12  N   UNL     1      -9.382   5.466   4.382  1.00  0.00    -0.194 NA
ATOM     13  C   UNL     1      -9.027   6.796   3.854  1.00  0.00     0.124 C 
ATOM     14  C   UNL     1      -9.154   4.327   3.472  1.00  0.00     0.124 C 
ATOM     15  C   UNL     1      -7.595   6.794   3.313  1.00  0.00     0.136 C 
ATOM     16  C   UNL     1      -7.766   4.374   2.807  1.00  0.00     0.136 C 
ATOM     17  N   UNL     1      -7.371   5.712   2.343  1.00  0.00    -0.340 N 
ATOM     18  O   UNL     1      -6.039   7.081   1.097  1.00  0.00    -0.275 OA
BRANCH  12  19
ATOM     19  S   UNL     1      -9.893   5.258   5.967  1.00  0.00     0.243 S 
ATOM     20  O   UNL     1     -10.456   3.938   6.100  1.00  0.00    -0.207 OA
ATOM     21  O   UNL     1     -10.650   6.447   6.321  1.00  0.00    -0.207 OA
BRANCH  19  22
ATOM     22  C   UNL     1      -8.403   5.294   6.940  1.00  0.00     0.082 A 
ATOM     23  C   UNL     1      -4.745   5.578   9.199  1.00  0.00     0.044 C 
ATOM     24  C   UNL     1      -6.044   5.471   8.451  1.00  0.00    -0.048 A 
ATOM     25  C   UNL     1      -6.038   4.888   7.178  1.00  0.00     0.005 A 
ATOM     26  C   UNL     1      -7.263   5.925   8.995  1.00  0.00    -0.047 A 
ATOM     27  C   UNL     1      -7.214   4.776   6.442  1.00  0.00     0.022 A 
ATOM     28  C   UNL     1      -8.433   5.859   8.216  1.00  0.00     0.025 A 
ATOM     29  C   UNL     1      -7.384   6.442  10.403  1.00  0.00     0.044 C 
ENDBRANCH  19  22
ENDBRANCH  12  19
ENDBRANCH   6  11
ENDBRANCH   3   5
ENDBRANCH   2   3
ENDBRANCH   1   2
BRANCH   1  30
ATOM     30  C   UNL     1      -1.980   2.518  -2.359  1.00  0.00     0.275 C 
BRANCH  30  31
ATOM     31  O   UNL     1      -2.498   1.918  -1.160  1.00  0.00    -0.458 OA
BRANCH  31  32
ATOM     32  C   UNL     1      -1.886   2.268  -0.005  1.00  0.00     0.338 C 
ATOM     33  O   UNL     1      -0.894   2.960   0.139  1.00  0.00    -0.246 OA
BRANCH  32  34
ATOM     34  C   UNL     1      -2.650   1.715   1.124  1.00  0.00     0.060 A 
ATOM     35  C   UNL     1      -3.953   2.158   1.325  1.00  0.00     0.016 A 
ATOM     36  C   UNL     1      -2.063   0.845   2.038  1.00  0.00     0.016 A 
ATOM     37  C   UNL     1      -4.671   1.768   2.449  1.00  0.00     0.010 A 
ATOM     38  C   UNL     1      -2.814   0.388   3.130  1.00  0.00     0.010 A 
ATOM     39  C   UNL     1      -4.123   0.854   3.355  1.00  0.00    -0.014 A 
BRANCH  39  40
ATOM     40  C   UNL     1      -4.916   0.399   4.532  1.00  0.00     0.031 A 
ATOM     41  C   UNL     1      -4.388   0.603   5.925  1.00  0.00     0.074 A 
ATOM     42  C   UNL     1      -6.110  -0.204   4.360  1.00  0.00     0.049 A 
ATOM     43  N   UNL     1      -4.804   0.085   7.052  1.00  0.00    -0.248 NA
ATOM     44  C   UNL     1      -3.232   1.499   6.065  1.00  0.00     0.031 C 
ATOM     45  C   UNL     1      -6.772  -0.425   3.072  1.00  0.00     0.029 A 
ATOM     46  N   UNL     1      -6.976  -0.755   5.274  1.00  0.00    -0.354 N 
ATOM     47  C   UNL     1      -3.920   0.533   8.025  1.00  0.00     0.074 A 
ATOM     48  C   UNL     1      -2.953   1.378   7.356  1.00  0.00     0.031 C 
ATOM     49  C   UNL     1      -7.939  -1.053   3.278  1.00  0.00     0.029 A 
ATOM     50  C   UNL     1      -8.060  -1.371   4.696  1.00  0.00     0.049 A 
ATOM     51  H   UNL     1      -6.833  -0.713   6.247  1.00  0.00     0.167 HD
ATOM     52  C   UNL     1      -3.912   0.254   9.351  1.00  0.00     0.037 A 
ATOM     53  C   UNL     1      -9.006  -2.171   5.224  1.00  0.00     0.037 A 
ATOM     54  C   UNL     1      -4.916  -0.535  10.019  1.00  0.00     0.049 A 
ATOM     55  C   UNL     1      -8.953  -2.509   6.685  1.00  0.00     0.074 A 
ATOM     56  C   UNL     1      -5.039  -0.810  11.370  1.00  0.00     0.029 A 
ATOM     57  N   UNL     1      -5.974  -1.169   9.385  1.00  0.00    -0.354 N 
ATOM     58  N   UNL     1      -8.093  -2.111   7.590  1.00  0.00    -0.248 NA
ATOM     59  C   UNL     1      -9.979  -3.431   7.190  1.00  0.00     0.031 C 
ATOM     60  C   UNL     1      -6.141  -1.655  11.546  1.00  0.00     0.029 A 
ATOM     61  C   UNL     1      -6.729  -1.872  10.311  1.00  0.00     0.049 A 
ATOM     62  H   UNL     1      -6.161  -1.127   8.419  1.00  0.00     0.167 HD
ATOM     63  C   UNL     1      -8.470  -2.736   8.771  1.00  0.00     0.074 A 
ATOM     64  C   UNL     1      -9.650  -3.521   8.472  1.00  0.00     0.031 C 
ATOM     65  C   UNL     1      -7.886  -2.669   9.992  1.00  0.00     0.037 A 
BRANCH  52  66
ATOM     66  C   UNL     1      -2.758   0.769  10.164  1.00  0.00     0.057 A 
ATOM     67  C   UNL     1      -2.604   2.126  10.468  1.00  0.00     0.134 A 
ATOM     68  C   UNL     1      -1.798  -0.115  10.672  1.00  0.00     0.134 A 
ATOM     69  F   UNL     1      -3.479   3.024   9.999  1.00  0.00    -0.206 F 
ATOM     70  C   UNL     1      -1.524   2.593  11.219  1.00  0.00     0.040 A 
ATOM     71  C   UNL     1      -0.726   0.335  11.447  1.00  0.00     0.040 A 
ATOM     72  F   UNL     1      -1.886  -1.431  10.428  1.00  0.00    -0.206 F 
ATOM     73  C   UNL     1      -0.583   1.694  11.716  1.00  0.00     0.006 A 
ENDBRANCH  52  66
BRANCH  53  74
ATOM     74  C   UNL     1     -10.025  -2.780   4.332  1.00  0.00     0.057 A 
ATOM     75  C   UNL     1     -11.364  -2.381   4.375  1.00  0.00     0.134 A 
ATOM     76  C   UNL     1      -9.670  -3.751   3.385  1.00  0.00     0.134 A 
ATOM     77  F   UNL     1     -11.770  -1.477   5.277  1.00  0.00    -0.206 F 
ATOM     78  C   UNL     1     -12.313  -2.919   3.503  1.00  0.00     0.040 A 
ATOM     79  C   UNL     1     -10.602  -4.276   2.489  1.00  0.00     0.040 A 
ATOM     80  F   UNL     1      -8.401  -4.174   3.293  1.00  0.00    -0.206 F 
ATOM     81  C   UNL     1     -11.929  -3.860   2.548  1.00  0.00     0.006 A 
ENDBRANCH  53  74
BRANCH  65  82
ATOM     82  C   UNL     1      -8.509  -3.477  11.091  1.00  0.00     0.057 A 
ATOM     83  C   UNL     1      -8.353  -4.868  11.153  1.00  0.00     0.134 A 
ATOM     84  C   UNL     1      -9.240  -2.860  12.113  1.00  0.00     0.134 A 
ATOM     85  F   UNL     1      -7.677  -5.520  10.195  1.00  0.00    -0.206 F 
ATOM     86  C   UNL     1      -8.914  -5.618  12.188  1.00  0.00     0.040 A 
ATOM     87  C   UNL     1      -9.788  -3.597  13.164  1.00  0.00     0.040 A 
ATOM     88  F   UNL     1      -9.421  -1.531  12.114  1.00  0.00    -0.206 F 
ATOM     89  C   UNL     1      -9.629  -4.981  13.201  1.00  0.00     0.006 A 
ENDBRANCH  65  82
ENDBRANCH  39  40
ENDBRANCH  32  34
ENDBRANCH  31  32
ENDBRANCH  30  31
ENDBRANCH   1  30
TORSDOF 14
