REMARK SMILES O=C(/C=C\C(F)(C(F)(F)F)C(F)(F)F)OCCOC(=O)c1ccc(-c2c3nc(c(-c4c(F)cccc4F)c4ccc([nH]4)c(-c4c(F)cccc4F)c4nc(c(-c5c(F)cccc5F)c5ccc2[nH]5)C=C4)C=C3)cc1
REMARK SMILES IDX 16 1 15 2 2 3 1 4 3 5 4 6 5 7 6 8 7 9 8 10 9 11 10 12 11 13
REMARK SMILES IDX 12 14 13 15 14 16 17 17 18 18 19 19 20 20 21 21 22 22 74 23
REMARK SMILES IDX 23 24 73 25 24 26 25 27 26 28 67 29 27 30 72 31 66 32 68 33
REMARK SMILES IDX 28 34 71 35 65 36 64 37 29 39 55 40 38 41 54 42 39 43 42 44
REMARK SMILES IDX 53 45 69 46 40 47 41 48 52 50 70 51 43 52 30 53 31 54 36 55
REMARK SMILES IDX 32 56 33 57 35 58 37 59 34 60 56 61 57 62 62 63 58 64 59 65
REMARK SMILES IDX 61 66 63 67 60 68 44 69 45 70 50 71 46 72 47 73 49 74 51 75
REMARK SMILES IDX 48 76
REMARK H PARENT 68 38 42 49
REMARK Flexibility Score: inf
ROOT
ATOM      1  C   UNL     1       3.552   0.303  -1.994  1.00  0.00     0.275 C 
ENDROOT
BRANCH   1   2
ATOM      2  O   UNL     1       2.371  -0.089  -1.258  1.00  0.00    -0.459 OA
BRANCH   2   3
ATOM      3  C   UNL     1       2.168  -0.477   0.011  1.00  0.00     0.330 C 
ATOM      4  O   UNL     1       1.113  -1.013   0.341  1.00  0.00    -0.247 OA
BRANCH   3   5
ATOM      5  C   UNL     1       3.060  -0.054   1.101  1.00  0.00     0.093 C 
ATOM      6  C   UNL     1       4.341  -0.270   1.430  1.00  0.00     0.040 C 
BRANCH   6   7
ATOM      7  C   UNL     1       5.456  -1.078   0.782  1.00  0.00     0.317 C 
ATOM      8  F   UNL     1       6.000  -0.285  -0.198  1.00  0.00    -0.219 F 
BRANCH   7   9
ATOM      9  C   UNL     1       6.549  -1.407   1.799  1.00  0.00     0.435 C 
ATOM     10  F   UNL     1       6.116  -2.248   2.766  1.00  0.00    -0.167 F 
ATOM     11  F   UNL     1       7.642  -1.963   1.234  1.00  0.00    -0.167 F 
ATOM     12  F   UNL     1       6.976  -0.283   2.435  1.00  0.00    -0.167 F 
ENDBRANCH   7   9
BRANCH   7  13
ATOM     13  C   UNL     1       5.078  -2.429   0.196  1.00  0.00     0.435 C 
ATOM     14  F   UNL     1       4.550  -3.260   1.121  1.00  0.00    -0.167 F 
ATOM     15  F   UNL     1       4.153  -2.311  -0.784  1.00  0.00    -0.167 F 
ATOM     16  F   UNL     1       6.137  -3.058  -0.361  1.00  0.00    -0.167 F 
ENDBRANCH   7  13
ENDBRANCH   6   7
ENDBRANCH   3   5
ENDBRANCH   2   3
ENDBRANCH   1   2
BRANCH   1  17
ATOM     17  C   UNL     1       4.188   1.666  -1.717  1.00  0.00     0.275 C 
BRANCH  17  18
ATOM     18  O   UNL     1       3.754   2.292  -0.515  1.00  0.00    -0.458 OA
BRANCH  18  19
ATOM     19  C   UNL     1       2.527   2.851  -0.612  1.00  0.00     0.338 C 
ATOM     20  O   UNL     1       1.808   2.893  -1.596  1.00  0.00    -0.246 OA
BRANCH  19  21
ATOM     21  C   UNL     1       2.124   3.299   0.726  1.00  0.00     0.060 A 
ATOM     22  C   UNL     1       0.860   2.925   1.186  1.00  0.00     0.016 A 
ATOM     23  C   UNL     1       2.968   4.100   1.503  1.00  0.00     0.016 A 
ATOM     24  C   UNL     1       0.403   3.420   2.402  1.00  0.00     0.010 A 
ATOM     25  C   UNL     1       2.508   4.594   2.723  1.00  0.00     0.010 A 
ATOM     26  C   UNL     1       1.203   4.297   3.150  1.00  0.00    -0.014 A 
BRANCH  26  27
ATOM     27  C   UNL     1       0.587   5.021   4.285  1.00  0.00     0.031 A 
ATOM     28  C   UNL     1       0.123   6.437   4.081  1.00  0.00     0.074 A 
ATOM     29  C   UNL     1       0.357   4.392   5.449  1.00  0.00     0.049 A 
ATOM     30  N   UNL     1      -0.544   7.215   4.894  1.00  0.00    -0.248 NA
ATOM     31  C   UNL     1       0.450   7.058   2.787  1.00  0.00     0.031 C 
ATOM     32  C   UNL     1       0.747   3.018   5.759  1.00  0.00     0.029 A 
ATOM     33  N   UNL     1      -0.279   4.828   6.583  1.00  0.00    -0.354 N 
ATOM     34  C   UNL     1      -0.740   8.403   4.202  1.00  0.00     0.074 A 
ATOM     35  C   UNL     1      -0.067   8.269   2.929  1.00  0.00     0.031 C 
ATOM     36  C   UNL     1       0.335   2.720   7.003  1.00  0.00     0.029 A 
ATOM     37  C   UNL     1      -0.332   3.886   7.579  1.00  0.00     0.049 A 
ATOM     38  H   UNL     1      -0.661   5.731   6.673  1.00  0.00     0.167 HD
ATOM     39  C   UNL     1      -1.442   9.498   4.581  1.00  0.00     0.037 A 
ATOM     40  C   UNL     1      -0.858   3.961   8.816  1.00  0.00     0.037 A 
ATOM     41  C   UNL     1      -2.095   9.639   5.856  1.00  0.00     0.049 A 
ATOM     42  C   UNL     1      -1.572   5.217   9.240  1.00  0.00     0.074 A 
ATOM     43  C   UNL     1      -2.827  10.712   6.336  1.00  0.00     0.029 A 
ATOM     44  N   UNL     1      -2.089   8.680   6.858  1.00  0.00    -0.354 N 
ATOM     45  N   UNL     1      -1.790   6.319   8.562  1.00  0.00    -0.248 NA
ATOM     46  C   UNL     1      -2.131   5.231  10.599  1.00  0.00     0.031 C 
ATOM     47  C   UNL     1      -3.216  10.424   7.648  1.00  0.00     0.029 A 
ATOM     48  C   UNL     1      -2.783   9.146   7.963  1.00  0.00     0.049 A 
ATOM     49  H   UNL     1      -1.656   7.799   6.793  1.00  0.00     0.167 HD
ATOM     50  C   UNL     1      -2.532   7.143   9.400  1.00  0.00     0.074 A 
ATOM     51  C   UNL     1      -2.751   6.402  10.624  1.00  0.00     0.031 C 
ATOM     52  C   UNL     1      -2.990   8.401   9.179  1.00  0.00     0.037 A 
BRANCH  39  53
ATOM     53  C   UNL     1      -1.529  10.634   3.603  1.00  0.00     0.057 A 
ATOM     54  C   UNL     1      -2.281  10.536   2.425  1.00  0.00     0.134 A 
ATOM     55  C   UNL     1      -0.886  11.851   3.858  1.00  0.00     0.134 A 
ATOM     56  F   UNL     1      -2.909   9.392   2.111  1.00  0.00    -0.206 F 
ATOM     57  C   UNL     1      -2.374  11.601   1.526  1.00  0.00     0.040 A 
ATOM     58  C   UNL     1      -0.995  12.932   2.982  1.00  0.00     0.040 A 
ATOM     59  F   UNL     1      -0.151  12.014   4.969  1.00  0.00    -0.206 F 
ATOM     60  C   UNL     1      -1.737  12.807   1.809  1.00  0.00     0.006 A 
ENDBRANCH  39  53
BRANCH  40  61
ATOM     61  C   UNL     1      -0.723   2.815   9.752  1.00  0.00     0.057 A 
ATOM     62  C   UNL     1      -1.836   2.087  10.188  1.00  0.00     0.134 A 
ATOM     63  C   UNL     1       0.527   2.450  10.268  1.00  0.00     0.134 A 
ATOM     64  F   UNL     1      -3.063   2.401   9.748  1.00  0.00    -0.206 F 
ATOM     65  C   UNL     1      -1.716   1.061  11.127  1.00  0.00     0.040 A 
ATOM     66  C   UNL     1       0.666   1.405  11.182  1.00  0.00     0.040 A 
ATOM     67  F   UNL     1       1.634   3.104   9.886  1.00  0.00    -0.206 F 
ATOM     68  C   UNL     1      -0.461   0.716  11.624  1.00  0.00     0.006 A 
ENDBRANCH  40  61
BRANCH  52  69
ATOM     69  C   UNL     1      -3.796   9.039  10.277  1.00  0.00     0.057 A 
ATOM     70  C   UNL     1      -3.224   9.410  11.502  1.00  0.00     0.134 A 
ATOM     71  C   UNL     1      -5.163   9.291  10.105  1.00  0.00     0.134 A 
ATOM     72  F   UNL     1      -1.921   9.190  11.738  1.00  0.00    -0.206 F 
ATOM     73  C   UNL     1      -3.990   9.964  12.529  1.00  0.00     0.040 A 
ATOM     74  C   UNL     1      -5.932   9.878  11.111  1.00  0.00     0.040 A 
ATOM     75  F   UNL     1      -5.776   8.977   8.953  1.00  0.00    -0.206 F 
ATOM     76  C   UNL     1      -5.348  10.204  12.333  1.00  0.00     0.006 A 
ENDBRANCH  52  69
ENDBRANCH  26  27
ENDBRANCH  19  21
ENDBRANCH  18  19
ENDBRANCH  17  18
ENDBRANCH   1  17
TORSDOF 14
