REMARK SMILES Cc1nc(C(=O)N2C[C@@H]3CC[N@@H+](C)C[C@]3(C(=O)OCCOC(=O)c3ccc(-c4c5nc(c(-c6c(F)cccc6F)c6ccc([nH]6)c(-c6c(F)cccc6F)c6nc(c(-c7c(F)cccc7F)c7ccc4[nH]7)C=C6)C=C5)cc3)C2)cs1
REMARK SMILES IDX 19 1 18 2 16 3 17 4 15 5 7 6 8 7 78 8 9 9 10 10 14 11 11 12
REMARK SMILES IDX 12 13 13 14 5 16 6 17 4 18 1 19 2 20 3 21 80 22 79 23 20 24
REMARK SMILES IDX 21 25 22 26 23 27 24 28 25 29 77 30 26 31 76 32 27 33 28 34
REMARK SMILES IDX 29 35 70 36 30 37 75 38 69 39 71 40 31 41 74 42 68 43 67 44
REMARK SMILES IDX 32 46 58 47 41 48 57 49 42 50 45 51 56 52 72 53 43 54 44 55
REMARK SMILES IDX 55 57 73 58 46 59 33 60 34 61 39 62 35 63 36 64 38 65 40 66
REMARK SMILES IDX 37 67 59 68 60 69 65 70 61 71 62 72 64 73 66 74 63 75 47 76
REMARK SMILES IDX 48 77 53 78 49 79 50 80 52 81 54 82 51 83
REMARK H PARENT 12 15 71 45 45 56
REMARK Flexibility Score: inf
ROOT
ATOM      1  C   UNL     1      -2.212  -6.598  -2.995  1.00  0.00     0.274 C 
ENDROOT
BRANCH   1   2
ATOM      2  O   UNL     1      -0.979  -5.948  -2.578  1.00  0.00    -0.461 OA
BRANCH   2   3
ATOM      3  C   UNL     1      -1.001  -4.974  -1.597  1.00  0.00     0.320 C 
ATOM      4  O   UNL     1      -1.926  -4.196  -1.426  1.00  0.00    -0.251 OA
BRANCH   3   5
ATOM      5  C   UNL     1       0.266  -5.144  -0.709  1.00  0.00     0.139 C 
ATOM      6  N   UNL     1       2.022  -3.505  -0.829  1.00  0.00    -0.336 N 
ATOM      7  C   UNL     1       1.825  -3.725   0.562  1.00  0.00     0.125 C 
ATOM      8  C   UNL     1       1.385  -4.553  -1.614  1.00  0.00     0.145 C 
ATOM      9  C   UNL     1       0.469  -4.412   0.677  1.00  0.00     0.039 C 
ATOM     10  C   UNL     1       0.602  -5.285   1.970  1.00  0.00     0.068 C 
ATOM     11  C   UNL     1       0.240  -6.640  -0.346  1.00  0.00     0.283 C 
ATOM     12  C   UNL     1      -0.172  -6.590   2.026  1.00  0.00     0.262 C 
ATOM     13  N   UNL     1      -0.749  -6.929   0.738  1.00  0.00    -0.336 N 
ATOM     14  C   UNL     1      -2.065  -6.267   0.666  1.00  0.00     0.332 C 
ATOM     15  H   UNL     1      -0.937  -7.923   0.610  1.00  0.00     0.347 HD
BRANCH   6  16
ATOM     16  C   UNL     1       2.310  -2.230  -1.290  1.00  0.00     0.273 C 
ATOM     17  O   UNL     1       3.326  -1.977  -1.923  1.00  0.00    -0.267 OA
BRANCH  16  18
ATOM     18  C   UNL     1       1.335  -1.198  -0.894  1.00  0.00     0.139 A 
ATOM     19  C   UNL     1      -2.173  -0.391  -0.216  1.00  0.00     0.079 C 
ATOM     20  C   UNL     1      -0.697  -0.425  -0.408  1.00  0.00     0.090 A 
ATOM     21  N   UNL     1      -0.011  -1.509  -0.691  1.00  0.00    -0.236 NA
ATOM     22  S   UNL     1       0.230   1.016  -0.279  1.00  0.00    -0.127 S 
ATOM     23  C   UNL     1       1.642   0.135  -0.694  1.00  0.00     0.101 A 
ENDBRANCH  16  18
ENDBRANCH   6  16
ENDBRANCH   3   5
ENDBRANCH   2   3
ENDBRANCH   1   2
BRANCH   1  24
ATOM     24  C   UNL     1      -2.045  -8.147  -2.931  1.00  0.00     0.275 C 
BRANCH  24  25
ATOM     25  O   UNL     1      -2.251  -8.659  -1.587  1.00  0.00    -0.458 OA
BRANCH  25  26
ATOM     26  C   UNL     1      -1.893  -9.959  -1.331  1.00  0.00     0.338 C 
ATOM     27  O   UNL     1      -1.468 -10.747  -2.159  1.00  0.00    -0.246 OA
BRANCH  26  28
ATOM     28  C   UNL     1      -2.005 -10.279   0.137  1.00  0.00     0.060 A 
ATOM     29  C   UNL     1      -2.585  -9.367   0.998  1.00  0.00     0.016 A 
ATOM     30  C   UNL     1      -1.460 -11.430   0.716  1.00  0.00     0.016 A 
ATOM     31  C   UNL     1      -2.380  -9.443   2.381  1.00  0.00     0.010 A 
ATOM     32  C   UNL     1      -1.437 -11.595   2.131  1.00  0.00     0.010 A 
ATOM     33  C   UNL     1      -1.835 -10.567   3.010  1.00  0.00    -0.014 A 
BRANCH  33  34
ATOM     34  C   UNL     1      -1.660 -10.609   4.524  1.00  0.00     0.031 A 
ATOM     35  C   UNL     1      -0.440 -11.255   5.164  1.00  0.00     0.074 A 
ATOM     36  C   UNL     1      -2.521 -10.016   5.393  1.00  0.00     0.049 A 
ATOM     37  N   UNL     1      -0.271 -11.659   6.404  1.00  0.00    -0.248 NA
ATOM     38  C   UNL     1       0.732 -11.485   4.309  1.00  0.00     0.031 C 
ATOM     39  C   UNL     1      -3.735  -9.277   5.045  1.00  0.00     0.029 A 
ATOM     40  N   UNL     1      -2.480  -9.903   6.772  1.00  0.00    -0.354 N 
ATOM     41  C   UNL     1       0.959 -12.306   6.438  1.00  0.00     0.074 A 
ATOM     42  C   UNL     1       1.523 -12.190   5.109  1.00  0.00     0.031 C 
ATOM     43  C   UNL     1      -4.222  -8.666   6.133  1.00  0.00     0.029 A 
ATOM     44  C   UNL     1      -3.483  -9.121   7.303  1.00  0.00     0.049 A 
ATOM     45  H   UNL     1      -1.795 -10.343   7.325  1.00  0.00     0.167 HD
ATOM     46  C   UNL     1       1.555 -12.957   7.470  1.00  0.00     0.037 A 
ATOM     47  C   UNL     1      -3.842  -8.844   8.574  1.00  0.00     0.037 A 
ATOM     48  C   UNL     1       1.081 -12.964   8.832  1.00  0.00     0.049 A 
ATOM     49  C   UNL     1      -3.164  -9.544   9.715  1.00  0.00     0.074 A 
ATOM     50  C   UNL     1       1.593 -13.646   9.926  1.00  0.00     0.029 A 
ATOM     51  N   UNL     1       0.027 -12.201   9.303  1.00  0.00    -0.354 N 
ATOM     52  N   UNL     1      -2.142 -10.361   9.690  1.00  0.00    -0.248 NA
ATOM     53  C   UNL     1      -3.738  -9.341  11.055  1.00  0.00     0.031 C 
ATOM     54  C   UNL     1       0.847 -13.296  11.058  1.00  0.00     0.029 A 
ATOM     55  C   UNL     1      -0.114 -12.379  10.671  1.00  0.00     0.049 A 
ATOM     56  H   UNL     1      -0.540 -11.618   8.748  1.00  0.00     0.167 HD
ATOM     57  C   UNL     1      -1.973 -10.793  10.999  1.00  0.00     0.074 A 
ATOM     58  C   UNL     1      -2.962 -10.112  11.804  1.00  0.00     0.031 C 
ATOM     59  C   UNL     1      -1.093 -11.704  11.478  1.00  0.00     0.037 A 
BRANCH  46  60
ATOM     60  C   UNL     1       2.764 -13.790   7.156  1.00  0.00     0.057 A 
ATOM     61  C   UNL     1       4.033 -13.239   6.958  1.00  0.00     0.134 A 
ATOM     62  C   UNL     1       2.649 -15.187   7.104  1.00  0.00     0.134 A 
ATOM     63  F   UNL     1       4.209 -11.909   6.987  1.00  0.00    -0.206 F 
ATOM     64  C   UNL     1       5.143 -14.047   6.697  1.00  0.00     0.040 A 
ATOM     65  C   UNL     1       3.753 -16.005   6.866  1.00  0.00     0.040 A 
ATOM     66  F   UNL     1       1.461 -15.779   7.301  1.00  0.00    -0.206 F 
ATOM     67  C   UNL     1       5.005 -15.434   6.656  1.00  0.00     0.006 A 
ENDBRANCH  46  60
BRANCH  47  68
ATOM     68  C   UNL     1      -4.985  -7.929   8.848  1.00  0.00     0.057 A 
ATOM     69  C   UNL     1      -4.783  -6.690   9.467  1.00  0.00     0.134 A 
ATOM     70  C   UNL     1      -6.301  -8.276   8.517  1.00  0.00     0.134 A 
ATOM     71  F   UNL     1      -3.553  -6.317   9.849  1.00  0.00    -0.206 F 
ATOM     72  C   UNL     1      -5.847  -5.826   9.739  1.00  0.00     0.040 A 
ATOM     73  C   UNL     1      -7.369  -7.409   8.751  1.00  0.00     0.040 A 
ATOM     74  F   UNL     1      -6.565  -9.455   7.936  1.00  0.00    -0.206 F 
ATOM     75  C   UNL     1      -7.143  -6.180   9.368  1.00  0.00     0.006 A 
ENDBRANCH  47  68
BRANCH  59  76
ATOM     76  C   UNL     1      -1.159 -12.014  12.941  1.00  0.00     0.057 A 
ATOM     77  C   UNL     1      -2.152 -12.852  13.465  1.00  0.00     0.134 A 
ATOM     78  C   UNL     1      -0.220 -11.484  13.833  1.00  0.00     0.134 A 
ATOM     79  F   UNL     1      -3.091 -13.376  12.663  1.00  0.00    -0.206 F 
ATOM     80  C   UNL     1      -2.217 -13.140  14.829  1.00  0.00     0.040 A 
ATOM     81  C   UNL     1      -0.267 -11.776  15.198  1.00  0.00     0.040 A 
ATOM     82  F   UNL     1       0.754 -10.673  13.394  1.00  0.00    -0.206 F 
ATOM     83  C   UNL     1      -1.270 -12.604  15.700  1.00  0.00     0.006 A 
ENDBRANCH  59  76
ENDBRANCH  33  34
ENDBRANCH  26  28
ENDBRANCH  25  26
ENDBRANCH  24  25
ENDBRANCH   1  24
TORSDOF 13
