REMARK SMILES O=C(OCCOC(=O)c1ccc2c(c1)[C@@H]1C=CC[C@@H]1[C@H](c1ccncc1)N2)c1ccc(-c2c3nc(c(-c4c(F)cccc4F)c4ccc([nH]4)c(-c4c(F)cccc4F)c4nc(c(-c5c(F)cccc5F)c5ccc2[nH]5)C=C4)C=C3)cc1
REMARK SMILES IDX 4 1 3 2 2 3 1 4 28 5 29 6 81 7 30 8 80 9 31 10 32 11 33 12
REMARK SMILES IDX 74 13 34 14 79 15 73 16 75 17 35 18 78 19 72 20 71 21 36 23
REMARK SMILES IDX 62 24 45 25 61 26 46 27 49 28 60 29 76 30 47 31 48 32 59 34
REMARK SMILES IDX 77 35 50 36 37 37 38 38 43 39 39 40 40 41 42 42 44 43 41 44
REMARK SMILES IDX 63 45 64 46 69 47 65 48 66 49 68 50 70 51 67 52 51 53 52 54
REMARK SMILES IDX 57 55 53 56 54 57 56 58 58 59 55 60 5 61 6 62 7 63 8 64 9 65
REMARK SMILES IDX 10 66 14 67 11 68 13 69 12 70 15 71 27 72 16 73 19 74 20 75
REMARK SMILES IDX 17 77 18 78 21 79 22 80 26 81 23 82 25 83 24 84
REMARK H PARENT 75 22 49 33 27 76
REMARK Flexibility Score: inf
ROOT
ATOM      1  C   UNL     1       3.960  -1.097  -0.840  1.00  0.00     0.275 C 
ENDROOT
BRANCH   1   2
ATOM      2  O   UNL     1       2.949  -0.904   0.167  1.00  0.00    -0.458 OA
BRANCH   2   3
ATOM      3  C   UNL     1       2.875   0.032   1.143  1.00  0.00     0.338 C 
ATOM      4  O   UNL     1       1.979  -0.041   1.982  1.00  0.00    -0.246 OA
BRANCH   3   5
ATOM      5  C   UNL     1       3.756   1.236   1.163  1.00  0.00     0.060 A 
ATOM      6  C   UNL     1       5.095   1.257   0.770  1.00  0.00     0.016 A 
ATOM      7  C   UNL     1       3.178   2.433   1.616  1.00  0.00     0.016 A 
ATOM      8  C   UNL     1       5.816   2.450   0.727  1.00  0.00     0.010 A 
ATOM      9  C   UNL     1       3.891   3.634   1.569  1.00  0.00     0.010 A 
ATOM     10  C   UNL     1       5.227   3.646   1.131  1.00  0.00    -0.014 A 
BRANCH  10  11
ATOM     11  C   UNL     1       6.083   4.835   1.357  1.00  0.00     0.031 A 
ATOM     12  C   UNL     1       6.319   5.233   2.784  1.00  0.00     0.074 A 
ATOM     13  C   UNL     1       6.686   5.506   0.352  1.00  0.00     0.049 A 
ATOM     14  N   UNL     1       6.869   6.314   3.261  1.00  0.00    -0.248 NA
ATOM     15  C   UNL     1       5.919   4.253   3.814  1.00  0.00     0.031 C 
ATOM     16  C   UNL     1       6.654   5.143  -1.066  1.00  0.00     0.029 A 
ATOM     17  N   UNL     1       7.325   6.731   0.359  1.00  0.00    -0.354 N 
ATOM     18  C   UNL     1       6.982   6.092   4.626  1.00  0.00     0.074 A 
ATOM     19  C   UNL     1       6.300   4.857   4.927  1.00  0.00     0.031 C 
ATOM     20  C   UNL     1       7.046   6.203  -1.800  1.00  0.00     0.029 A 
ATOM     21  C   UNL     1       7.321   7.313  -0.899  1.00  0.00     0.049 A 
ATOM     22  H   UNL     1       7.731   7.140   1.158  1.00  0.00     0.167 HD
ATOM     23  C   UNL     1       7.690   6.813   5.525  1.00  0.00     0.037 A 
ATOM     24  C   UNL     1       7.331   8.623  -1.228  1.00  0.00     0.037 A 
ATOM     25  C   UNL     1       8.317   8.060   5.193  1.00  0.00     0.049 A 
ATOM     26  C   UNL     1       7.663   9.612  -0.153  1.00  0.00     0.074 A 
ATOM     27  C   UNL     1       9.121   8.872   5.968  1.00  0.00     0.029 A 
ATOM     28  N   UNL     1       8.165   8.692   3.967  1.00  0.00    -0.354 N 
ATOM     29  N   UNL     1       7.827   9.408   1.130  1.00  0.00    -0.248 NA
ATOM     30  C   UNL     1       7.907  10.993  -0.587  1.00  0.00     0.031 C 
ATOM     31  C   UNL     1       9.405  10.027   5.226  1.00  0.00     0.029 A 
ATOM     32  C   UNL     1       8.826   9.904   3.972  1.00  0.00     0.049 A 
ATOM     33  H   UNL     1       7.659   8.329   3.204  1.00  0.00     0.167 HD
ATOM     34  C   UNL     1       8.338  10.594   1.634  1.00  0.00     0.074 A 
ATOM     35  C   UNL     1       8.341  11.544   0.538  1.00  0.00     0.031 C 
ATOM     36  C   UNL     1       8.849  10.831   2.867  1.00  0.00     0.037 A 
BRANCH  23  37
ATOM     37  C   UNL     1       7.829   6.233   6.900  1.00  0.00     0.057 A 
ATOM     38  C   UNL     1       8.538   5.040   7.120  1.00  0.00     0.134 A 
ATOM     39  C   UNL     1       7.226   6.835   8.007  1.00  0.00     0.134 A 
ATOM     40  F   UNL     1       9.131   4.401   6.099  1.00  0.00    -0.206 F 
ATOM     41  C   UNL     1       8.600   4.445   8.381  1.00  0.00     0.040 A 
ATOM     42  C   UNL     1       7.305   6.264   9.279  1.00  0.00     0.040 A 
ATOM     43  F   UNL     1       6.534   7.976   7.870  1.00  0.00    -0.206 F 
ATOM     44  C   UNL     1       7.982   5.060   9.466  1.00  0.00     0.006 A 
ENDBRANCH  23  37
BRANCH  24  45
ATOM     45  C   UNL     1       6.930   9.107  -2.577  1.00  0.00     0.057 A 
ATOM     46  C   UNL     1       7.841   9.213  -3.628  1.00  0.00     0.134 A 
ATOM     47  C   UNL     1       5.625   9.567  -2.820  1.00  0.00     0.134 A 
ATOM     48  F   UNL     1       9.123   8.871  -3.443  1.00  0.00    -0.206 F 
ATOM     49  C   UNL     1       7.463   9.726  -4.875  1.00  0.00     0.040 A 
ATOM     50  C   UNL     1       5.223  10.044  -4.070  1.00  0.00     0.040 A 
ATOM     51  F   UNL     1       4.731   9.635  -1.826  1.00  0.00    -0.206 F 
ATOM     52  C   UNL     1       6.147  10.126  -5.105  1.00  0.00     0.006 A 
ENDBRANCH  24  45
BRANCH  36  53
ATOM     53  C   UNL     1       9.625  12.097   3.040  1.00  0.00     0.057 A 
ATOM     54  C   UNL     1       9.024  13.355   3.124  1.00  0.00     0.134 A 
ATOM     55  C   UNL     1      11.022  12.033   3.141  1.00  0.00     0.134 A 
ATOM     56  F   UNL     1       7.694  13.484   3.002  1.00  0.00    -0.206 F 
ATOM     57  C   UNL     1       9.788  14.511   3.288  1.00  0.00     0.040 A 
ATOM     58  C   UNL     1      11.793  13.174   3.340  1.00  0.00     0.040 A 
ATOM     59  F   UNL     1      11.658  10.853   3.062  1.00  0.00    -0.206 F 
ATOM     60  C   UNL     1      11.175  14.420   3.408  1.00  0.00     0.006 A 
ENDBRANCH  36  53
ENDBRANCH  10  11
ENDBRANCH   3   5
ENDBRANCH   2   3
ENDBRANCH   1   2
BRANCH   1  61
ATOM     61  C   UNL     1       3.895  -0.164  -2.058  1.00  0.00     0.275 C 
BRANCH  61  62
ATOM     62  O   UNL     1       3.439   1.174  -1.779  1.00  0.00    -0.458 OA
BRANCH  62  63
ATOM     63  C   UNL     1       2.096   1.351  -1.913  1.00  0.00     0.338 C 
ATOM     64  O   UNL     1       1.300   0.512  -2.288  1.00  0.00    -0.246 OA
BRANCH  63  65
ATOM     65  C   UNL     1       1.669   2.686  -1.420  1.00  0.00     0.060 A 
ATOM     66  C   UNL     1       0.634   2.733  -0.483  1.00  0.00     0.018 A 
ATOM     67  C   UNL     1       2.218   3.881  -1.885  1.00  0.00     0.022 A 
ATOM     68  C   UNL     1       0.154   3.963  -0.007  1.00  0.00     0.027 A 
ATOM     69  C   UNL     1       1.704   5.125  -1.431  1.00  0.00    -0.017 A 
ATOM     70  C   UNL     1       0.646   5.175  -0.502  1.00  0.00     0.038 A 
ATOM     71  C   UNL     1       2.291   6.413  -1.955  1.00  0.00     0.049 C 
ATOM     72  N   UNL     1       0.117   6.386  -0.046  1.00  0.00    -0.378 N 
ATOM     73  C   UNL     1       3.743   6.535  -1.642  1.00  0.00    -0.023 C 
ATOM     74  C   UNL     1       1.784   7.679  -1.261  1.00  0.00     0.031 C 
ATOM     75  C   UNL     1       0.325   7.592  -0.845  1.00  0.00     0.114 C 
ATOM     76  H   UNL     1      -0.386   6.426   0.799  1.00  0.00     0.161 HD
ATOM     77  C   UNL     1       3.965   7.322  -0.584  1.00  0.00    -0.030 C 
ATOM     78  C   UNL     1       2.726   7.936  -0.074  1.00  0.00     0.034 C 
BRANCH  75  79
ATOM     79  C   UNL     1      -0.018   8.912  -0.154  1.00  0.00    -0.022 A 
ATOM     80  C   UNL     1       0.031  10.092  -0.924  1.00  0.00     0.026 A 
ATOM     81  C   UNL     1      -0.160   9.054   1.228  1.00  0.00     0.026 A 
ATOM     82  C   UNL     1      -0.005  11.324  -0.293  1.00  0.00     0.111 A 
ATOM     83  C   UNL     1      -0.215  10.335   1.766  1.00  0.00     0.111 A 
ATOM     84  N   UNL     1      -0.135  11.471   1.038  1.00  0.00    -0.265 NA
ENDBRANCH  75  79
ENDBRANCH  63  65
ENDBRANCH  62  63
ENDBRANCH  61  62
ENDBRANCH   1  61
TORSDOF 12
