REMARK SMILES COc1ccc([C@@H](C(=O)OCCOC(=O)c2ccc(-c3c4nc(c(-c5c(F)cccc5F)c5ccc([nH]5)c(-c5c(F)cccc5F)c5nc(c(-c6c(F)cccc6F)c6ccc3[nH]6)C=C5)C=C4)cc2)[NH+]2CCC(C(N)=O)CC2)c(C)c1
REMARK SMILES IDX 11 1 10 2 8 3 9 4 7 5 6 6 3 7 4 8 81 9 5 10 79 11 80 12 2 13
REMARK SMILES IDX 1 14 70 15 71 16 78 17 72 19 77 20 73 21 74 22 75 23 76 24
REMARK SMILES IDX 12 27 13 28 14 29 15 30 16 31 17 32 69 33 18 34 68 35 19 36
REMARK SMILES IDX 20 37 21 38 62 39 22 40 67 41 61 42 63 43 23 44 66 45 60 46
REMARK SMILES IDX 59 47 24 49 50 50 33 51 49 52 34 53 37 54 48 55 64 56 35 57
REMARK SMILES IDX 36 58 47 60 65 61 38 62 25 63 26 64 31 65 27 66 28 67 30 68
REMARK SMILES IDX 32 69 29 70 51 71 52 72 57 73 53 74 54 75 56 76 58 77 55 78
REMARK SMILES IDX 39 79 40 80 45 81 41 82 42 83 44 84 46 85 43 86
REMARK H PARENT 70 18 75 25 75 26 63 48 37 59
REMARK Flexibility Score: inf
ROOT
ATOM      1  C   UNL     1       1.070   2.346  -7.982  1.00  0.00     0.274 C 
ENDROOT
BRANCH   1   2
ATOM      2  O   UNL     1       1.693   2.593  -6.738  1.00  0.00    -0.457 OA
BRANCH   2   3
ATOM      3  C   UNL     1       2.100   3.890  -6.617  1.00  0.00     0.370 C 
ATOM      4  O   UNL     1       2.768   4.421  -7.497  1.00  0.00    -0.245 OA
BRANCH   3   5
ATOM      5  C   UNL     1       1.792   4.393  -5.020  1.00  0.00     0.326 C 
BRANCH   5   6
ATOM      6  C   UNL     1       1.586   2.654  -4.188  1.00  0.00     0.024 A 
ATOM      7  C   UNL     1       1.586   0.484  -2.239  1.00  0.00     0.119 A 
ATOM      8  C   UNL     1       2.748   1.177  -2.533  1.00  0.00     0.047 A 
ATOM      9  C   UNL     1       0.442   0.785  -2.927  1.00  0.00     0.050 A 
ATOM     10  C   UNL     1       2.775   2.197  -3.526  1.00  0.00     0.014 A 
ATOM     11  C   UNL     1       0.356   1.906  -3.789  1.00  0.00    -0.038 A 
ATOM     12  C   UNL     1      -1.132   2.188  -3.887  1.00  0.00     0.045 C 
BRANCH   7  13
ATOM     13  O   UNL     1       1.506  -0.540  -1.341  1.00  0.00    -0.497 OA
ATOM     14  C   UNL     1       1.403  -0.091   0.012  1.00  0.00     0.278 C 
ENDBRANCH   7  13
ENDBRANCH   5   6
BRANCH   5  15
ATOM     15  N   UNL     1       1.009   6.239  -4.213  1.00  0.00    -0.319 N 
ATOM     16  C   UNL     1      -0.649   6.526  -3.784  1.00  0.00     0.264 C 
ATOM     17  C   UNL     1       1.561   7.008  -2.692  1.00  0.00     0.264 C 
ATOM     18  H   UNL     1       1.364   6.562  -5.113  1.00  0.00     0.349 HD
ATOM     19  C   UNL     1      -1.200   7.678  -2.931  1.00  0.00     0.075 C 
ATOM     20  C   UNL     1       0.850   8.028  -1.770  1.00  0.00     0.075 C 
ATOM     21  C   UNL     1      -0.605   7.710  -1.551  1.00  0.00     0.089 C 
BRANCH  21  22
ATOM     22  C   UNL     1      -1.313   8.783  -0.736  1.00  0.00     0.220 C 
ATOM     23  N   UNL     1      -2.319   8.339   0.071  1.00  0.00    -0.369 N 
ATOM     24  O   UNL     1      -1.070   9.980  -0.820  1.00  0.00    -0.275 OA
ATOM     25  H   UNL     1      -2.510   7.375   0.135  1.00  0.00     0.159 HD
ATOM     26  H   UNL     1      -2.855   8.982   0.589  1.00  0.00     0.159 HD
ENDBRANCH  21  22
ENDBRANCH   5  15
ENDBRANCH   3   5
ENDBRANCH   2   3
ENDBRANCH   1   2
BRANCH   1  27
ATOM     27  C   UNL     1      -0.438   2.485  -7.719  1.00  0.00     0.275 C 
BRANCH  27  28
ATOM     28  O   UNL     1      -0.756   3.730  -7.028  1.00  0.00    -0.458 OA
BRANCH  28  29
ATOM     29  C   UNL     1      -1.238   3.932  -5.741  1.00  0.00     0.338 C 
ATOM     30  O   UNL     1      -2.430   4.001  -5.494  1.00  0.00    -0.246 OA
BRANCH  29  31
ATOM     31  C   UNL     1      -0.155   4.633  -4.897  1.00  0.00     0.060 A 
ATOM     32  C   UNL     1       0.906   4.533  -3.318  1.00  0.00     0.016 A 
ATOM     33  C   UNL     1       0.340   5.675  -6.199  1.00  0.00     0.016 A 
ATOM     34  C   UNL     1       2.649   5.273  -3.469  1.00  0.00     0.010 A 
ATOM     35  C   UNL     1       1.774   6.338  -6.230  1.00  0.00     0.010 A 
ATOM     36  C   UNL     1       3.002   6.247  -4.995  1.00  0.00    -0.014 A 
BRANCH  36  37
ATOM     37  C   UNL     1       4.172   6.863  -5.777  1.00  0.00     0.031 A 
ATOM     38  C   UNL     1       5.524   6.256  -5.831  1.00  0.00     0.074 A 
ATOM     39  C   UNL     1       3.912   7.796  -6.783  1.00  0.00     0.049 A 
ATOM     40  N   UNL     1       6.583   6.907  -6.189  1.00  0.00    -0.248 NA
ATOM     41  C   UNL     1       5.818   4.867  -5.499  1.00  0.00     0.031 C 
ATOM     42  C   UNL     1       4.602   8.008  -8.077  1.00  0.00     0.029 A 
ATOM     43  N   UNL     1       2.821   8.656  -6.967  1.00  0.00    -0.354 N 
ATOM     44  C   UNL     1       7.592   5.991  -6.418  1.00  0.00     0.074 A 
ATOM     45  C   UNL     1       7.118   4.767  -5.822  1.00  0.00     0.031 C 
ATOM     46  C   UNL     1       4.043   9.036  -8.761  1.00  0.00     0.029 A 
ATOM     47  C   UNL     1       3.006   9.623  -7.942  1.00  0.00     0.049 A 
ATOM     48  H   UNL     1       1.990   8.579  -6.445  1.00  0.00     0.167 HD
ATOM     49  C   UNL     1       8.639   6.315  -7.236  1.00  0.00     0.037 A 
ATOM     50  C   UNL     1       2.809  10.932  -7.598  1.00  0.00     0.037 A 
ATOM     51  C   UNL     1       8.363   7.583  -7.906  1.00  0.00     0.049 A 
ATOM     52  C   UNL     1       4.153  11.551  -7.392  1.00  0.00     0.074 A 
ATOM     53  C   UNL     1       7.879   7.874  -9.171  1.00  0.00     0.029 A 
ATOM     54  N   UNL     1       8.258   8.745  -7.163  1.00  0.00    -0.354 N 
ATOM     55  N   UNL     1       5.235  10.829  -7.350  1.00  0.00    -0.248 NA
ATOM     56  C   UNL     1       4.425  12.977  -7.296  1.00  0.00     0.031 C 
ATOM     57  C   UNL     1       7.457   9.229  -9.171  1.00  0.00     0.029 A 
ATOM     58  C   UNL     1       7.701   9.760  -7.914  1.00  0.00     0.049 A 
ATOM     59  H   UNL     1       8.542   8.836  -6.225  1.00  0.00     0.167 HD
ATOM     60  C   UNL     1       6.321  11.629  -7.321  1.00  0.00     0.074 A 
ATOM     61  C   UNL     1       5.771  12.970  -7.269  1.00  0.00     0.031 C 
ATOM     62  C   UNL     1       7.572  11.097  -7.349  1.00  0.00     0.037 A 
BRANCH  49  63
ATOM     63  C   UNL     1       9.809   5.439  -7.654  1.00  0.00     0.057 A 
ATOM     64  C   UNL     1      10.555   5.723  -8.824  1.00  0.00     0.134 A 
ATOM     65  C   UNL     1      10.314   4.361  -6.906  1.00  0.00     0.134 A 
ATOM     66  F   UNL     1      10.248   6.748  -9.629  1.00  0.00    -0.206 F 
ATOM     67  C   UNL     1      11.673   4.981  -9.233  1.00  0.00     0.040 A 
ATOM     68  C   UNL     1      11.422   3.594  -7.318  1.00  0.00     0.040 A 
ATOM     69  F   UNL     1       9.796   4.031  -5.716  1.00  0.00    -0.206 F 
ATOM     70  C   UNL     1      12.108   3.903  -8.485  1.00  0.00     0.006 A 
ENDBRANCH  49  63
BRANCH  50  71
ATOM     71  C   UNL     1       1.591  11.111  -6.731  1.00  0.00     0.057 A 
ATOM     72  C   UNL     1       0.365  10.947  -7.418  1.00  0.00     0.134 A 
ATOM     73  C   UNL     1       1.657  10.628  -5.422  1.00  0.00     0.134 A 
ATOM     74  F   UNL     1       0.206  11.470  -8.641  1.00  0.00    -0.206 F 
ATOM     75  C   UNL     1      -0.613  10.060  -6.971  1.00  0.00     0.040 A 
ATOM     76  C   UNL     1       0.714   9.691  -5.010  1.00  0.00     0.040 A 
ATOM     77  F   UNL     1       2.775  10.753  -4.692  1.00  0.00    -0.206 F 
ATOM     78  C   UNL     1      -0.389   9.364  -5.803  1.00  0.00     0.006 A 
ENDBRANCH  50  71
BRANCH  62  79
ATOM     79  C   UNL     1       8.795  11.828  -6.906  1.00  0.00     0.057 A 
ATOM     80  C   UNL     1       8.759  12.912  -6.021  1.00  0.00     0.134 A 
ATOM     81  C   UNL     1      10.080  11.346  -7.231  1.00  0.00     0.134 A 
ATOM     82  F   UNL     1       7.614  13.362  -5.493  1.00  0.00    -0.206 F 
ATOM     83  C   UNL     1       9.918  13.546  -5.579  1.00  0.00     0.040 A 
ATOM     84  C   UNL     1      11.242  11.914  -6.719  1.00  0.00     0.040 A 
ATOM     85  F   UNL     1      10.268  10.282  -8.026  1.00  0.00    -0.206 F 
ATOM     86  C   UNL     1      11.165  13.041  -5.918  1.00  0.00     0.006 A 
ENDBRANCH  62  79
ENDBRANCH  36  37
ENDBRANCH  29  31
ENDBRANCH  28  29
ENDBRANCH  27  28
ENDBRANCH   1  27
TORSDOF 15
