REMARK SMILES O=C(OCCOC(=O)[C@H]1CCCC[C@H]1C(=O)Nc1ccc(Cl)cc1F)c1ccc(-c2c3nc(c(-c4c(F)cccc4F)c4ccc([nH]4)c(-c4c(F)cccc4F)c4nc(c(-c5c(F)cccc5F)c5ccc2[nH]5)C=C4)C=C3)cc1
REMARK SMILES IDX 4 1 3 2 2 3 1 4 26 5 27 6 79 7 28 8 78 9 29 10 30 11 31 12
REMARK SMILES IDX 72 13 32 14 77 15 71 16 73 17 33 18 76 19 70 20 69 21 34 23
REMARK SMILES IDX 60 24 43 25 59 26 44 27 47 28 58 29 74 30 45 31 46 32 57 34
REMARK SMILES IDX 75 35 48 36 35 37 36 38 41 39 37 40 38 41 40 42 42 43 39 44
REMARK SMILES IDX 61 45 62 46 67 47 63 48 64 49 66 50 68 51 65 52 49 53 50 54
REMARK SMILES IDX 55 55 51 56 52 57 54 58 56 59 53 60 5 61 6 62 7 63 8 64 9 65
REMARK SMILES IDX 10 66 14 67 11 68 13 69 12 70 15 71 16 72 17 73 18 75 19 76
REMARK SMILES IDX 24 77 20 78 23 79 25 80 21 81 22 82
REMARK H PARENT 73 22 47 33 17 74
REMARK Flexibility Score: inf
ROOT
ATOM      1  C   UNL     1      -1.639  -0.557   1.633  1.00  0.00     0.275 C 
ENDROOT
BRANCH   1   2
ATOM      2  O   UNL     1      -1.435  -1.251   0.384  1.00  0.00    -0.458 OA
BRANCH   2   3
ATOM      3  C   UNL     1      -0.590  -0.890  -0.617  1.00  0.00     0.338 C 
ATOM      4  O   UNL     1      -0.718  -1.345  -1.747  1.00  0.00    -0.246 OA
BRANCH   3   5
ATOM      5  C   UNL     1       0.603  -0.081  -0.287  1.00  0.00     0.060 A 
ATOM      6  C   UNL     1       0.516   1.165   0.334  1.00  0.00     0.016 A 
ATOM      7  C   UNL     1       1.861  -0.613  -0.608  1.00  0.00     0.016 A 
ATOM      8  C   UNL     1       1.674   1.807   0.755  1.00  0.00     0.010 A 
ATOM      9  C   UNL     1       3.027   0.032  -0.200  1.00  0.00     0.010 A 
ATOM     10  C   UNL     1       2.931   1.245   0.488  1.00  0.00    -0.014 A 
BRANCH  10  11
ATOM     11  C   UNL     1       4.105   2.117   0.670  1.00  0.00     0.031 A 
ATOM     12  C   UNL     1       4.447   3.003  -0.489  1.00  0.00     0.074 A 
ATOM     13  C   UNL     1       4.716   2.226   1.862  1.00  0.00     0.049 A 
ATOM     14  N   UNL     1       5.207   4.061  -0.526  1.00  0.00    -0.248 NA
ATOM     15  C   UNL     1       3.800   2.676  -1.775  1.00  0.00     0.031 C 
ATOM     16  C   UNL     1       4.421   1.419   3.046  1.00  0.00     0.029 A 
ATOM     17  N   UNL     1       5.694   3.089   2.283  1.00  0.00    -0.354 N 
ATOM     18  C   UNL     1       5.069   4.564  -1.812  1.00  0.00     0.074 A 
ATOM     19  C   UNL     1       4.216   3.663  -2.548  1.00  0.00     0.031 C 
ATOM     20  C   UNL     1       5.202   1.827   4.063  1.00  0.00     0.029 A 
ATOM     21  C   UNL     1       6.034   2.936   3.607  1.00  0.00     0.049 A 
ATOM     22  H   UNL     1       6.114   3.755   1.693  1.00  0.00     0.167 HD
ATOM     23  C   UNL     1       5.585   5.702  -2.323  1.00  0.00     0.037 A 
ATOM     24  C   UNL     1       6.905   3.642   4.355  1.00  0.00     0.037 A 
ATOM     25  C   UNL     1       6.497   6.538  -1.598  1.00  0.00     0.049 A 
ATOM     26  C   UNL     1       7.569   4.840   3.718  1.00  0.00     0.074 A 
ATOM     27  C   UNL     1       7.170   7.664  -2.025  1.00  0.00     0.029 A 
ATOM     28  N   UNL     1       6.879   6.305  -0.282  1.00  0.00    -0.354 N 
ATOM     29  N   UNL     1       7.395   5.341   2.516  1.00  0.00    -0.248 NA
ATOM     30  C   UNL     1       8.531   5.583   4.543  1.00  0.00     0.031 C 
ATOM     31  C   UNL     1       7.998   8.088  -0.978  1.00  0.00     0.029 A 
ATOM     32  C   UNL     1       7.799   7.255   0.115  1.00  0.00     0.049 A 
ATOM     33  H   UNL     1       6.544   5.572   0.282  1.00  0.00     0.167 HD
ATOM     34  C   UNL     1       8.203   6.469   2.449  1.00  0.00     0.074 A 
ATOM     35  C   UNL     1       8.847   6.591   3.743  1.00  0.00     0.031 C 
ATOM     36  C   UNL     1       8.406   7.329   1.420  1.00  0.00     0.037 A 
BRANCH  23  37
ATOM     37  C   UNL     1       5.189   6.045  -3.725  1.00  0.00     0.057 A 
ATOM     38  C   UNL     1       3.893   6.488  -4.029  1.00  0.00     0.134 A 
ATOM     39  C   UNL     1       6.077   5.861  -4.789  1.00  0.00     0.134 A 
ATOM     40  F   UNL     1       2.982   6.647  -3.056  1.00  0.00    -0.206 F 
ATOM     41  C   UNL     1       3.488   6.709  -5.347  1.00  0.00     0.040 A 
ATOM     42  C   UNL     1       5.689   6.099  -6.109  1.00  0.00     0.040 A 
ATOM     43  F   UNL     1       7.324   5.422  -4.567  1.00  0.00    -0.206 F 
ATOM     44  C   UNL     1       4.389   6.516  -6.391  1.00  0.00     0.006 A 
ENDBRANCH  23  37
BRANCH  24  45
ATOM     45  C   UNL     1       7.194   3.264   5.766  1.00  0.00     0.057 A 
ATOM     46  C   UNL     1       6.878   4.107   6.840  1.00  0.00     0.134 A 
ATOM     47  C   UNL     1       7.854   2.066   6.073  1.00  0.00     0.134 A 
ATOM     48  F   UNL     1       6.262   5.278   6.620  1.00  0.00    -0.206 F 
ATOM     49  C   UNL     1       7.237   3.793   8.154  1.00  0.00     0.040 A 
ATOM     50  C   UNL     1       8.195   1.726   7.385  1.00  0.00     0.040 A 
ATOM     51  F   UNL     1       8.187   1.208   5.098  1.00  0.00    -0.206 F 
ATOM     52  C   UNL     1       7.897   2.598   8.430  1.00  0.00     0.006 A 
ENDBRANCH  24  45
BRANCH  36  53
ATOM     53  C   UNL     1       9.348   8.468   1.666  1.00  0.00     0.057 A 
ATOM     54  C   UNL     1      10.731   8.271   1.750  1.00  0.00     0.134 A 
ATOM     55  C   UNL     1       8.867   9.780   1.758  1.00  0.00     0.134 A 
ATOM     56  F   UNL     1      11.248   7.036   1.677  1.00  0.00    -0.206 F 
ATOM     57  C   UNL     1      11.604   9.341   1.942  1.00  0.00     0.040 A 
ATOM     58  C   UNL     1       9.733  10.860   1.921  1.00  0.00     0.040 A 
ATOM     59  F   UNL     1       7.552  10.032   1.671  1.00  0.00    -0.206 F 
ATOM     60  C   UNL     1      11.105  10.640   2.019  1.00  0.00     0.006 A 
ENDBRANCH  36  53
ENDBRANCH  10  11
ENDBRANCH   3   5
ENDBRANCH   2   3
ENDBRANCH   1   2
BRANCH   1  61
ATOM     61  C   UNL     1      -0.590  -0.772   2.728  1.00  0.00     0.274 C 
BRANCH  61  62
ATOM     62  O   UNL     1       0.566  -1.460   2.247  1.00  0.00    -0.462 OA
BRANCH  62  63
ATOM     63  C   UNL     1       1.476  -1.772   3.210  1.00  0.00     0.309 C 
ATOM     64  O   UNL     1       1.349  -1.487   4.387  1.00  0.00    -0.252 OA
BRANCH  63  65
ATOM     65  C   UNL     1       2.713  -2.401   2.589  1.00  0.00     0.111 C 
ATOM     66  C   UNL     1       3.862  -2.473   3.613  1.00  0.00     0.016 C 
ATOM     67  C   UNL     1       2.566  -3.716   1.796  1.00  0.00     0.093 C 
ATOM     68  C   UNL     1       3.826  -3.756   4.431  1.00  0.00     0.001 C 
ATOM     69  C   UNL     1       2.820  -5.042   2.515  1.00  0.00     0.014 C 
ATOM     70  C   UNL     1       3.961  -4.967   3.521  1.00  0.00     0.001 C 
BRANCH  67  71
ATOM     71  C   UNL     1       1.462  -3.852   0.758  1.00  0.00     0.228 C 
ATOM     72  O   UNL     1       1.805  -3.736  -0.433  1.00  0.00    -0.274 OA
ATOM     73  N   UNL     1       0.156  -4.146   0.905  1.00  0.00    -0.323 N 
ATOM     74  H   UNL     1      -0.257  -4.250   0.018  1.00  0.00     0.170 HD
BRANCH  73  75
ATOM     75  C   UNL     1      -0.818  -4.356   1.898  1.00  0.00     0.077 A 
ATOM     76  C   UNL     1      -2.107  -4.631   1.397  1.00  0.00     0.031 A 
ATOM     77  C   UNL     1      -0.682  -4.265   3.282  1.00  0.00     0.148 A 
ATOM     78  C   UNL     1      -3.216  -4.750   2.240  1.00  0.00     0.023 A 
ATOM     79  C   UNL     1      -1.790  -4.348   4.134  1.00  0.00     0.062 A 
ATOM     80  F   UNL     1       0.503  -4.056   3.857  1.00  0.00    -0.205 F 
ATOM     81  C   UNL     1      -3.055  -4.581   3.608  1.00  0.00     0.044 A 
ATOM     82  Cl  UNL     1      -4.425  -4.647   4.644  1.00  0.00    -0.084 Cl
ENDBRANCH  73  75
ENDBRANCH  67  71
ENDBRANCH  63  65
ENDBRANCH  62  63
ENDBRANCH  61  62
ENDBRANCH   1  61
TORSDOF 13
