REMARK SMILES Cc1ccc(N2C(=O)N=C(OCCOC(=O)c3ccc(-c4c5nc(c(-c6c(F)cccc6F)c6ccc([nH]6)c(-c6c(F)cccc6F)c6nc(c(-c7c(F)cccc7F)c7ccc4[nH]7)C=C6)C=C5)cc3)/C(=C\c3ccccc3OCc3cccc(C(=O)[O-])c3)C2=O)cc1
REMARK SMILES IDX 12 1 11 2 10 3 6 4 7 5 90 6 8 7 9 8 71 9 91 10 72 11 5 12
REMARK SMILES IDX 1 13 2 14 3 15 93 16 4 17 92 18 73 19 74 20 78 21 75 22
REMARK SMILES IDX 77 23 76 24 79 25 80 26 81 27 82 28 89 29 83 30 85 31 84 32
REMARK SMILES IDX 86 33 87 34 88 35 13 36 14 37 15 38 16 39 17 40 18 41 70 42
REMARK SMILES IDX 19 43 69 44 20 45 21 46 22 47 63 48 23 49 68 50 62 51 64 52
REMARK SMILES IDX 24 53 67 54 61 55 60 56 25 58 51 59 34 60 50 61 35 62 38 63
REMARK SMILES IDX 49 64 65 65 36 66 37 67 48 69 66 70 39 71 26 72 27 73 32 74
REMARK SMILES IDX 28 75 29 76 31 77 33 78 30 79 52 80 53 81 58 82 54 83 55 84
REMARK SMILES IDX 57 85 59 86 56 87 40 88 41 89 46 90 42 91 43 92 45 93 47 94
REMARK SMILES IDX 44 95
REMARK H PARENT 64 57 38 68
REMARK Flexibility Score: inf
ROOT
ATOM      1  C   UNL     1      -8.803   3.128   0.286  1.00  0.00     0.273 C 
ENDROOT
BRANCH   1   2
ATOM      2  O   UNL     1      -8.505   1.833   0.660  1.00  0.00    -0.473 OA
BRANCH   2   3
ATOM      3  C   UNL     1      -7.248   1.521   0.373  1.00  0.00     0.231 C 
ATOM      4  N   UNL     1      -3.711   0.912   0.297  1.00  0.00    -0.226 N 
ATOM      5  C   UNL     1      -4.875  -0.376   0.801  1.00  0.00     0.358 C 
ATOM      6  C   UNL     1      -4.207   2.467  -0.307  1.00  0.00     0.272 C 
ATOM      7  O   UNL     1      -4.342  -1.469   1.109  1.00  0.00    -0.245 OA
ATOM      8  N   UNL     1      -6.752   0.237   0.906  1.00  0.00    -0.156 NA
ATOM      9  C   UNL     1      -6.088   2.742  -0.565  1.00  0.00     0.103 C 
ATOM     10  O   UNL     1      -3.465   3.223  -0.942  1.00  0.00    -0.268 OA
ATOM     11  C   UNL     1      -6.228   2.975  -1.925  1.00  0.00     0.031 C 
BRANCH   4  12
ATOM     12  C   UNL     1      -2.242   0.618   0.251  1.00  0.00     0.054 A 
ATOM     13  C   UNL     1       2.136   0.014   0.009  1.00  0.00     0.044 C 
ATOM     14  C   UNL     1       0.644   0.203   0.091  1.00  0.00    -0.051 A 
ATOM     15  C   UNL     1      -0.237  -0.861   0.282  1.00  0.00     0.005 A 
ATOM     16  C   UNL     1       0.081   1.469  -0.013  1.00  0.00     0.005 A 
ATOM     17  C   UNL     1      -1.647  -0.653   0.380  1.00  0.00     0.027 A 
ATOM     18  C   UNL     1      -1.317   1.660   0.067  1.00  0.00     0.027 A 
ENDBRANCH   4  12
BRANCH  11  19
ATOM     19  C   UNL     1      -7.176   2.259  -2.823  1.00  0.00     0.018 A 
ATOM     20  C   UNL     1      -8.262   2.979  -3.365  1.00  0.00     0.012 A 
ATOM     21  C   UNL     1      -7.155   0.863  -2.931  1.00  0.00     0.127 A 
ATOM     22  C   UNL     1      -9.500   2.374  -3.593  1.00  0.00     0.001 A 
ATOM     23  C   UNL     1      -8.472   0.288  -3.068  1.00  0.00     0.047 A 
ATOM     24  C   UNL     1      -9.642   1.042  -3.282  1.00  0.00     0.004 A 
BRANCH  21  25
ATOM     25  O   UNL     1      -5.849   0.205  -3.033  1.00  0.00    -0.488 OA
BRANCH  25  26
ATOM     26  C   UNL     1      -4.667  -0.903  -2.292  1.00  0.00     0.265 C 
BRANCH  26  27
ATOM     27  C   UNL     1      -4.330  -2.507  -1.766  1.00  0.00    -0.010 A 
ATOM     28  C   UNL     1      -3.076  -3.073  -1.581  1.00  0.00     0.007 A 
ATOM     29  C   UNL     1      -5.253  -3.380  -1.145  1.00  0.00     0.017 A 
ATOM     30  C   UNL     1      -2.950  -4.386  -0.969  1.00  0.00     0.001 A 
ATOM     31  C   UNL     1      -5.359  -4.769  -0.884  1.00  0.00    -0.002 A 
ATOM     32  C   UNL     1      -4.076  -5.239  -0.658  1.00  0.00     0.010 A 
BRANCH  31  33
ATOM     33  C   UNL     1      -6.852  -5.590  -0.396  1.00  0.00     0.071 C 
ATOM     34  O   UNL     1      -6.451  -6.677   0.129  1.00  0.00    -0.545 OA
ATOM     35  O   UNL     1      -8.776  -5.075  -0.683  1.00  0.00    -0.545 OA
ENDBRANCH  31  33
ENDBRANCH  26  27
ENDBRANCH  25  26
ENDBRANCH  21  25
ENDBRANCH  11  19
ENDBRANCH   2   3
ENDBRANCH   1   2
BRANCH   1  36
ATOM     36  C   UNL     1      -7.784   4.128   0.854  1.00  0.00     0.274 C 
BRANCH  36  37
ATOM     37  O   UNL     1      -6.614   3.679   1.784  1.00  0.00    -0.458 OA
BRANCH  37  38
ATOM     38  C   UNL     1      -5.577   2.793   2.049  1.00  0.00     0.338 C 
ATOM     39  O   UNL     1      -4.632   3.166   2.739  1.00  0.00    -0.246 OA
BRANCH  38  40
ATOM     40  C   UNL     1      -5.429   1.337   1.475  1.00  0.00     0.060 A 
ATOM     41  C   UNL     1      -5.874  -0.045   2.600  1.00  0.00     0.016 A 
ATOM     42  C   UNL     1      -5.613   0.764  -0.413  1.00  0.00     0.016 A 
ATOM     43  C   UNL     1      -6.578  -1.553   1.800  1.00  0.00     0.010 A 
ATOM     44  C   UNL     1      -6.511  -0.626  -0.854  1.00  0.00     0.010 A 
ATOM     45  C   UNL     1      -6.951  -1.703   0.040  1.00  0.00    -0.014 A 
BRANCH  45  46
ATOM     46  C   UNL     1      -7.528  -2.534  -1.384  1.00  0.00     0.031 A 
ATOM     47  C   UNL     1      -7.668  -3.895  -1.007  1.00  0.00     0.074 A 
ATOM     48  C   UNL     1      -7.296  -2.532  -2.850  1.00  0.00     0.049 A 
ATOM     49  N   UNL     1      -7.686  -5.163  -2.058  1.00  0.00    -0.248 NA
ATOM     50  C   UNL     1      -8.063  -4.566   0.866  1.00  0.00     0.031 C 
ATOM     51  C   UNL     1      -8.031  -3.102  -4.032  1.00  0.00     0.029 A 
ATOM     52  N   UNL     1      -6.315  -1.896  -3.651  1.00  0.00    -0.354 N 
ATOM     53  C   UNL     1      -8.332  -6.694  -1.222  1.00  0.00     0.074 A 
ATOM     54  C   UNL     1      -8.491  -6.191   0.689  1.00  0.00     0.031 C 
ATOM     55  C   UNL     1      -7.374  -2.882  -5.220  1.00  0.00     0.029 A 
ATOM     56  C   UNL     1      -6.116  -2.189  -4.987  1.00  0.00     0.049 A 
ATOM     57  H   UNL     1      -5.745  -1.209  -3.234  1.00  0.00     0.167 HD
ATOM     58  C   UNL     1      -9.185  -7.308  -2.122  1.00  0.00     0.037 A 
ATOM     59  C   UNL     1      -4.912  -2.126  -5.683  1.00  0.00     0.037 A 
ATOM     60  C   UNL     1      -8.707  -6.963  -3.478  1.00  0.00     0.049 A 
ATOM     61  C   UNL     1      -4.590  -3.560  -5.960  1.00  0.00     0.074 A 
ATOM     62  C   UNL     1      -9.203  -6.192  -4.524  1.00  0.00     0.029 A 
ATOM     63  N   UNL     1      -7.349  -7.112  -3.754  1.00  0.00    -0.354 N 
ATOM     64  N   UNL     1      -5.303  -4.491  -5.404  1.00  0.00    -0.248 NA
ATOM     65  C   UNL     1      -3.549  -4.089  -6.833  1.00  0.00     0.031 C 
ATOM     66  C   UNL     1      -8.150  -5.983  -5.465  1.00  0.00     0.029 A 
ATOM     67  C   UNL     1      -6.998  -6.575  -4.974  1.00  0.00     0.049 A 
ATOM     68  H   UNL     1      -6.713  -7.552  -3.146  1.00  0.00     0.167 HD
ATOM     69  C   UNL     1      -4.952  -5.695  -5.886  1.00  0.00     0.074 A 
ATOM     70  C   UNL     1      -3.834  -5.404  -6.769  1.00  0.00     0.031 C 
ATOM     71  C   UNL     1      -5.646  -6.795  -5.493  1.00  0.00     0.037 A 
BRANCH  58  72
ATOM     72  C   UNL     1     -10.592  -7.823  -1.865  1.00  0.00     0.057 A 
ATOM     73  C   UNL     1     -11.448  -8.156  -2.942  1.00  0.00     0.134 A 
ATOM     74  C   UNL     1     -11.200  -7.968  -0.608  1.00  0.00     0.134 A 
ATOM     75  F   UNL     1     -11.053  -8.059  -4.218  1.00  0.00    -0.206 F 
ATOM     76  C   UNL     1     -12.767  -8.606  -2.778  1.00  0.00     0.040 A 
ATOM     77  C   UNL     1     -12.517  -8.424  -0.425  1.00  0.00     0.040 A 
ATOM     78  F   UNL     1     -10.562  -7.664   0.520  1.00  0.00    -0.206 F 
ATOM     79  C   UNL     1     -13.305  -8.757  -1.513  1.00  0.00     0.006 A 
ENDBRANCH  58  72
BRANCH  59  80
ATOM     80  C   UNL     1      -3.820  -1.051  -5.478  1.00  0.00     0.057 A 
ATOM     81  C   UNL     1      -4.126   0.280  -5.821  1.00  0.00     0.134 A 
ATOM     82  C   UNL     1      -2.691  -1.182  -4.638  1.00  0.00     0.134 A 
ATOM     83  F   UNL     1      -4.968   0.531  -6.834  1.00  0.00    -0.206 F 
ATOM     84  C   UNL     1      -3.626   1.388  -5.106  1.00  0.00     0.040 A 
ATOM     85  C   UNL     1      -2.201  -0.076  -3.881  1.00  0.00     0.040 A 
ATOM     86  F   UNL     1      -2.252  -2.396  -4.280  1.00  0.00    -0.206 F 
ATOM     87  C   UNL     1      -2.743   1.198  -4.052  1.00  0.00     0.006 A 
ENDBRANCH  59  80
BRANCH  71  88
ATOM     88  C   UNL     1      -5.143  -8.193  -5.644  1.00  0.00     0.057 A 
ATOM     89  C   UNL     1      -3.808  -8.520  -5.896  1.00  0.00     0.134 A 
ATOM     90  C   UNL     1      -5.999  -9.292  -5.413  1.00  0.00     0.134 A 
ATOM     91  F   UNL     1      -2.833  -7.602  -5.924  1.00  0.00    -0.206 F 
ATOM     92  C   UNL     1      -3.390  -9.836  -6.070  1.00  0.00     0.040 A 
ATOM     93  C   UNL     1      -5.561 -10.607  -5.451  1.00  0.00     0.040 A 
ATOM     94  F   UNL     1      -7.299  -9.158  -5.119  1.00  0.00    -0.206 F 
ATOM     95  C   UNL     1      -4.265 -10.886  -5.835  1.00  0.00     0.006 A 
ENDBRANCH  71  88
ENDBRANCH  45  46
ENDBRANCH  38  40
ENDBRANCH  37  38
ENDBRANCH  36  37
ENDBRANCH   1  36
TORSDOF 16
