REMARK SMILES CC(C)c1ccc2c(c1)c(SC(C)(C)C)c(CC(C)(C)C(=O)OCCOC(=O)c1ccc(-c3c4nc(c(-c5c(F)cccc5F)c5ccc([nH]5)c(-c5c(F)cccc5F)c5nc(c(-c6c(F)cccc6F)c6ccc3[nH]6)C=C5)C=C4)cc1)n2Cc1ccc(Cl)cc1
REMARK SMILES IDX 24 1 23 2 21 3 22 4 18 5 19 6 20 7 17 8 16 9 4 10 5 11 9 12
REMARK SMILES IDX 6 13 8 14 7 15 10 16 83 17 2 18 1 19 3 20 11 21 12 22 13 23
REMARK SMILES IDX 14 24 15 25 84 26 85 27 86 28 91 29 87 30 90 31 88 32 89 33
REMARK SMILES IDX 25 34 26 35 27 36 28 37 29 38 30 39 82 40 31 41 81 42 32 43
REMARK SMILES IDX 33 44 34 45 75 46 35 47 80 48 74 49 76 50 36 51 79 52 73 53
REMARK SMILES IDX 72 54 37 56 63 57 46 58 62 59 47 60 50 61 61 62 77 63 48 64
REMARK SMILES IDX 49 65 60 67 78 68 51 69 38 70 39 71 44 72 40 73 41 74 43 75
REMARK SMILES IDX 45 76 42 77 64 78 65 79 70 80 66 81 67 82 69 83 71 84 68 85
REMARK SMILES IDX 52 86 53 87 58 88 54 89 55 90 57 91 59 92 56 93
REMARK H PARENT 76 55 50 66
REMARK Flexibility Score: inf
ROOT
ATOM      1  C   UNL     1      -7.111   1.019   4.285  1.00  0.00     0.274 C 
ENDROOT
BRANCH   1   2
ATOM      2  O   UNL     1      -7.281   2.029   3.279  1.00  0.00    -0.462 OA
BRANCH   2   3
ATOM      3  C   UNL     1      -6.137   2.415   2.672  1.00  0.00     0.312 C 
ATOM      4  O   UNL     1      -5.027   2.009   3.002  1.00  0.00    -0.252 OA
BRANCH   3   5
ATOM      5  C   UNL     1      -6.338   3.460   1.582  1.00  0.00     0.068 C 
ATOM      6  C   UNL     1      -5.367   4.545   2.083  1.00  0.00     0.024 C 
ATOM      7  C   UNL     1      -7.768   4.065   1.497  1.00  0.00     0.024 C 
BRANCH   5   8
ATOM      8  C   UNL     1      -5.964   2.908   0.184  1.00  0.00     0.073 C 
BRANCH   8   9
ATOM      9  C   UNL     1      -4.695   2.189   0.062  1.00  0.00     0.034 A 
ATOM     10  C   UNL     1      -0.684  -0.244  -0.289  1.00  0.00    -0.045 A 
ATOM     11  C   UNL     1      -1.599  -1.215  -0.644  1.00  0.00     0.006 A 
ATOM     12  C   UNL     1      -1.114   1.160  -0.208  1.00  0.00     0.015 A 
ATOM     13  C   UNL     1      -2.930  -0.888  -0.665  1.00  0.00     0.027 A 
ATOM     14  C   UNL     1      -2.504   1.536  -0.205  1.00  0.00     0.014 A 
ATOM     15  C   UNL     1      -3.340   0.423  -0.329  1.00  0.00     0.050 A 
ATOM     16  C   UNL     1      -3.453   2.728  -0.179  1.00  0.00     0.037 A 
ATOM     17  N   UNL     1      -4.559   0.829   0.175  1.00  0.00    -0.339 N 
BRANCH  10  18
ATOM     18  C   UNL     1       0.717  -0.719   0.105  1.00  0.00     0.013 C 
ATOM     19  C   UNL     1       0.994  -0.404   1.570  1.00  0.00     0.012 C 
ATOM     20  C   UNL     1       1.179  -2.183  -0.131  1.00  0.00     0.012 C 
ENDBRANCH  10  18
BRANCH  16  21
ATOM     21  S   UNL     1      -3.244   4.556  -0.482  1.00  0.00    -0.118 SA
BRANCH  21  22
ATOM     22  C   UNL     1      -4.771   5.444  -1.581  1.00  0.00     0.012 C 
ATOM     23  C   UNL     1      -5.503   4.660  -2.714  1.00  0.00     0.023 C 
ATOM     24  C   UNL     1      -5.887   6.168  -0.763  1.00  0.00     0.023 C 
ATOM     25  C   UNL     1      -4.087   6.666  -2.252  1.00  0.00     0.023 C 
ENDBRANCH  21  22
ENDBRANCH  16  21
BRANCH  17  26
ATOM     26  C   UNL     1      -5.220  -0.094   1.077  1.00  0.00     0.158 C 
BRANCH  26  27
ATOM     27  C   UNL     1      -6.661  -0.331   0.896  1.00  0.00    -0.028 A 
ATOM     28  C   UNL     1      -8.074   0.813   0.629  1.00  0.00     0.007 A 
ATOM     29  C   UNL     1      -7.016  -2.144   0.938  1.00  0.00     0.007 A 
ATOM     30  C   UNL     1      -9.699   0.160   0.111  1.00  0.00     0.021 A 
ATOM     31  C   UNL     1      -8.643  -2.743   0.460  1.00  0.00     0.021 A 
ATOM     32  C   UNL     1      -9.939  -1.613  -0.022  1.00  0.00     0.041 A 
ATOM     33  Cl  UNL     1     -11.566  -2.208  -0.059  1.00  0.00    -0.084 Cl
ENDBRANCH  26  27
ENDBRANCH  17  26
ENDBRANCH   8   9
ENDBRANCH   5   8
ENDBRANCH   3   5
ENDBRANCH   2   3
ENDBRANCH   1   2
BRANCH   1  34
ATOM     34  C   UNL     1      -7.995  -0.196   3.959  1.00  0.00     0.275 C 
BRANCH  34  35
ATOM     35  O   UNL     1      -7.598  -0.797   2.684  1.00  0.00    -0.458 OA
BRANCH  35  36
ATOM     36  C   UNL     1      -8.559  -0.924   1.462  1.00  0.00     0.338 C 
ATOM     37  O   UNL     1      -9.655  -0.927   2.050  1.00  0.00    -0.246 OA
BRANCH  36  38
ATOM     38  C   UNL     1      -7.916  -0.903  -0.636  1.00  0.00     0.060 A 
ATOM     39  C   UNL     1      -6.872  -1.680  -1.370  1.00  0.00     0.016 A 
ATOM     40  C   UNL     1      -7.918   0.267  -1.666  1.00  0.00     0.016 A 
ATOM     41  C   UNL     1      -5.782  -1.161  -2.301  1.00  0.00     0.010 A 
ATOM     42  C   UNL     1      -6.830   0.795  -2.596  1.00  0.00     0.010 A 
ATOM     43  C   UNL     1      -5.608   0.173  -2.779  1.00  0.00    -0.014 A 
BRANCH  43  44
ATOM     44  C   UNL     1      -4.342   0.638  -3.715  1.00  0.00     0.031 A 
ATOM     45  C   UNL     1      -4.141  -0.454  -4.660  1.00  0.00     0.074 A 
ATOM     46  C   UNL     1      -3.366   1.639  -3.954  1.00  0.00     0.049 A 
ATOM     47  N   UNL     1      -3.252  -1.379  -4.536  1.00  0.00    -0.248 NA
ATOM     48  C   UNL     1      -5.142  -0.673  -5.706  1.00  0.00     0.031 C 
ATOM     49  C   UNL     1      -3.178   2.834  -3.189  1.00  0.00     0.029 A 
ATOM     50  N   UNL     1      -2.220   1.853  -4.838  1.00  0.00    -0.354 N 
ATOM     51  C   UNL     1      -3.355  -2.071  -5.719  1.00  0.00     0.074 A 
ATOM     52  C   UNL     1      -4.667  -1.796  -6.251  1.00  0.00     0.031 C 
ATOM     53  C   UNL     1      -2.385   3.794  -3.702  1.00  0.00     0.029 A 
ATOM     54  C   UNL     1      -1.657   3.212  -4.791  1.00  0.00     0.049 A 
ATOM     55  H   UNL     1      -1.855   1.145  -5.417  1.00  0.00     0.167 HD
ATOM     56  C   UNL     1      -2.208  -2.389  -6.362  1.00  0.00     0.037 A 
ATOM     57  C   UNL     1      -0.544   3.878  -5.282  1.00  0.00     0.037 A 
ATOM     58  C   UNL     1      -1.052  -2.324  -5.506  1.00  0.00     0.049 A 
ATOM     59  C   UNL     1       0.455   2.900  -5.710  1.00  0.00     0.074 A 
ATOM     60  C   UNL     1      -0.550  -3.057  -4.457  1.00  0.00     0.029 A 
ATOM     61  N   UNL     1      -0.399  -1.121  -5.490  1.00  0.00    -0.354 N 
ATOM     62  N   UNL     1       1.359   2.403  -4.923  1.00  0.00    -0.248 NA
ATOM     63  C   UNL     1       0.278   2.232  -6.983  1.00  0.00     0.031 C 
ATOM     64  C   UNL     1       0.476  -2.272  -3.865  1.00  0.00     0.029 A 
ATOM     65  C   UNL     1       0.620  -1.085  -4.566  1.00  0.00     0.049 A 
ATOM     66  H   UNL     1      -0.633  -0.364  -6.075  1.00  0.00     0.167 HD
ATOM     67  C   UNL     1       1.407   1.094  -5.329  1.00  0.00     0.074 A 
ATOM     68  C   UNL     1       0.888   1.085  -6.690  1.00  0.00     0.031 C 
ATOM     69  C   UNL     1       1.409   0.117  -4.383  1.00  0.00     0.037 A 
BRANCH  56  70
ATOM     70  C   UNL     1      -2.068  -2.251  -7.845  1.00  0.00     0.057 A 
ATOM     71  C   UNL     1      -2.681  -1.222  -8.590  1.00  0.00     0.134 A 
ATOM     72  C   UNL     1      -1.061  -2.969  -8.497  1.00  0.00     0.134 A 
ATOM     73  F   UNL     1      -3.564  -0.374  -8.047  1.00  0.00    -0.206 F 
ATOM     74  C   UNL     1      -2.333  -0.941  -9.909  1.00  0.00     0.040 A 
ATOM     75  C   UNL     1      -0.665  -2.659  -9.800  1.00  0.00     0.040 A 
ATOM     76  F   UNL     1      -0.391  -3.938  -7.857  1.00  0.00    -0.206 F 
ATOM     77  C   UNL     1      -1.302  -1.644 -10.510  1.00  0.00     0.006 A 
ENDBRANCH  56  70
BRANCH  57  78
ATOM     78  C   UNL     1      -0.133   5.348  -5.380  1.00  0.00     0.057 A 
ATOM     79  C   UNL     1      -1.088   6.372  -5.427  1.00  0.00     0.134 A 
ATOM     80  C   UNL     1       1.177   5.768  -5.745  1.00  0.00     0.134 A 
ATOM     81  F   UNL     1      -2.361   6.135  -5.093  1.00  0.00    -0.206 F 
ATOM     82  C   UNL     1      -0.808   7.666  -5.908  1.00  0.00     0.040 A 
ATOM     83  C   UNL     1       1.467   7.056  -6.243  1.00  0.00     0.040 A 
ATOM     84  F   UNL     1       2.221   4.927  -5.699  1.00  0.00    -0.206 F 
ATOM     85  C   UNL     1       0.460   8.000  -6.364  1.00  0.00     0.006 A 
ENDBRANCH  57  78
BRANCH  69  86
ATOM     86  C   UNL     1       2.206   0.399  -3.133  1.00  0.00     0.057 A 
ATOM     87  C   UNL     1       3.251  -0.478  -2.805  1.00  0.00     0.134 A 
ATOM     88  C   UNL     1       2.017   1.488  -2.256  1.00  0.00     0.134 A 
ATOM     89  F   UNL     1       3.514  -1.538  -3.586  1.00  0.00    -0.206 F 
ATOM     90  C   UNL     1       4.039  -0.318  -1.658  1.00  0.00     0.040 A 
ATOM     91  C   UNL     1       2.833   1.687  -1.127  1.00  0.00     0.040 A 
ATOM     92  F   UNL     1       0.976   2.325  -2.392  1.00  0.00    -0.206 F 
ATOM     93  C   UNL     1       3.833   0.768  -0.812  1.00  0.00     0.006 A 
ENDBRANCH  69  86
ENDBRANCH  43  44
ENDBRANCH  36  38
ENDBRANCH  35  36
ENDBRANCH  34  35
ENDBRANCH   1  34
TORSDOF 18
