REMARK SMILES CCc1nc(COC)cc(N2CCCC[C@H]2C(=O)OCCOC(=O)c2ccc(-c3c4nc(c(-c5c(F)cccc5F)c5ccc([nH]5)c(-c5c(F)cccc5F)c5nc(c(-c6c(F)cccc6F)c6ccc3[nH]6)C=C5)C=C4)cc2)n1
REMARK SMILES IDX 20 1 19 2 17 3 18 4 16 5 11 6 12 7 13 8 15 9 14 10 10 11
REMARK SMILES IDX 3 12 4 13 79 14 5 15 9 16 2 17 1 18 6 19 7 20 8 21 21 22
REMARK SMILES IDX 22 23 23 24 24 25 25 26 26 27 78 28 27 29 77 30 28 31 29 32
REMARK SMILES IDX 30 33 71 34 31 35 76 36 70 37 72 38 32 39 75 40 69 41 68 42
REMARK SMILES IDX 33 44 59 45 42 46 58 47 43 48 46 49 57 50 73 51 44 52 45 53
REMARK SMILES IDX 56 55 74 56 47 57 34 58 35 59 40 60 36 61 37 62 39 63 41 64
REMARK SMILES IDX 38 65 60 66 61 67 66 68 62 69 63 70 65 71 67 72 64 73 48 74
REMARK SMILES IDX 49 75 54 76 50 77 51 78 53 79 55 80 52 81
REMARK H PARENT 72 43 46 54
REMARK Flexibility Score: inf
ROOT
ATOM      1  C   UNL     1       4.168   1.713   8.964  1.00  0.00     0.274 C 
ENDROOT
BRANCH   1   2
ATOM      2  O   UNL     1       3.235   1.326   7.935  1.00  0.00    -0.461 OA
BRANCH   2   3
ATOM      3  C   UNL     1       3.120  -0.014   7.682  1.00  0.00     0.328 C 
ATOM      4  O   UNL     1       3.714  -0.888   8.301  1.00  0.00    -0.250 OA
BRANCH   3   5
ATOM      5  C   UNL     1       2.161  -0.256   6.498  1.00  0.00     0.193 C 
ATOM      6  N   UNL     1       2.893  -0.177   5.214  1.00  0.00    -0.343 N 
ATOM      7  C   UNL     1       3.781  -1.302   4.901  1.00  0.00     0.119 C 
ATOM      8  C   UNL     1       3.064  -2.650   4.990  1.00  0.00     0.022 C 
ATOM      9  C   UNL     1       1.402  -1.595   6.551  1.00  0.00     0.037 C 
ATOM     10  C   UNL     1       2.300  -2.805   6.301  1.00  0.00     0.005 C 
BRANCH   6  11
ATOM     11  C   UNL     1       2.155   0.381   4.171  1.00  0.00     0.133 A 
ATOM     12  C   UNL     1       1.008   0.177   2.191  1.00  0.00     0.130 A 
ATOM     13  N   UNL     1       0.587   1.453   2.204  1.00  0.00    -0.235 NA
ATOM     14  N   UNL     1       1.795  -0.381   3.129  1.00  0.00    -0.216 NA
ATOM     15  C   UNL     1       1.002   2.218   3.231  1.00  0.00     0.072 A 
ATOM     16  C   UNL     1       1.778   1.708   4.252  1.00  0.00     0.073 A 
BRANCH  12  17
ATOM     17  C   UNL     1       0.537  -0.701   1.065  1.00  0.00     0.074 C 
ATOM     18  C   UNL     1       1.056  -0.220  -0.280  1.00  0.00     0.012 C 
ENDBRANCH  12  17
BRANCH  15  19
ATOM     19  C   UNL     1       0.641   3.686   3.220  1.00  0.00     0.216 C 
BRANCH  19  20
ATOM     20  O   UNL     1       1.400   4.456   2.282  1.00  0.00    -0.378 OA
ATOM     21  C   UNL     1       2.790   4.497   2.572  1.00  0.00     0.195 C 
ENDBRANCH  19  20
ENDBRANCH  15  19
ENDBRANCH   6  11
ENDBRANCH   3   5
ENDBRANCH   2   3
ENDBRANCH   1   2
BRANCH   1  22
ATOM     22  C   UNL     1       3.450   2.126  10.251  1.00  0.00     0.275 C 
BRANCH  22  23
ATOM     23  O   UNL     1       2.859   0.985  10.899  1.00  0.00    -0.458 OA
BRANCH  23  24
ATOM     24  C   UNL     1       1.530   0.845  10.710  1.00  0.00     0.338 C 
ATOM     25  O   UNL     1       0.782   1.582  10.090  1.00  0.00    -0.246 OA
BRANCH  24  26
ATOM     26  C   UNL     1       1.089  -0.452  11.239  1.00  0.00     0.060 A 
ATOM     27  C   UNL     1       1.043  -1.515  10.344  1.00  0.00     0.016 A 
ATOM     28  C   UNL     1       0.570  -0.592  12.524  1.00  0.00     0.016 A 
ATOM     29  C   UNL     1       0.395  -2.696  10.679  1.00  0.00     0.010 A 
ATOM     30  C   UNL     1      -0.022  -1.808  12.890  1.00  0.00     0.010 A 
ATOM     31  C   UNL     1      -0.154  -2.855  11.956  1.00  0.00    -0.014 A 
BRANCH  31  32
ATOM     32  C   UNL     1      -0.938  -4.080  12.264  1.00  0.00     0.031 A 
ATOM     33  C   UNL     1      -2.410  -3.974  12.555  1.00  0.00     0.074 A 
ATOM     34  C   UNL     1      -0.358  -5.294  12.220  1.00  0.00     0.049 A 
ATOM     35  N   UNL     1      -3.240  -4.897  12.971  1.00  0.00    -0.248 NA
ATOM     36  C   UNL     1      -3.029  -2.654  12.360  1.00  0.00     0.031 C 
ATOM     37  C   UNL     1       1.044  -5.554  11.892  1.00  0.00     0.029 A 
ATOM     38  N   UNL     1      -0.887  -6.543  12.435  1.00  0.00    -0.354 N 
ATOM     39  C   UNL     1      -4.457  -4.255  13.156  1.00  0.00     0.074 A 
ATOM     40  C   UNL     1      -4.265  -2.869  12.787  1.00  0.00     0.031 C 
ATOM     41  C   UNL     1       1.256  -6.880  11.891  1.00  0.00     0.029 A 
ATOM     42  C   UNL     1       0.024  -7.558  12.282  1.00  0.00     0.049 A 
ATOM     43  H   UNL     1      -1.829  -6.695  12.676  1.00  0.00     0.167 HD
ATOM     44  C   UNL     1      -5.626  -4.772  13.602  1.00  0.00     0.037 A 
ATOM     45  C   UNL     1      -0.109  -8.885  12.462  1.00  0.00     0.037 A 
ATOM     46  C   UNL     1      -5.842  -6.163  13.899  1.00  0.00     0.049 A 
ATOM     47  C   UNL     1      -1.422  -9.444  12.925  1.00  0.00     0.074 A 
ATOM     48  C   UNL     1      -6.993  -6.781  14.356  1.00  0.00     0.029 A 
ATOM     49  N   UNL     1      -4.889  -7.157  13.739  1.00  0.00    -0.354 N 
ATOM     50  N   UNL     1      -2.541  -8.812  13.182  1.00  0.00    -0.248 NA
ATOM     51  C   UNL     1      -1.485 -10.896  13.145  1.00  0.00     0.031 C 
ATOM     52  C   UNL     1      -6.732  -8.151  14.485  1.00  0.00     0.029 A 
ATOM     53  C   UNL     1      -5.426  -8.385  14.088  1.00  0.00     0.049 A 
ATOM     54  H   UNL     1      -3.968  -7.011  13.425  1.00  0.00     0.167 HD
ATOM     55  C   UNL     1      -3.436  -9.784  13.607  1.00  0.00     0.074 A 
ATOM     56  C   UNL     1      -2.740 -11.053  13.544  1.00  0.00     0.031 C 
ATOM     57  C   UNL     1      -4.715  -9.635  14.027  1.00  0.00     0.037 A 
BRANCH  44  58
ATOM     58  C   UNL     1      -6.748  -3.810  13.840  1.00  0.00     0.057 A 
ATOM     59  C   UNL     1      -7.520  -3.291  12.795  1.00  0.00     0.134 A 
ATOM     60  C   UNL     1      -7.057  -3.400  15.144  1.00  0.00     0.134 A 
ATOM     61  F   UNL     1      -7.258  -3.629  11.524  1.00  0.00    -0.206 F 
ATOM     62  C   UNL     1      -8.550  -2.380  13.037  1.00  0.00     0.040 A 
ATOM     63  C   UNL     1      -8.095  -2.504  15.399  1.00  0.00     0.040 A 
ATOM     64  F   UNL     1      -6.351  -3.862  16.187  1.00  0.00    -0.206 F 
ATOM     65  C   UNL     1      -8.841  -1.987  14.343  1.00  0.00     0.006 A 
ENDBRANCH  44  58
BRANCH  45  66
ATOM     66  C   UNL     1       1.058  -9.772  12.239  1.00  0.00     0.057 A 
ATOM     67  C   UNL     1       1.138 -10.589  11.108  1.00  0.00     0.134 A 
ATOM     68  C   UNL     1       2.128  -9.801  13.140  1.00  0.00     0.134 A 
ATOM     69  F   UNL     1       0.132 -10.617  10.222  1.00  0.00    -0.206 F 
ATOM     70  C   UNL     1       2.246 -11.406  10.878  1.00  0.00     0.040 A 
ATOM     71  C   UNL     1       3.250 -10.599  12.914  1.00  0.00     0.040 A 
ATOM     72  F   UNL     1       2.107  -9.037  14.242  1.00  0.00    -0.206 F 
ATOM     73  C   UNL     1       3.309 -11.406  11.779  1.00  0.00     0.006 A 
ENDBRANCH  45  66
BRANCH  57  74
ATOM     74  C   UNL     1      -5.436 -10.874  14.456  1.00  0.00     0.057 A 
ATOM     75  C   UNL     1      -5.220 -11.439  15.719  1.00  0.00     0.134 A 
ATOM     76  C   UNL     1      -6.372 -11.489  13.617  1.00  0.00     0.134 A 
ATOM     77  F   UNL     1      -4.325 -10.899  16.560  1.00  0.00    -0.206 F 
ATOM     78  C   UNL     1      -5.903 -12.584  16.129  1.00  0.00     0.040 A 
ATOM     79  C   UNL     1      -7.071 -12.627  14.022  1.00  0.00     0.040 A 
ATOM     80  F   UNL     1      -6.623 -10.992  12.397  1.00  0.00    -0.206 F 
ATOM     81  C   UNL     1      -6.835 -13.178  15.280  1.00  0.00     0.006 A 
ENDBRANCH  57  74
ENDBRANCH  31  32
ENDBRANCH  24  26
ENDBRANCH  23  24
ENDBRANCH  22  23
ENDBRANCH   1  22
TORSDOF 15
