REMARK SMILES Cc1ccc(C)c([C@@H](C)[N@@H+](CC(=O)OCCOC(=O)c2ccc(-c3c4nc(c(-c5c(F)cccc5F)c5ccc([nH]5)c(-c5c(F)cccc5F)c5nc(c(-c6c(F)cccc6F)c6ccc3[nH]6)C=C5)C=C4)cc2)CC(F)(F)F)c1
REMARK SMILES IDX 15 1 14 2 12 3 13 4 11 5 10 6 8 8 9 9 7 10 1 11 2 12 3 13
REMARK SMILES IDX 79 14 4 15 5 16 6 17 74 18 75 19 76 20 77 21 78 22 16 23
REMARK SMILES IDX 17 24 18 25 19 26 20 27 21 28 73 29 22 30 72 31 23 32 24 33
REMARK SMILES IDX 25 34 66 35 26 36 71 37 65 38 67 39 27 40 70 41 64 42 63 43
REMARK SMILES IDX 28 45 54 46 37 47 53 48 38 49 41 50 52 51 68 52 39 53 40 54
REMARK SMILES IDX 51 56 69 57 42 58 29 59 30 60 35 61 31 62 32 63 34 64 36 65
REMARK SMILES IDX 33 66 55 67 56 68 61 69 57 70 58 71 60 72 62 73 59 74 43 75
REMARK SMILES IDX 44 76 49 77 45 78 46 79 48 80 50 81 47 82
REMARK H PARENT 10 7 67 44 41 55
REMARK Flexibility Score: inf
ROOT
ATOM      1  C   UNL     1      -4.736   3.189  -2.661  1.00  0.00     0.274 C 
ENDROOT
BRANCH   1   2
ATOM      2  O   UNL     1      -3.717   3.693  -1.780  1.00  0.00    -0.458 OA
BRANCH   2   3
ATOM      3  C   UNL     1      -3.848   3.437  -0.468  1.00  0.00     0.361 C 
ATOM      4  O   UNL     1      -4.848   3.011   0.052  1.00  0.00    -0.245 OA
BRANCH   3   5
ATOM      5  C   UNL     1      -2.607   3.579   0.354  1.00  0.00     0.387 C 
BRANCH   5   6
ATOM      6  N   UNL     1      -2.087   2.241   0.690  1.00  0.00    -0.312 N 
ATOM      7  H   UNL     1      -1.491   2.232   1.517  1.00  0.00     0.349 HD
BRANCH   6   8
ATOM      8  C   UNL     1      -1.012   1.795  -0.203  1.00  0.00     0.213 C 
ATOM      9  C   UNL     1      -1.198   1.988  -1.719  1.00  0.00     0.081 C 
BRANCH   8  10
ATOM     10  C   UNL     1      -0.255   0.492   0.052  1.00  0.00     0.012 A 
ATOM     11  C   UNL     1       3.496  -0.261   0.205  1.00  0.00     0.044 C 
ATOM     12  C   UNL     1       2.012  -0.463   0.233  1.00  0.00    -0.051 A 
ATOM     13  C   UNL     1       1.479  -1.745   0.155  1.00  0.00     0.004 A 
ATOM     14  C   UNL     1       1.142   0.631   0.250  1.00  0.00     0.013 A 
ATOM     15  C   UNL     1       0.109  -1.915  -0.006  1.00  0.00     0.004 A 
ATOM     16  C   UNL     1      -0.753  -0.811  -0.141  1.00  0.00    -0.042 A 
ATOM     17  C   UNL     1      -2.154  -1.140  -0.543  1.00  0.00     0.045 C 
ENDBRANCH   8  10
ENDBRANCH   6   8
BRANCH   6  18
ATOM     18  C   UNL     1      -3.008   1.343   1.452  1.00  0.00     0.380 C 
BRANCH  18  19
ATOM     19  C   UNL     1      -4.340   0.644   0.966  1.00  0.00     0.438 C 
ATOM     20  F   UNL     1      -4.456   0.582  -0.381  1.00  0.00    -0.165 F 
ATOM     21  F   UNL     1      -4.386  -0.637   1.417  1.00  0.00    -0.165 F 
ATOM     22  F   UNL     1      -5.453   1.223   1.469  1.00  0.00    -0.165 F 
ENDBRANCH  18  19
ENDBRANCH   6  18
ENDBRANCH   5   6
ENDBRANCH   3   5
ENDBRANCH   2   3
ENDBRANCH   1   2
BRANCH   1  23
ATOM     23  C   UNL     1      -6.167   2.750  -2.201  1.00  0.00     0.275 C 
BRANCH  23  24
ATOM     24  O   UNL     1      -7.035   3.335  -1.143  1.00  0.00    -0.458 OA
BRANCH  24  25
ATOM     25  C   UNL     1      -6.916   4.400  -0.291  1.00  0.00     0.338 C 
ATOM     26  O   UNL     1      -7.394   4.439   0.833  1.00  0.00    -0.246 OA
BRANCH  25  27
ATOM     27  C   UNL     1      -6.226   5.558  -0.858  1.00  0.00     0.060 A 
ATOM     28  C   UNL     1      -5.281   6.346  -0.176  1.00  0.00     0.016 A 
ATOM     29  C   UNL     1      -6.423   5.683  -2.208  1.00  0.00     0.016 A 
ATOM     30  C   UNL     1      -4.442   7.184  -0.924  1.00  0.00     0.010 A 
ATOM     31  C   UNL     1      -5.403   6.238  -2.903  1.00  0.00     0.010 A 
ATOM     32  C   UNL     1      -4.486   7.093  -2.322  1.00  0.00    -0.014 A 
BRANCH  32  33
ATOM     33  C   UNL     1      -3.623   7.782  -3.281  1.00  0.00     0.031 A 
ATOM     34  C   UNL     1      -2.227   8.030  -2.851  1.00  0.00     0.074 A 
ATOM     35  C   UNL     1      -4.046   8.121  -4.531  1.00  0.00     0.049 A 
ATOM     36  N   UNL     1      -1.828   9.072  -2.204  1.00  0.00    -0.248 NA
ATOM     37  C   UNL     1      -1.184   7.009  -3.007  1.00  0.00     0.031 C 
ATOM     38  C   UNL     1      -5.325   7.832  -5.221  1.00  0.00     0.029 A 
ATOM     39  N   UNL     1      -3.380   8.820  -5.491  1.00  0.00    -0.354 N 
ATOM     40  C   UNL     1      -0.444   8.998  -2.159  1.00  0.00     0.074 A 
ATOM     41  C   UNL     1      -0.127   7.625  -2.458  1.00  0.00     0.031 C 
ATOM     42  C   UNL     1      -5.251   8.132  -6.530  1.00  0.00     0.029 A 
ATOM     43  C   UNL     1      -4.036   8.888  -6.718  1.00  0.00     0.049 A 
ATOM     44  H   UNL     1      -2.505   9.243  -5.332  1.00  0.00     0.167 HD
ATOM     45  C   UNL     1       0.289  10.150  -2.161  1.00  0.00     0.037 A 
ATOM     46  C   UNL     1      -3.809   9.717  -7.763  1.00  0.00     0.037 A 
ATOM     47  C   UNL     1      -0.574  11.296  -1.936  1.00  0.00     0.049 A 
ATOM     48  C   UNL     1      -3.106  10.896  -7.216  1.00  0.00     0.074 A 
ATOM     49  C   UNL     1      -1.458  11.665  -0.939  1.00  0.00     0.029 A 
ATOM     50  N   UNL     1      -0.934  12.041  -3.036  1.00  0.00    -0.354 N 
ATOM     51  N   UNL     1      -3.679  11.767  -6.432  1.00  0.00    -0.248 NA
ATOM     52  C   UNL     1      -1.660  10.811  -7.117  1.00  0.00     0.031 C 
ATOM     53  C   UNL     1      -2.592  12.191  -1.632  1.00  0.00     0.029 A 
ATOM     54  C   UNL     1      -2.293  12.232  -2.995  1.00  0.00     0.049 A 
ATOM     55  H   UNL     1      -0.324  12.379  -3.731  1.00  0.00     0.167 HD
ATOM     56  C   UNL     1      -2.747  11.997  -5.432  1.00  0.00     0.074 A 
ATOM     57  C   UNL     1      -1.494  11.438  -5.949  1.00  0.00     0.031 C 
ATOM     58  C   UNL     1      -3.127  12.362  -4.172  1.00  0.00     0.037 A 
BRANCH  45  59
ATOM     59  C   UNL     1       1.667  10.324  -2.756  1.00  0.00     0.057 A 
ATOM     60  C   UNL     1       2.325  11.560  -2.588  1.00  0.00     0.134 A 
ATOM     61  C   UNL     1       2.241   9.471  -3.716  1.00  0.00     0.134 A 
ATOM     62  F   UNL     1       1.882  12.461  -1.698  1.00  0.00    -0.206 F 
ATOM     63  C   UNL     1       3.405  11.955  -3.386  1.00  0.00     0.040 A 
ATOM     64  C   UNL     1       3.348   9.838  -4.489  1.00  0.00     0.040 A 
ATOM     65  F   UNL     1       1.712   8.284  -4.032  1.00  0.00    -0.206 F 
ATOM     66  C   UNL     1       3.912  11.097  -4.352  1.00  0.00     0.006 A 
ENDBRANCH  45  59
BRANCH  46  67
ATOM     67  C   UNL     1      -3.837   9.373  -9.200  1.00  0.00     0.057 A 
ATOM     68  C   UNL     1      -3.685  10.373 -10.169  1.00  0.00     0.134 A 
ATOM     69  C   UNL     1      -3.717   8.046  -9.649  1.00  0.00     0.134 A 
ATOM     70  F   UNL     1      -3.779  11.667  -9.831  1.00  0.00    -0.206 F 
ATOM     71  C   UNL     1      -3.356  10.076 -11.497  1.00  0.00     0.040 A 
ATOM     72  C   UNL     1      -3.390   7.736 -10.973  1.00  0.00     0.040 A 
ATOM     73  F   UNL     1      -3.825   7.013  -8.799  1.00  0.00    -0.206 F 
ATOM     74  C   UNL     1      -3.184   8.755 -11.896  1.00  0.00     0.006 A 
ENDBRANCH  46  67
BRANCH  58  75
ATOM     75  C   UNL     1      -4.568  12.758  -3.949  1.00  0.00     0.057 A 
ATOM     76  C   UNL     1      -5.672  11.908  -4.125  1.00  0.00     0.134 A 
ATOM     77  C   UNL     1      -4.837  14.016  -3.400  1.00  0.00     0.134 A 
ATOM     78  F   UNL     1      -5.520  10.658  -4.570  1.00  0.00    -0.206 F 
ATOM     79  C   UNL     1      -6.976  12.301  -3.801  1.00  0.00     0.040 A 
ATOM     80  C   UNL     1      -6.130  14.413  -3.046  1.00  0.00     0.040 A 
ATOM     81  F   UNL     1      -3.834  14.874  -3.158  1.00  0.00    -0.206 F 
ATOM     82  C   UNL     1      -7.208  13.557  -3.254  1.00  0.00     0.006 A 
ENDBRANCH  58  75
ENDBRANCH  32  33
ENDBRANCH  25  27
ENDBRANCH  24  25
ENDBRANCH  23  24
ENDBRANCH   1  23
TORSDOF 16
