REMARK SMILES C[C@H]1[C@H](C(=O)OCCOC(=O)c2ccc(-c3c4nc(c(-c5c(F)cccc5F)c5ccc([nH]5)c(-c5c(F)cccc5F)c5nc(c(-c6c(F)cccc6F)c6ccc3[nH]6)C=C5)C=C4)cc2)CC[N@@H+]1[C@@H](c1ccccc1)c1ccco1
REMARK SMILES IDX 7 1 6 2 4 3 5 4 3 5 1 6 2 7 68 8 66 9 67 10 69 12 70 13
REMARK SMILES IDX 71 14 75 15 72 16 74 17 73 18 76 19 77 20 80 21 78 22 79 23
REMARK SMILES IDX 8 24 9 25 10 26 11 27 12 28 13 29 65 30 14 31 64 32 15 33
REMARK SMILES IDX 16 34 17 35 58 36 18 37 63 38 57 39 59 40 19 41 62 42 56 43
REMARK SMILES IDX 55 44 20 46 46 47 29 48 45 49 30 50 33 51 44 52 60 53 31 54
REMARK SMILES IDX 32 55 43 57 61 58 34 59 21 60 22 61 27 62 23 63 24 64 26 65
REMARK SMILES IDX 28 66 25 67 47 68 48 69 53 70 49 71 50 72 52 73 54 74 51 75
REMARK SMILES IDX 35 76 36 77 41 78 37 79 38 80 40 81 42 82 39 83
REMARK H PARENT 68 11 59 45 33 56
REMARK Flexibility Score: inf
ROOT
ATOM      1  C   UNL     1      -0.356   3.115   3.260  1.00  0.00     0.274 C 
ENDROOT
BRANCH   1   2
ATOM      2  O   UNL     1      -0.220   2.037   2.313  1.00  0.00    -0.462 OA
BRANCH   2   3
ATOM      3  C   UNL     1      -0.746   2.217   1.081  1.00  0.00     0.315 C 
ATOM      4  O   UNL     1      -1.376   3.212   0.733  1.00  0.00    -0.252 OA
BRANCH   3   5
ATOM      5  C   UNL     1      -0.441   1.091   0.108  1.00  0.00     0.162 C 
ATOM      6  C   UNL     1       1.683  -0.221  -0.257  1.00  0.00     0.076 C 
ATOM      7  C   UNL     1       0.425  -0.070   0.614  1.00  0.00     0.196 C 
ATOM      8  N   UNL     1      -0.377  -1.290   0.445  1.00  0.00    -0.319 N 
ATOM      9  C   UNL     1      -1.731   0.477  -0.413  1.00  0.00     0.083 C 
ATOM     10  C   UNL     1      -1.449  -1.006  -0.502  1.00  0.00     0.264 C 
ATOM     11  H   UNL     1       0.197  -2.024   0.032  1.00  0.00     0.349 HD
BRANCH   8  12
ATOM     12  C   UNL     1      -0.747  -1.976   1.705  1.00  0.00     0.283 C 
BRANCH  12  13
ATOM     13  C   UNL     1      -1.474  -1.134   2.759  1.00  0.00     0.017 A 
ATOM     14  C   UNL     1      -0.819  -0.814   3.964  1.00  0.00     0.010 A 
ATOM     15  C   UNL     1      -2.788  -0.669   2.586  1.00  0.00     0.010 A 
ATOM     16  C   UNL     1      -1.449  -0.046   4.946  1.00  0.00     0.001 A 
ATOM     17  C   UNL     1      -3.409   0.121   3.556  1.00  0.00     0.001 A 
ATOM     18  C   UNL     1      -2.740   0.431   4.737  1.00  0.00     0.000 A 
ENDBRANCH  12  13
BRANCH  12  19
ATOM     19  C   UNL     1      -1.376  -3.321   1.415  1.00  0.00     0.165 A 
ATOM     20  C   UNL     1      -0.934  -4.405   0.677  1.00  0.00     0.052 A 
ATOM     21  O   UNL     1      -2.621  -3.589   1.911  1.00  0.00    -0.463 OA
ATOM     22  C   UNL     1      -1.963  -5.374   0.722  1.00  0.00     0.042 A 
ATOM     23  C   UNL     1      -2.966  -4.830   1.488  1.00  0.00     0.195 A 
ENDBRANCH  12  19
ENDBRANCH   8  12
ENDBRANCH   3   5
ENDBRANCH   2   3
ENDBRANCH   1   2
BRANCH   1  24
ATOM     24  C   UNL     1       1.018   3.699   3.587  1.00  0.00     0.275 C 
BRANCH  24  25
ATOM     25  O   UNL     1       1.558   4.383   2.443  1.00  0.00    -0.458 OA
BRANCH  25  26
ATOM     26  C   UNL     1       2.302   3.612   1.619  1.00  0.00     0.338 C 
ATOM     27  O   UNL     1       2.634   2.450   1.770  1.00  0.00    -0.246 OA
BRANCH  26  28
ATOM     28  C   UNL     1       2.567   4.365   0.390  1.00  0.00     0.060 A 
ATOM     29  C   UNL     1       1.835   4.045  -0.754  1.00  0.00     0.016 A 
ATOM     30  C   UNL     1       3.579   5.319   0.348  1.00  0.00     0.016 A 
ATOM     31  C   UNL     1       2.132   4.646  -1.968  1.00  0.00     0.010 A 
ATOM     32  C   UNL     1       3.854   5.952  -0.864  1.00  0.00     0.010 A 
ATOM     33  C   UNL     1       3.144   5.607  -2.029  1.00  0.00    -0.014 A 
BRANCH  33  34
ATOM     34  C   UNL     1       3.502   6.235  -3.317  1.00  0.00     0.031 A 
ATOM     35  C   UNL     1       4.838   5.938  -3.924  1.00  0.00     0.074 A 
ATOM     36  C   UNL     1       2.649   7.088  -3.910  1.00  0.00     0.049 A 
ATOM     37  N   UNL     1       5.467   6.560  -4.885  1.00  0.00    -0.248 NA
ATOM     38  C   UNL     1       5.570   4.790  -3.362  1.00  0.00     0.031 C 
ATOM     39  C   UNL     1       1.293   7.391  -3.449  1.00  0.00     0.029 A 
ATOM     40  N   UNL     1       2.811   7.878  -5.019  1.00  0.00    -0.354 N 
ATOM     41  C   UNL     1       6.689   5.914  -5.010  1.00  0.00     0.074 A 
ATOM     42  C   UNL     1       6.712   4.847  -4.033  1.00  0.00     0.031 C 
ATOM     43  C   UNL     1       0.753   8.316  -4.257  1.00  0.00     0.029 A 
ATOM     44  C   UNL     1       1.749   8.720  -5.243  1.00  0.00     0.049 A 
ATOM     45  H   UNL     1       3.608   7.846  -5.596  1.00  0.00     0.167 HD
ATOM     46  C   UNL     1       7.701   6.202  -5.861  1.00  0.00     0.037 A 
ATOM     47  C   UNL     1       1.622   9.743  -6.108  1.00  0.00     0.037 A 
ATOM     48  C   UNL     1       7.644   7.252  -6.843  1.00  0.00     0.049 A 
ATOM     49  C   UNL     1       2.780  10.084  -7.003  1.00  0.00     0.074 A 
ATOM     50  C   UNL     1       8.608   7.633  -7.758  1.00  0.00     0.029 A 
ATOM     51  N   UNL     1       6.549   8.082  -7.040  1.00  0.00    -0.354 N 
ATOM     52  N   UNL     1       3.954   9.507  -7.086  1.00  0.00    -0.248 NA
ATOM     53  C   UNL     1       2.604  11.226  -7.910  1.00  0.00     0.031 C 
ATOM     54  C   UNL     1       8.108   8.716  -8.489  1.00  0.00     0.029 A 
ATOM     55  C   UNL     1       6.818   8.983  -8.055  1.00  0.00     0.049 A 
ATOM     56  H   UNL     1       5.707   8.037  -6.533  1.00  0.00     0.167 HD
ATOM     57  C   UNL     1       4.648  10.197  -8.070  1.00  0.00     0.074 A 
ATOM     58  C   UNL     1       3.762  11.235  -8.556  1.00  0.00     0.031 C 
ATOM     59  C   UNL     1       5.905   9.990  -8.532  1.00  0.00     0.037 A 
BRANCH  46  60
ATOM     60  C   UNL     1       8.962   5.402  -5.734  1.00  0.00     0.057 A 
ATOM     61  C   UNL     1       9.046   4.073  -6.163  1.00  0.00     0.134 A 
ATOM     62  C   UNL     1      10.116   5.982  -5.191  1.00  0.00     0.134 A 
ATOM     63  F   UNL     1       7.972   3.454  -6.675  1.00  0.00    -0.206 F 
ATOM     64  C   UNL     1      10.230   3.341  -6.039  1.00  0.00     0.040 A 
ATOM     65  C   UNL     1      11.310   5.269  -5.082  1.00  0.00     0.040 A 
ATOM     66  F   UNL     1      10.102   7.253  -4.761  1.00  0.00    -0.206 F 
ATOM     67  C   UNL     1      11.367   3.942  -5.503  1.00  0.00     0.006 A 
ENDBRANCH  46  60
BRANCH  47  68
ATOM     68  C   UNL     1       0.371  10.540  -6.130  1.00  0.00     0.057 A 
ATOM     69  C   UNL     1      -0.516  10.461  -7.208  1.00  0.00     0.134 A 
ATOM     70  C   UNL     1       0.025  11.387  -5.069  1.00  0.00     0.134 A 
ATOM     71  F   UNL     1      -0.230   9.684  -8.262  1.00  0.00    -0.206 F 
ATOM     72  C   UNL     1      -1.700  11.200  -7.234  1.00  0.00     0.040 A 
ATOM     73  C   UNL     1      -1.166  12.113  -5.071  1.00  0.00     0.040 A 
ATOM     74  F   UNL     1       0.833  11.503  -4.004  1.00  0.00    -0.206 F 
ATOM     75  C   UNL     1      -2.031  12.024  -6.159  1.00  0.00     0.006 A 
ENDBRANCH  47  68
BRANCH  59  76
ATOM     76  C   UNL     1       6.375  10.866  -9.651  1.00  0.00     0.057 A 
ATOM     77  C   UNL     1       6.795  12.182  -9.431  1.00  0.00     0.134 A 
ATOM     78  C   UNL     1       6.474  10.357 -10.953  1.00  0.00     0.134 A 
ATOM     79  F   UNL     1       6.711  12.727  -8.208  1.00  0.00    -0.206 F 
ATOM     80  C   UNL     1       7.291  12.968 -10.472  1.00  0.00     0.040 A 
ATOM     81  C   UNL     1       6.987  11.126 -11.996  1.00  0.00     0.040 A 
ATOM     82  F   UNL     1       6.094   9.100 -11.223  1.00  0.00    -0.206 F 
ATOM     83  C   UNL     1       7.397  12.437 -11.757  1.00  0.00     0.006 A 
ENDBRANCH  59  76
ENDBRANCH  33  34
ENDBRANCH  26  28
ENDBRANCH  25  26
ENDBRANCH  24  25
ENDBRANCH   1  24
TORSDOF 14
