REMARK SMILES COCCCC(=O)N[C@H]1CC[C@@H](C(=O)OCCOC(=O)c2ccc(-c3c4nc(c(-c5c(F)cccc5F)c5ccc([nH]5)c(-c5c(F)cccc5F)c5nc(c(-c6c(F)cccc6F)c6ccc3[nH]6)C=C5)C=C4)cc2)CC1
REMARK SMILES IDX 15 1 13 2 14 3 12 4 9 5 10 6 76 7 11 8 75 9 8 10 6 11 7 12
REMARK SMILES IDX 5 14 4 15 3 16 2 17 1 18 16 19 17 20 18 21 19 22 20 23 21 24
REMARK SMILES IDX 22 25 74 26 23 27 73 28 24 29 25 30 26 31 67 32 27 33 72 34
REMARK SMILES IDX 66 35 68 36 28 37 71 38 65 39 64 40 29 42 55 43 38 44 54 45
REMARK SMILES IDX 39 46 42 47 53 48 69 49 40 50 41 51 52 53 70 54 43 55 30 56
REMARK SMILES IDX 31 57 36 58 32 59 33 60 35 61 37 62 34 63 56 64 57 65 62 66
REMARK SMILES IDX 58 67 59 68 61 69 63 70 60 71 44 72 45 73 50 74 46 75 47 76
REMARK SMILES IDX 49 77 51 78 48 79
REMARK H PARENT 8 13 68 41 42 52
REMARK Flexibility Score: inf
ROOT
ATOM      1  O   UNL     1       5.402   0.295   3.060  1.00  0.00    -0.462 OA
ENDROOT
BRANCH   1   2
ATOM      2  C   UNL     1       4.461   0.179   4.029  1.00  0.00     0.309 C 
ATOM      3  O   UNL     1       4.695   0.092   5.228  1.00  0.00    -0.252 OA
BRANCH   2   4
ATOM      4  C   UNL     1       3.051   0.108   3.459  1.00  0.00     0.099 C 
ATOM      5  C   UNL     1       2.837  -1.105   0.774  1.00  0.00     0.082 C 
ATOM      6  C   UNL     1       3.194  -1.951   1.999  1.00  0.00     0.026 C 
ATOM      7  C   UNL     1       3.336   0.327   0.900  1.00  0.00     0.026 C 
ATOM      8  C   UNL     1       2.630  -1.347   3.277  1.00  0.00     0.017 C 
ATOM      9  C   UNL     1       2.818   0.957   2.199  1.00  0.00     0.017 C 
BRANCH   5  10
ATOM     10  N   UNL     1       3.310  -1.783  -0.414  1.00  0.00    -0.353 N 
ATOM     11  C   UNL     1       2.563  -2.447  -1.340  1.00  0.00     0.220 C 
ATOM     12  O   UNL     1       3.113  -3.290  -2.049  1.00  0.00    -0.275 OA
ATOM     13  H   UNL     1       4.281  -1.761  -0.571  1.00  0.00     0.163 HD
BRANCH  11  14
ATOM     14  C   UNL     1       1.110  -2.064  -1.557  1.00  0.00     0.102 C 
BRANCH  14  15
ATOM     15  C   UNL     1       0.041  -2.785  -0.734  1.00  0.00     0.038 C 
BRANCH  15  16
ATOM     16  C   UNL     1      -0.330  -2.312   0.678  1.00  0.00     0.160 C 
BRANCH  16  17
ATOM     17  O   UNL     1      -0.692  -0.966   0.971  1.00  0.00    -0.385 OA
ATOM     18  C   UNL     1      -0.806  -0.016  -0.068  1.00  0.00     0.194 C 
ENDBRANCH  16  17
ENDBRANCH  15  16
ENDBRANCH  14  15
ENDBRANCH  11  14
ENDBRANCH   5  10
ENDBRANCH   2   4
ENDBRANCH   1   2
BRANCH   1  19
ATOM     19  C   UNL     1       6.772   0.392   3.487  1.00  0.00     0.274 C 
BRANCH  19  20
ATOM     20  C   UNL     1       7.243   1.847   3.480  1.00  0.00     0.275 C 
BRANCH  20  21
ATOM     21  O   UNL     1       6.568   2.610   4.498  1.00  0.00    -0.458 OA
BRANCH  21  22
ATOM     22  C   UNL     1       5.501   3.324   4.075  1.00  0.00     0.338 C 
ATOM     23  O   UNL     1       5.116   3.468   2.922  1.00  0.00    -0.246 OA
BRANCH  22  24
ATOM     24  C   UNL     1       4.734   3.801   5.234  1.00  0.00     0.060 A 
ATOM     25  C   UNL     1       3.403   3.391   5.353  1.00  0.00     0.016 A 
ATOM     26  C   UNL     1       5.288   4.684   6.162  1.00  0.00     0.016 A 
ATOM     27  C   UNL     1       2.620   3.850   6.406  1.00  0.00     0.010 A 
ATOM     28  C   UNL     1       4.496   5.157   7.214  1.00  0.00     0.010 A 
ATOM     29  C   UNL     1       3.156   4.748   7.335  1.00  0.00    -0.014 A 
BRANCH  29  30
ATOM     30  C   UNL     1       2.274   5.308   8.385  1.00  0.00     0.031 A 
ATOM     31  C   UNL     1       1.727   6.697   8.231  1.00  0.00     0.074 A 
ATOM     32  C   UNL     1       1.921   4.552   9.440  1.00  0.00     0.049 A 
ATOM     33  N   UNL     1       0.959   7.380   9.041  1.00  0.00    -0.248 NA
ATOM     34  C   UNL     1       2.091   7.412   6.997  1.00  0.00     0.031 C 
ATOM     35  C   UNL     1       2.353   3.174   9.673  1.00  0.00     0.029 A 
ATOM     36  N   UNL     1       1.111   4.838  10.510  1.00  0.00    -0.354 N 
ATOM     37  C   UNL     1       0.753   8.605   8.422  1.00  0.00     0.074 A 
ATOM     38  C   UNL     1       1.496   8.582   7.179  1.00  0.00     0.031 C 
ATOM     39  C   UNL     1       1.802   2.732  10.816  1.00  0.00     0.029 A 
ATOM     40  C   UNL     1       1.008   3.806  11.409  1.00  0.00     0.049 A 
ATOM     41  H   UNL     1       0.649   5.699  10.622  1.00  0.00     0.167 HD
ATOM     42  C   UNL     1       0.006   9.651   8.848  1.00  0.00     0.037 A 
ATOM     43  C   UNL     1       0.362   3.742  12.589  1.00  0.00     0.037 A 
ATOM     44  C   UNL     1      -0.732   9.671  10.084  1.00  0.00     0.049 A 
ATOM     45  C   UNL     1      -0.421   4.936  13.063  1.00  0.00     0.074 A 
ATOM     46  C   UNL     1      -1.507  10.689  10.612  1.00  0.00     0.029 A 
ATOM     47  N   UNL     1      -0.790   8.617  10.984  1.00  0.00    -0.354 N 
ATOM     48  N   UNL     1      -0.596   6.096  12.477  1.00  0.00    -0.248 NA
ATOM     49  C   UNL     1      -1.095   4.811  14.363  1.00  0.00     0.031 C 
ATOM     50  C   UNL     1      -2.006  10.263  11.848  1.00  0.00     0.029 A 
ATOM     51  C   UNL     1      -1.577   8.965  12.070  1.00  0.00     0.049 A 
ATOM     52  H   UNL     1      -0.338   7.750  10.868  1.00  0.00     0.167 HD
ATOM     53  C   UNL     1      -1.410   6.833  13.327  1.00  0.00     0.074 A 
ATOM     54  C   UNL     1      -1.713   5.980  14.458  1.00  0.00     0.031 C 
ATOM     55  C   UNL     1      -1.863   8.103  13.188  1.00  0.00     0.037 A 
BRANCH  42  56
ATOM     56  C   UNL     1      -0.025  10.871   7.977  1.00  0.00     0.057 A 
ATOM     57  C   UNL     1      -0.737  10.900   6.771  1.00  0.00     0.134 A 
ATOM     58  C   UNL     1       0.650  12.038   8.357  1.00  0.00     0.134 A 
ATOM     59  F   UNL     1      -1.390   9.810   6.341  1.00  0.00    -0.206 F 
ATOM     60  C   UNL     1      -0.759  12.039   5.964  1.00  0.00     0.040 A 
ATOM     61  C   UNL     1       0.617  13.190   7.570  1.00  0.00     0.040 A 
ATOM     62  F   UNL     1       1.350  12.078   9.501  1.00  0.00    -0.206 F 
ATOM     63  C   UNL     1      -0.086  13.191   6.367  1.00  0.00     0.006 A 
ENDBRANCH  42  56
BRANCH  43  64
ATOM     64  C   UNL     1       0.443   2.511  13.414  1.00  0.00     0.057 A 
ATOM     65  C   UNL     1      -0.670   1.684  13.600  1.00  0.00     0.134 A 
ATOM     66  C   UNL     1       1.636   2.141  14.047  1.00  0.00     0.134 A 
ATOM     67  F   UNL     1      -1.847   2.000  13.039  1.00  0.00    -0.206 F 
ATOM     68  C   UNL     1      -0.604   0.541  14.398  1.00  0.00     0.040 A 
ATOM     69  C   UNL     1       1.723   0.988  14.826  1.00  0.00     0.040 A 
ATOM     70  F   UNL     1       2.738   2.893  13.908  1.00  0.00    -0.206 F 
ATOM     71  C   UNL     1       0.597   0.187  15.009  1.00  0.00     0.006 A 
ENDBRANCH  43  64
BRANCH  55  72
ATOM     72  C   UNL     1      -2.746   8.633  14.279  1.00  0.00     0.057 A 
ATOM     73  C   UNL     1      -2.235   8.980  15.537  1.00  0.00     0.134 A 
ATOM     74  C   UNL     1      -4.118   8.812  14.065  1.00  0.00     0.134 A 
ATOM     75  F   UNL     1      -0.932   8.819  15.809  1.00  0.00    -0.206 F 
ATOM     76  C   UNL     1      -3.064   9.462  16.551  1.00  0.00     0.040 A 
ATOM     77  C   UNL     1      -4.952   9.315  15.063  1.00  0.00     0.040 A 
ATOM     78  F   UNL     1      -4.668   8.506  12.880  1.00  0.00    -0.206 F 
ATOM     79  C   UNL     1      -4.426   9.635  16.314  1.00  0.00     0.006 A 
ENDBRANCH  55  72
ENDBRANCH  29  30
ENDBRANCH  22  24
ENDBRANCH  21  22
ENDBRANCH  20  21
ENDBRANCH  19  20
ENDBRANCH   1  19
TORSDOF 16
