REMARK SMILES Cc1cc(N2CC[NH+]([C@@H](C(=O)OCCOC(=O)c3ccc(-c4c5nc(c(-c6c(F)cccc6F)c6ccc([nH]6)c(-c6c(F)cccc6F)c6nc(c(-c7c(F)cccc7F)c7ccc4[nH]7)C=C6)C=C5)cc3)c3c[nH]c4ccccc34)CC2)nc2ccccc12
REMARK SMILES IDX 13 1 12 2 10 3 11 4 9 5 8 6 5 7 6 8 82 9 7 10 81 11 4 13
REMARK SMILES IDX 1 14 2 15 3 16 89 17 84 18 88 19 83 20 85 21 87 22 86 23
REMARK SMILES IDX 72 24 73 25 80 26 74 27 75 28 79 29 76 31 78 32 77 33 14 34
REMARK SMILES IDX 15 35 16 36 17 37 18 38 19 39 71 40 20 41 70 42 21 43 22 44
REMARK SMILES IDX 23 45 64 46 24 47 69 48 63 49 65 50 25 51 68 52 62 53 61 54
REMARK SMILES IDX 26 56 52 57 35 58 51 59 36 60 39 61 50 62 66 63 37 64 38 65
REMARK SMILES IDX 49 67 67 68 40 69 27 70 28 71 33 72 29 73 30 74 32 75 34 76
REMARK SMILES IDX 31 77 53 78 54 79 59 80 55 81 56 82 58 83 60 84 57 85 41 86
REMARK SMILES IDX 42 87 47 88 43 89 44 90 46 91 48 92 45 93
REMARK H PARENT 8 12 74 30 65 55 39 66
REMARK Flexibility Score: inf
ROOT
ATOM      1  C   UNL     1      -2.190  -4.827  -1.921  1.00  0.00     0.274 C 
ENDROOT
BRANCH   1   2
ATOM      2  O   UNL     1      -2.862  -4.614  -0.656  1.00  0.00    -0.457 OA
BRANCH   2   3
ATOM      3  C   UNL     1      -4.026  -5.284  -0.465  1.00  0.00     0.370 C 
ATOM      4  O   UNL     1      -4.394  -6.209  -1.191  1.00  0.00    -0.245 OA
BRANCH   3   5
ATOM      5  C   UNL     1      -4.949  -4.698   0.606  1.00  0.00     0.328 C 
BRANCH   5   6
ATOM      6  N   UNL     1      -5.301  -3.239   0.487  1.00  0.00    -0.316 N 
ATOM      7  N   UNL     1      -2.986  -1.667  -0.298  1.00  0.00    -0.345 N 
ATOM      8  C   UNL     1      -3.143  -2.120   1.079  1.00  0.00     0.179 C 
ATOM      9  C   UNL     1      -4.098  -1.700  -1.244  1.00  0.00     0.179 C 
ATOM     10  C   UNL     1      -4.619  -2.321   1.407  1.00  0.00     0.285 C 
ATOM     11  C   UNL     1      -5.249  -2.694  -0.879  1.00  0.00     0.285 C 
ATOM     12  H   UNL     1      -6.277  -3.275   0.783  1.00  0.00     0.349 HD
BRANCH   7  13
ATOM     13  C   UNL     1      -1.937  -0.779  -0.428  1.00  0.00     0.129 A 
ATOM     14  C   UNL     1      -1.433   2.948  -0.147  1.00  0.00     0.045 C 
ATOM     15  C   UNL     1      -1.122   1.483  -0.268  1.00  0.00    -0.038 A 
ATOM     16  C   UNL     1      -2.182   0.587  -0.413  1.00  0.00     0.051 A 
ATOM     17  C   UNL     1       0.191   0.973  -0.187  1.00  0.00     0.003 A 
ATOM     18  C   UNL     1       0.347  -0.430  -0.231  1.00  0.00     0.073 A 
ATOM     19  C   UNL     1       1.338   1.786  -0.046  1.00  0.00     0.010 A 
ATOM     20  N   UNL     1      -0.689  -1.276  -0.336  1.00  0.00    -0.231 NA
ATOM     21  C   UNL     1       1.625  -0.964  -0.135  1.00  0.00     0.029 A 
ATOM     22  C   UNL     1       2.611   1.224   0.044  1.00  0.00     0.001 A 
ATOM     23  C   UNL     1       2.756  -0.155   0.001  1.00  0.00     0.002 A 
ENDBRANCH   7  13
ENDBRANCH   5   6
BRANCH   5  24
ATOM     24  C   UNL     1      -4.813  -5.092   2.073  1.00  0.00     0.046 A 
ATOM     25  C   UNL     1      -5.935  -5.334   2.859  1.00  0.00     0.094 A 
ATOM     26  C   UNL     1      -3.707  -5.003   3.001  1.00  0.00     0.009 A 
ATOM     27  N   UNL     1      -5.617  -5.051   4.156  1.00  0.00    -0.361 N 
ATOM     28  C   UNL     1      -4.279  -4.765   4.258  1.00  0.00     0.046 A 
ATOM     29  C   UNL     1      -2.300  -4.911   2.914  1.00  0.00     0.011 A 
ATOM     30  H   UNL     1      -6.253  -5.052   4.907  1.00  0.00     0.166 HD
ATOM     31  C   UNL     1      -3.558  -4.272   5.353  1.00  0.00     0.026 A 
ATOM     32  C   UNL     1      -1.548  -4.513   4.032  1.00  0.00     0.001 A 
ATOM     33  C   UNL     1      -2.177  -4.145   5.216  1.00  0.00     0.002 A 
ENDBRANCH   5  24
ENDBRANCH   3   5
ENDBRANCH   2   3
ENDBRANCH   1   2
BRANCH   1  34
ATOM     34  C   UNL     1      -0.848  -5.518  -1.716  1.00  0.00     0.275 C 
BRANCH  34  35
ATOM     35  O   UNL     1      -1.099  -6.760  -1.041  1.00  0.00    -0.458 OA
BRANCH  35  36
ATOM     36  C   UNL     1      -0.446  -6.928   0.126  1.00  0.00     0.338 C 
ATOM     37  O   UNL     1       0.566  -6.335   0.491  1.00  0.00    -0.246 OA
BRANCH  36  38
ATOM     38  C   UNL     1      -1.199  -7.844   1.011  1.00  0.00     0.060 A 
ATOM     39  C   UNL     1      -2.572  -8.042   0.846  1.00  0.00     0.016 A 
ATOM     40  C   UNL     1      -0.555  -8.384   2.125  1.00  0.00     0.016 A 
ATOM     41  C   UNL     1      -3.320  -8.666   1.839  1.00  0.00     0.010 A 
ATOM     42  C   UNL     1      -1.287  -9.104   3.070  1.00  0.00     0.010 A 
ATOM     43  C   UNL     1      -2.680  -9.226   2.950  1.00  0.00    -0.014 A 
BRANCH  43  44
ATOM     44  C   UNL     1      -3.446 -10.004   3.952  1.00  0.00     0.031 A 
ATOM     45  C   UNL     1      -3.494  -9.578   5.389  1.00  0.00     0.074 A 
ATOM     46  C   UNL     1      -4.056 -11.139   3.566  1.00  0.00     0.049 A 
ATOM     47  N   UNL     1      -3.893 -10.254   6.436  1.00  0.00    -0.248 NA
ATOM     48  C   UNL     1      -3.024  -8.219   5.689  1.00  0.00     0.031 C 
ATOM     49  C   UNL     1      -4.114 -11.640   2.192  1.00  0.00     0.029 A 
ATOM     50  N   UNL     1      -4.722 -12.088   4.298  1.00  0.00    -0.354 N 
ATOM     51  C   UNL     1      -3.682  -9.421   7.528  1.00  0.00     0.074 A 
ATOM     52  C   UNL     1      -3.128  -8.185   7.012  1.00  0.00     0.031 C 
ATOM     53  C   UNL     1      -4.776 -12.803   2.178  1.00  0.00     0.029 A 
ATOM     54  C   UNL     1      -5.110 -13.169   3.549  1.00  0.00     0.049 A 
ATOM     55  H   UNL     1      -4.904 -12.001   5.262  1.00  0.00     0.167 HD
ATOM     56  C   UNL     1      -3.922  -9.678   8.837  1.00  0.00     0.037 A 
ATOM     57  C   UNL     1      -5.620 -14.357   3.920  1.00  0.00     0.037 A 
ATOM     58  C   UNL     1      -4.499 -10.906   9.331  1.00  0.00     0.049 A 
ATOM     59  C   UNL     1      -5.861 -14.629   5.370  1.00  0.00     0.074 A 
ATOM     60  C   UNL     1      -4.791 -11.261  10.638  1.00  0.00     0.029 A 
ATOM     61  N   UNL     1      -4.880 -11.979   8.537  1.00  0.00    -0.354 N 
ATOM     62  N   UNL     1      -5.592 -13.869   6.404  1.00  0.00    -0.248 NA
ATOM     63  C   UNL     1      -6.471 -15.919   5.705  1.00  0.00     0.031 C 
ATOM     64  C   UNL     1      -5.320 -12.557  10.637  1.00  0.00     0.029 A 
ATOM     65  C   UNL     1      -5.401 -12.995   9.325  1.00  0.00     0.049 A 
ATOM     66  H   UNL     1      -4.792 -12.015   7.557  1.00  0.00     0.167 HD
ATOM     67  C   UNL     1      -6.001 -14.587   7.517  1.00  0.00     0.074 A 
ATOM     68  C   UNL     1      -6.557 -15.834   7.026  1.00  0.00     0.031 C 
ATOM     69  C   UNL     1      -5.923 -14.243   8.826  1.00  0.00     0.037 A 
BRANCH  56  70
ATOM     70  C   UNL     1      -3.527  -8.629   9.837  1.00  0.00     0.057 A 
ATOM     71  C   UNL     1      -4.235  -7.430   9.983  1.00  0.00     0.134 A 
ATOM     72  C   UNL     1      -2.447  -8.849  10.704  1.00  0.00     0.134 A 
ATOM     73  F   UNL     1      -5.271  -7.148   9.179  1.00  0.00    -0.206 F 
ATOM     74  C   UNL     1      -3.876  -6.482  10.946  1.00  0.00     0.040 A 
ATOM     75  C   UNL     1      -2.094  -7.921  11.685  1.00  0.00     0.040 A 
ATOM     76  F   UNL     1      -1.729  -9.979  10.624  1.00  0.00    -0.206 F 
ATOM     77  C   UNL     1      -2.807  -6.731  11.806  1.00  0.00     0.006 A 
ENDBRANCH  56  70
BRANCH  57  78
ATOM     78  C   UNL     1      -5.885 -15.369   2.872  1.00  0.00     0.057 A 
ATOM     79  C   UNL     1      -7.186 -15.628   2.433  1.00  0.00     0.134 A 
ATOM     80  C   UNL     1      -4.831 -16.005   2.204  1.00  0.00     0.134 A 
ATOM     81  F   UNL     1      -8.232 -15.057   3.046  1.00  0.00    -0.206 F 
ATOM     82  C   UNL     1      -7.430 -16.472   1.349  1.00  0.00     0.040 A 
ATOM     83  C   UNL     1      -5.059 -16.831   1.103  1.00  0.00     0.040 A 
ATOM     84  F   UNL     1      -3.561 -15.782   2.574  1.00  0.00    -0.206 F 
ATOM     85  C   UNL     1      -6.363 -17.062   0.671  1.00  0.00     0.006 A 
ENDBRANCH  57  78
BRANCH  69  86
ATOM     86  C   UNL     1      -6.471 -15.235   9.807  1.00  0.00     0.057 A 
ATOM     87  C   UNL     1      -5.800 -16.429  10.102  1.00  0.00     0.134 A 
ATOM     88  C   UNL     1      -7.698 -15.007  10.442  1.00  0.00     0.134 A 
ATOM     89  F   UNL     1      -4.628 -16.713   9.514  1.00  0.00    -0.206 F 
ATOM     90  C   UNL     1      -6.349 -17.378  10.966  1.00  0.00     0.040 A 
ATOM     91  C   UNL     1      -8.246 -15.938  11.325  1.00  0.00     0.040 A 
ATOM     92  F   UNL     1      -8.388 -13.881  10.207  1.00  0.00    -0.206 F 
ATOM     93  C   UNL     1      -7.576 -17.133  11.580  1.00  0.00     0.006 A 
ENDBRANCH  69  86
ENDBRANCH  43  44
ENDBRANCH  36  38
ENDBRANCH  35  36
ENDBRANCH  34  35
ENDBRANCH   1  34
TORSDOF 14
