REMARK SMILES CC(=O)NS(=O)(=O)c1cc(-c2ccn(C(F)F)c(=O)c2)ccc1C(=O)OCCOC(=O)c1ccc(-c2c3nc(c(-c4c(F)cccc4F)c4ccc([nH]4)c(-c4c(F)cccc4F)c4nc(c(-c5c(F)cccc5F)c5ccc2[nH]5)C=C4)C=C3)cc1
REMARK SMILES IDX 27 1 26 2 24 3 25 4 23 5 8 6 9 7 10 8 22 9 21 10 5 11 6 12
REMARK SMILES IDX 7 13 4 14 1 15 2 16 3 17 11 19 12 20 20 21 13 22 18 23 14 24
REMARK SMILES IDX 19 25 15 26 16 27 17 28 28 29 29 30 30 31 31 32 32 33 33 34
REMARK SMILES IDX 85 35 34 36 84 37 35 38 36 39 37 40 78 41 38 42 83 43 77 44
REMARK SMILES IDX 79 45 39 46 82 47 76 48 75 49 40 51 66 52 49 53 65 54 50 55
REMARK SMILES IDX 53 56 64 57 80 58 51 59 52 60 63 62 81 63 54 64 41 65 42 66
REMARK SMILES IDX 47 67 43 68 44 69 46 70 48 71 45 72 67 73 68 74 73 75 69 76
REMARK SMILES IDX 70 77 72 78 74 79 71 80 55 81 56 82 61 83 57 84 58 85 60 86
REMARK SMILES IDX 62 87 59 88
REMARK H PARENT 4 18 79 50 53 61
REMARK Flexibility Score: inf
ROOT
ATOM      1  C   UNL     1       3.852   2.382   1.607  1.00  0.00     0.275 C 
ENDROOT
BRANCH   1   2
ATOM      2  O   UNL     1       3.571   0.982   1.820  1.00  0.00    -0.458 OA
BRANCH   2   3
ATOM      3  C   UNL     1       2.934   0.358   0.808  1.00  0.00     0.339 C 
ATOM      4  O   UNL     1       2.591   0.832  -0.262  1.00  0.00    -0.246 OA
BRANCH   3   5
ATOM      5  C   UNL     1       2.680  -1.054   1.128  1.00  0.00     0.080 A 
ATOM      6  C   UNL     1       1.811  -1.482   2.129  1.00  0.00     0.103 A 
ATOM      7  C   UNL     1       1.528  -2.856   2.276  1.00  0.00     0.032 A 
ATOM      8  C   UNL     1       2.087  -3.799   1.401  1.00  0.00    -0.017 A 
ATOM      9  C   UNL     1       3.227  -2.002   0.254  1.00  0.00     0.018 A 
ATOM     10  C   UNL     1       2.935  -3.356   0.386  1.00  0.00     0.010 A 
BRANCH   6  11
ATOM     11  S   UNL     1       0.918  -0.350   3.154  1.00  0.00     0.264 S 
ATOM     12  O   UNL     1       1.834   0.093   4.181  1.00  0.00    -0.201 OA
ATOM     13  O   UNL     1      -0.340  -0.975   3.493  1.00  0.00    -0.201 OA
BRANCH  11  14
ATOM     14  N   UNL     1       0.567   0.969   2.225  1.00  0.00    -0.249 N 
ATOM     15  C   UNL     1      -0.745  -0.104   0.381  1.00  0.00     0.115 C 
ATOM     16  C   UNL     1      -0.336   1.110   1.163  1.00  0.00     0.230 C 
ATOM     17  O   UNL     1      -0.666   2.240   0.828  1.00  0.00    -0.274 OA
ATOM     18  H   UNL     1       1.071   1.784   2.453  1.00  0.00     0.183 HD
ENDBRANCH  11  14
ENDBRANCH   6  11
BRANCH   8  19
ATOM     19  C   UNL     1       1.787  -5.242   1.473  1.00  0.00    -0.011 A 
ATOM     20  C   UNL     1       2.832  -6.246   1.568  1.00  0.00     0.027 A 
ATOM     21  C   UNL     1       0.511  -5.644   1.337  1.00  0.00     0.080 A 
ATOM     22  C   UNL     1       2.538  -7.548   1.485  1.00  0.00     0.095 A 
ATOM     23  C   UNL     1       0.165  -7.092   1.269  1.00  0.00     0.255 A 
ATOM     24  N   UNL     1       1.233  -7.973   1.331  1.00  0.00    -0.258 N 
ATOM     25  O   UNL     1      -1.014  -7.404   1.144  1.00  0.00    -0.269 OA
BRANCH  24  26
ATOM     26  C   UNL     1       0.930  -9.377   1.222  1.00  0.00     0.451 C 
ATOM     27  F   UNL     1       0.103  -9.777   2.218  1.00  0.00    -0.185 F 
ATOM     28  F   UNL     1       0.331  -9.654   0.039  1.00  0.00    -0.185 F 
ENDBRANCH  24  26
ENDBRANCH   8  19
ENDBRANCH   3   5
ENDBRANCH   2   3
ENDBRANCH   1   2
BRANCH   1  29
ATOM     29  C   UNL     1       5.323   2.602   1.270  1.00  0.00     0.275 C 
BRANCH  29  30
ATOM     30  O   UNL     1       5.636   1.964   0.020  1.00  0.00    -0.458 OA
BRANCH  30  31
ATOM     31  C   UNL     1       6.461   0.896   0.099  1.00  0.00     0.338 C 
ATOM     32  O   UNL     1       7.006   0.444   1.091  1.00  0.00    -0.246 OA
BRANCH  31  33
ATOM     33  C   UNL     1       6.601   0.280  -1.230  1.00  0.00     0.060 A 
ATOM     34  C   UNL     1       5.468  -0.170  -1.901  1.00  0.00     0.016 A 
ATOM     35  C   UNL     1       7.868   0.018  -1.744  1.00  0.00     0.016 A 
ATOM     36  C   UNL     1       5.599  -0.995  -3.013  1.00  0.00     0.010 A 
ATOM     37  C   UNL     1       7.989  -0.684  -2.947  1.00  0.00     0.010 A 
ATOM     38  C   UNL     1       6.858  -1.229  -3.581  1.00  0.00    -0.014 A 
BRANCH  38  39
ATOM     39  C   UNL     1       6.996  -2.020  -4.837  1.00  0.00     0.031 A 
ATOM     40  C   UNL     1       7.934  -3.196  -4.898  1.00  0.00     0.074 A 
ATOM     41  C   UNL     1       6.295  -1.678  -5.938  1.00  0.00     0.049 A 
ATOM     42  N   UNL     1       8.397  -3.832  -5.944  1.00  0.00    -0.248 NA
ATOM     43  C   UNL     1       8.429  -3.716  -3.614  1.00  0.00     0.031 C 
ATOM     44  C   UNL     1       5.303  -0.604  -6.019  1.00  0.00     0.029 A 
ATOM     45  N   UNL     1       6.312  -2.202  -7.208  1.00  0.00    -0.354 N 
ATOM     46  C   UNL     1       9.287  -4.779  -5.451  1.00  0.00     0.074 A 
ATOM     47  C   UNL     1       9.291  -4.643  -4.010  1.00  0.00     0.031 C 
ATOM     48  C   UNL     1       4.773  -0.581  -7.250  1.00  0.00     0.029 A 
ATOM     49  C   UNL     1       5.473  -1.550  -8.080  1.00  0.00     0.049 A 
ATOM     50  H   UNL     1       6.870  -2.971  -7.468  1.00  0.00     0.167 HD
ATOM     51  C   UNL     1      10.037  -5.671  -6.142  1.00  0.00     0.037 A 
ATOM     52  C   UNL     1       5.327  -1.662  -9.413  1.00  0.00     0.037 A 
ATOM     53  C   UNL     1       9.987  -5.835  -7.572  1.00  0.00     0.049 A 
ATOM     54  C   UNL     1       6.216  -2.604 -10.166  1.00  0.00     0.074 A 
ATOM     55  C   UNL     1      10.697  -6.717  -8.368  1.00  0.00     0.029 A 
ATOM     56  N   UNL     1       9.165  -5.106  -8.419  1.00  0.00    -0.354 N 
ATOM     57  N   UNL     1       7.122  -3.430  -9.702  1.00  0.00    -0.248 NA
ATOM     58  C   UNL     1       6.096  -2.597 -11.630  1.00  0.00     0.031 C 
ATOM     59  C   UNL     1      10.327  -6.501  -9.700  1.00  0.00     0.029 A 
ATOM     60  C   UNL     1       9.362  -5.507  -9.730  1.00  0.00     0.049 A 
ATOM     61  H   UNL     1       8.534  -4.407  -8.132  1.00  0.00     0.167 HD
ATOM     62  C   UNL     1       7.681  -4.041 -10.815  1.00  0.00     0.074 A 
ATOM     63  C   UNL     1       6.998  -3.505 -11.976  1.00  0.00     0.031 C 
ATOM     64  C   UNL     1       8.678  -4.956 -10.871  1.00  0.00     0.037 A 
BRANCH  51  65
ATOM     65  C   UNL     1      11.010  -6.509  -5.366  1.00  0.00     0.057 A 
ATOM     66  C   UNL     1      10.600  -7.579  -4.561  1.00  0.00     0.134 A 
ATOM     67  C   UNL     1      12.386  -6.256  -5.452  1.00  0.00     0.134 A 
ATOM     68  F   UNL     1       9.297  -7.864  -4.422  1.00  0.00    -0.206 F 
ATOM     69  C   UNL     1      11.522  -8.354  -3.854  1.00  0.00     0.040 A 
ATOM     70  C   UNL     1      13.319  -7.037  -4.767  1.00  0.00     0.040 A 
ATOM     71  F   UNL     1      12.847  -5.249  -6.209  1.00  0.00    -0.206 F 
ATOM     72  C   UNL     1      12.886  -8.087  -3.961  1.00  0.00     0.006 A 
ENDBRANCH  51  65
BRANCH  52  73
ATOM     73  C   UNL     1       4.348  -0.800 -10.120  1.00  0.00     0.057 A 
ATOM     74  C   UNL     1       3.183  -1.341 -10.673  1.00  0.00     0.134 A 
ATOM     75  C   UNL     1       4.535   0.584 -10.231  1.00  0.00     0.134 A 
ATOM     76  F   UNL     1       2.960  -2.662 -10.618  1.00  0.00    -0.206 F 
ATOM     77  C   UNL     1       2.235  -0.535 -11.306  1.00  0.00     0.040 A 
ATOM     78  C   UNL     1       3.584   1.404 -10.838  1.00  0.00     0.040 A 
ATOM     79  F   UNL     1       5.632   1.162  -9.719  1.00  0.00    -0.206 F 
ATOM     80  C   UNL     1       2.430   0.844 -11.380  1.00  0.00     0.006 A 
ENDBRANCH  52  73
BRANCH  64  81
ATOM     81  C   UNL     1       9.074  -5.441 -12.230  1.00  0.00     0.057 A 
ATOM     82  C   UNL     1       9.864  -4.661 -13.083  1.00  0.00     0.134 A 
ATOM     83  C   UNL     1       8.684  -6.708 -12.679  1.00  0.00     0.134 A 
ATOM     84  F   UNL     1      10.253  -3.432 -12.714  1.00  0.00    -0.206 F 
ATOM     85  C   UNL     1      10.242  -5.121 -14.345  1.00  0.00     0.040 A 
ATOM     86  C   UNL     1       9.071  -7.186 -13.931  1.00  0.00     0.040 A 
ATOM     87  F   UNL     1       7.928  -7.502 -11.906  1.00  0.00    -0.206 F 
ATOM     88  C   UNL     1       9.850  -6.390 -14.769  1.00  0.00     0.006 A 
ENDBRANCH  64  81
ENDBRANCH  38  39
ENDBRANCH  31  33
ENDBRANCH  30  31
ENDBRANCH  29  30
ENDBRANCH   1  29
TORSDOF 15
