REMARK SMILES COc1ccc([C@H]2[NH2+][C@@H](C(=O)OCCOC(=O)c3ccc(-c4c5nc(c(-c6c(F)cccc6F)c6ccc([nH]6)c(-c6c(F)cccc6F)c6nc(c(-c7c(F)cccc7F)c7ccc4[nH]7)C=C6)C=C5)cc3)CC3=c4ccccc4=N[C@H]32)cc1Cn1cc([N+](=O)[O-])cn1
REMARK SMILES IDX 13 1 12 2 10 3 11 4 9 5 7 6 8 7 81 8 73 11 80 12 72 13 74 14
REMARK SMILES IDX 79 15 75 16 78 17 76 18 77 19 6 20 3 21 4 22 83 23 5 24
REMARK SMILES IDX 82 25 2 26 1 27 84 28 85 29 86 30 92 31 87 32 91 33 88 34
REMARK SMILES IDX 89 35 90 36 14 37 15 38 16 39 17 40 18 41 19 42 71 43 20 44
REMARK SMILES IDX 70 45 21 46 22 47 23 48 64 49 24 50 69 51 63 52 65 53 25 54
REMARK SMILES IDX 68 55 62 56 61 57 26 59 52 60 35 61 51 62 36 63 39 64 50 65
REMARK SMILES IDX 66 66 37 67 38 68 49 70 67 71 40 72 27 73 28 74 33 75 29 76
REMARK SMILES IDX 30 77 32 78 34 79 31 80 53 81 54 82 59 83 55 84 56 85 58 86
REMARK SMILES IDX 60 87 57 88 41 89 42 90 47 91 43 92 44 93 46 94 48 95 45 96
REMARK H PARENT 8 9 8 10 65 58 39 69
REMARK Flexibility Score: inf
ROOT
ATOM      1  C   UNL     1       4.860  -4.553   7.733  1.00  0.00     0.274 C 
ENDROOT
BRANCH   1   2
ATOM      2  O   UNL     1       3.729  -3.696   7.992  1.00  0.00    -0.458 OA
BRANCH   2   3
ATOM      3  C   UNL     1       2.622  -3.948   7.254  1.00  0.00     0.365 C 
ATOM      4  O   UNL     1       2.520  -4.885   6.467  1.00  0.00    -0.245 OA
BRANCH   3   5
ATOM      5  C   UNL     1       1.519  -2.884   7.418  1.00  0.00     0.298 C 
ATOM      6  C   UNL     1       2.513  -0.868   6.330  1.00  0.00     0.243 C 
ATOM      7  N   UNL     1       1.504  -1.964   6.247  1.00  0.00    -0.326 N 
ATOM      8  C   UNL     1       2.207  -0.033   7.644  1.00  0.00     0.196 C 
ATOM      9  H   UNL     1       1.692  -2.510   5.406  1.00  0.00     0.347 HD
ATOM     10  H   UNL     1       0.585  -1.521   6.228  1.00  0.00     0.347 HD
ATOM     11  C   UNL     1       2.201  -0.907   8.864  1.00  0.00    -0.024 C 
ATOM     12  N   UNL     1       3.176   1.062   7.958  1.00  0.00    -0.270 NA
ATOM     13  C   UNL     1       1.423  -2.175   8.791  1.00  0.00     0.111 C 
ATOM     14  C   UNL     1       3.000  -0.424   9.809  1.00  0.00     0.002 A 
ATOM     15  C   UNL     1       3.558   0.783   9.173  1.00  0.00     0.066 A 
ATOM     16  C   UNL     1       3.454  -0.879  11.080  1.00  0.00     0.010 A 
ATOM     17  C   UNL     1       4.628   1.478   9.931  1.00  0.00     0.028 A 
ATOM     18  C   UNL     1       4.501  -0.266  11.654  1.00  0.00     0.001 A 
ATOM     19  C   UNL     1       5.094   0.920  11.062  1.00  0.00     0.002 A 
BRANCH   6  20
ATOM     20  C   UNL     1       3.934  -1.375   6.023  1.00  0.00     0.012 A 
ATOM     21  C   UNL     1       6.610  -2.218   5.455  1.00  0.00     0.123 A 
ATOM     22  C   UNL     1       5.554  -2.503   4.578  1.00  0.00     0.047 A 
ATOM     23  C   UNL     1       6.350  -1.487   6.609  1.00  0.00     0.016 A 
ATOM     24  C   UNL     1       4.239  -2.075   4.847  1.00  0.00     0.014 A 
ATOM     25  C   UNL     1       5.011  -1.138   6.878  1.00  0.00     0.019 A 
BRANCH  21  26
ATOM     26  O   UNL     1       7.851  -2.631   5.059  1.00  0.00    -0.496 OA
ATOM     27  C   UNL     1       8.501  -3.530   5.957  1.00  0.00     0.278 C 
ENDBRANCH  21  26
BRANCH  23  28
ATOM     28  C   UNL     1       7.372  -0.980   7.592  1.00  0.00     0.183 C 
BRANCH  28  29
ATOM     29  N   UNL     1       7.746   0.419   7.378  1.00  0.00    -0.261 N 
ATOM     30  C   UNL     1       6.913   1.502   7.289  1.00  0.00     0.194 A 
ATOM     31  N   UNL     1       9.048   0.774   7.492  1.00  0.00    -0.174 NA
ATOM     32  C   UNL     1       7.715   2.616   7.391  1.00  0.00     0.307 A 
ATOM     33  C   UNL     1       9.020   2.112   7.478  1.00  0.00     0.220 A 
BRANCH  32  34
ATOM     34  N   UNL     1       7.291   3.978   7.437  1.00  0.00     0.066 N 
ATOM     35  O   UNL     1       8.176   4.840   7.367  1.00  0.00    -0.258 OA
ATOM     36  O   UNL     1       6.080   4.190   7.582  1.00  0.00    -0.258 OA
ENDBRANCH  32  34
ENDBRANCH  28  29
ENDBRANCH  23  28
ENDBRANCH   6  20
ENDBRANCH   3   5
ENDBRANCH   2   3
ENDBRANCH   1   2
BRANCH   1  37
ATOM     37  C   UNL     1       5.859  -4.422   8.886  1.00  0.00     0.275 C 
BRANCH  37  38
ATOM     38  O   UNL     1       5.441  -5.311   9.929  1.00  0.00    -0.458 OA
BRANCH  38  39
ATOM     39  C   UNL     1       4.359  -4.855  10.591  1.00  0.00     0.338 C 
ATOM     40  O   UNL     1       4.045  -3.695  10.793  1.00  0.00    -0.246 OA
BRANCH  39  41
ATOM     41  C   UNL     1       3.441  -5.971  10.781  1.00  0.00     0.060 A 
ATOM     42  C   UNL     1       2.123  -5.823  10.328  1.00  0.00     0.016 A 
ATOM     43  C   UNL     1       3.874  -7.130  11.414  1.00  0.00     0.016 A 
ATOM     44  C   UNL     1       1.195  -6.813  10.580  1.00  0.00     0.010 A 
ATOM     45  C   UNL     1       2.949  -8.128  11.660  1.00  0.00     0.010 A 
ATOM     46  C   UNL     1       1.606  -7.943  11.286  1.00  0.00    -0.014 A 
BRANCH  46  47
ATOM     47  C   UNL     1       0.604  -8.879  11.802  1.00  0.00     0.031 A 
ATOM     48  C   UNL     1       0.285  -8.818  13.261  1.00  0.00     0.074 A 
ATOM     49  C   UNL     1       0.049  -9.768  10.969  1.00  0.00     0.049 A 
ATOM     50  N   UNL     1      -0.401  -9.649  13.994  1.00  0.00    -0.248 NA
ATOM     51  C   UNL     1       0.844  -7.673  14.004  1.00  0.00     0.031 C 
ATOM     52  C   UNL     1       0.281  -9.834   9.525  1.00  0.00     0.029 A 
ATOM     53  N   UNL     1      -0.804 -10.801  11.226  1.00  0.00    -0.354 N 
ATOM     54  C   UNL     1      -0.332  -9.147  15.286  1.00  0.00     0.074 A 
ATOM     55  C   UNL     1       0.490  -7.959  15.246  1.00  0.00     0.031 C 
ATOM     56  C   UNL     1      -0.405 -10.872   9.024  1.00  0.00     0.029 A 
ATOM     57  C   UNL     1      -1.073 -11.564  10.120  1.00  0.00     0.049 A 
ATOM     58  H   UNL     1      -1.187 -10.980  12.115  1.00  0.00     0.167 HD
ATOM     59  C   UNL     1      -0.912  -9.646  16.401  1.00  0.00     0.037 A 
ATOM     60  C   UNL     1      -1.758 -12.717  10.030  1.00  0.00     0.037 A 
ATOM     61  C   UNL     1      -1.715 -10.840  16.390  1.00  0.00     0.049 A 
ATOM     62  C   UNL     1      -2.339 -13.288  11.292  1.00  0.00     0.074 A 
ATOM     63  C   UNL     1      -2.361 -11.463  17.439  1.00  0.00     0.029 A 
ATOM     64  N   UNL     1      -1.974 -11.595  15.250  1.00  0.00    -0.354 N 
ATOM     65  N   UNL     1      -2.270 -12.824  12.520  1.00  0.00    -0.248 NA
ATOM     66  C   UNL     1      -3.092 -14.538  11.160  1.00  0.00     0.031 C 
ATOM     67  C   UNL     1      -2.970 -12.621  16.943  1.00  0.00     0.029 A 
ATOM     68  C   UNL     1      -2.757 -12.688  15.573  1.00  0.00     0.049 A 
ATOM     69  H   UNL     1      -1.647 -11.383  14.346  1.00  0.00     0.167 HD
ATOM     70  C   UNL     1      -3.002 -13.704  13.303  1.00  0.00     0.074 A 
ATOM     71  C   UNL     1      -3.510 -14.725  12.404  1.00  0.00     0.031 C 
ATOM     72  C   UNL     1      -3.243 -13.675  14.639  1.00  0.00     0.037 A 
BRANCH  59  73
ATOM     73  C   UNL     1      -0.654  -8.926  17.694  1.00  0.00     0.057 A 
ATOM     74  C   UNL     1      -1.136  -7.632  17.938  1.00  0.00     0.134 A 
ATOM     75  C   UNL     1       0.115  -9.523  18.702  1.00  0.00     0.134 A 
ATOM     76  F   UNL     1      -1.859  -6.989  17.008  1.00  0.00    -0.206 F 
ATOM     77  C   UNL     1      -0.832  -6.945  19.116  1.00  0.00     0.040 A 
ATOM     78  C   UNL     1       0.399  -8.859  19.898  1.00  0.00     0.040 A 
ATOM     79  F   UNL     1       0.614 -10.757  18.539  1.00  0.00    -0.206 F 
ATOM     80  C   UNL     1      -0.065  -7.561  20.102  1.00  0.00     0.006 A 
ENDBRANCH  59  73
BRANCH  60  81
ATOM     81  C   UNL     1      -1.933 -13.371   8.712  1.00  0.00     0.057 A 
ATOM     82  C   UNL     1      -3.186 -13.406   8.093  1.00  0.00     0.134 A 
ATOM     83  C   UNL     1      -0.855 -13.938   8.020  1.00  0.00     0.134 A 
ATOM     84  F   UNL     1      -4.257 -12.885   8.710  1.00  0.00    -0.206 F 
ATOM     85  C   UNL     1      -3.368 -13.993   6.840  1.00  0.00     0.040 A 
ATOM     86  C   UNL     1      -1.016 -14.505   6.754  1.00  0.00     0.040 A 
ATOM     87  F   UNL     1       0.377 -13.922   8.550  1.00  0.00    -0.206 F 
ATOM     88  C   UNL     1      -2.278 -14.538   6.164  1.00  0.00     0.006 A 
ENDBRANCH  60  81
BRANCH  72  89
ATOM     89  C   UNL     1      -4.136 -14.751  15.182  1.00  0.00     0.057 A 
ATOM     90  C   UNL     1      -3.718 -16.083  15.286  1.00  0.00     0.134 A 
ATOM     91  C   UNL     1      -5.423 -14.435  15.633  1.00  0.00     0.134 A 
ATOM     92  F   UNL     1      -2.500 -16.450  14.858  1.00  0.00    -0.206 F 
ATOM     93  C   UNL     1      -4.562 -17.070  15.793  1.00  0.00     0.040 A 
ATOM     94  C   UNL     1      -6.264 -15.407  16.173  1.00  0.00     0.040 A 
ATOM     95  F   UNL     1      -5.878 -13.174  15.570  1.00  0.00    -0.206 F 
ATOM     96  C   UNL     1      -5.837 -16.731  16.245  1.00  0.00     0.006 A 
ENDBRANCH  72  89
ENDBRANCH  46  47
ENDBRANCH  39  41
ENDBRANCH  38  39
ENDBRANCH  37  38
ENDBRANCH   1  37
TORSDOF 16
