REMARK SMILES O=C(OCCOC(=O)c1cc(-c2ccccc2)nc(Nc2nc3ccccc3s2)n1)c1ccc(-c2c3nc(c(-c4c(F)cccc4F)c4ccc([nH]4)c(-c4c(F)cccc4F)c4nc(c(-c5c(F)cccc5F)c5ccc2[nH]5)C=C4)C=C3)cc1
REMARK SMILES IDX 4 1 3 2 2 3 1 4 31 5 32 6 84 7 33 8 83 9 34 10 35 11 36 12
REMARK SMILES IDX 77 13 37 14 82 15 76 16 78 17 38 18 81 19 75 20 74 21 39 23
REMARK SMILES IDX 65 24 48 25 64 26 49 27 52 28 63 29 79 30 50 31 51 32 62 34
REMARK SMILES IDX 80 35 53 36 40 37 41 38 46 39 42 40 43 41 45 42 47 43 44 44
REMARK SMILES IDX 66 45 67 46 72 47 68 48 69 49 71 50 73 51 70 52 54 53 55 54
REMARK SMILES IDX 60 55 56 56 57 57 59 58 61 59 58 60 5 61 6 62 7 63 8 64 9 65
REMARK SMILES IDX 10 66 30 67 11 68 19 69 18 70 12 71 13 72 17 73 14 74 16 75
REMARK SMILES IDX 15 76 20 77 21 79 22 80 29 81 23 82 28 83 24 84 27 85 25 86
REMARK SMILES IDX 26 87
REMARK H PARENT 78 22 52 33 20 78
REMARK Flexibility Score: inf
ROOT
ATOM      1  C   UNL     1       4.539  -0.996   1.167  1.00  0.00     0.275 C 
ENDROOT
BRANCH   1   2
ATOM      2  O   UNL     1       3.718   0.177   1.227  1.00  0.00    -0.458 OA
BRANCH   2   3
ATOM      3  C   UNL     1       3.309   1.006   0.244  1.00  0.00     0.338 C 
ATOM      4  O   UNL     1       2.335   1.710   0.479  1.00  0.00    -0.246 OA
BRANCH   3   5
ATOM      5  C   UNL     1       3.957   1.132  -1.106  1.00  0.00     0.060 A 
ATOM      6  C   UNL     1       5.168   0.557  -1.494  1.00  0.00     0.016 A 
ATOM      7  C   UNL     1       3.265   1.884  -2.071  1.00  0.00     0.016 A 
ATOM      8  C   UNL     1       5.652   0.683  -2.801  1.00  0.00     0.010 A 
ATOM      9  C   UNL     1       3.720   1.987  -3.390  1.00  0.00     0.010 A 
ATOM     10  C   UNL     1       4.938   1.403  -3.758  1.00  0.00    -0.014 A 
BRANCH  10  11
ATOM     11  C   UNL     1       5.574   1.755  -5.051  1.00  0.00     0.031 A 
ATOM     12  C   UNL     1       6.001   3.187  -5.233  1.00  0.00     0.074 A 
ATOM     13  C   UNL     1       5.818   0.836  -6.008  1.00  0.00     0.049 A 
ATOM     14  N   UNL     1       6.510   3.775  -6.282  1.00  0.00    -0.248 NA
ATOM     15  C   UNL     1       5.859   4.071  -4.060  1.00  0.00     0.031 C 
ATOM     16  C   UNL     1       5.567  -0.601  -5.897  1.00  0.00     0.029 A 
ATOM     17  N   UNL     1       6.299   0.984  -7.289  1.00  0.00    -0.354 N 
ATOM     18  C   UNL     1       6.790   5.074  -5.877  1.00  0.00     0.074 A 
ATOM     19  C   UNL     1       6.295   5.227  -4.531  1.00  0.00     0.031 C 
ATOM     20  C   UNL     1       5.800  -1.184  -7.089  1.00  0.00     0.029 A 
ATOM     21  C   UNL     1       6.187  -0.162  -8.051  1.00  0.00     0.049 A 
ATOM     22  H   UNL     1       6.684   1.823  -7.628  1.00  0.00     0.167 HD
ATOM     23  C   UNL     1       7.464   6.035  -6.550  1.00  0.00     0.037 A 
ATOM     24  C   UNL     1       6.309  -0.321  -9.386  1.00  0.00     0.037 A 
ATOM     25  C   UNL     1       7.935   5.862  -7.895  1.00  0.00     0.049 A 
ATOM     26  C   UNL     1       6.788   0.850 -10.192  1.00  0.00     0.074 A 
ATOM     27  C   UNL     1       8.691   6.721  -8.669  1.00  0.00     0.029 A 
ATOM     28  N   UNL     1       7.661   4.747  -8.674  1.00  0.00    -0.354 N 
ATOM     29  N   UNL     1       7.042   2.074  -9.803  1.00  0.00    -0.248 NA
ATOM     30  C   UNL     1       7.054   0.593 -11.613  1.00  0.00     0.031 C 
ATOM     31  C   UNL     1       8.815   6.154  -9.942  1.00  0.00     0.029 A 
ATOM     32  C   UNL     1       8.191   4.916  -9.939  1.00  0.00     0.049 A 
ATOM     33  H   UNL     1       7.163   3.954  -8.371  1.00  0.00     0.167 HD
ATOM     34  C   UNL     1       7.557   2.719 -10.916  1.00  0.00     0.074 A 
ATOM     35  C   UNL     1       7.516   1.768 -12.009  1.00  0.00     0.031 C 
ATOM     36  C   UNL     1       8.086   3.962 -11.011  1.00  0.00     0.037 A 
BRANCH  23  37
ATOM     37  C   UNL     1       7.713   7.329  -5.834  1.00  0.00     0.057 A 
ATOM     38  C   UNL     1       8.558   7.408  -4.715  1.00  0.00     0.134 A 
ATOM     39  C   UNL     1       7.084   8.508  -6.248  1.00  0.00     0.134 A 
ATOM     40  F   UNL     1       9.182   6.312  -4.254  1.00  0.00    -0.206 F 
ATOM     41  C   UNL     1       8.731   8.601  -4.010  1.00  0.00     0.040 A 
ATOM     42  C   UNL     1       7.273   9.713  -5.569  1.00  0.00     0.040 A 
ATOM     43  F   UNL     1       6.265   8.507  -7.310  1.00  0.00    -0.206 F 
ATOM     44  C   UNL     1       8.088   9.759  -4.440  1.00  0.00     0.006 A 
ENDBRANCH  23  37
BRANCH  24  45
ATOM     45  C   UNL     1       5.899  -1.566 -10.091  1.00  0.00     0.057 A 
ATOM     46  C   UNL     1       6.619  -2.759 -10.030  1.00  0.00     0.134 A 
ATOM     47  C   UNL     1       4.758  -1.554 -10.912  1.00  0.00     0.134 A 
ATOM     48  F   UNL     1       7.763  -2.824  -9.335  1.00  0.00    -0.206 F 
ATOM     49  C   UNL     1       6.186  -3.910 -10.701  1.00  0.00     0.040 A 
ATOM     50  C   UNL     1       4.311  -2.695 -11.585  1.00  0.00     0.040 A 
ATOM     51  F   UNL     1       4.044  -0.427 -11.055  1.00  0.00    -0.206 F 
ATOM     52  C   UNL     1       5.017  -3.886 -11.462  1.00  0.00     0.006 A 
ENDBRANCH  24  45
BRANCH  36  53
ATOM     53  C   UNL     1       8.719   4.308 -12.319  1.00  0.00     0.057 A 
ATOM     54  C   UNL     1       7.966   4.597 -13.461  1.00  0.00     0.134 A 
ATOM     55  C   UNL     1      10.115   4.331 -12.428  1.00  0.00     0.134 A 
ATOM     56  F   UNL     1       6.626   4.552 -13.423  1.00  0.00    -0.206 F 
ATOM     57  C   UNL     1       8.585   4.877 -14.679  1.00  0.00     0.040 A 
ATOM     58  C   UNL     1      10.744   4.641 -13.630  1.00  0.00     0.040 A 
ATOM     59  F   UNL     1      10.887   4.052 -11.366  1.00  0.00    -0.206 F 
ATOM     60  C   UNL     1       9.977   4.907 -14.763  1.00  0.00     0.006 A 
ENDBRANCH  36  53
ENDBRANCH  10  11
ENDBRANCH   3   5
ENDBRANCH   2   3
ENDBRANCH   1   2
BRANCH   1  61
ATOM     61  C   UNL     1       3.962  -2.158   0.353  1.00  0.00     0.275 C 
BRANCH  61  62
ATOM     62  O   UNL     1       3.378  -1.747  -0.893  1.00  0.00    -0.457 OA
BRANCH  62  63
ATOM     63  C   UNL     1       2.011  -1.683  -0.930  1.00  0.00     0.357 C 
ATOM     64  O   UNL     1       1.253  -2.070  -0.068  1.00  0.00    -0.244 OA
BRANCH  63  65
ATOM     65  C   UNL     1       1.604  -1.046  -2.216  1.00  0.00     0.154 A 
ATOM     66  C   UNL     1       2.168  -1.488  -3.378  1.00  0.00     0.065 A 
ATOM     67  N   UNL     1       0.689  -0.057  -2.161  1.00  0.00    -0.206 NA
ATOM     68  C   UNL     1       1.683  -0.899  -4.520  1.00  0.00     0.077 A 
ATOM     69  C   UNL     1       0.354   0.540  -3.316  1.00  0.00     0.230 A 
ATOM     70  N   UNL     1       0.791   0.112  -4.503  1.00  0.00    -0.213 NA
BRANCH  68  71
ATOM     71  C   UNL     1       2.061  -1.389  -5.842  1.00  0.00     0.000 A 
ATOM     72  C   UNL     1       2.305  -0.505  -6.901  1.00  0.00     0.010 A 
ATOM     73  C   UNL     1       2.178  -2.773  -6.073  1.00  0.00     0.010 A 
ATOM     74  C   UNL     1       2.651  -0.995  -8.155  1.00  0.00     0.001 A 
ATOM     75  C   UNL     1       2.541  -3.263  -7.317  1.00  0.00     0.001 A 
ATOM     76  C   UNL     1       2.760  -2.371  -8.355  1.00  0.00     0.000 A 
ENDBRANCH  68  71
BRANCH  69  77
ATOM     77  N   UNL     1      -0.514   1.623  -3.356  1.00  0.00    -0.300 N 
ATOM     78  H   UNL     1      -0.899   1.880  -4.225  1.00  0.00     0.172 HD
BRANCH  77  79
ATOM     79  C   UNL     1      -0.856   2.337  -2.273  1.00  0.00     0.190 A 
ATOM     80  N   UNL     1      -0.005   2.787  -1.383  1.00  0.00    -0.220 NA
ATOM     81  S   UNL     1      -2.493   2.758  -1.954  1.00  0.00    -0.097 S 
ATOM     82  C   UNL     1      -0.668   3.142  -0.231  1.00  0.00     0.084 A 
ATOM     83  C   UNL     1      -2.058   3.130  -0.326  1.00  0.00     0.056 A 
ATOM     84  C   UNL     1      -0.071   3.450   1.005  1.00  0.00     0.030 A 
ATOM     85  C   UNL     1      -2.873   3.374   0.790  1.00  0.00     0.021 A 
ATOM     86  C   UNL     1      -0.866   3.614   2.137  1.00  0.00     0.002 A 
ATOM     87  C   UNL     1      -2.251   3.572   2.029  1.00  0.00     0.002 A 
ENDBRANCH  77  79
ENDBRANCH  69  77
ENDBRANCH  63  65
ENDBRANCH  62  63
ENDBRANCH  61  62
ENDBRANCH   1  61
TORSDOF 14
