REMARK SMILES CC1(C)[C@H](C(=O)Nc2ccc(C(=O)NCCc3ccccc3)cc2)[C@H]1C(=O)OCCOC(=O)c1ccc(-c2c3nc(c(-c4c(F)cccc4F)c4ccc([nH]4)c(-c4c(F)cccc4F)c4nc(c(-c5c(F)cccc5F)c5ccc2[nH]5)C=C4)C=C3)cc1
REMARK SMILES IDX 26 1 27 2 25 3 1 4 2 5 3 6 4 7 5 8 6 9 7 10 8 12 9 13 24 14
REMARK SMILES IDX 10 15 23 16 11 17 12 18 13 19 14 20 15 22 16 23 17 24 18 25
REMARK SMILES IDX 22 26 19 27 21 28 20 29 28 30 29 31 30 32 31 33 32 34 33 35
REMARK SMILES IDX 34 36 35 37 87 38 36 39 86 40 37 41 38 42 39 43 80 44 40 45
REMARK SMILES IDX 85 46 79 47 81 48 41 49 84 50 78 51 77 52 42 54 68 55 51 56
REMARK SMILES IDX 67 57 52 58 55 59 66 60 82 61 53 62 54 63 65 65 83 66 56 67
REMARK SMILES IDX 43 68 44 69 49 70 45 71 46 72 48 73 50 74 47 75 69 76 70 77
REMARK SMILES IDX 75 78 71 79 72 80 74 81 76 82 73 83 57 84 58 85 63 86 59 87
REMARK SMILES IDX 60 88 62 89 64 90 61 91
REMARK H PARENT 7 11 14 21 81 53 55 64
REMARK Flexibility Score: inf
ROOT
ATOM      1  C   UNL     1      -2.059  -1.333   0.873  1.00  0.00     0.310 C 
ATOM      2  O   UNL     1      -3.274  -1.195   0.883  1.00  0.00    -0.252 OA
ENDROOT
BRANCH   1   3
ATOM      3  C   UNL     1      -1.192  -0.313   0.251  1.00  0.00     0.118 C 
ATOM      4  C   UNL     1       0.694  -1.987  -0.566  1.00  0.00     0.013 C 
ATOM      5  C   UNL     1       0.168  -0.584  -0.371  1.00  0.00    -0.009 C 
ATOM      6  C   UNL     1       1.253   0.357   0.079  1.00  0.00     0.013 C 
ATOM      7  C   UNL     1      -1.043  -0.210  -1.240  1.00  0.00     0.100 C 
BRANCH   7   8
ATOM      8  C   UNL     1      -1.279   1.059  -2.002  1.00  0.00     0.228 C 
ATOM      9  O   UNL     1      -1.261   1.016  -3.228  1.00  0.00    -0.274 OA
ATOM     10  N   UNL     1      -1.801   2.139  -1.325  1.00  0.00    -0.326 N 
ATOM     11  H   UNL     1      -2.779   2.248  -1.327  1.00  0.00     0.169 HD
BRANCH  10  12
ATOM     12  C   UNL     1      -1.045   3.098  -0.632  1.00  0.00     0.041 A 
ATOM     13  C   UNL     1      -1.688   3.926   0.286  1.00  0.00     0.027 A 
ATOM     14  C   UNL     1       0.334   3.214  -0.812  1.00  0.00     0.027 A 
ATOM     15  C   UNL     1      -0.926   4.706   1.162  1.00  0.00     0.016 A 
ATOM     16  C   UNL     1       1.097   3.989   0.064  1.00  0.00     0.016 A 
ATOM     17  C   UNL     1       0.471   4.651   1.117  1.00  0.00     0.039 A 
BRANCH  17  18
ATOM     18  C   UNL     1       1.226   5.287   2.219  1.00  0.00     0.251 C 
ATOM     19  O   UNL     1       0.878   6.392   2.621  1.00  0.00    -0.269 OA
ATOM     20  N   UNL     1       2.249   4.627   2.850  1.00  0.00    -0.352 N 
ATOM     21  H   UNL     1       2.675   5.143   3.572  1.00  0.00     0.163 HD
BRANCH  20  22
ATOM     22  C   UNL     1       2.823   3.299   2.648  1.00  0.00     0.121 C 
BRANCH  22  23
ATOM     23  C   UNL     1       4.242   3.375   2.067  1.00  0.00     0.057 C 
BRANCH  23  24
ATOM     24  C   UNL     1       5.247   3.827   3.101  1.00  0.00    -0.046 A 
ATOM     25  C   UNL     1       5.942   2.886   3.872  1.00  0.00     0.004 A 
ATOM     26  C   UNL     1       5.452   5.192   3.345  1.00  0.00     0.004 A 
ATOM     27  C   UNL     1       6.815   3.303   4.878  1.00  0.00     0.000 A 
ATOM     28  C   UNL     1       6.323   5.606   4.353  1.00  0.00     0.000 A 
ATOM     29  C   UNL     1       7.000   4.663   5.122  1.00  0.00     0.000 A 
ENDBRANCH  23  24
ENDBRANCH  22  23
ENDBRANCH  20  22
ENDBRANCH  17  18
ENDBRANCH  10  12
ENDBRANCH   7   8
ENDBRANCH   1   3
BRANCH   1  30
ATOM     30  O   UNL     1      -1.351  -2.289   1.518  1.00  0.00    -0.462 OA
BRANCH  30  31
ATOM     31  C   UNL     1      -2.074  -3.158   2.407  1.00  0.00     0.274 C 
BRANCH  31  32
ATOM     32  C   UNL     1      -1.476  -3.049   3.810  1.00  0.00     0.275 C 
BRANCH  32  33
ATOM     33  O   UNL     1      -1.716  -1.739   4.365  1.00  0.00    -0.458 OA
BRANCH  33  34
ATOM     34  C   UNL     1      -0.709  -0.852   4.200  1.00  0.00     0.338 C 
ATOM     35  O   UNL     1       0.376  -1.036   3.675  1.00  0.00    -0.246 OA
BRANCH  34  36
ATOM     36  C   UNL     1      -1.146   0.477   4.647  1.00  0.00     0.060 A 
ATOM     37  C   UNL     1      -1.555   1.379   3.672  1.00  0.00     0.016 A 
ATOM     38  C   UNL     1      -1.022   0.883   5.975  1.00  0.00     0.016 A 
ATOM     39  C   UNL     1      -1.768   2.710   4.003  1.00  0.00     0.010 A 
ATOM     40  C   UNL     1      -1.286   2.220   6.312  1.00  0.00     0.010 A 
ATOM     41  C   UNL     1      -1.623   3.158   5.321  1.00  0.00    -0.014 A 
BRANCH  41  42
ATOM     42  C   UNL     1      -1.764   4.614   5.610  1.00  0.00     0.031 A 
ATOM     43  C   UNL     1      -0.592   5.404   6.134  1.00  0.00     0.074 A 
ATOM     44  C   UNL     1      -2.918   5.252   5.330  1.00  0.00     0.049 A 
ATOM     45  N   UNL     1      -0.544   6.651   6.531  1.00  0.00    -0.248 NA
ATOM     46  C   UNL     1       0.691   4.692   6.244  1.00  0.00     0.031 C 
ATOM     47  C   UNL     1      -4.119   4.627   4.769  1.00  0.00     0.029 A 
ATOM     48  N   UNL     1      -3.266   6.575   5.457  1.00  0.00    -0.354 N 
ATOM     49  C   UNL     1       0.759   6.863   6.965  1.00  0.00     0.074 A 
ATOM     50  C   UNL     1       1.464   5.608   6.809  1.00  0.00     0.031 C 
ATOM     51  C   UNL     1      -5.051   5.570   4.563  1.00  0.00     0.029 A 
ATOM     52  C   UNL     1      -4.546   6.852   5.044  1.00  0.00     0.049 A 
ATOM     53  H   UNL     1      -2.654   7.260   5.812  1.00  0.00     0.167 HD
ATOM     54  C   UNL     1       1.319   7.999   7.447  1.00  0.00     0.037 A 
ATOM     55  C   UNL     1      -5.251   7.999   5.075  1.00  0.00     0.037 A 
ATOM     56  C   UNL     1       0.638   9.266   7.543  1.00  0.00     0.049 A 
ATOM     57  C   UNL     1      -4.618   9.239   5.639  1.00  0.00     0.074 A 
ATOM     58  C   UNL     1       1.124  10.473   8.016  1.00  0.00     0.029 A 
ATOM     59  N   UNL     1      -0.667   9.494   7.135  1.00  0.00    -0.354 N 
ATOM     60  N   UNL     1      -3.405   9.408   6.105  1.00  0.00    -0.248 NA
ATOM     61  C   UNL     1      -5.457  10.444   5.696  1.00  0.00     0.031 C 
ATOM     62  C   UNL     1       0.100  11.423   7.929  1.00  0.00     0.029 A 
ATOM     63  C   UNL     1      -1.010  10.818   7.364  1.00  0.00     0.049 A 
ATOM     64  H   UNL     1      -1.263   8.816   6.741  1.00  0.00     0.167 HD
ATOM     65  C   UNL     1      -3.328  10.739   6.492  1.00  0.00     0.074 A 
ATOM     66  C   UNL     1      -4.612  11.337   6.192  1.00  0.00     0.031 C 
ATOM     67  C   UNL     1      -2.288  11.403   7.052  1.00  0.00     0.037 A 
BRANCH  54  68
ATOM     68  C   UNL     1       2.732   7.920   7.946  1.00  0.00     0.057 A 
ATOM     69  C   UNL     1       3.829   7.814   7.083  1.00  0.00     0.134 A 
ATOM     70  C   UNL     1       2.998   7.991   9.321  1.00  0.00     0.134 A 
ATOM     71  F   UNL     1       3.647   7.723   5.757  1.00  0.00    -0.206 F 
ATOM     72  C   UNL     1       5.137   7.765   7.570  1.00  0.00     0.040 A 
ATOM     73  C   UNL     1       4.302   7.966   9.818  1.00  0.00     0.040 A 
ATOM     74  F   UNL     1       1.994   8.100  10.204  1.00  0.00    -0.206 F 
ATOM     75  C   UNL     1       5.377   7.848   8.941  1.00  0.00     0.006 A 
ENDBRANCH  54  68
BRANCH  55  76
ATOM     76  C   UNL     1      -6.652   8.022   4.582  1.00  0.00     0.057 A 
ATOM     77  C   UNL     1      -7.002   8.719   3.420  1.00  0.00     0.134 A 
ATOM     78  C   UNL     1      -7.675   7.351   5.264  1.00  0.00     0.134 A 
ATOM     79  F   UNL     1      -6.072   9.401   2.736  1.00  0.00    -0.206 F 
ATOM     80  C   UNL     1      -8.319   8.758   2.960  1.00  0.00     0.040 A 
ATOM     81  C   UNL     1      -8.991   7.358   4.800  1.00  0.00     0.040 A 
ATOM     82  F   UNL     1      -7.405   6.663   6.383  1.00  0.00    -0.206 F 
ATOM     83  C   UNL     1      -9.317   8.069   3.648  1.00  0.00     0.006 A 
ENDBRANCH  55  76
BRANCH  67  84
ATOM     84  C   UNL     1      -2.487  12.860   7.344  1.00  0.00     0.057 A 
ATOM     85  C   UNL     1      -3.286  13.298   8.408  1.00  0.00     0.134 A 
ATOM     86  C   UNL     1      -1.852  13.837   6.567  1.00  0.00     0.134 A 
ATOM     87  F   UNL     1      -3.933  12.412   9.181  1.00  0.00    -0.206 F 
ATOM     88  C   UNL     1      -3.465  14.656   8.674  1.00  0.00     0.040 A 
ATOM     89  C   UNL     1      -2.005  15.197   6.838  1.00  0.00     0.040 A 
ATOM     90  F   UNL     1      -1.067  13.485   5.538  1.00  0.00    -0.206 F 
ATOM     91  C   UNL     1      -2.819  15.610   7.890  1.00  0.00     0.006 A 
ENDBRANCH  67  84
ENDBRANCH  41  42
ENDBRANCH  34  36
ENDBRANCH  33  34
ENDBRANCH  32  33
ENDBRANCH  31  32
ENDBRANCH  30  31
ENDBRANCH   1  30
TORSDOF 17
