REMARK SMILES O=C(C[NH2+][C@H]1CCCC[C@H]1[N@H+](Cc1ccccc1)C1CC1)OCCOC(=O)c1ccc(-c2c3nc(c(-c4c(F)cccc4F)c4ccc([nH]4)c(-c4c(F)cccc4F)c4nc(c(-c5c(F)cccc5F)c5ccc2[nH]5)C=C4)C=C3)cc1
REMARK SMILES IDX 22 1 2 2 1 3 3 4 4 5 5 8 6 9 10 10 7 11 9 12 8 13 11 14
REMARK SMILES IDX 12 16 13 17 14 18 18 19 15 20 17 21 16 22 19 23 20 24 21 25
REMARK SMILES IDX 23 26 24 27 25 28 26 29 27 30 28 31 29 32 81 33 30 34 80 35
REMARK SMILES IDX 31 36 32 37 33 38 74 39 34 40 79 41 73 42 75 43 35 44 78 45
REMARK SMILES IDX 72 46 71 47 36 49 62 50 45 51 61 52 46 53 49 54 60 55 76 56
REMARK SMILES IDX 47 57 48 58 59 60 77 61 50 62 37 63 38 64 43 65 39 66 40 67
REMARK SMILES IDX 42 68 44 69 41 70 63 71 64 72 69 73 65 74 66 75 68 76 70 77
REMARK SMILES IDX 67 78 51 79 52 80 57 81 53 82 54 83 56 84 58 85 55 86
REMARK H PARENT 4 6 4 7 11 15 75 48 49 59
REMARK Flexibility Score: inf
ROOT
ATOM      1  O   UNL     1       1.240  -0.269  -5.436  1.00  0.00    -0.458 OA
ENDROOT
BRANCH   1   2
ATOM      2  C   UNL     1       2.566  -0.081  -5.627  1.00  0.00     0.361 C 
ATOM      3  O   UNL     1       2.999   0.166  -6.752  1.00  0.00    -0.245 OA
BRANCH   2   4
ATOM      4  C   UNL     1       3.511  -0.171  -4.426  1.00  0.00     0.385 C 
BRANCH   4   5
ATOM      5  N   UNL     1       3.228   0.868  -3.445  1.00  0.00    -0.330 N 
ATOM      6  H   UNL     1       2.333   0.641  -3.012  1.00  0.00     0.347 HD
ATOM      7  H   UNL     1       3.253   1.737  -3.979  1.00  0.00     0.347 HD
BRANCH   5   8
ATOM      8  C   UNL     1       4.196   1.074  -2.366  1.00  0.00     0.241 C 
ATOM      9  C   UNL     1       4.334  -0.172  -1.454  1.00  0.00     0.071 C 
ATOM     10  C   UNL     1       5.575   1.731  -2.749  1.00  0.00     0.243 C 
ATOM     11  C   UNL     1       5.377  -1.183  -1.901  1.00  0.00     0.007 C 
ATOM     12  C   UNL     1       6.616   0.617  -3.103  1.00  0.00     0.071 C 
ATOM     13  C   UNL     1       6.715  -0.511  -2.088  1.00  0.00     0.007 C 
BRANCH  10  14
ATOM     14  N   UNL     1       5.715   2.814  -3.767  1.00  0.00    -0.321 N 
ATOM     15  H   UNL     1       5.374   2.087  -4.396  1.00  0.00     0.349 HD
BRANCH  14  16
ATOM     16  C   UNL     1       7.050   3.472  -3.685  1.00  0.00     0.299 C 
BRANCH  16  17
ATOM     17  C   UNL     1       7.906   3.291  -4.924  1.00  0.00     0.006 A 
ATOM     18  C   UNL     1       7.691   2.249  -5.840  1.00  0.00     0.009 A 
ATOM     19  C   UNL     1       9.005   4.136  -5.126  1.00  0.00     0.009 A 
ATOM     20  C   UNL     1       8.560   2.031  -6.905  1.00  0.00     0.001 A 
ATOM     21  C   UNL     1       9.870   3.928  -6.203  1.00  0.00     0.001 A 
ATOM     22  C   UNL     1       9.655   2.869  -7.083  1.00  0.00     0.000 A 
ENDBRANCH  16  17
ENDBRANCH  14  16
BRANCH  14  23
ATOM     23  C   UNL     1       4.753   3.720  -4.440  1.00  0.00     0.185 C 
ATOM     24  C   UNL     1       4.361   3.181  -5.819  1.00  0.00     0.071 C 
ATOM     25  C   UNL     1       3.328   3.737  -4.911  1.00  0.00     0.071 C 
ENDBRANCH  14  23
ENDBRANCH  10  14
ENDBRANCH   5   8
ENDBRANCH   4   5
ENDBRANCH   2   4
ENDBRANCH   1   2
BRANCH   1  26
ATOM     26  C   UNL     1       0.685  -0.869  -4.250  1.00  0.00     0.274 C 
BRANCH  26  27
ATOM     27  C   UNL     1       0.670  -2.398  -4.353  1.00  0.00     0.275 C 
BRANCH  27  28
ATOM     28  O   UNL     1       2.007  -2.939  -4.314  1.00  0.00    -0.458 OA
BRANCH  28  29
ATOM     29  C   UNL     1       2.576  -3.263  -5.512  1.00  0.00     0.338 C 
ATOM     30  O   UNL     1       2.035  -3.271  -6.590  1.00  0.00    -0.246 OA
BRANCH  29  31
ATOM     31  C   UNL     1       4.048  -3.420  -5.312  1.00  0.00     0.060 A 
ATOM     32  C   UNL     1       4.927  -2.894  -6.272  1.00  0.00     0.016 A 
ATOM     33  C   UNL     1       4.564  -4.013  -4.160  1.00  0.00     0.016 A 
ATOM     34  C   UNL     1       6.320  -2.983  -6.094  1.00  0.00     0.010 A 
ATOM     35  C   UNL     1       5.951  -4.081  -3.976  1.00  0.00     0.010 A 
ATOM     36  C   UNL     1       6.848  -3.595  -4.951  1.00  0.00    -0.014 A 
BRANCH  36  37
ATOM     37  C   UNL     1       8.301  -3.911  -4.791  1.00  0.00     0.031 A 
ATOM     38  C   UNL     1       8.714  -5.360  -4.805  1.00  0.00     0.074 A 
ATOM     39  C   UNL     1       9.245  -2.982  -4.538  1.00  0.00     0.049 A 
ATOM     40  N   UNL     1       9.861  -5.906  -4.488  1.00  0.00    -0.248 NA
ATOM     41  C   UNL     1       7.684  -6.322  -5.231  1.00  0.00     0.031 C 
ATOM     42  C   UNL     1       9.056  -1.538  -4.555  1.00  0.00     0.029 A 
ATOM     43  N   UNL     1      10.554  -3.138  -4.135  1.00  0.00    -0.354 N 
ATOM     44  C   UNL     1       9.693  -7.268  -4.691  1.00  0.00     0.074 A 
ATOM     45  C   UNL     1       8.310  -7.475  -5.064  1.00  0.00     0.031 C 
ATOM     46  C   UNL     1      10.153  -0.943  -4.053  1.00  0.00     0.029 A 
ATOM     47  C   UNL     1      11.134  -1.967  -3.702  1.00  0.00     0.049 A 
ATOM     48  H   UNL     1      11.027  -4.001  -4.155  1.00  0.00     0.167 HD
ATOM     49  C   UNL     1      10.613  -8.260  -4.631  1.00  0.00     0.037 A 
ATOM     50  C   UNL     1      12.305  -1.747  -3.068  1.00  0.00     0.037 A 
ATOM     51  C   UNL     1      11.994  -8.076  -4.282  1.00  0.00     0.049 A 
ATOM     52  C   UNL     1      13.278  -2.878  -2.857  1.00  0.00     0.074 A 
ATOM     53  C   UNL     1      13.015  -9.010  -4.281  1.00  0.00     0.029 A 
ATOM     54  N   UNL     1      12.545  -6.879  -3.856  1.00  0.00    -0.354 N 
ATOM     55  N   UNL     1      13.145  -4.147  -3.152  1.00  0.00    -0.248 NA
ATOM     56  C   UNL     1      14.585  -2.537  -2.271  1.00  0.00     0.031 C 
ATOM     57  C   UNL     1      14.175  -8.389  -3.806  1.00  0.00     0.029 A 
ATOM     58  C   UNL     1      13.884  -7.058  -3.554  1.00  0.00     0.049 A 
ATOM     59  H   UNL     1      12.057  -6.027  -3.780  1.00  0.00     0.167 HD
ATOM     60  C   UNL     1      14.371  -4.737  -2.864  1.00  0.00     0.074 A 
ATOM     61  C   UNL     1      15.226  -3.697  -2.335  1.00  0.00     0.031 C 
ATOM     62  C   UNL     1      14.754  -6.022  -3.058  1.00  0.00     0.037 A 
BRANCH  49  63
ATOM     63  C   UNL     1      10.136  -9.637  -4.975  1.00  0.00     0.057 A 
ATOM     64  C   UNL     1       9.781  -9.982  -6.288  1.00  0.00     0.134 A 
ATOM     65  C   UNL     1      10.007 -10.620  -3.988  1.00  0.00     0.134 A 
ATOM     66  F   UNL     1       9.869  -9.077  -7.275  1.00  0.00    -0.206 F 
ATOM     67  C   UNL     1       9.270 -11.241  -6.597  1.00  0.00     0.040 A 
ATOM     68  C   UNL     1       9.524 -11.893  -4.291  1.00  0.00     0.040 A 
ATOM     69  F   UNL     1      10.336 -10.355  -2.715  1.00  0.00    -0.206 F 
ATOM     70  C   UNL     1       9.142 -12.202  -5.596  1.00  0.00     0.006 A 
ENDBRANCH  49  63
BRANCH  50  71
ATOM     71  C   UNL     1      12.641  -0.385  -2.582  1.00  0.00     0.057 A 
ATOM     72  C   UNL     1      13.589   0.408  -3.236  1.00  0.00     0.134 A 
ATOM     73  C   UNL     1      12.060   0.129  -1.416  1.00  0.00     0.134 A 
ATOM     74  F   UNL     1      14.203  -0.046  -4.338  1.00  0.00    -0.206 F 
ATOM     75  C   UNL     1      13.964   1.658  -2.738  1.00  0.00     0.040 A 
ATOM     76  C   UNL     1      12.414   1.383  -0.915  1.00  0.00     0.040 A 
ATOM     77  F   UNL     1      11.151  -0.588  -0.739  1.00  0.00    -0.206 F 
ATOM     78  C   UNL     1      13.375   2.149  -1.574  1.00  0.00     0.006 A 
ENDBRANCH  50  71
BRANCH  62  79
ATOM     79  C   UNL     1      16.184  -6.386  -2.783  1.00  0.00     0.057 A 
ATOM     80  C   UNL     1      16.686  -6.521  -1.484  1.00  0.00     0.134 A 
ATOM     81  C   UNL     1      17.051  -6.686  -3.844  1.00  0.00     0.134 A 
ATOM     82  F   UNL     1      15.915  -6.236  -0.424  1.00  0.00    -0.206 F 
ATOM     83  C   UNL     1      17.998  -6.939  -1.249  1.00  0.00     0.040 A 
ATOM     84  C   UNL     1      18.356  -7.127  -3.622  1.00  0.00     0.040 A 
ATOM     85  F   UNL     1      16.632  -6.582  -5.114  1.00  0.00    -0.206 F 
ATOM     86  C   UNL     1      18.834  -7.254  -2.320  1.00  0.00     0.006 A 
ENDBRANCH  62  79
ENDBRANCH  36  37
ENDBRANCH  29  31
ENDBRANCH  28  29
ENDBRANCH  27  28
ENDBRANCH  26  27
ENDBRANCH   1  26
TORSDOF 17
