REMARK SMILES CC[C@H]1CC[C@](CC(C)(C)O)(C(=O)OCCOC(=O)c2ccc(-c3c4nc(c(-c5c(F)cccc5F)c5ccc([nH]5)c(-c5c(F)cccc5F)c5nc(c(-c6c(F)cccc6F)c6ccc3[nH]6)C=C5)C=C4)cc2)C1
REMARK SMILES IDX 15 1 14 2 12 3 13 4 6 5 3 6 4 7 74 8 5 9 2 10 1 11 7 12 8 13
REMARK SMILES IDX 9 14 10 15 11 16 16 18 17 19 18 20 19 21 20 22 21 23 73 24
REMARK SMILES IDX 22 25 72 26 23 27 24 28 25 29 66 30 26 31 71 32 65 33 67 34
REMARK SMILES IDX 27 35 70 36 64 37 63 38 28 40 54 41 37 42 53 43 38 44 41 45
REMARK SMILES IDX 52 46 68 47 39 48 40 49 51 51 69 52 42 53 29 54 30 55 35 56
REMARK SMILES IDX 31 57 32 58 34 59 36 60 33 61 55 62 56 63 61 64 57 65 58 66
REMARK SMILES IDX 60 67 62 68 59 69 43 70 44 71 49 72 45 73 46 74 48 75 50 76
REMARK SMILES IDX 47 77
REMARK H PARENT 11 17 67 39 41 50
REMARK Flexibility Score: inf
ROOT
ATOM      1  C   UNL     1       6.064   1.468   3.570  1.00  0.00     0.274 C 
ENDROOT
BRANCH   1   2
ATOM      2  O   UNL     1       4.705   0.991   3.493  1.00  0.00    -0.462 OA
BRANCH   2   3
ATOM      3  C   UNL     1       3.741   1.891   3.831  1.00  0.00     0.312 C 
ATOM      4  O   UNL     1       3.973   3.068   4.084  1.00  0.00    -0.252 OA
BRANCH   3   5
ATOM      5  C   UNL     1       2.358   1.238   4.010  1.00  0.00     0.071 C 
ATOM      6  C   UNL     1       0.557   0.549   2.446  1.00  0.00    -0.010 C 
ATOM      7  C   UNL     1       0.515   2.064   2.559  1.00  0.00     0.005 C 
ATOM      8  C   UNL     1       2.007   0.257   2.864  1.00  0.00     0.022 C 
ATOM      9  C   UNL     1       1.267   2.361   3.853  1.00  0.00     0.019 C 
BRANCH   6  10
ATOM     10  C   UNL     1      -0.462  -0.179   3.339  1.00  0.00     0.000 C 
ATOM     11  C   UNL     1      -1.912   0.107   2.979  1.00  0.00     0.004 C 
ENDBRANCH   6  10
BRANCH   5  12
ATOM     12  C   UNL     1       2.333   0.696   5.478  1.00  0.00     0.053 C 
BRANCH  12  13
ATOM     13  C   UNL     1       2.617  -0.791   5.802  1.00  0.00     0.060 C 
ATOM     14  C   UNL     1       3.915  -1.357   5.230  1.00  0.00     0.042 C 
ATOM     15  C   UNL     1       2.640  -0.954   7.331  1.00  0.00     0.042 C 
BRANCH  13  16
ATOM     16  O   UNL     1       1.523  -1.571   5.320  1.00  0.00    -0.390 OA
ATOM     17  H   UNL     1       1.473  -1.495   4.355  1.00  0.00     0.211 HD
ENDBRANCH  13  16
ENDBRANCH  12  13
ENDBRANCH   5  12
ENDBRANCH   3   5
ENDBRANCH   2   3
ENDBRANCH   1   2
BRANCH   1  18
ATOM     18  C   UNL     1       6.628   1.829   2.199  1.00  0.00     0.275 C 
BRANCH  18  19
ATOM     19  O   UNL     1       5.929   2.949   1.633  1.00  0.00    -0.458 OA
BRANCH  19  20
ATOM     20  C   UNL     1       5.013   2.636   0.691  1.00  0.00     0.338 C 
ATOM     21  O   UNL     1       4.737   1.533   0.248  1.00  0.00    -0.246 OA
BRANCH  20  22
ATOM     22  C   UNL     1       4.337   3.861   0.255  1.00  0.00     0.060 A 
ATOM     23  C   UNL     1       3.215   4.302   0.957  1.00  0.00     0.016 A 
ATOM     24  C   UNL     1       4.745   4.500  -0.914  1.00  0.00     0.016 A 
ATOM     25  C   UNL     1       2.457   5.361   0.463  1.00  0.00     0.010 A 
ATOM     26  C   UNL     1       4.012   5.591  -1.382  1.00  0.00     0.010 A 
ATOM     27  C   UNL     1       2.848   6.013  -0.712  1.00  0.00    -0.014 A 
BRANCH  27  28
ATOM     28  C   UNL     1       2.029   7.105  -1.290  1.00  0.00     0.031 A 
ATOM     29  C   UNL     1       1.345   6.895  -2.610  1.00  0.00     0.074 A 
ATOM     30  C   UNL     1       1.930   8.290  -0.660  1.00  0.00     0.049 A 
ATOM     31  N   UNL     1       0.799   7.773  -3.410  1.00  0.00    -0.248 NA
ATOM     32  C   UNL     1       1.276   5.508  -3.097  1.00  0.00     0.031 C 
ATOM     33  C   UNL     1       2.492   8.601   0.654  1.00  0.00     0.029 A 
ATOM     34  N   UNL     1       1.337   9.461  -1.058  1.00  0.00    -0.354 N 
ATOM     35  C   UNL     1       0.366   7.055  -4.517  1.00  0.00     0.074 A 
ATOM     36  C   UNL     1       0.707   5.667  -4.283  1.00  0.00     0.031 C 
ATOM     37  C   UNL     1       2.225   9.883   0.951  1.00  0.00     0.029 A 
ATOM     38  C   UNL     1       1.538  10.498  -0.180  1.00  0.00     0.049 A 
ATOM     39  H   UNL     1       0.819   9.550  -1.891  1.00  0.00     0.167 HD
ATOM     40  C   UNL     1      -0.252   7.517  -5.630  1.00  0.00     0.037 A 
ATOM     41  C   UNL     1       1.247  11.807  -0.298  1.00  0.00     0.037 A 
ATOM     42  C   UNL     1      -0.616   8.894  -5.838  1.00  0.00     0.049 A 
ATOM     43  C   UNL     1       0.603  12.307  -1.561  1.00  0.00     0.074 A 
ATOM     44  C   UNL     1      -1.241   9.467  -6.932  1.00  0.00     0.029 A 
ATOM     45  N   UNL     1      -0.397   9.912  -4.922  1.00  0.00    -0.354 N 
ATOM     46  N   UNL     1       0.249  11.635  -2.629  1.00  0.00    -0.248 NA
ATOM     47  C   UNL     1       0.334  13.750  -1.642  1.00  0.00     0.031 C 
ATOM     48  C   UNL     1      -1.378  10.838  -6.687  1.00  0.00     0.029 A 
ATOM     49  C   UNL     1      -0.871  11.110  -5.427  1.00  0.00     0.049 A 
ATOM     50  H   UNL     1       0.031   9.798  -4.043  1.00  0.00     0.167 HD
ATOM     51  C   UNL     1      -0.305  12.565  -3.498  1.00  0.00     0.074 A 
ATOM     52  C   UNL     1      -0.244  13.850  -2.831  1.00  0.00     0.031 C 
ATOM     53  C   UNL     1      -0.819  12.373  -4.737  1.00  0.00     0.037 A 
BRANCH  40  54
ATOM     54  C   UNL     1      -0.538   6.532  -6.722  1.00  0.00     0.057 A 
ATOM     55  C   UNL     1      -1.570   5.592  -6.623  1.00  0.00     0.134 A 
ATOM     56  C   UNL     1       0.214   6.546  -7.904  1.00  0.00     0.134 A 
ATOM     57  F   UNL     1      -2.317   5.517  -5.511  1.00  0.00    -0.206 F 
ATOM     58  C   UNL     1      -1.833   4.688  -7.655  1.00  0.00     0.040 A 
ATOM     59  C   UNL     1      -0.053   5.662  -8.950  1.00  0.00     0.040 A 
ATOM     60  F   UNL     1       1.216   7.425  -8.063  1.00  0.00    -0.206 F 
ATOM     61  C   UNL     1      -1.077   4.727  -8.825  1.00  0.00     0.006 A 
ENDBRANCH  40  54
BRANCH  41  62
ATOM     62  C   UNL     1       1.602  12.743   0.796  1.00  0.00     0.057 A 
ATOM     63  C   UNL     1       0.615  13.321   1.600  1.00  0.00     0.134 A 
ATOM     64  C   UNL     1       2.935  13.075   1.069  1.00  0.00     0.134 A 
ATOM     65  F   UNL     1      -0.681  13.059   1.372  1.00  0.00    -0.206 F 
ATOM     66  C   UNL     1       0.938  14.202   2.633  1.00  0.00     0.040 A 
ATOM     67  C   UNL     1       3.274  13.936   2.113  1.00  0.00     0.040 A 
ATOM     68  F   UNL     1       3.927  12.552   0.334  1.00  0.00    -0.206 F 
ATOM     69  C   UNL     1       2.273  14.506   2.896  1.00  0.00     0.006 A 
ENDBRANCH  41  62
BRANCH  53  70
ATOM     70  C   UNL     1      -1.402  13.566  -5.429  1.00  0.00     0.057 A 
ATOM     71  C   UNL     1      -0.595  14.535  -6.035  1.00  0.00     0.134 A 
ATOM     72  C   UNL     1      -2.790  13.714  -5.535  1.00  0.00     0.134 A 
ATOM     73  F   UNL     1       0.742  14.453  -5.956  1.00  0.00    -0.206 F 
ATOM     74  C   UNL     1      -1.150  15.620  -6.715  1.00  0.00     0.040 A 
ATOM     75  C   UNL     1      -3.357  14.784  -6.228  1.00  0.00     0.040 A 
ATOM     76  F   UNL     1      -3.616  12.814  -4.980  1.00  0.00    -0.206 F 
ATOM     77  C   UNL     1      -2.535  15.742  -6.819  1.00  0.00     0.006 A 
ENDBRANCH  53  70
ENDBRANCH  27  28
ENDBRANCH  20  22
ENDBRANCH  19  20
ENDBRANCH  18  19
ENDBRANCH   1  18
TORSDOF 15
