REMARK SMILES Cc1cccc(N2C(=O)/C(=C/c3cccn3-c3cccc(C(=O)OCCOC(=O)c4ccc(-c5c6nc(c(-c7c(F)cccc7F)c7ccc([nH]7)c(-c7c(F)cccc7F)c7nc(c(-c8c(F)cccc8F)c8ccc5[nH]8)C=C7)C=C6)cc4)c3)C(O)=NC2=S)c1C
REMARK SMILES IDX 25 1 24 2 22 3 23 4 21 5 17 6 18 7 84 8 19 9 20 10 16 11
REMARK SMILES IDX 12 12 13 13 14 14 15 15 11 16 7 17 8 18 88 19 9 20 10 21
REMARK SMILES IDX 87 22 89 23 85 24 6 25 1 26 2 27 3 28 90 29 4 30 91 31 5 32
REMARK SMILES IDX 86 33 26 35 27 36 28 37 29 38 30 39 31 40 83 41 32 42 82 43
REMARK SMILES IDX 33 44 34 45 35 46 76 47 36 48 81 49 75 50 77 51 37 52 80 53
REMARK SMILES IDX 74 54 73 55 38 57 64 58 47 59 63 60 48 61 51 62 62 63 78 64
REMARK SMILES IDX 49 65 50 66 61 68 79 69 52 70 39 71 40 72 45 73 41 74 42 75
REMARK SMILES IDX 44 76 46 77 43 78 65 79 66 80 71 81 67 82 68 83 70 84 72 85
REMARK SMILES IDX 69 86 53 87 54 88 59 89 55 90 56 91 58 92 60 93 57 94
REMARK H PARENT 86 34 77 56 51 67
REMARK Flexibility Score: inf
ROOT
ATOM      1  C   UNL     1       3.912  -4.125  -3.460  1.00  0.00     0.275 C 
ENDROOT
BRANCH   1   2
ATOM      2  O   UNL     1       2.643  -4.784  -3.627  1.00  0.00    -0.458 OA
BRANCH   2   3
ATOM      3  C   UNL     1       2.083  -4.687  -4.862  1.00  0.00     0.338 C 
ATOM      4  O   UNL     1       2.479  -3.973  -5.775  1.00  0.00    -0.246 OA
BRANCH   3   5
ATOM      5  C   UNL     1       0.998  -5.691  -5.032  1.00  0.00     0.062 A 
ATOM      6  C   UNL     1      -0.650  -7.237  -4.144  1.00  0.00     0.046 A 
ATOM      7  C   UNL     1      -0.916  -7.702  -5.439  1.00  0.00     0.026 A 
ATOM      8  C   UNL     1       0.330  -6.254  -3.939  1.00  0.00     0.042 A 
ATOM      9  C   UNL     1      -0.254  -7.134  -6.529  1.00  0.00     0.003 A 
ATOM     10  C   UNL     1       0.689  -6.124  -6.328  1.00  0.00     0.016 A 
BRANCH   6  11
ATOM     11  N   UNL     1      -1.394  -7.760  -3.048  1.00  0.00    -0.317 N 
ATOM     12  C   UNL     1      -1.889  -7.075  -1.935  1.00  0.00     0.047 A 
ATOM     13  C   UNL     1      -2.555  -7.985  -1.133  1.00  0.00     0.028 A 
ATOM     14  C   UNL     1      -2.435  -9.257  -1.728  1.00  0.00     0.020 A 
ATOM     15  C   UNL     1      -1.744  -9.091  -2.906  1.00  0.00     0.092 A 
BRANCH  12  16
ATOM     16  C   UNL     1      -1.770  -5.665  -1.833  1.00  0.00     0.046 C 
ATOM     17  N   UNL     1      -0.615  -2.827   0.124  1.00  0.00    -0.251 N 
ATOM     18  C   UNL     1      -1.107  -3.512  -0.989  1.00  0.00     0.270 C 
ATOM     19  C   UNL     1      -0.219  -3.473   1.312  1.00  0.00     0.210 C 
ATOM     20  O   UNL     1      -1.523  -2.975  -2.016  1.00  0.00    -0.268 OA
ATOM     21  C   UNL     1      -1.101  -5.003  -0.867  1.00  0.00     0.104 C 
ATOM     22  N   UNL     1       0.061  -4.815   1.262  1.00  0.00    -0.184 NA
ATOM     23  S   UNL     1      -0.075  -2.698   2.820  1.00  0.00    -0.038 S 
ATOM     24  C   UNL     1      -0.341  -5.521   0.273  1.00  0.00     0.226 C 
BRANCH  17  25
ATOM     25  C   UNL     1      -0.588  -1.396   0.031  1.00  0.00     0.055 A 
ATOM     26  C   UNL     1       1.855   1.567  -0.028  1.00  0.00     0.044 C 
ATOM     27  C   UNL     1       0.602   0.731  -0.020  1.00  0.00    -0.046 A 
ATOM     28  C   UNL     1      -0.638   1.393  -0.011  1.00  0.00     0.004 A 
ATOM     29  C   UNL     1       0.638  -0.683  -0.027  1.00  0.00    -0.024 A 
ATOM     30  C   UNL     1      -1.834   0.680  -0.014  1.00  0.00     0.002 A 
ATOM     31  C   UNL     1       1.946  -1.430  -0.140  1.00  0.00     0.047 C 
ATOM     32  C   UNL     1      -1.811  -0.710   0.004  1.00  0.00     0.027 A 
ENDBRANCH  17  25
BRANCH  24  33
ATOM     33  O   UNL     1       0.033  -6.808   0.288  1.00  0.00    -0.493 OA
ATOM     34  H   UNL     1      -0.228  -7.380  -0.407  1.00  0.00     0.295 HD
ENDBRANCH  24  33
ENDBRANCH  12  16
ENDBRANCH   6  11
ENDBRANCH   3   5
ENDBRANCH   2   3
ENDBRANCH   1   2
BRANCH   1  35
ATOM     35  C   UNL     1       5.099  -5.036  -3.778  1.00  0.00     0.275 C 
BRANCH  35  36
ATOM     36  O   UNL     1       5.188  -5.417  -5.155  1.00  0.00    -0.458 OA
BRANCH  36  37
ATOM     37  C   UNL     1       4.504  -6.548  -5.431  1.00  0.00     0.338 C 
ATOM     38  O   UNL     1       3.634  -7.075  -4.754  1.00  0.00    -0.246 OA
BRANCH  37  39
ATOM     39  C   UNL     1       5.097  -7.273  -6.550  1.00  0.00     0.060 A 
ATOM     40  C   UNL     1       4.264  -8.171  -7.224  1.00  0.00     0.016 A 
ATOM     41  C   UNL     1       6.493  -7.328  -6.651  1.00  0.00     0.016 A 
ATOM     42  C   UNL     1       4.839  -9.214  -7.917  1.00  0.00     0.010 A 
ATOM     43  C   UNL     1       7.070  -8.387  -7.324  1.00  0.00     0.010 A 
ATOM     44  C   UNL     1       6.236  -9.336  -7.928  1.00  0.00    -0.014 A 
BRANCH  44  45
ATOM     45  C   UNL     1       6.801 -10.361  -8.814  1.00  0.00     0.031 A 
ATOM     46  C   UNL     1       6.801  -9.805 -10.274  1.00  0.00     0.074 A 
ATOM     47  C   UNL     1       7.124 -11.549  -8.203  1.00  0.00     0.049 A 
ATOM     48  N   UNL     1       6.729 -10.409 -11.421  1.00  0.00    -0.248 NA
ATOM     49  C   UNL     1       6.819  -8.319 -10.475  1.00  0.00     0.031 C 
ATOM     50  C   UNL     1       7.103 -11.811  -6.738  1.00  0.00     0.029 A 
ATOM     51  N   UNL     1       7.529 -12.781  -8.666  1.00  0.00    -0.354 N 
ATOM     52  C   UNL     1       6.945  -9.433 -12.429  1.00  0.00     0.074 A 
ATOM     53  C   UNL     1       6.854  -8.159 -11.797  1.00  0.00     0.031 C 
ATOM     54  C   UNL     1       7.378 -13.109  -6.460  1.00  0.00     0.029 A 
ATOM     55  C   UNL     1       7.603 -13.830  -7.696  1.00  0.00     0.049 A 
ATOM     56  H   UNL     1       7.755 -12.931  -9.612  1.00  0.00     0.167 HD
ATOM     57  C   UNL     1       7.358  -9.743 -13.693  1.00  0.00     0.037 A 
ATOM     58  C   UNL     1       7.767 -15.180  -7.908  1.00  0.00     0.037 A 
ATOM     59  C   UNL     1       7.396 -11.152 -13.842  1.00  0.00     0.049 A 
ATOM     60  C   UNL     1       7.967 -15.256  -9.355  1.00  0.00     0.074 A 
ATOM     61  C   UNL     1       6.442 -12.092 -14.107  1.00  0.00     0.029 A 
ATOM     62  N   UNL     1       8.541 -11.772 -13.419  1.00  0.00    -0.354 N 
ATOM     63  N   UNL     1       9.050 -14.895  -9.966  1.00  0.00    -0.248 NA
ATOM     64  C   UNL     1       6.820 -15.612 -10.190  1.00  0.00     0.031 C 
ATOM     65  C   UNL     1       6.922 -13.252 -13.462  1.00  0.00     0.029 A 
ATOM     66  C   UNL     1       8.187 -13.000 -12.922  1.00  0.00     0.049 A 
ATOM     67  H   UNL     1       9.453 -11.404 -13.465  1.00  0.00     0.167 HD
ATOM     68  C   UNL     1       8.610 -14.657 -11.244  1.00  0.00     0.074 A 
ATOM     69  C   UNL     1       7.353 -15.364 -11.381  1.00  0.00     0.031 C 
ATOM     70  C   UNL     1       9.060 -13.576 -11.929  1.00  0.00     0.037 A 
BRANCH  57  71
ATOM     71  C   UNL     1       8.020  -8.939 -14.784  1.00  0.00     0.057 A 
ATOM     72  C   UNL     1       8.115  -9.525 -16.071  1.00  0.00     0.134 A 
ATOM     73  C   UNL     1       8.888  -7.869 -14.544  1.00  0.00     0.134 A 
ATOM     74  F   UNL     1       7.282 -10.508 -16.448  1.00  0.00    -0.206 F 
ATOM     75  C   UNL     1       9.123  -9.196 -16.979  1.00  0.00     0.040 A 
ATOM     76  C   UNL     1       9.869  -7.492 -15.474  1.00  0.00     0.040 A 
ATOM     77  F   UNL     1       8.889  -7.216 -13.375  1.00  0.00    -0.206 F 
ATOM     78  C   UNL     1      10.024  -8.190 -16.669  1.00  0.00     0.006 A 
ENDBRANCH  57  71
BRANCH  58  79
ATOM     79  C   UNL     1       7.688 -16.522  -7.200  1.00  0.00     0.057 A 
ATOM     80  C   UNL     1       7.553 -16.735  -5.828  1.00  0.00     0.134 A 
ATOM     81  C   UNL     1       7.655 -17.730  -7.965  1.00  0.00     0.134 A 
ATOM     82  F   UNL     1       7.686 -15.727  -4.957  1.00  0.00    -0.206 F 
ATOM     83  C   UNL     1       7.280 -18.015  -5.284  1.00  0.00     0.040 A 
ATOM     84  C   UNL     1       7.332 -18.991  -7.450  1.00  0.00     0.040 A 
ATOM     85  F   UNL     1       7.929 -17.747  -9.277  1.00  0.00    -0.206 F 
ATOM     86  C   UNL     1       7.120 -19.136  -6.097  1.00  0.00     0.006 A 
ENDBRANCH  58  79
BRANCH  70  87
ATOM     87  C   UNL     1      10.268 -12.890 -11.280  1.00  0.00     0.057 A 
ATOM     88  C   UNL     1      11.494 -13.556 -11.179  1.00  0.00     0.134 A 
ATOM     89  C   UNL     1      10.215 -11.649 -10.620  1.00  0.00     0.134 A 
ATOM     90  F   UNL     1      11.665 -14.740 -11.784  1.00  0.00    -0.206 F 
ATOM     91  C   UNL     1      12.575 -13.036 -10.447  1.00  0.00     0.040 A 
ATOM     92  C   UNL     1      11.281 -11.112  -9.884  1.00  0.00     0.040 A 
ATOM     93  F   UNL     1       9.122 -10.895 -10.673  1.00  0.00    -0.206 F 
ATOM     94  C   UNL     1      12.469 -11.815  -9.787  1.00  0.00     0.006 A 
ENDBRANCH  70  87
ENDBRANCH  44  45
ENDBRANCH  37  39
ENDBRANCH  36  37
ENDBRANCH  35  36
ENDBRANCH   1  35
TORSDOF 15
