REMARK SMILES C[C@H]([C@@H](C)C(=O)OCCOC(=O)c1ccc(-c2c3nc(c(-c4c(F)cccc4F)c4ccc([nH]4)c(-c4c(F)cccc4F)c4nc(c(-c5c(F)cccc5F)c5ccc2[nH]5)C=C4)C=C3)cc1)n1c(CC#N)nc2ccccc21
REMARK SMILES IDX 8 1 7 2 5 3 6 4 3 5 4 6 2 7 1 8 67 9 68 10 78 11 72 12 73 13
REMARK SMILES IDX 77 14 74 15 76 16 75 17 69 18 70 19 71 20 9 21 10 22 11 23
REMARK SMILES IDX 12 24 13 25 14 26 66 27 15 28 65 29 16 30 17 31 18 32 59 33
REMARK SMILES IDX 19 34 64 35 58 36 60 37 20 38 63 39 57 40 56 41 21 43 47 44
REMARK SMILES IDX 30 45 46 46 31 47 34 48 45 49 61 50 32 51 33 52 44 54 62 55
REMARK SMILES IDX 35 56 22 57 23 58 28 59 24 60 25 61 27 62 29 63 26 64 48 65
REMARK SMILES IDX 49 66 54 67 50 68 51 69 53 70 55 71 52 72 36 73 37 74 42 75
REMARK SMILES IDX 38 76 39 77 41 78 43 79 40 80
REMARK H PARENT 60 42 34 53
REMARK Flexibility Score: inf
ROOT
ATOM      1  C   UNL     1       3.114  -0.552  -2.332  1.00  0.00     0.274 C 
ENDROOT
BRANCH   1   2
ATOM      2  O   UNL     1       2.173  -0.783  -1.258  1.00  0.00    -0.462 OA
BRANCH   2   3
ATOM      3  C   UNL     1       1.922   0.266  -0.436  1.00  0.00     0.310 C 
ATOM      4  O   UNL     1       2.402   1.384  -0.589  1.00  0.00    -0.252 OA
BRANCH   3   5
ATOM      5  C   UNL     1       1.093  -0.088   0.797  1.00  0.00     0.119 C 
ATOM      6  C   UNL     1       2.097  -0.576   1.837  1.00  0.00     0.022 C 
BRANCH   5   7
ATOM      7  C   UNL     1      -0.153  -0.991   0.571  1.00  0.00     0.100 C 
ATOM      8  C   UNL     1       0.191  -2.457   0.242  1.00  0.00     0.032 C 
BRANCH   7   9
ATOM      9  N   UNL     1      -1.091  -0.929   1.730  1.00  0.00    -0.323 N 
ATOM     10  C   UNL     1      -1.096  -1.869   2.760  1.00  0.00     0.124 A 
ATOM     11  C   UNL     1      -2.434  -0.570   1.701  1.00  0.00     0.068 A 
ATOM     12  N   UNL     1      -2.137  -2.660   2.536  1.00  0.00    -0.232 NA
ATOM     13  C   UNL     1      -3.068  -1.755   2.094  1.00  0.00     0.089 A 
ATOM     14  C   UNL     1      -3.126   0.638   1.579  1.00  0.00     0.028 A 
ATOM     15  C   UNL     1      -4.463  -1.822   2.181  1.00  0.00     0.030 A 
ATOM     16  C   UNL     1      -4.502   0.591   1.867  1.00  0.00     0.002 A 
ATOM     17  C   UNL     1      -5.167  -0.617   2.118  1.00  0.00     0.002 A 
BRANCH  10  18
ATOM     18  C   UNL     1      -0.564  -1.567   4.135  1.00  0.00     0.195 C 
BRANCH  18  19
ATOM     19  C   UNL     1      -0.473  -0.112   4.383  1.00  0.00     0.070 C 
ATOM     20  N   UNL     1      -0.373   1.030   4.528  1.00  0.00    -0.198 NA
ENDBRANCH  18  19
ENDBRANCH  10  18
ENDBRANCH   7   9
ENDBRANCH   5   7
ENDBRANCH   3   5
ENDBRANCH   2   3
ENDBRANCH   1   2
BRANCH   1  21
ATOM     21  C   UNL     1       2.444  -0.216  -3.669  1.00  0.00     0.275 C 
BRANCH  21  22
ATOM     22  O   UNL     1       1.690   1.006  -3.608  1.00  0.00    -0.458 OA
BRANCH  22  23
ATOM     23  C   UNL     1       0.403   0.847  -3.224  1.00  0.00     0.338 C 
ATOM     24  O   UNL     1      -0.176  -0.201  -2.990  1.00  0.00    -0.246 OA
BRANCH  23  25
ATOM     25  C   UNL     1      -0.189   2.155  -2.920  1.00  0.00     0.060 A 
ATOM     26  C   UNL     1      -0.492   2.421  -1.583  1.00  0.00     0.016 A 
ATOM     27  C   UNL     1      -0.537   3.060  -3.921  1.00  0.00     0.016 A 
ATOM     28  C   UNL     1      -1.145   3.588  -1.227  1.00  0.00     0.010 A 
ATOM     29  C   UNL     1      -1.201   4.238  -3.565  1.00  0.00     0.010 A 
ATOM     30  C   UNL     1      -1.517   4.498  -2.218  1.00  0.00    -0.014 A 
BRANCH  30  31
ATOM     31  C   UNL     1      -2.318   5.676  -1.828  1.00  0.00     0.031 A 
ATOM     32  C   UNL     1      -3.780   5.712  -2.159  1.00  0.00     0.074 A 
ATOM     33  C   UNL     1      -1.746   6.669  -1.124  1.00  0.00     0.049 A 
ATOM     34  N   UNL     1      -4.644   6.676  -1.985  1.00  0.00    -0.248 NA
ATOM     35  C   UNL     1      -4.345   4.496  -2.767  1.00  0.00     0.031 C 
ATOM     36  C   UNL     1      -0.352   6.692  -0.676  1.00  0.00     0.029 A 
ATOM     37  N   UNL     1      -2.268   7.847  -0.658  1.00  0.00    -0.354 N 
ATOM     38  C   UNL     1      -5.845   6.200  -2.492  1.00  0.00     0.074 A 
ATOM     39  C   UNL     1      -5.598   4.864  -2.989  1.00  0.00     0.031 C 
ATOM     40  C   UNL     1      -0.130   7.829   0.002  1.00  0.00     0.029 A 
ATOM     41  C   UNL     1      -1.346   8.636  -0.016  1.00  0.00     0.049 A 
ATOM     42  H   UNL     1      -3.211   8.103  -0.773  1.00  0.00     0.167 HD
ATOM     43  C   UNL     1      -7.043   6.829  -2.537  1.00  0.00     0.037 A 
ATOM     44  C   UNL     1      -1.465   9.886   0.469  1.00  0.00     0.037 A 
ATOM     45  C   UNL     1      -7.274   8.150  -2.016  1.00  0.00     0.049 A 
ATOM     46  C   UNL     1      -2.788  10.589   0.338  1.00  0.00     0.074 A 
ATOM     47  C   UNL     1      -8.450   8.879  -2.002  1.00  0.00     0.029 A 
ATOM     48  N   UNL     1      -6.305   8.941  -1.415  1.00  0.00    -0.354 N 
ATOM     49  N   UNL     1      -3.915  10.145  -0.165  1.00  0.00    -0.248 NA
ATOM     50  C   UNL     1      -2.853  11.970   0.832  1.00  0.00     0.031 C 
ATOM     51  C   UNL     1      -8.181  10.130  -1.437  1.00  0.00     0.029 A 
ATOM     52  C   UNL     1      -6.850  10.160  -1.048  1.00  0.00     0.049 A 
ATOM     53  H   UNL     1      -5.369   8.675  -1.270  1.00  0.00     0.167 HD
ATOM     54  C   UNL     1      -4.830  11.179  -0.023  1.00  0.00     0.074 A 
ATOM     55  C   UNL     1      -4.128  12.268   0.626  1.00  0.00     0.031 C 
ATOM     56  C   UNL     1      -6.132  11.226  -0.395  1.00  0.00     0.037 A 
BRANCH  43  57
ATOM     57  C   UNL     1      -8.177   6.114  -3.212  1.00  0.00     0.057 A 
ATOM     58  C   UNL     1      -8.805   5.000  -2.641  1.00  0.00     0.134 A 
ATOM     59  C   UNL     1      -8.661   6.565  -4.447  1.00  0.00     0.134 A 
ATOM     60  F   UNL     1      -8.379   4.505  -1.469  1.00  0.00    -0.206 F 
ATOM     61  C   UNL     1      -9.860   4.347  -3.284  1.00  0.00     0.040 A 
ATOM     62  C   UNL     1      -9.732   5.939  -5.086  1.00  0.00     0.040 A 
ATOM     63  F   UNL     1      -8.106   7.628  -5.049  1.00  0.00    -0.206 F 
ATOM     64  C   UNL     1     -10.330   4.822  -4.507  1.00  0.00     0.006 A 
ENDBRANCH  43  57
BRANCH  44  65
ATOM     65  C   UNL     1      -0.296  10.561   1.087  1.00  0.00     0.057 A 
ATOM     66  C   UNL     1      -0.276  10.874   2.450  1.00  0.00     0.134 A 
ATOM     67  C   UNL     1       0.823  10.925   0.326  1.00  0.00     0.134 A 
ATOM     68  F   UNL     1      -1.326  10.573   3.228  1.00  0.00    -0.206 F 
ATOM     69  C   UNL     1       0.806  11.537   3.033  1.00  0.00     0.040 A 
ATOM     70  C   UNL     1       1.923  11.562   0.900  1.00  0.00     0.040 A 
ATOM     71  F   UNL     1       0.867  10.653  -0.987  1.00  0.00    -0.206 F 
ATOM     72  C   UNL     1       1.913  11.878   2.257  1.00  0.00     0.006 A 
ENDBRANCH  44  65
BRANCH  56  73
ATOM     73  C   UNL     1      -6.890  12.479  -0.069  1.00  0.00     0.057 A 
ATOM     74  C   UNL     1      -6.670  13.678  -0.757  1.00  0.00     0.134 A 
ATOM     75  C   UNL     1      -7.878  12.473   0.924  1.00  0.00     0.134 A 
ATOM     76  F   UNL     1      -5.728  13.754  -1.710  1.00  0.00    -0.206 F 
ATOM     77  C   UNL     1      -7.389  14.835  -0.452  1.00  0.00     0.040 A 
ATOM     78  C   UNL     1      -8.623  13.615   1.218  1.00  0.00     0.040 A 
ATOM     79  F   UNL     1      -8.144  11.354   1.614  1.00  0.00    -0.206 F 
ATOM     80  C   UNL     1      -8.374  14.803   0.533  1.00  0.00     0.006 A 
ENDBRANCH  56  73
ENDBRANCH  30  31
ENDBRANCH  23  25
ENDBRANCH  22  23
ENDBRANCH  21  22
ENDBRANCH   1  21
TORSDOF 15
