REMARK SMILES C[NH2+][C@](C)(CCSc1ccncc1)C(=O)OCCOC(=O)c1ccc(-c2c3nc(c(-c4c(F)cccc4F)c4ccc([nH]4)c(-c4c(F)cccc4F)c4nc(c(-c5c(F)cccc5F)c5ccc2[nH]5)C=C4)C=C3)cc1
REMARK SMILES IDX 17 1 16 2 14 3 15 4 3 5 4 6 2 7 1 8 5 11 6 12 7 13 8 14 9 15
REMARK SMILES IDX 13 16 10 17 12 18 11 19 18 20 19 21 20 22 21 23 22 24 23 25
REMARK SMILES IDX 75 26 24 27 74 28 25 29 26 30 27 31 68 32 28 33 73 34 67 35
REMARK SMILES IDX 69 36 29 37 72 38 66 39 65 40 30 42 56 43 39 44 55 45 40 46
REMARK SMILES IDX 43 47 54 48 70 49 41 50 42 51 53 53 71 54 44 55 31 56 32 57
REMARK SMILES IDX 37 58 33 59 34 60 36 61 38 62 35 63 57 64 58 65 63 66 59 67
REMARK SMILES IDX 60 68 62 69 64 70 61 71 45 72 46 73 51 74 47 75 48 76 50 77
REMARK SMILES IDX 52 78 49 79
REMARK H PARENT 2 9 2 10 69 41 43 52
REMARK Flexibility Score: inf
ROOT
ATOM      1  C   UNL     1      -3.162   2.763   0.860  1.00  0.00     0.274 C 
ENDROOT
BRANCH   1   2
ATOM      2  O   UNL     1      -2.845   1.361   1.171  1.00  0.00    -0.457 OA
BRANCH   2   3
ATOM      3  C   UNL     1      -2.515   0.344   0.275  1.00  0.00     0.367 C 
ATOM      4  O   UNL     1      -2.745   0.408  -0.925  1.00  0.00    -0.245 OA
BRANCH   3   5
ATOM      5  C   UNL     1      -1.859  -0.985   1.058  1.00  0.00     0.192 C 
ATOM      6  C   UNL     1      -0.373  -1.502   1.078  1.00  0.00     0.092 C 
BRANCH   5   7
ATOM      7  N   UNL     1      -2.630  -2.191   0.598  1.00  0.00    -0.335 N 
ATOM      8  C   UNL     1      -2.020  -2.805  -0.602  1.00  0.00     0.331 C 
ATOM      9  H   UNL     1      -2.646  -2.880   1.349  1.00  0.00     0.347 HD
ATOM     10  H   UNL     1      -3.575  -1.892   0.356  1.00  0.00     0.347 HD
ENDBRANCH   5   7
BRANCH   5  11
ATOM     11  C   UNL     1      -2.068  -0.615   2.522  1.00  0.00     0.092 C 
BRANCH  11  12
ATOM     12  C   UNL     1      -1.195   0.637   2.859  1.00  0.00     0.082 C 
BRANCH  12  13
ATOM     13  S   UNL     1       0.148   1.432   1.641  1.00  0.00    -0.126 SA
BRANCH  13  14
ATOM     14  C   UNL     1      -0.060   1.853  -0.098  1.00  0.00     0.010 A 
ATOM     15  C   UNL     1       0.308   0.917  -1.058  1.00  0.00     0.035 A 
ATOM     16  C   UNL     1      -0.148   3.168  -0.578  1.00  0.00     0.035 A 
ATOM     17  C   UNL     1       0.471   1.282  -2.389  1.00  0.00     0.112 A 
ATOM     18  C   UNL     1       0.034   3.458  -1.928  1.00  0.00     0.112 A 
ATOM     19  N   UNL     1       0.338   2.535  -2.850  1.00  0.00    -0.265 NA
ENDBRANCH  13  14
ENDBRANCH  12  13
ENDBRANCH  11  12
ENDBRANCH   5  11
ENDBRANCH   3   5
ENDBRANCH   2   3
ENDBRANCH   1   2
BRANCH   1  20
ATOM     20  C   UNL     1      -2.663   3.790   1.985  1.00  0.00     0.275 C 
BRANCH  20  21
ATOM     21  O   UNL     1      -1.252   4.210   1.879  1.00  0.00    -0.458 OA
BRANCH  21  22
ATOM     22  C   UNL     1      -0.477   4.489   2.977  1.00  0.00     0.338 C 
ATOM     23  O   UNL     1      -0.893   4.560   4.126  1.00  0.00    -0.246 OA
BRANCH  22  24
ATOM     24  C   UNL     1       1.009   4.418   2.651  1.00  0.00     0.060 A 
ATOM     25  C   UNL     1       1.689   3.288   3.116  1.00  0.00     0.016 A 
ATOM     26  C   UNL     1       1.737   5.303   1.847  1.00  0.00     0.016 A 
ATOM     27  C   UNL     1       2.895   2.864   2.528  1.00  0.00     0.010 A 
ATOM     28  C   UNL     1       3.071   4.984   1.443  1.00  0.00     0.010 A 
ATOM     29  C   UNL     1       3.643   3.728   1.729  1.00  0.00    -0.014 A 
BRANCH  29  30
ATOM     30  C   UNL     1       5.098   3.393   1.560  1.00  0.00     0.031 A 
ATOM     31  C   UNL     1       5.961   3.533   2.799  1.00  0.00     0.074 A 
ATOM     32  C   UNL     1       5.657   2.847   0.456  1.00  0.00     0.049 A 
ATOM     33  N   UNL     1       7.253   3.395   2.954  1.00  0.00    -0.248 NA
ATOM     34  C   UNL     1       5.247   3.842   4.051  1.00  0.00     0.031 C 
ATOM     35  C   UNL     1       4.955   2.448  -0.762  1.00  0.00     0.029 A 
ATOM     36  N   UNL     1       6.975   2.516   0.194  1.00  0.00    -0.354 N 
ATOM     37  C   UNL     1       7.494   3.615   4.307  1.00  0.00     0.074 A 
ATOM     38  C   UNL     1       6.222   3.856   4.938  1.00  0.00     0.031 C 
ATOM     39  C   UNL     1       5.849   1.961  -1.648  1.00  0.00     0.029 A 
ATOM     40  C   UNL     1       7.198   2.058  -1.087  1.00  0.00     0.049 A 
ATOM     41  H   UNL     1       7.692   2.600   0.864  1.00  0.00     0.167 HD
ATOM     42  C   UNL     1       8.668   3.654   4.975  1.00  0.00     0.037 A 
ATOM     43  C   UNL     1       8.355   1.798  -1.742  1.00  0.00     0.037 A 
ATOM     44  C   UNL     1       9.947   3.457   4.359  1.00  0.00     0.049 A 
ATOM     45  C   UNL     1       9.677   1.998  -1.028  1.00  0.00     0.074 A 
ATOM     46  C   UNL     1      11.203   3.570   4.924  1.00  0.00     0.029 A 
ATOM     47  N   UNL     1      10.127   3.111   3.030  1.00  0.00    -0.354 N 
ATOM     48  N   UNL     1       9.903   2.320   0.223  1.00  0.00    -0.248 NA
ATOM     49  C   UNL     1      10.905   1.823  -1.824  1.00  0.00     0.031 C 
ATOM     50  C   UNL     1      12.149   3.333   3.922  1.00  0.00     0.029 A 
ATOM     51  C   UNL     1      11.478   3.019   2.750  1.00  0.00     0.049 A 
ATOM     52  H   UNL     1       9.402   2.954   2.382  1.00  0.00     0.167 HD
ATOM     53  C   UNL     1      11.287   2.365   0.368  1.00  0.00     0.074 A 
ATOM     54  C   UNL     1      11.854   2.023  -0.918  1.00  0.00     0.031 C 
ATOM     55  C   UNL     1      12.024   2.665   1.466  1.00  0.00     0.037 A 
BRANCH  42  56
ATOM     56  C   UNL     1       8.606   4.033   6.425  1.00  0.00     0.057 A 
ATOM     57  C   UNL     1       8.110   3.164   7.407  1.00  0.00     0.134 A 
ATOM     58  C   UNL     1       9.001   5.313   6.833  1.00  0.00     0.134 A 
ATOM     59  F   UNL     1       7.674   1.940   7.074  1.00  0.00    -0.206 F 
ATOM     60  C   UNL     1       7.989   3.566   8.738  1.00  0.00     0.040 A 
ATOM     61  C   UNL     1       8.911   5.716   8.165  1.00  0.00     0.040 A 
ATOM     62  F   UNL     1       9.469   6.198   5.939  1.00  0.00    -0.206 F 
ATOM     63  C   UNL     1       8.395   4.843   9.121  1.00  0.00     0.006 A 
ENDBRANCH  42  56
BRANCH  43  64
ATOM     64  C   UNL     1       8.350   1.414  -3.187  1.00  0.00     0.057 A 
ATOM     65  C   UNL     1       8.839   0.177  -3.632  1.00  0.00     0.134 A 
ATOM     66  C   UNL     1       7.926   2.317  -4.172  1.00  0.00     0.134 A 
ATOM     67  F   UNL     1       9.313  -0.718  -2.754  1.00  0.00    -0.206 F 
ATOM     68  C   UNL     1       8.907  -0.143  -4.993  1.00  0.00     0.040 A 
ATOM     69  C   UNL     1       7.960   1.999  -5.533  1.00  0.00     0.040 A 
ATOM     70  F   UNL     1       7.478   3.533  -3.826  1.00  0.00    -0.206 F 
ATOM     71  C   UNL     1       8.458   0.767  -5.948  1.00  0.00     0.006 A 
ENDBRANCH  43  64
BRANCH  55  72
ATOM     72  C   UNL     1      13.519   2.596   1.350  1.00  0.00     0.057 A 
ATOM     73  C   UNL     1      14.255   3.566   0.658  1.00  0.00     0.134 A 
ATOM     74  C   UNL     1      14.236   1.584   2.002  1.00  0.00     0.134 A 
ATOM     75  F   UNL     1      13.630   4.560   0.009  1.00  0.00    -0.206 F 
ATOM     76  C   UNL     1      15.649   3.519   0.602  1.00  0.00     0.040 A 
ATOM     77  C   UNL     1      15.630   1.541   1.975  1.00  0.00     0.040 A 
ATOM     78  F   UNL     1      13.592   0.633   2.697  1.00  0.00    -0.206 F 
ATOM     79  C   UNL     1      16.341   2.509   1.268  1.00  0.00     0.006 A 
ENDBRANCH  55  72
ENDBRANCH  29  30
ENDBRANCH  22  24
ENDBRANCH  21  22
ENDBRANCH  20  21
ENDBRANCH   1  20
TORSDOF 16
