REMARK SMILES O=C(OCCOC(=O)[C@H]1Cc2c([nH]c3ccccc23)[C@H](c2c[nH]c3ccccc23)[NH2+]1)c1ccc(-c2c3nc(c(-c4c(F)cccc4F)c4ccc([nH]4)c(-c4c(F)cccc4F)c4nc(c(-c5c(F)cccc5F)c5ccc2[nH]5)C=C4)C=C3)cc1
REMARK SMILES IDX 4 1 3 2 2 3 1 4 31 5 32 6 84 7 33 8 83 9 34 10 35 11 36 12
REMARK SMILES IDX 77 13 37 14 82 15 76 16 78 17 38 18 81 19 75 20 74 21 39 23
REMARK SMILES IDX 65 24 48 25 64 26 49 27 52 28 63 29 79 30 50 31 51 32 62 34
REMARK SMILES IDX 80 35 53 36 40 37 41 38 46 39 42 40 43 41 45 42 47 43 44 44
REMARK SMILES IDX 66 45 67 46 72 47 68 48 69 49 71 50 73 51 70 52 54 53 55 54
REMARK SMILES IDX 60 55 56 56 57 57 59 58 61 59 58 60 5 61 6 62 7 63 8 64 9 65
REMARK SMILES IDX 10 66 30 67 11 68 20 69 12 72 19 73 13 74 14 75 18 76 15 78
REMARK SMILES IDX 17 79 16 80 21 81 22 82 29 83 23 84 24 85 28 86 25 88 27 89
REMARK SMILES IDX 26 90
REMARK H PARENT 78 22 52 33 30 70 30 71 13 77 23 87
REMARK Flexibility Score: inf
ROOT
ATOM      1  C   UNL     1       4.447  -0.728  -1.591  1.00  0.00     0.275 C 
ENDROOT
BRANCH   1   2
ATOM      2  O   UNL     1       3.568  -1.283  -0.602  1.00  0.00    -0.458 OA
BRANCH   2   3
ATOM      3  C   UNL     1       3.329  -0.890   0.666  1.00  0.00     0.338 C 
ATOM      4  O   UNL     1       2.420  -1.451   1.279  1.00  0.00    -0.246 OA
BRANCH   3   5
ATOM      5  C   UNL     1       4.043   0.236   1.361  1.00  0.00     0.060 A 
ATOM      6  C   UNL     1       5.247   0.847   1.016  1.00  0.00     0.016 A 
ATOM      7  C   UNL     1       3.382   0.742   2.487  1.00  0.00     0.016 A 
ATOM      8  C   UNL     1       5.742   1.936   1.750  1.00  0.00     0.010 A 
ATOM      9  C   UNL     1       3.814   1.874   3.175  1.00  0.00     0.010 A 
ATOM     10  C   UNL     1       5.035   2.450   2.842  1.00  0.00    -0.014 A 
BRANCH  10  11
ATOM     11  C   UNL     1       5.674   3.431   3.747  1.00  0.00     0.031 A 
ATOM     12  C   UNL     1       6.091   2.970   5.119  1.00  0.00     0.074 A 
ATOM     13  C   UNL     1       5.942   4.684   3.333  1.00  0.00     0.049 A 
ATOM     14  N   UNL     1       6.790   3.600   6.027  1.00  0.00    -0.248 NA
ATOM     15  C   UNL     1       5.665   1.620   5.527  1.00  0.00     0.031 C 
ATOM     16  C   UNL     1       5.563   5.250   2.039  1.00  0.00     0.029 A 
ATOM     17  N   UNL     1       6.615   5.702   3.958  1.00  0.00    -0.354 N 
ATOM     18  C   UNL     1       6.898   2.716   7.093  1.00  0.00     0.074 A 
ATOM     19  C   UNL     1       6.117   1.548   6.766  1.00  0.00     0.031 C 
ATOM     20  C   UNL     1       6.036   6.506   1.955  1.00  0.00     0.029 A 
ATOM     21  C   UNL     1       6.734   6.835   3.190  1.00  0.00     0.049 A 
ATOM     22  H   UNL     1       6.979   5.628   4.869  1.00  0.00     0.167 HD
ATOM     23  C   UNL     1       7.625   2.839   8.226  1.00  0.00     0.037 A 
ATOM     24  C   UNL     1       7.353   7.999   3.453  1.00  0.00     0.037 A 
ATOM     25  C   UNL     1       8.399   4.004   8.549  1.00  0.00     0.049 A 
ATOM     26  C   UNL     1       8.104   8.141   4.744  1.00  0.00     0.074 A 
ATOM     27  C   UNL     1       9.195   4.236   9.653  1.00  0.00     0.029 A 
ATOM     28  N   UNL     1       8.458   5.143   7.758  1.00  0.00    -0.354 N 
ATOM     29  N   UNL     1       8.253   7.273   5.715  1.00  0.00    -0.248 NA
ATOM     30  C   UNL     1       8.802   9.415   4.958  1.00  0.00     0.031 C 
ATOM     31  C   UNL     1       9.701   5.537   9.554  1.00  0.00     0.029 A 
ATOM     32  C   UNL     1       9.263   6.092   8.361  1.00  0.00     0.049 A 
ATOM     33  H   UNL     1       7.996   5.258   6.896  1.00  0.00     0.167 HD
ATOM     34  C   UNL     1       9.091   7.878   6.639  1.00  0.00     0.074 A 
ATOM     35  C   UNL     1       9.416   9.188   6.110  1.00  0.00     0.031 C 
ATOM     36  C   UNL     1       9.565   7.388   7.811  1.00  0.00     0.037 A 
BRANCH  23  37
ATOM     37  C   UNL     1       7.595   1.678   9.176  1.00  0.00     0.057 A 
ATOM     38  C   UNL     1       8.189   0.447   8.857  1.00  0.00     0.134 A 
ATOM     39  C   UNL     1       6.920   1.770  10.398  1.00  0.00     0.134 A 
ATOM     40  F   UNL     1       8.827   0.283   7.688  1.00  0.00    -0.206 F 
ATOM     41  C   UNL     1       8.076  -0.660   9.699  1.00  0.00     0.040 A 
ATOM     42  C   UNL     1       6.826   0.678  11.263  1.00  0.00     0.040 A 
ATOM     43  F   UNL     1       6.325   2.916  10.763  1.00  0.00    -0.206 F 
ATOM     44  C   UNL     1       7.394  -0.544  10.909  1.00  0.00     0.006 A 
ENDBRANCH  23  37
BRANCH  24  45
ATOM     45  C   UNL     1       7.330   9.112   2.474  1.00  0.00     0.057 A 
ATOM     46  C   UNL     1       8.434   9.394   1.662  1.00  0.00     0.134 A 
ATOM     47  C   UNL     1       6.219   9.954   2.369  1.00  0.00     0.134 A 
ATOM     48  F   UNL     1       9.543   8.645   1.747  1.00  0.00    -0.206 F 
ATOM     49  C   UNL     1       8.437  10.479   0.783  1.00  0.00     0.040 A 
ATOM     50  C   UNL     1       6.203  11.035   1.485  1.00  0.00     0.040 A 
ATOM     51  F   UNL     1       5.142   9.752   3.142  1.00  0.00    -0.206 F 
ATOM     52  C   UNL     1       7.315  11.301   0.689  1.00  0.00     0.006 A 
ENDBRANCH  24  45
BRANCH  36  53
ATOM     53  C   UNL     1      10.522   8.258   8.565  1.00  0.00     0.057 A 
ATOM     54  C   UNL     1      10.107   9.415   9.234  1.00  0.00     0.134 A 
ATOM     55  C   UNL     1      11.878   7.915   8.634  1.00  0.00     0.134 A 
ATOM     56  F   UNL     1       8.824   9.803   9.190  1.00  0.00    -0.206 F 
ATOM     57  C   UNL     1      11.015  10.219   9.923  1.00  0.00     0.040 A 
ATOM     58  C   UNL     1      12.790   8.694   9.345  1.00  0.00     0.040 A 
ATOM     59  F   UNL     1      12.335   6.813   8.020  1.00  0.00    -0.206 F 
ATOM     60  C   UNL     1      12.360   9.854   9.985  1.00  0.00     0.006 A 
ENDBRANCH  36  53
ENDBRANCH  10  11
ENDBRANCH   3   5
ENDBRANCH   2   3
ENDBRANCH   1   2
BRANCH   1  61
ATOM     61  C   UNL     1       3.926   0.555  -2.242  1.00  0.00     0.274 C 
BRANCH  61  62
ATOM     62  O   UNL     1       3.541   1.569  -1.293  1.00  0.00    -0.458 OA
BRANCH  62  63
ATOM     63  C   UNL     1       2.197   1.746  -1.085  1.00  0.00     0.365 C 
ATOM     64  O   UNL     1       1.326   1.093  -1.655  1.00  0.00    -0.245 OA
BRANCH  63  65
ATOM     65  C   UNL     1       1.945   2.850  -0.035  1.00  0.00     0.298 C 
ATOM     66  C   UNL     1       2.442   4.177  -0.650  1.00  0.00     0.115 C 
ATOM     67  N   UNL     1       0.517   2.850   0.398  1.00  0.00    -0.323 N 
ATOM     68  C   UNL     1       1.972   5.317   0.170  1.00  0.00    -0.006 A 
ATOM     69  C   UNL     1       0.068   3.935   1.284  1.00  0.00     0.264 C 
ATOM     70  H   UNL     1       0.347   1.970   0.886  1.00  0.00     0.347 HD
ATOM     71  H   UNL     1      -0.012   2.986  -0.463  1.00  0.00     0.347 HD
ATOM     72  C   UNL     1       0.902   5.175   1.034  1.00  0.00     0.083 A 
ATOM     73  C   UNL     1       2.430   6.662   0.235  1.00  0.00     0.003 A 
ATOM     74  N   UNL     1       0.688   6.404   1.596  1.00  0.00    -0.353 N 
ATOM     75  C   UNL     1       1.625   7.312   1.166  1.00  0.00     0.046 A 
ATOM     76  C   UNL     1       3.446   7.402  -0.401  1.00  0.00     0.010 A 
ATOM     77  H   UNL     1      -0.041   6.611   2.225  1.00  0.00     0.166 HD
ATOM     78  C   UNL     1       1.795   8.652   1.525  1.00  0.00     0.026 A 
ATOM     79  C   UNL     1       3.623   8.751  -0.067  1.00  0.00     0.001 A 
ATOM     80  C   UNL     1       2.812   9.362   0.887  1.00  0.00     0.002 A 
BRANCH  69  81
ATOM     81  C   UNL     1      -0.073   3.593   2.778  1.00  0.00     0.041 A 
ATOM     82  C   UNL     1      -0.526   4.523   3.716  1.00  0.00     0.093 A 
ATOM     83  C   UNL     1       0.042   2.366   3.550  1.00  0.00     0.009 A 
ATOM     84  N   UNL     1      -0.369   4.030   4.974  1.00  0.00    -0.361 N 
ATOM     85  C   UNL     1      -0.017   2.712   4.909  1.00  0.00     0.046 A 
ATOM     86  C   UNL     1       0.191   0.990   3.276  1.00  0.00     0.011 A 
ATOM     87  H   UNL     1      -0.491   4.544   5.805  1.00  0.00     0.166 HD
ATOM     88  C   UNL     1       0.213   1.821   5.965  1.00  0.00     0.026 A 
ATOM     89  C   UNL     1       0.389   0.069   4.326  1.00  0.00     0.001 A 
ATOM     90  C   UNL     1       0.441   0.487   5.649  1.00  0.00     0.002 A 
ENDBRANCH  69  81
ENDBRANCH  63  65
ENDBRANCH  62  63
ENDBRANCH  61  62
ENDBRANCH   1  61
TORSDOF 12
