REMARK SMILES CCOc1cnc(C(=O)c2[nH]c3cc(Cl)ccc3c2CC(=O)OCCOC(=O)c2ccc(-c3c4nc(c(-c5c(F)cccc5F)c5ccc([nH]5)c(-c5c(F)cccc5F)c5nc(c(-c6c(F)cccc6F)c6ccc3[nH]6)C=C5)C=C4)cc2)cc1CC
REMARK SMILES IDX 23 1 21 2 22 3 20 4 19 5 10 6 11 7 12 8 18 10 13 11 17 12
REMARK SMILES IDX 14 13 16 14 15 15 8 16 9 17 7 18 4 19 5 20 84 21 6 22 83 23
REMARK SMILES IDX 3 24 2 25 1 26 85 27 86 28 24 29 25 30 26 31 27 32 28 33
REMARK SMILES IDX 29 34 30 35 82 36 31 37 81 38 32 39 33 40 34 41 75 42 35 43
REMARK SMILES IDX 80 44 74 45 76 46 36 47 79 48 73 49 72 50 37 52 63 53 46 54
REMARK SMILES IDX 62 55 47 56 50 57 61 58 77 59 48 60 49 61 60 63 78 64 51 65
REMARK SMILES IDX 38 66 39 67 44 68 40 69 41 70 43 71 45 72 42 73 64 74 65 75
REMARK SMILES IDX 70 76 66 77 67 78 69 79 71 80 68 81 52 82 53 83 58 84 54 85
REMARK SMILES IDX 55 86 57 87 59 88 56 89
REMARK H PARENT 11 9 76 51 50 62
REMARK Flexibility Score: inf
ROOT
ATOM      1  O   UNL     1       9.880   1.703  -4.218  1.00  0.00    -0.462 OA
ENDROOT
BRANCH   1   2
ATOM      2  C   UNL     1       9.718   2.267  -2.996  1.00  0.00     0.310 C 
ATOM      3  O   UNL     1      10.097   3.403  -2.709  1.00  0.00    -0.252 OA
BRANCH   2   4
ATOM      4  C   UNL     1       8.899   1.459  -2.012  1.00  0.00     0.161 C 
BRANCH   4   5
ATOM      5  C   UNL     1       8.752  -0.018  -2.213  1.00  0.00     0.000 A 
ATOM      6  C   UNL     1       7.783  -0.702  -2.947  1.00  0.00     0.093 A 
ATOM      7  N   UNL     1       8.062  -2.044  -2.829  1.00  0.00    -0.351 N 
ATOM      8  C   UNL     1       8.993  -2.259  -1.848  1.00  0.00     0.048 A 
ATOM      9  H   UNL     1       7.650  -2.752  -3.375  1.00  0.00     0.167 HD
ATOM     10  C   UNL     1       9.510  -1.013  -1.502  1.00  0.00     0.004 A 
ATOM     11  C   UNL     1       9.409  -3.454  -1.251  1.00  0.00     0.047 A 
ATOM     12  C   UNL     1      10.547  -0.963  -0.545  1.00  0.00     0.012 A 
ATOM     13  C   UNL     1      10.406  -3.368  -0.278  1.00  0.00     0.043 A 
ATOM     14  C   UNL     1      10.983  -2.148   0.063  1.00  0.00     0.021 A 
ATOM     15  Cl  UNL     1      10.922  -4.804   0.522  1.00  0.00    -0.084 Cl
BRANCH   6  16
ATOM     16  C   UNL     1       6.634  -0.281  -3.741  1.00  0.00     0.227 C 
ATOM     17  O   UNL     1       6.586  -0.510  -4.949  1.00  0.00    -0.285 OA
BRANCH  16  18
ATOM     18  C   UNL     1       5.361   0.109  -3.018  1.00  0.00     0.113 A 
ATOM     19  C   UNL     1       2.760   0.107  -2.108  1.00  0.00     0.140 A 
ATOM     20  C   UNL     1       3.165   0.808  -3.239  1.00  0.00     0.158 A 
ATOM     21  C   UNL     1       3.719  -0.619  -1.400  1.00  0.00    -0.002 A 
ATOM     22  N   UNL     1       4.432   0.813  -3.720  1.00  0.00    -0.249 NA
ATOM     23  C   UNL     1       5.055  -0.541  -1.823  1.00  0.00     0.040 A 
BRANCH  19  24
ATOM     24  O   UNL     1       1.429  -0.029  -1.836  1.00  0.00    -0.492 OA
BRANCH  24  25
ATOM     25  C   UNL     1       0.929   0.980  -0.950  1.00  0.00     0.226 C 
ATOM     26  C   UNL     1       0.441   0.328   0.332  1.00  0.00     0.049 C 
ENDBRANCH  24  25
ENDBRANCH  19  24
BRANCH  21  27
ATOM     27  C   UNL     1       3.355  -1.582  -0.296  1.00  0.00     0.036 C 
ATOM     28  C   UNL     1       3.767  -3.014  -0.626  1.00  0.00     0.009 C 
ENDBRANCH  21  27
ENDBRANCH  16  18
ENDBRANCH   6  16
ENDBRANCH   4   5
ENDBRANCH   2   4
ENDBRANCH   1   2
BRANCH   1  29
ATOM     29  C   UNL     1      10.350   2.576  -5.270  1.00  0.00     0.274 C 
BRANCH  29  30
ATOM     30  C   UNL     1       9.210   3.020  -6.204  1.00  0.00     0.275 C 
BRANCH  30  31
ATOM     31  O   UNL     1       8.303   3.970  -5.597  1.00  0.00    -0.458 OA
BRANCH  31  32
ATOM     32  C   UNL     1       7.351   3.383  -4.845  1.00  0.00     0.338 C 
ATOM     33  O   UNL     1       7.253   2.192  -4.602  1.00  0.00    -0.246 OA
BRANCH  32  34
ATOM     34  C   UNL     1       6.445   4.311  -4.176  1.00  0.00     0.060 A 
ATOM     35  C   UNL     1       6.514   4.356  -2.783  1.00  0.00     0.016 A 
ATOM     36  C   UNL     1       5.380   4.896  -4.860  1.00  0.00     0.016 A 
ATOM     37  C   UNL     1       5.485   4.938  -2.058  1.00  0.00     0.010 A 
ATOM     38  C   UNL     1       4.376   5.542  -4.131  1.00  0.00     0.010 A 
ATOM     39  C   UNL     1       4.416   5.551  -2.726  1.00  0.00    -0.014 A 
BRANCH  39  40
ATOM     40  C   UNL     1       3.408   6.274  -1.919  1.00  0.00     0.031 A 
ATOM     41  C   UNL     1       2.009   5.765  -1.756  1.00  0.00     0.074 A 
ATOM     42  C   UNL     1       3.803   7.391  -1.280  1.00  0.00     0.049 A 
ATOM     43  N   UNL     1       1.037   6.261  -1.032  1.00  0.00    -0.248 NA
ATOM     44  C   UNL     1       1.647   4.545  -2.492  1.00  0.00     0.031 C 
ATOM     45  C   UNL     1       5.145   7.976  -1.363  1.00  0.00     0.029 A 
ATOM     46  N   UNL     1       3.126   8.226  -0.432  1.00  0.00    -0.354 N 
ATOM     47  C   UNL     1      -0.043   5.410  -1.208  1.00  0.00     0.074 A 
ATOM     48  C   UNL     1       0.375   4.388  -2.143  1.00  0.00     0.031 C 
ATOM     49  C   UNL     1       5.195   9.067  -0.588  1.00  0.00     0.029 A 
ATOM     50  C   UNL     1       3.881   9.284   0.005  1.00  0.00     0.049 A 
ATOM     51  H   UNL     1       2.190   8.081  -0.164  1.00  0.00     0.167 HD
ATOM     52  C   UNL     1      -1.262   5.467  -0.622  1.00  0.00     0.037 A 
ATOM     53  C   UNL     1       3.547  10.332   0.777  1.00  0.00     0.037 A 
ATOM     54  C   UNL     1      -1.682   6.490   0.297  1.00  0.00     0.049 A 
ATOM     55  C   UNL     1       2.156  10.426   1.322  1.00  0.00     0.074 A 
ATOM     56  C   UNL     1      -2.886   6.605   0.970  1.00  0.00     0.029 A 
ATOM     57  N   UNL     1      -0.915   7.587   0.657  1.00  0.00    -0.354 N 
ATOM     58  N   UNL     1       1.166   9.577   1.197  1.00  0.00    -0.248 NA
ATOM     59  C   UNL     1       1.833  11.625   2.104  1.00  0.00     0.031 C 
ATOM     60  C   UNL     1      -2.860   7.792   1.713  1.00  0.00     0.029 A 
ATOM     61  C   UNL     1      -1.634   8.404   1.514  1.00  0.00     0.049 A 
ATOM     62  H   UNL     1       0.004   7.759   0.350  1.00  0.00     0.167 HD
ATOM     63  C   UNL     1       0.102  10.134   1.888  1.00  0.00     0.074 A 
ATOM     64  C   UNL     1       0.573  11.387   2.445  1.00  0.00     0.031 C 
ATOM     65  C   UNL     1      -1.155   9.652   2.046  1.00  0.00     0.037 A 
BRANCH  52  66
ATOM     66  C   UNL     1      -2.227   4.367  -0.928  1.00  0.00     0.057 A 
ATOM     67  C   UNL     1      -2.228   3.192  -0.168  1.00  0.00     0.134 A 
ATOM     68  C   UNL     1      -3.193   4.497  -1.929  1.00  0.00     0.134 A 
ATOM     69  F   UNL     1      -1.332   3.026   0.815  1.00  0.00    -0.206 F 
ATOM     70  C   UNL     1      -3.147   2.170  -0.406  1.00  0.00     0.040 A 
ATOM     71  C   UNL     1      -4.126   3.486  -2.170  1.00  0.00     0.040 A 
ATOM     72  F   UNL     1      -3.248   5.606  -2.680  1.00  0.00    -0.206 F 
ATOM     73  C   UNL     1      -4.103   2.318  -1.409  1.00  0.00     0.006 A 
ENDBRANCH  52  66
BRANCH  53  74
ATOM     74  C   UNL     1       4.552  11.388   1.035  1.00  0.00     0.057 A 
ATOM     75  C   UNL     1       5.160  11.524   2.285  1.00  0.00     0.134 A 
ATOM     76  C   UNL     1       4.959  12.256   0.014  1.00  0.00     0.134 A 
ATOM     77  F   UNL     1       4.799  10.727   3.302  1.00  0.00    -0.206 F 
ATOM     78  C   UNL     1       6.141  12.490   2.514  1.00  0.00     0.040 A 
ATOM     79  C   UNL     1       5.952  13.212   0.222  1.00  0.00     0.040 A 
ATOM     80  F   UNL     1       4.415  12.165  -1.209  1.00  0.00    -0.206 F 
ATOM     81  C   UNL     1       6.545  13.331   1.477  1.00  0.00     0.006 A 
ENDBRANCH  53  74
BRANCH  65  82
ATOM     82  C   UNL     1      -2.102  10.490   2.844  1.00  0.00     0.057 A 
ATOM     83  C   UNL     1      -2.699  11.632   2.297  1.00  0.00     0.134 A 
ATOM     84  C   UNL     1      -2.429  10.149   4.161  1.00  0.00     0.134 A 
ATOM     85  F   UNL     1      -2.409  12.016   1.045  1.00  0.00    -0.206 F 
ATOM     86  C   UNL     1      -3.579  12.418   3.040  1.00  0.00     0.040 A 
ATOM     87  C   UNL     1      -3.322  10.918   4.909  1.00  0.00     0.040 A 
ATOM     88  F   UNL     1      -1.891   9.064   4.738  1.00  0.00    -0.206 F 
ATOM     89  C   UNL     1      -3.895  12.059   4.349  1.00  0.00     0.006 A 
ENDBRANCH  65  82
ENDBRANCH  39  40
ENDBRANCH  32  34
ENDBRANCH  31  32
ENDBRANCH  30  31
ENDBRANCH  29  30
ENDBRANCH   1  29
TORSDOF 17
