REMARK SMILES CCCc1cc(S(F)(F)(F)(F)F)cc2c1O[C@@H](C(F)(F)F)C(C(=O)OCCOC(=O)c1ccc(-c3c4nc(c(-c5c(F)cccc5F)c5ccc([nH]5)c(-c5c(F)cccc5F)c5nc(c(-c6c(F)cccc6F)c6ccc3[nH]6)C=C5)C=C4)cc1)=C2
REMARK SMILES IDX 26 1 25 2 23 3 24 4 22 5 4 6 5 7 15 8 6 9 14 10 16 11 13 12
REMARK SMILES IDX 85 13 17 14 3 15 2 16 1 17 7 18 8 19 9 20 10 21 11 22 12 23
REMARK SMILES IDX 18 24 19 25 20 26 21 27 27 28 28 29 29 30 30 31 31 32 32 33
REMARK SMILES IDX 84 34 33 35 83 36 34 37 35 38 36 39 77 40 37 41 82 42 76 43
REMARK SMILES IDX 78 44 38 45 81 46 75 47 74 48 39 50 65 51 48 52 64 53 49 54
REMARK SMILES IDX 52 55 63 56 79 57 50 58 51 59 62 61 80 62 53 63 40 64 41 65
REMARK SMILES IDX 46 66 42 67 43 68 45 69 47 70 44 71 66 72 67 73 72 74 68 75
REMARK SMILES IDX 69 76 71 77 73 78 70 79 54 80 55 81 60 82 56 83 57 84 59 85
REMARK SMILES IDX 61 86 58 87
REMARK H PARENT 78 49 52 60
REMARK Flexibility Score: inf
ROOT
ATOM      1  C   UNL     1      -5.223   3.759  -3.569  1.00  0.00     0.275 C 
ENDROOT
BRANCH   1   2
ATOM      2  O   UNL     1      -4.145   3.722  -2.646  1.00  0.00    -0.459 OA
BRANCH   2   3
ATOM      3  C   UNL     1      -3.543   2.481  -2.307  1.00  0.00     0.338 C 
ATOM      4  O   UNL     1      -3.970   1.404  -2.829  1.00  0.00    -0.246 OA
BRANCH   3   5
ATOM      5  C   UNL     1      -2.389   2.442  -1.319  1.00  0.00     0.087 C 
ATOM      6  C   UNL     1       0.436   2.196   1.748  1.00  0.00    -0.004 A 
ATOM      7  C   UNL     1       1.065   3.342   2.200  1.00  0.00     0.032 A 
ATOM      8  C   UNL     1      -0.527   2.312   0.776  1.00  0.00     0.131 A 
ATOM      9  C   UNL     1       0.735   4.573   1.696  1.00  0.00     0.108 A 
ATOM     10  C   UNL     1      -0.873   3.536   0.231  1.00  0.00     0.019 A 
ATOM     11  O   UNL     1      -1.221   1.182   0.418  1.00  0.00    -0.475 OA
ATOM     12  C   UNL     1      -0.225   4.668   0.711  1.00  0.00     0.036 A 
ATOM     13  C   UNL     1      -1.932   3.558  -0.764  1.00  0.00     0.027 C 
ATOM     14  C   UNL     1      -1.732   1.120  -0.943  1.00  0.00     0.316 C 
BRANCH   6  15
ATOM     15  C   UNL     1       0.943   0.874   2.300  1.00  0.00     0.039 C 
BRANCH  15  16
ATOM     16  C   UNL     1       0.436  -0.265   1.430  1.00  0.00     0.001 C 
ATOM     17  C   UNL     1       0.943  -0.082   0.009  1.00  0.00     0.004 C 
ENDBRANCH  15  16
ENDBRANCH   6  15
BRANCH   9  18
ATOM     18  S   UNL     1       1.553   6.062   2.319  1.00  0.00     0.310 S 
ATOM     19  F   UNL     1       0.680   5.977   3.640  1.00  0.00    -0.094 F 
ATOM     20  F   UNL     1       0.355   6.844   1.659  1.00  0.00    -0.094 F 
ATOM     21  F   UNL     1       2.150   7.387   2.873  1.00  0.00    -0.094 F 
ATOM     22  F   UNL     1       2.666   5.249   3.089  1.00  0.00    -0.094 F 
ATOM     23  F   UNL     1       0.897   4.700   1.859  1.00  0.00    -0.094 F 
ENDBRANCH   9  18
BRANCH  14  24
ATOM     24  C   UNL     1      -2.765   0.009  -1.035  1.00  0.00     0.430 C 
ATOM     25  F   UNL     1      -3.235  -0.058  -2.277  1.00  0.00    -0.167 F 
ATOM     26  F   UNL     1      -2.198  -1.151  -0.712  1.00  0.00    -0.167 F 
ATOM     27  F   UNL     1      -3.765   0.262  -0.196  1.00  0.00    -0.167 F 
ENDBRANCH  14  24
ENDBRANCH   3   5
ENDBRANCH   2   3
ENDBRANCH   1   2
BRANCH   1  28
ATOM     28  C   UNL     1      -4.767   3.195  -4.905  1.00  0.00     0.275 C 
BRANCH  28  29
ATOM     29  O   UNL     1      -4.340   1.852  -4.730  1.00  0.00    -0.458 OA
BRANCH  29  30
ATOM     30  C   UNL     1      -3.266   1.558  -3.848  1.00  0.00     0.338 C 
ATOM     31  O   UNL     1      -2.688   2.496  -3.215  1.00  0.00    -0.246 OA
BRANCH  30  32
ATOM     32  C   UNL     1      -2.809   0.120  -3.661  1.00  0.00     0.060 A 
ATOM     33  C   UNL     1      -2.558  -0.348  -2.382  1.00  0.00     0.016 A 
ATOM     34  C   UNL     1      -2.653  -0.661  -4.723  1.00  0.00     0.016 A 
ATOM     35  C   UNL     1      -1.864  -1.580  -2.348  1.00  0.00     0.010 A 
ATOM     36  C   UNL     1      -2.091  -1.909  -4.597  1.00  0.00     0.010 A 
ATOM     37  C   UNL     1      -1.764  -2.412  -3.369  1.00  0.00    -0.014 A 
BRANCH  37  38
ATOM     38  C   UNL     1      -1.310  -3.851  -3.188  1.00  0.00     0.031 A 
ATOM     39  C   UNL     1      -0.163  -4.289  -3.852  1.00  0.00     0.074 A 
ATOM     40  C   UNL     1      -2.073  -4.649  -2.351  1.00  0.00     0.049 A 
ATOM     41  N   UNL     1       0.407  -5.493  -3.782  1.00  0.00    -0.248 NA
ATOM     42  C   UNL     1       0.629  -3.454  -4.767  1.00  0.00     0.031 C 
ATOM     43  C   UNL     1      -3.226  -4.212  -1.671  1.00  0.00     0.029 A 
ATOM     44  N   UNL     1      -1.869  -5.972  -2.029  1.00  0.00    -0.354 N 
ATOM     45  C   UNL     1       1.502  -5.529  -4.545  1.00  0.00     0.074 A 
ATOM     46  C   UNL     1       1.657  -4.220  -5.194  1.00  0.00     0.031 C 
ATOM     47  C   UNL     1      -3.718  -5.259  -0.958  1.00  0.00     0.029 A 
ATOM     48  C   UNL     1      -2.879  -6.368  -1.180  1.00  0.00     0.049 A 
ATOM     49  H   UNL     1      -1.130  -6.537  -2.349  1.00  0.00     0.167 HD
ATOM     50  C   UNL     1       2.378  -6.601  -4.723  1.00  0.00     0.037 A 
ATOM     51  C   UNL     1      -3.077  -7.622  -0.623  1.00  0.00     0.037 A 
ATOM     52  C   UNL     1       2.205  -7.841  -4.130  1.00  0.00     0.049 A 
ATOM     53  C   UNL     1      -2.232  -8.712  -0.847  1.00  0.00     0.074 A 
ATOM     54  C   UNL     1       3.083  -8.930  -4.293  1.00  0.00     0.029 A 
ATOM     55  N   UNL     1       1.181  -8.245  -3.301  1.00  0.00    -0.354 N 
ATOM     56  N   UNL     1      -1.117  -8.736  -1.578  1.00  0.00    -0.248 NA
ATOM     57  C   UNL     1      -2.449 -10.052  -0.288  1.00  0.00     0.031 C 
ATOM     58  C   UNL     1       2.591  -9.979  -3.580  1.00  0.00     0.029 A 
ATOM     59  C   UNL     1       1.397  -9.562  -2.961  1.00  0.00     0.049 A 
ATOM     60  H   UNL     1       0.426  -7.688  -3.004  1.00  0.00     0.167 HD
ATOM     61  C   UNL     1      -0.569  -9.952  -1.541  1.00  0.00     0.074 A 
ATOM     62  C   UNL     1      -1.422 -10.819  -0.716  1.00  0.00     0.031 C 
ATOM     63  C   UNL     1       0.610 -10.373  -2.158  1.00  0.00     0.037 A 
BRANCH  50  64
ATOM     64  C   UNL     1       3.591  -6.396  -5.616  1.00  0.00     0.057 A 
ATOM     65  C   UNL     1       4.521  -5.423  -5.288  1.00  0.00     0.134 A 
ATOM     66  C   UNL     1       3.741  -7.158  -6.693  1.00  0.00     0.134 A 
ATOM     67  F   UNL     1       4.551  -4.817  -4.105  1.00  0.00    -0.206 F 
ATOM     68  C   UNL     1       5.439  -5.135  -6.326  1.00  0.00     0.040 A 
ATOM     69  C   UNL     1       4.744  -6.902  -7.597  1.00  0.00     0.040 A 
ATOM     70  F   UNL     1       2.914  -8.179  -6.898  1.00  0.00    -0.206 F 
ATOM     71  C   UNL     1       5.664  -5.917  -7.366  1.00  0.00     0.006 A 
ENDBRANCH  50  64
BRANCH  51  72
ATOM     72  C   UNL     1      -4.280  -7.822   0.284  1.00  0.00     0.057 A 
ATOM     73  C   UNL     1      -4.085  -8.219   1.597  1.00  0.00     0.134 A 
ATOM     74  C   UNL     1      -5.500  -7.620  -0.201  1.00  0.00     0.134 A 
ATOM     75  F   UNL     1      -2.898  -8.188   2.195  1.00  0.00    -0.206 F 
ATOM     76  C   UNL     1      -5.264  -8.659   2.244  1.00  0.00     0.040 A 
ATOM     77  C   UNL     1      -6.610  -7.947   0.540  1.00  0.00     0.040 A 
ATOM     78  F   UNL     1      -5.648  -7.096  -1.414  1.00  0.00    -0.206 F 
ATOM     79  C   UNL     1      -6.489  -8.401   1.824  1.00  0.00     0.006 A 
ENDBRANCH  51  72
BRANCH  63  80
ATOM     80  C   UNL     1       1.058 -11.809  -1.938  1.00  0.00     0.057 A 
ATOM     81  C   UNL     1       0.216 -12.839  -2.321  1.00  0.00     0.134 A 
ATOM     82  C   UNL     1       2.235 -12.055  -1.374  1.00  0.00     0.134 A 
ATOM     83  F   UNL     1      -0.841 -12.658  -3.107  1.00  0.00    -0.206 F 
ATOM     84  C   UNL     1       0.583 -14.103  -1.801  1.00  0.00     0.040 A 
ATOM     85  C   UNL     1       2.585 -13.334  -1.015  1.00  0.00     0.040 A 
ATOM     86  F   UNL     1       3.083 -11.053  -1.155  1.00  0.00    -0.206 F 
ATOM     87  C   UNL     1       1.774 -14.394  -1.310  1.00  0.00     0.006 A 
ENDBRANCH  63  80
ENDBRANCH  37  38
ENDBRANCH  30  32
ENDBRANCH  29  30
ENDBRANCH  28  29
ENDBRANCH   1  28
TORSDOF 15
