REMARK SMILES CCCC[C@@H](Sc1nc(OCCC2CCCCC2)cc(OCCC2CCCCC2)n1)C(=O)OCCOC(=O)c1ccc(-c2c3nc(c(-c4c(F)cccc4F)c4ccc([nH]4)c(-c4c(F)cccc4F)c4nc(c(-c5c(F)cccc5F)c5ccc2[nH]5)C=C4)C=C3)cc1
REMARK SMILES IDX 31 1 32 2 5 3 4 4 3 5 2 6 1 7 6 8 7 9 8 10 30 11 9 12 20 13
REMARK SMILES IDX 19 14 10 15 11 16 12 17 13 18 14 19 18 20 15 21 17 22 16 23
REMARK SMILES IDX 21 24 22 25 23 26 24 27 25 28 29 29 26 30 28 31 27 32 33 33
REMARK SMILES IDX 34 34 35 35 36 36 37 37 38 38 39 39 40 40 92 41 41 42 91 43
REMARK SMILES IDX 42 44 43 45 44 46 85 47 45 48 90 49 84 50 86 51 46 52 89 53
REMARK SMILES IDX 83 54 82 55 47 57 73 58 56 59 72 60 57 61 60 62 71 63 87 64
REMARK SMILES IDX 58 65 59 66 70 68 88 69 61 70 48 71 49 72 54 73 50 74 51 75
REMARK SMILES IDX 53 76 55 77 52 78 74 79 75 80 80 81 76 82 77 83 79 84 81 85
REMARK SMILES IDX 78 86 62 87 63 88 68 89 64 90 65 91 67 92 69 93 66 94
REMARK H PARENT 86 56 60 67
REMARK Flexibility Score: inf
ROOT
ATOM      1  C   UNL     1      -1.853  -3.090  -3.065  1.00  0.00     0.319 C 
ATOM      2  O   UNL     1      -3.007  -3.147  -2.650  1.00  0.00    -0.251 OA
ENDROOT
BRANCH   1   3
ATOM      3  C   UNL     1      -1.105  -1.777  -3.239  1.00  0.00     0.164 C 
BRANCH   3   4
ATOM      4  C   UNL     1       0.397  -1.882  -2.886  1.00  0.00     0.027 C 
BRANCH   4   5
ATOM      5  C   UNL     1       1.022  -0.623  -2.257  1.00  0.00     0.001 C 
BRANCH   5   6
ATOM      6  C   UNL     1       0.536  -0.293  -0.846  1.00  0.00    -0.003 C 
ATOM      7  C   UNL     1       1.245  -1.092   0.235  1.00  0.00     0.004 C 
ENDBRANCH   5   6
ENDBRANCH   4   5
ENDBRANCH   3   4
BRANCH   3   8
ATOM      8  S   UNL     1      -1.441  -1.216  -4.950  1.00  0.00    -0.071 SA
BRANCH   8   9
ATOM      9  C   UNL     1      -1.122   0.497  -4.693  1.00  0.00     0.195 A 
ATOM     10  N   UNL     1      -1.866   1.151  -3.790  1.00  0.00    -0.187 NA
ATOM     11  N   UNL     1      -0.036   0.981  -5.298  1.00  0.00    -0.187 NA
ATOM     12  C   UNL     1      -1.513   2.415  -3.532  1.00  0.00     0.221 A 
ATOM     13  C   UNL     1       0.318   2.229  -4.987  1.00  0.00     0.221 A 
ATOM     14  C   UNL     1      -0.434   3.009  -4.146  1.00  0.00     0.136 A 
BRANCH  12  15
ATOM     15  O   UNL     1      -2.198   2.966  -2.479  1.00  0.00    -0.477 OA
BRANCH  15  16
ATOM     16  C   UNL     1      -2.382   4.377  -2.440  1.00  0.00     0.231 C 
BRANCH  16  17
ATOM     17  C   UNL     1      -1.576   5.123  -1.351  1.00  0.00     0.045 C 
BRANCH  17  18
ATOM     18  C   UNL     1      -0.049   4.920  -1.343  1.00  0.00    -0.008 C 
ATOM     19  C   UNL     1       0.695   6.019  -0.561  1.00  0.00     0.004 C 
ATOM     20  C   UNL     1       0.358   3.559  -0.762  1.00  0.00     0.004 C 
ATOM     21  C   UNL     1       2.213   5.819  -0.654  1.00  0.00     0.000 C 
ATOM     22  C   UNL     1       1.859   3.333  -0.914  1.00  0.00     0.000 C 
ATOM     23  C   UNL     1       2.650   4.425  -0.212  1.00  0.00     0.000 C 
ENDBRANCH  17  18
ENDBRANCH  16  17
ENDBRANCH  15  16
ENDBRANCH  12  15
BRANCH  13  24
ATOM     24  O   UNL     1       1.471   2.598  -5.605  1.00  0.00    -0.477 OA
BRANCH  24  25
ATOM     25  C   UNL     1       2.208   3.736  -5.175  1.00  0.00     0.231 C 
BRANCH  25  26
ATOM     26  C   UNL     1       2.483   4.658  -6.372  1.00  0.00     0.045 C 
BRANCH  26  27
ATOM     27  C   UNL     1       1.315   5.568  -6.836  1.00  0.00    -0.008 C 
ATOM     28  C   UNL     1       0.098   4.785  -7.372  1.00  0.00     0.004 C 
ATOM     29  C   UNL     1       1.037   6.673  -5.804  1.00  0.00     0.004 C 
ATOM     30  C   UNL     1      -1.307   5.228  -6.964  1.00  0.00     0.000 C 
ATOM     31  C   UNL     1      -0.337   7.303  -5.955  1.00  0.00     0.000 C 
ATOM     32  C   UNL     1      -1.381   6.218  -5.818  1.00  0.00     0.000 C 
ENDBRANCH  26  27
ENDBRANCH  25  26
ENDBRANCH  24  25
ENDBRANCH  13  24
ENDBRANCH   8   9
ENDBRANCH   3   8
ENDBRANCH   1   3
BRANCH   1  33
ATOM     33  O   UNL     1      -1.113  -4.170  -3.436  1.00  0.00    -0.461 OA
BRANCH  33  34
ATOM     34  C   UNL     1      -1.761  -5.446  -3.291  1.00  0.00     0.274 C 
BRANCH  34  35
ATOM     35  C   UNL     1      -1.397  -6.101  -1.959  1.00  0.00     0.275 C 
BRANCH  35  36
ATOM     36  O   UNL     1      -1.915  -5.340  -0.848  1.00  0.00    -0.458 OA
BRANCH  36  37
ATOM     37  C   UNL     1      -0.993  -4.681  -0.117  1.00  0.00     0.338 C 
ATOM     38  O   UNL     1       0.223  -4.695  -0.264  1.00  0.00    -0.246 OA
BRANCH  37  39
ATOM     39  C   UNL     1      -1.641  -3.821   0.882  1.00  0.00     0.060 A 
ATOM     40  C   UNL     1      -1.908  -2.499   0.537  1.00  0.00     0.016 A 
ATOM     41  C   UNL     1      -1.794  -4.244   2.201  1.00  0.00     0.016 A 
ATOM     42  C   UNL     1      -2.238  -1.567   1.518  1.00  0.00     0.010 A 
ATOM     43  C   UNL     1      -2.199  -3.321   3.177  1.00  0.00     0.010 A 
ATOM     44  C   UNL     1      -2.381  -1.964   2.854  1.00  0.00    -0.014 A 
BRANCH  44  45
ATOM     45  C   UNL     1      -2.667  -0.944   3.901  1.00  0.00     0.031 A 
ATOM     46  C   UNL     1      -1.670  -0.670   4.998  1.00  0.00     0.074 A 
ATOM     47  C   UNL     1      -3.805  -0.224   3.851  1.00  0.00     0.049 A 
ATOM     48  N   UNL     1      -1.779   0.116   6.040  1.00  0.00    -0.248 NA
ATOM     49  C   UNL     1      -0.383  -1.377   4.915  1.00  0.00     0.031 C 
ATOM     50  C   UNL     1      -4.841  -0.350   2.824  1.00  0.00     0.029 A 
ATOM     51  N   UNL     1      -4.277   0.764   4.680  1.00  0.00    -0.354 N 
ATOM     52  C   UNL     1      -0.597  -0.033   6.757  1.00  0.00     0.074 A 
ATOM     53  C   UNL     1       0.212  -0.993   6.036  1.00  0.00     0.031 C 
ATOM     54  C   UNL     1      -5.811   0.545   3.068  1.00  0.00     0.029 A 
ATOM     55  C   UNL     1      -5.499   1.263   4.299  1.00  0.00     0.049 A 
ATOM     56  H   UNL     1      -3.787   1.083   5.471  1.00  0.00     0.167 HD
ATOM     57  C   UNL     1      -0.218   0.576   7.907  1.00  0.00     0.037 A 
ATOM     58  C   UNL     1      -6.293   2.179   4.884  1.00  0.00     0.037 A 
ATOM     59  C   UNL     1      -1.000   1.563   8.607  1.00  0.00     0.049 A 
ATOM     60  C   UNL     1      -5.859   2.825   6.167  1.00  0.00     0.074 A 
ATOM     61  C   UNL     1      -0.691   2.240   9.776  1.00  0.00     0.029 A 
ATOM     62  N   UNL     1      -2.240   2.026   8.195  1.00  0.00    -0.354 N 
ATOM     63  N   UNL     1      -4.754   2.649   6.849  1.00  0.00    -0.248 NA
ATOM     64  C   UNL     1      -6.787   3.796   6.764  1.00  0.00     0.031 C 
ATOM     65  C   UNL     1      -1.758   3.092  10.086  1.00  0.00     0.029 A 
ATOM     66  C   UNL     1      -2.712   2.974   9.089  1.00  0.00     0.049 A 
ATOM     67  H   UNL     1      -2.715   1.726   7.387  1.00  0.00     0.167 HD
ATOM     68  C   UNL     1      -4.845   3.498   7.944  1.00  0.00     0.074 A 
ATOM     69  C   UNL     1      -6.105   4.202   7.826  1.00  0.00     0.031 C 
ATOM     70  C   UNL     1      -3.964   3.674   8.959  1.00  0.00     0.037 A 
BRANCH  57  71
ATOM     71  C   UNL     1       1.100   0.170   8.502  1.00  0.00     0.057 A 
ATOM     72  C   UNL     1       2.321   0.577   7.950  1.00  0.00     0.134 A 
ATOM     73  C   UNL     1       1.144  -0.609   9.665  1.00  0.00     0.134 A 
ATOM     74  F   UNL     1       2.349   1.314   6.829  1.00  0.00    -0.206 F 
ATOM     75  C   UNL     1       3.539   0.204   8.521  1.00  0.00     0.040 A 
ATOM     76  C   UNL     1       2.355  -0.967  10.259  1.00  0.00     0.040 A 
ATOM     77  F   UNL     1       0.010  -1.025  10.250  1.00  0.00    -0.206 F 
ATOM     78  C   UNL     1       3.558  -0.565   9.684  1.00  0.00     0.006 A 
ENDBRANCH  57  71
BRANCH  58  79
ATOM     79  C   UNL     1      -7.594   2.530   4.263  1.00  0.00     0.057 A 
ATOM     80  C   UNL     1      -7.796   3.778   3.665  1.00  0.00     0.134 A 
ATOM     81  C   UNL     1      -8.663   1.626   4.253  1.00  0.00     0.134 A 
ATOM     82  F   UNL     1      -6.816   4.694   3.665  1.00  0.00    -0.206 F 
ATOM     83  C   UNL     1      -9.020   4.121   3.088  1.00  0.00     0.040 A 
ATOM     84  C   UNL     1      -9.883   1.945   3.658  1.00  0.00     0.040 A 
ATOM     85  F   UNL     1      -8.530   0.413   4.810  1.00  0.00    -0.206 F 
ATOM     86  C   UNL     1     -10.066   3.199   3.078  1.00  0.00     0.006 A 
ENDBRANCH  58  79
BRANCH  70  87
ATOM     87  C   UNL     1      -4.320   4.696   9.997  1.00  0.00     0.057 A 
ATOM     88  C   UNL     1      -5.317   4.462  10.952  1.00  0.00     0.134 A 
ATOM     89  C   UNL     1      -3.654   5.926  10.043  1.00  0.00     0.134 A 
ATOM     90  F   UNL     1      -6.002   3.309  10.952  1.00  0.00    -0.206 F 
ATOM     91  C   UNL     1      -5.659   5.429  11.900  1.00  0.00     0.040 A 
ATOM     92  C   UNL     1      -3.971   6.892  10.999  1.00  0.00     0.040 A 
ATOM     93  F   UNL     1      -2.685   6.210   9.159  1.00  0.00    -0.206 F 
ATOM     94  C   UNL     1      -4.982   6.647  11.926  1.00  0.00     0.006 A 
ENDBRANCH  70  87
ENDBRANCH  44  45
ENDBRANCH  37  39
ENDBRANCH  36  37
ENDBRANCH  35  36
ENDBRANCH  34  35
ENDBRANCH  33  34
ENDBRANCH   1  33
TORSDOF 24
