REMARK SMILES O=C(OCCOC(=O)c1cc2c(Cl)c(C(F)(F)F)cnc2n1S(=O)(=O)c1ccccc1)c1ccc(-c2c3nc(c(-c4c(F)cccc4F)c4ccc([nH]4)c(-c4c(F)cccc4F)c4nc(c(-c5c(F)cccc5F)c5ccc2[nH]5)C=C4)C=C3)cc1
REMARK SMILES IDX 4 1 3 2 2 3 1 4 32 5 33 6 85 7 34 8 84 9 35 10 36 11 37 12
REMARK SMILES IDX 78 13 38 14 83 15 77 16 79 17 39 18 82 19 76 20 75 21 40 23
REMARK SMILES IDX 66 24 49 25 65 26 50 27 53 28 64 29 80 30 51 31 52 32 63 34
REMARK SMILES IDX 81 35 54 36 41 37 42 38 47 39 43 40 44 41 46 42 48 43 45 44
REMARK SMILES IDX 67 45 68 46 73 47 69 48 70 49 72 50 74 51 71 52 55 53 56 54
REMARK SMILES IDX 61 55 57 56 58 57 60 58 62 59 59 60 5 61 6 62 7 63 8 64 9 65
REMARK SMILES IDX 10 66 22 67 11 68 21 69 12 70 20 71 13 72 14 73 19 74 23 75
REMARK SMILES IDX 24 76 25 77 26 78 27 79 31 80 28 81 30 82 29 83 15 84 16 85
REMARK SMILES IDX 17 86 18 87
REMARK H PARENT 79 22 53 33
REMARK Flexibility Score: inf
ROOT
ATOM      1  C   UNL     1       4.502  -0.942  -1.344  1.00  0.00     0.275 C 
ENDROOT
BRANCH   1   2
ATOM      2  O   UNL     1       3.447  -1.611  -0.619  1.00  0.00    -0.458 OA
BRANCH   2   3
ATOM      3  C   UNL     1       2.389  -0.897  -0.178  1.00  0.00     0.338 C 
ATOM      4  O   UNL     1       1.340  -0.773  -0.789  1.00  0.00    -0.246 OA
BRANCH   3   5
ATOM      5  C   UNL     1       2.548  -0.461   1.230  1.00  0.00     0.060 A 
ATOM      6  C   UNL     1       3.803  -0.215   1.794  1.00  0.00     0.016 A 
ATOM      7  C   UNL     1       1.389  -0.287   2.000  1.00  0.00     0.016 A 
ATOM      8  C   UNL     1       3.909   0.138   3.129  1.00  0.00     0.010 A 
ATOM      9  C   UNL     1       1.492   0.072   3.339  1.00  0.00     0.010 A 
ATOM     10  C   UNL     1       2.757   0.246   3.908  1.00  0.00    -0.014 A 
BRANCH  10  11
ATOM     11  C   UNL     1       2.944   0.507   5.329  1.00  0.00     0.031 A 
ATOM     12  C   UNL     1       3.405   1.863   5.733  1.00  0.00     0.074 A 
ATOM     13  C   UNL     1       2.626  -0.407   6.264  1.00  0.00     0.049 A 
ATOM     14  N   UNL     1       4.456   2.193   6.415  1.00  0.00    -0.248 NA
ATOM     15  C   UNL     1       2.589   3.006   5.304  1.00  0.00     0.031 C 
ATOM     16  C   UNL     1       1.888  -1.659   6.080  1.00  0.00     0.029 A 
ATOM     17  N   UNL     1       2.812  -0.342   7.613  1.00  0.00    -0.354 N 
ATOM     18  C   UNL     1       4.349   3.563   6.657  1.00  0.00     0.074 A 
ATOM     19  C   UNL     1       3.239   4.027   5.864  1.00  0.00     0.031 C 
ATOM     20  C   UNL     1       1.505  -2.124   7.288  1.00  0.00     0.029 A 
ATOM     21  C   UNL     1       2.078  -1.276   8.322  1.00  0.00     0.049 A 
ATOM     22  H   UNL     1       3.412   0.309   8.042  1.00  0.00     0.167 HD
ATOM     23  C   UNL     1       5.060   4.185   7.640  1.00  0.00     0.037 A 
ATOM     24  C   UNL     1       1.891  -1.314   9.661  1.00  0.00     0.037 A 
ATOM     25  C   UNL     1       6.216   3.423   8.034  1.00  0.00     0.049 A 
ATOM     26  C   UNL     1       2.950  -0.505  10.306  1.00  0.00     0.074 A 
ATOM     27  C   UNL     1       7.335   2.927   7.391  1.00  0.00     0.029 A 
ATOM     28  N   UNL     1       6.221   2.825   9.269  1.00  0.00    -0.354 N 
ATOM     29  N   UNL     1       4.206  -0.848  10.370  1.00  0.00    -0.248 NA
ATOM     30  C   UNL     1       2.675   0.899  10.573  1.00  0.00     0.031 C 
ATOM     31  C   UNL     1       7.650   1.713   8.071  1.00  0.00     0.029 A 
ATOM     32  C   UNL     1       6.704   1.558   9.084  1.00  0.00     0.049 A 
ATOM     33  H   UNL     1       5.933   3.227  10.120  1.00  0.00     0.167 HD
ATOM     34  C   UNL     1       4.906   0.345  10.279  1.00  0.00     0.074 A 
ATOM     35  C   UNL     1       3.917   1.387  10.530  1.00  0.00     0.031 C 
ATOM     36  C   UNL     1       6.157   0.393   9.734  1.00  0.00     0.037 A 
BRANCH  23  37
ATOM     37  C   UNL     1       4.531   5.321   8.492  1.00  0.00     0.057 A 
ATOM     38  C   UNL     1       3.163   5.607   8.669  1.00  0.00     0.134 A 
ATOM     39  C   UNL     1       5.391   5.950   9.417  1.00  0.00     0.134 A 
ATOM     40  F   UNL     1       2.211   5.050   7.912  1.00  0.00    -0.206 F 
ATOM     41  C   UNL     1       2.683   6.412   9.708  1.00  0.00     0.040 A 
ATOM     42  C   UNL     1       4.917   6.711  10.493  1.00  0.00     0.040 A 
ATOM     43  F   UNL     1       6.719   5.765   9.360  1.00  0.00    -0.206 F 
ATOM     44  C   UNL     1       3.557   6.934  10.649  1.00  0.00     0.006 A 
ENDBRANCH  23  37
BRANCH  24  45
ATOM     45  C   UNL     1       0.711  -1.822  10.386  1.00  0.00     0.057 A 
ATOM     46  C   UNL     1      -0.580  -1.736   9.832  1.00  0.00     0.134 A 
ATOM     47  C   UNL     1       0.782  -2.204  11.730  1.00  0.00     0.134 A 
ATOM     48  F   UNL     1      -0.770  -1.283   8.584  1.00  0.00    -0.206 F 
ATOM     49  C   UNL     1      -1.732  -2.033  10.564  1.00  0.00     0.040 A 
ATOM     50  C   UNL     1      -0.365  -2.491  12.480  1.00  0.00     0.040 A 
ATOM     51  F   UNL     1       1.964  -2.260  12.360  1.00  0.00    -0.206 F 
ATOM     52  C   UNL     1      -1.627  -2.405  11.897  1.00  0.00     0.006 A 
ENDBRANCH  24  45
BRANCH  36  53
ATOM     53  C   UNL     1       6.870  -0.906   9.507  1.00  0.00     0.057 A 
ATOM     54  C   UNL     1       8.110  -1.122  10.115  1.00  0.00     0.134 A 
ATOM     55  C   UNL     1       6.427  -1.875   8.595  1.00  0.00     0.134 A 
ATOM     56  F   UNL     1       8.626  -0.203  10.947  1.00  0.00    -0.206 F 
ATOM     57  C   UNL     1       8.869  -2.264   9.849  1.00  0.00     0.040 A 
ATOM     58  C   UNL     1       7.161  -3.037   8.344  1.00  0.00     0.040 A 
ATOM     59  F   UNL     1       5.305  -1.694   7.885  1.00  0.00    -0.206 F 
ATOM     60  C   UNL     1       8.388  -3.232   8.970  1.00  0.00     0.006 A 
ENDBRANCH  36  53
ENDBRANCH  10  11
ENDBRANCH   3   5
ENDBRANCH   2   3
ENDBRANCH   1   2
BRANCH   1  61
ATOM     61  C   UNL     1       4.142   0.336  -2.104  1.00  0.00     0.275 C 
BRANCH  61  62
ATOM     62  O   UNL     1       3.703   1.375  -1.212  1.00  0.00    -0.457 OA
BRANCH  62  63
ATOM     63  C   UNL     1       2.571   2.029  -1.585  1.00  0.00     0.356 C 
ATOM     64  O   UNL     1       1.890   1.798  -2.577  1.00  0.00    -0.244 OA
BRANCH  63  65
ATOM     65  C   UNL     1       2.257   3.029  -0.607  1.00  0.00     0.145 A 
ATOM     66  C   UNL     1       1.236   3.031   0.330  1.00  0.00     0.048 A 
ATOM     67  N   UNL     1       2.908   4.236  -0.485  1.00  0.00    -0.209 N 
ATOM     68  C   UNL     1       1.306   4.248   1.066  1.00  0.00     0.040 A 
ATOM     69  C   UNL     1       2.362   4.983   0.527  1.00  0.00     0.156 A 
ATOM     70  C   UNL     1       0.608   4.848   2.132  1.00  0.00     0.065 A 
ATOM     71  N   UNL     1       2.737   6.213   0.924  1.00  0.00    -0.237 NA
ATOM     72  Cl  UNL     1      -0.633   3.894   2.820  1.00  0.00    -0.083 Cl
ATOM     73  C   UNL     1       0.947   6.123   2.572  1.00  0.00     0.093 A 
ATOM     74  C   UNL     1       2.004   6.741   1.927  1.00  0.00     0.128 A 
BRANCH  67  75
ATOM     75  S   UNL     1       4.352   4.583  -1.300  1.00  0.00     0.270 S 
ATOM     76  O   UNL     1       5.378   3.921  -0.516  1.00  0.00    -0.201 OA
ATOM     77  O   UNL     1       4.100   4.198  -2.677  1.00  0.00    -0.201 OA
BRANCH  75  78
ATOM     78  C   UNL     1       4.639   6.326  -1.272  1.00  0.00     0.088 A 
ATOM     79  C   UNL     1       4.144   7.134  -2.300  1.00  0.00     0.022 A 
ATOM     80  C   UNL     1       5.426   6.874  -0.252  1.00  0.00     0.022 A 
ATOM     81  C   UNL     1       4.408   8.504  -2.281  1.00  0.00     0.001 A 
ATOM     82  C   UNL     1       5.671   8.245  -0.232  1.00  0.00     0.001 A 
ATOM     83  C   UNL     1       5.162   9.059  -1.244  1.00  0.00     0.000 A 
ENDBRANCH  75  78
ENDBRANCH  67  75
BRANCH  73  84
ATOM     84  C   UNL     1       0.250   6.812   3.696  1.00  0.00     0.419 C 
ATOM     85  F   UNL     1      -1.101   6.856   3.553  1.00  0.00    -0.166 F 
ATOM     86  F   UNL     1       0.493   6.222   4.898  1.00  0.00    -0.166 F 
ATOM     87  F   UNL     1       0.638   8.111   3.846  1.00  0.00    -0.166 F 
ENDBRANCH  73  84
ENDBRANCH  63  65
ENDBRANCH  62  63
ENDBRANCH  61  62
ENDBRANCH   1  61
TORSDOF 14
