REMARK SMILES CN(C)C(=O)CSc1ccc(C(=O)OCCOC(=O)c2ccc(-c3c4nc(c(-c5c(F)cccc5F)c5ccc([nH]5)c(-c5c(F)cccc5F)c5nc(c(-c6c(F)cccc6F)c6ccc3[nH]6)C=C5)C=C4)cc2)cc1
REMARK SMILES IDX 15 1 14 2 12 3 13 4 11 5 8 6 9 7 75 8 10 9 74 10 7 11 6 12
REMARK SMILES IDX 4 13 1 14 2 15 3 16 5 17 16 18 17 19 18 20 19 21 20 22 21 23
REMARK SMILES IDX 73 24 22 25 72 26 23 27 24 28 25 29 66 30 26 31 71 32 65 33
REMARK SMILES IDX 67 34 27 35 70 36 64 37 63 38 28 40 54 41 37 42 53 43 38 44
REMARK SMILES IDX 41 45 52 46 68 47 39 48 40 49 51 51 69 52 42 53 29 54 30 55
REMARK SMILES IDX 35 56 31 57 32 58 34 59 36 60 33 61 55 62 56 63 61 64 57 65
REMARK SMILES IDX 58 66 60 67 62 68 59 69 43 70 44 71 49 72 45 73 46 74 48 75
REMARK SMILES IDX 50 76 47 77
REMARK H PARENT 67 39 41 50
REMARK Flexibility Score: inf
ROOT
ATOM      1  C   UNL     1       8.906  -3.339   0.177  1.00  0.00     0.275 C 
ENDROOT
BRANCH   1   2
ATOM      2  O   UNL     1       7.465  -3.299   0.196  1.00  0.00    -0.458 OA
BRANCH   2   3
ATOM      3  C   UNL     1       6.841  -4.233  -0.565  1.00  0.00     0.338 C 
ATOM      4  O   UNL     1       7.376  -5.062  -1.284  1.00  0.00    -0.246 OA
BRANCH   3   5
ATOM      5  C   UNL     1       5.375  -4.203  -0.331  1.00  0.00     0.060 A 
ATOM      6  C   UNL     1       2.605  -4.263   0.110  1.00  0.00     0.008 A 
ATOM      7  C   UNL     1       3.263  -5.401  -0.359  1.00  0.00     0.016 A 
ATOM      8  C   UNL     1       3.342  -3.103   0.376  1.00  0.00     0.016 A 
ATOM      9  C   UNL     1       4.637  -5.365  -0.597  1.00  0.00     0.017 A 
ATOM     10  C   UNL     1       4.721  -3.068   0.153  1.00  0.00     0.017 A 
BRANCH   6  11
ATOM     11  S   UNL     1       0.853  -4.336   0.411  1.00  0.00    -0.116 SA
BRANCH  11  12
ATOM     12  C   UNL     1       0.226  -3.416  -1.039  1.00  0.00     0.175 C 
BRANCH  12  13
ATOM     13  C   UNL     1       0.661  -1.957  -1.044  1.00  0.00     0.232 C 
ATOM     14  C   UNL     1       0.766   0.234  -0.001  1.00  0.00     0.146 C 
ATOM     15  N   UNL     1       0.209  -1.106  -0.041  1.00  0.00    -0.348 N 
ATOM     16  C   UNL     1      -0.724  -1.465   1.015  1.00  0.00     0.146 C 
ATOM     17  O   UNL     1       1.403  -1.545  -1.942  1.00  0.00    -0.274 OA
ENDBRANCH  12  13
ENDBRANCH  11  12
ENDBRANCH   6  11
ENDBRANCH   3   5
ENDBRANCH   2   3
ENDBRANCH   1   2
BRANCH   1  18
ATOM     18  C   UNL     1       9.431  -4.085   1.403  1.00  0.00     0.275 C 
BRANCH  18  19
ATOM     19  O   UNL     1       8.979  -5.449   1.357  1.00  0.00    -0.458 OA
BRANCH  19  20
ATOM     20  C   UNL     1       8.544  -5.969   2.528  1.00  0.00     0.338 C 
ATOM     21  O   UNL     1       8.568  -5.444   3.627  1.00  0.00    -0.246 OA
BRANCH  20  22
ATOM     22  C   UNL     1       8.024  -7.329   2.293  1.00  0.00     0.060 A 
ATOM     23  C   UNL     1       7.053  -7.551   1.317  1.00  0.00     0.016 A 
ATOM     24  C   UNL     1       8.437  -8.376   3.117  1.00  0.00     0.016 A 
ATOM     25  C   UNL     1       6.447  -8.802   1.200  1.00  0.00     0.010 A 
ATOM     26  C   UNL     1       7.884  -9.650   2.946  1.00  0.00     0.010 A 
ATOM     27  C   UNL     1       6.858  -9.872   2.008  1.00  0.00    -0.014 A 
BRANCH  27  28
ATOM     28  C   UNL     1       6.181 -11.198   1.924  1.00  0.00     0.031 A 
ATOM     29  C   UNL     1       5.498 -11.774   3.138  1.00  0.00     0.074 A 
ATOM     30  C   UNL     1       6.159 -11.894   0.769  1.00  0.00     0.049 A 
ATOM     31  N   UNL     1       5.022 -12.979   3.330  1.00  0.00    -0.248 NA
ATOM     32  C   UNL     1       5.342 -10.878   4.295  1.00  0.00     0.031 C 
ATOM     33  C   UNL     1       6.734 -11.453  -0.501  1.00  0.00     0.029 A 
ATOM     34  N   UNL     1       5.619 -13.124   0.478  1.00  0.00    -0.354 N 
ATOM     35  C   UNL     1       4.575 -13.006   4.645  1.00  0.00     0.074 A 
ATOM     36  C   UNL     1       4.828 -11.695   5.203  1.00  0.00     0.031 C 
ATOM     37  C   UNL     1       6.482 -12.376  -1.443  1.00  0.00     0.029 A 
ATOM     38  C   UNL     1       5.799 -13.510  -0.828  1.00  0.00     0.049 A 
ATOM     39  H   UNL     1       5.147 -13.676   1.143  1.00  0.00     0.167 HD
ATOM     40  C   UNL     1       4.007 -14.030   5.327  1.00  0.00     0.037 A 
ATOM     41  C   UNL     1       5.486 -14.659  -1.456  1.00  0.00     0.037 A 
ATOM     42  C   UNL     1       3.686 -15.311   4.757  1.00  0.00     0.049 A 
ATOM     43  C   UNL     1       4.859 -15.782  -0.680  1.00  0.00     0.074 A 
ATOM     44  C   UNL     1       3.091 -16.403   5.367  1.00  0.00     0.029 A 
ATOM     45  N   UNL     1       3.908 -15.665   3.436  1.00  0.00    -0.354 N 
ATOM     46  N   UNL     1       4.510 -15.820   0.582  1.00  0.00    -0.248 NA
ATOM     47  C   UNL     1       4.608 -17.033  -1.411  1.00  0.00     0.031 C 
ATOM     48  C   UNL     1       2.974 -17.426   4.419  1.00  0.00     0.029 A 
ATOM     49  C   UNL     1       3.468 -16.959   3.212  1.00  0.00     0.049 A 
ATOM     50  H   UNL     1       4.318 -15.082   2.756  1.00  0.00     0.167 HD
ATOM     51  C   UNL     1       4.002 -17.094   0.797  1.00  0.00     0.074 A 
ATOM     52  C   UNL     1       4.062 -17.791  -0.470  1.00  0.00     0.031 C 
ATOM     53  C   UNL     1       3.537 -17.641   1.947  1.00  0.00     0.037 A 
BRANCH  40  54
ATOM     54  C   UNL     1       3.724 -13.816   6.784  1.00  0.00     0.057 A 
ATOM     55  C   UNL     1       2.653 -13.033   7.229  1.00  0.00     0.134 A 
ATOM     56  C   UNL     1       4.521 -14.436   7.755  1.00  0.00     0.134 A 
ATOM     57  F   UNL     1       1.862 -12.401   6.349  1.00  0.00    -0.206 F 
ATOM     58  C   UNL     1       2.396 -12.858   8.590  1.00  0.00     0.040 A 
ATOM     59  C   UNL     1       4.261 -14.287   9.118  1.00  0.00     0.040 A 
ATOM     60  F   UNL     1       5.560 -15.204   7.395  1.00  0.00    -0.206 F 
ATOM     61  C   UNL     1       3.197 -13.491   9.539  1.00  0.00     0.006 A 
ENDBRANCH  40  54
BRANCH  41  62
ATOM     62  C   UNL     1       5.800 -14.822  -2.897  1.00  0.00     0.057 A 
ATOM     63  C   UNL     1       4.783 -14.850  -3.858  1.00  0.00     0.134 A 
ATOM     64  C   UNL     1       7.120 -14.947  -3.347  1.00  0.00     0.134 A 
ATOM     65  F   UNL     1       3.498 -14.762  -3.484  1.00  0.00    -0.206 F 
ATOM     66  C   UNL     1       5.068 -14.998  -5.216  1.00  0.00     0.040 A 
ATOM     67  C   UNL     1       7.420 -15.071  -4.704  1.00  0.00     0.040 A 
ATOM     68  F   UNL     1       8.137 -14.930  -2.473  1.00  0.00    -0.206 F 
ATOM     69  C   UNL     1       6.391 -15.100  -5.643  1.00  0.00     0.006 A 
ENDBRANCH  41  62
BRANCH  53  70
ATOM     70  C   UNL     1       3.049 -19.055   1.879  1.00  0.00     0.057 A 
ATOM     71  C   UNL     1       3.939 -20.135   1.825  1.00  0.00     0.134 A 
ATOM     72  C   UNL     1       1.679 -19.341   1.895  1.00  0.00     0.134 A 
ATOM     73  F   UNL     1       5.263 -19.923   1.793  1.00  0.00    -0.206 F 
ATOM     74  C   UNL     1       3.481 -21.452   1.771  1.00  0.00     0.040 A 
ATOM     75  C   UNL     1       1.210 -20.655   1.860  1.00  0.00     0.040 A 
ATOM     76  F   UNL     1       0.776 -18.351   1.952  1.00  0.00    -0.206 F 
ATOM     77  C   UNL     1       2.112 -21.715   1.793  1.00  0.00     0.006 A 
ENDBRANCH  53  70
ENDBRANCH  27  28
ENDBRANCH  20  22
ENDBRANCH  19  20
ENDBRANCH  18  19
ENDBRANCH   1  18
TORSDOF 14
