REMARK SMILES C[C@@H]1C[N@H+](Cc2ccccc2)CC[C@@H]1CC(=O)OCCOC(=O)c1ccc(-c2c3nc(c(-c4c(F)cccc4F)c4ccc([nH]4)c(-c4c(F)cccc4F)c4nc(c(-c5c(F)cccc5F)c5ccc2[nH]5)C=C4)C=C3)cc1
REMARK SMILES IDX 19 1 18 2 16 3 17 4 15 5 14 6 1 7 2 8 3 9 4 10 13 11 12 12
REMARK SMILES IDX 5 14 6 15 7 16 11 17 8 18 10 19 9 20 20 21 21 22 22 23 23 24
REMARK SMILES IDX 24 25 25 26 77 27 26 28 76 29 27 30 28 31 29 32 70 33 30 34
REMARK SMILES IDX 75 35 69 36 71 37 31 38 74 39 68 40 67 41 32 43 58 44 41 45
REMARK SMILES IDX 57 46 42 47 45 48 56 49 72 50 43 51 44 52 55 54 73 55 46 56
REMARK SMILES IDX 33 57 34 58 39 59 35 60 36 61 38 62 40 63 37 64 59 65 60 66
REMARK SMILES IDX 65 67 61 68 62 69 64 70 66 71 63 72 47 73 48 74 53 75 49 76
REMARK SMILES IDX 50 77 52 78 54 79 51 80
REMARK H PARENT 4 13 71 42 45 53
REMARK Flexibility Score: inf
ROOT
ATOM      1  C   UNL     1       4.680   0.122  -0.264  1.00  0.00     0.274 C 
ENDROOT
BRANCH   1   2
ATOM      2  O   UNL     1       3.434  -0.051  -0.977  1.00  0.00    -0.462 OA
BRANCH   2   3
ATOM      3  C   UNL     1       2.735  -1.190  -0.748  1.00  0.00     0.306 C 
ATOM      4  O   UNL     1       3.114  -2.093  -0.011  1.00  0.00    -0.252 OA
BRANCH   3   5
ATOM      5  C   UNL     1       1.515  -1.303  -1.648  1.00  0.00     0.127 C 
BRANCH   5   6
ATOM      6  C   UNL     1       0.230  -0.423  -1.542  1.00  0.00     0.014 C 
ATOM      7  C   UNL     1       1.401   1.767  -0.490  1.00  0.00     0.014 C 
ATOM      8  C   UNL     1       0.269   1.123  -1.283  1.00  0.00     0.045 C 
ATOM      9  C   UNL     1      -1.085   1.684  -0.794  1.00  0.00     0.265 C 
ATOM     10  N   UNL     1      -1.768   0.895   0.217  1.00  0.00    -0.331 N 
ATOM     11  C   UNL     1      -0.922  -1.216  -0.855  1.00  0.00     0.066 C 
ATOM     12  C   UNL     1      -2.110  -0.412  -0.319  1.00  0.00     0.262 C 
ATOM     13  H   UNL     1      -2.664   1.343   0.410  1.00  0.00     0.348 HD
BRANCH  10  14
ATOM     14  C   UNL     1      -1.308   1.016   1.611  1.00  0.00     0.299 C 
BRANCH  14  15
ATOM     15  C   UNL     1      -0.872  -0.269   2.286  1.00  0.00     0.006 A 
ATOM     16  C   UNL     1      -1.756  -1.030   3.065  1.00  0.00     0.009 A 
ATOM     17  C   UNL     1       0.370  -0.815   1.981  1.00  0.00     0.009 A 
ATOM     18  C   UNL     1      -1.451  -2.353   3.397  1.00  0.00     0.001 A 
ATOM     19  C   UNL     1       0.611  -2.162   2.204  1.00  0.00     0.001 A 
ATOM     20  C   UNL     1      -0.290  -2.938   2.913  1.00  0.00     0.000 A 
ENDBRANCH  14  15
ENDBRANCH  10  14
ENDBRANCH   5   6
ENDBRANCH   3   5
ENDBRANCH   2   3
ENDBRANCH   1   2
BRANCH   1  21
ATOM     21  C   UNL     1       4.498   0.872   1.064  1.00  0.00     0.275 C 
BRANCH  21  22
ATOM     22  O   UNL     1       3.787   0.103   2.052  1.00  0.00    -0.458 OA
BRANCH  22  23
ATOM     23  C   UNL     1       4.545  -0.820   2.687  1.00  0.00     0.338 C 
ATOM     24  O   UNL     1       5.736  -1.037   2.505  1.00  0.00    -0.246 OA
BRANCH  23  25
ATOM     25  C   UNL     1       3.717  -1.632   3.591  1.00  0.00     0.060 A 
ATOM     26  C   UNL     1       3.477  -2.951   3.221  1.00  0.00     0.016 A 
ATOM     27  C   UNL     1       3.252  -1.150   4.819  1.00  0.00     0.016 A 
ATOM     28  C   UNL     1       2.747  -3.783   4.069  1.00  0.00     0.010 A 
ATOM     29  C   UNL     1       2.634  -2.032   5.726  1.00  0.00     0.010 A 
ATOM     30  C   UNL     1       2.420  -3.376   5.378  1.00  0.00    -0.014 A 
BRANCH  30  31
ATOM     31  C   UNL     1       2.116  -4.435   6.393  1.00  0.00     0.031 A 
ATOM     32  C   UNL     1       0.877  -4.463   7.248  1.00  0.00     0.074 A 
ATOM     33  C   UNL     1       3.026  -5.426   6.532  1.00  0.00     0.049 A 
ATOM     34  N   UNL     1       0.564  -5.306   8.205  1.00  0.00    -0.248 NA
ATOM     35  C   UNL     1      -0.134  -3.424   7.016  1.00  0.00     0.031 C 
ATOM     36  C   UNL     1       4.283  -5.516   5.780  1.00  0.00     0.029 A 
ATOM     37  N   UNL     1       3.034  -6.562   7.302  1.00  0.00    -0.354 N 
ATOM     38  C   UNL     1      -0.659  -4.884   8.715  1.00  0.00     0.074 A 
ATOM     39  C   UNL     1      -1.036  -3.711   7.949  1.00  0.00     0.031 C 
ATOM     40  C   UNL     1       4.862  -6.694   6.016  1.00  0.00     0.029 A 
ATOM     41  C   UNL     1       4.123  -7.369   7.069  1.00  0.00     0.049 A 
ATOM     42  H   UNL     1       2.330  -6.777   7.955  1.00  0.00     0.167 HD
ATOM     43  C   UNL     1      -1.381  -5.418   9.734  1.00  0.00     0.037 A 
ATOM     44  C   UNL     1       4.540  -8.499   7.667  1.00  0.00     0.037 A 
ATOM     45  C   UNL     1      -0.992  -6.589  10.492  1.00  0.00     0.049 A 
ATOM     46  C   UNL     1       3.759  -9.026   8.823  1.00  0.00     0.074 A 
ATOM     47  C   UNL     1      -1.655  -7.197  11.547  1.00  0.00     0.029 A 
ATOM     48  N   UNL     1       0.166  -7.327  10.283  1.00  0.00    -0.354 N 
ATOM     49  N   UNL     1       2.632  -8.583   9.323  1.00  0.00    -0.248 NA
ATOM     50  C   UNL     1       4.327 -10.181   9.527  1.00  0.00     0.031 C 
ATOM     51  C   UNL     1      -0.876  -8.266  12.007  1.00  0.00     0.029 A 
ATOM     52  C   UNL     1       0.248  -8.363  11.204  1.00  0.00     0.049 A 
ATOM     53  H   UNL     1       0.832  -7.142   9.582  1.00  0.00     0.167 HD
ATOM     54  C   UNL     1       2.356  -9.399  10.407  1.00  0.00     0.074 A 
ATOM     55  C   UNL     1       3.418 -10.384  10.471  1.00  0.00     0.031 C 
ATOM     56  C   UNL     1       1.319  -9.327  11.275  1.00  0.00     0.037 A 
BRANCH  43  57
ATOM     57  C   UNL     1      -2.649  -4.713  10.139  1.00  0.00     0.057 A 
ATOM     58  C   UNL     1      -3.807  -4.739   9.352  1.00  0.00     0.134 A 
ATOM     59  C   UNL     1      -2.725  -4.037  11.366  1.00  0.00     0.134 A 
ATOM     60  F   UNL     1      -3.810  -5.366   8.167  1.00  0.00    -0.206 F 
ATOM     61  C   UNL     1      -4.982  -4.096   9.756  1.00  0.00     0.040 A 
ATOM     62  C   UNL     1      -3.900  -3.412  11.792  1.00  0.00     0.040 A 
ATOM     63  F   UNL     1      -1.661  -3.986  12.182  1.00  0.00    -0.206 F 
ATOM     64  C   UNL     1      -5.032  -3.434  10.982  1.00  0.00     0.006 A 
ENDBRANCH  43  57
BRANCH  44  65
ATOM     65  C   UNL     1       5.797  -9.143   7.209  1.00  0.00     0.057 A 
ATOM     66  C   UNL     1       5.779 -10.377   6.553  1.00  0.00     0.134 A 
ATOM     67  C   UNL     1       7.037  -8.500   7.344  1.00  0.00     0.134 A 
ATOM     68  F   UNL     1       4.629 -11.052   6.413  1.00  0.00    -0.206 F 
ATOM     69  C   UNL     1       6.946 -10.941   6.033  1.00  0.00     0.040 A 
ATOM     70  C   UNL     1       8.202  -9.034   6.795  1.00  0.00     0.040 A 
ATOM     71  F   UNL     1       7.119  -7.310   7.958  1.00  0.00    -0.206 F 
ATOM     72  C   UNL     1       8.158 -10.260   6.138  1.00  0.00     0.006 A 
ENDBRANCH  44  65
BRANCH  56  73
ATOM     73  C   UNL     1       1.285 -10.364  12.358  1.00  0.00     0.057 A 
ATOM     74  C   UNL     1       2.179 -10.334  13.437  1.00  0.00     0.134 A 
ATOM     75  C   UNL     1       0.364 -11.417  12.309  1.00  0.00     0.134 A 
ATOM     76  F   UNL     1       3.102  -9.365  13.528  1.00  0.00    -0.206 F 
ATOM     77  C   UNL     1       2.174 -11.330  14.414  1.00  0.00     0.040 A 
ATOM     78  C   UNL     1       0.334 -12.405  13.293  1.00  0.00     0.040 A 
ATOM     79  F   UNL     1      -0.517 -11.505  11.301  1.00  0.00    -0.206 F 
ATOM     80  C   UNL     1       1.246 -12.368  14.346  1.00  0.00     0.006 A 
ENDBRANCH  56  73
ENDBRANCH  30  31
ENDBRANCH  23  25
ENDBRANCH  22  23
ENDBRANCH  21  22
ENDBRANCH   1  21
TORSDOF 14
