REMARK SMILES Cn1ccnc1SCC[C@@H]1CCC[C@]1([NH3+])C(=O)OCCOC(=O)c1ccc(-c2c3nc(c(-c4c(F)cccc4F)c4ccc([nH]4)c(-c4c(F)cccc4F)c4nc(c(-c5c(F)cccc5F)c5ccc2[nH]5)C=C4)C=C3)cc1
REMARK SMILES IDX 19 1 18 2 16 3 17 4 14 5 10 6 11 7 12 8 13 9 9 10 8 11 7 12
REMARK SMILES IDX 6 13 1 14 2 15 3 16 4 17 5 18 15 19 20 23 21 24 22 25 23 26
REMARK SMILES IDX 24 27 25 28 77 29 26 30 76 31 27 32 28 33 29 34 70 35 30 36
REMARK SMILES IDX 75 37 69 38 71 39 31 40 74 41 68 42 67 43 32 45 58 46 41 47
REMARK SMILES IDX 57 48 42 49 45 50 56 51 72 52 43 53 44 54 55 56 73 57 46 58
REMARK SMILES IDX 33 59 34 60 39 61 35 62 36 63 38 64 40 65 37 66 59 67 60 68
REMARK SMILES IDX 65 69 61 70 62 71 64 72 66 73 63 74 47 75 48 76 53 77 49 78
REMARK SMILES IDX 50 79 52 80 54 81 51 82
REMARK H PARENT 15 20 15 21 15 22 71 44 45 55
REMARK Flexibility Score: inf
ROOT
ATOM      1  C   UNL     1       6.627   0.514   1.833  1.00  0.00     0.274 C 
ENDROOT
BRANCH   1   2
ATOM      2  O   UNL     1       5.195   0.552   1.640  1.00  0.00    -0.457 OA
BRANCH   2   3
ATOM      3  C   UNL     1       4.641  -0.570   1.115  1.00  0.00     0.368 C 
ATOM      4  O   UNL     1       5.269  -1.599   0.876  1.00  0.00    -0.245 OA
BRANCH   3   5
ATOM      5  C   UNL     1       3.155  -0.399   0.671  1.00  0.00     0.195 C 
ATOM      6  C   UNL     1       2.314   0.779   1.200  1.00  0.00     0.063 C 
ATOM      7  C   UNL     1       2.076   0.411   2.659  1.00  0.00     0.011 C 
ATOM      8  C   UNL     1       1.713  -1.066   2.566  1.00  0.00     0.008 C 
ATOM      9  C   UNL     1       2.346  -1.586   1.264  1.00  0.00     0.081 C 
BRANCH   6  10
ATOM     10  C   UNL     1       2.711   2.235   0.971  1.00  0.00     0.022 C 
BRANCH  10  11
ATOM     11  C   UNL     1       2.207   2.841  -0.348  1.00  0.00     0.079 C 
BRANCH  11  12
ATOM     12  S   UNL     1       0.426   3.209  -0.525  1.00  0.00    -0.088 SA
BRANCH  12  13
ATOM     13  C   UNL     1      -0.403   1.690  -0.463  1.00  0.00     0.167 A 
ATOM     14  C   UNL     1       0.485   0.614  -2.587  1.00  0.00     0.152 C 
ATOM     15  N   UNL     1      -0.292   0.673  -1.377  1.00  0.00    -0.329 N 
ATOM     16  C   UNL     1      -1.102  -0.353  -0.947  1.00  0.00     0.108 A 
ATOM     17  C   UNL     1      -1.698   0.114   0.199  1.00  0.00     0.132 A 
ATOM     18  N   UNL     1      -1.259   1.379   0.489  1.00  0.00    -0.231 NA
ENDBRANCH  12  13
ENDBRANCH  11  12
ENDBRANCH  10  11
ENDBRANCH   6  10
BRANCH   5  19
ATOM     19  N   UNL     1       3.137  -0.474  -0.814  1.00  0.00    -0.343 N 
ATOM     20  H   UNL     1       2.180  -0.366  -1.149  1.00  0.00     0.345 HD
ATOM     21  H   UNL     1       3.502  -1.378  -1.113  1.00  0.00     0.345 HD
ATOM     22  H   UNL     1       3.718   0.271  -1.199  1.00  0.00     0.345 HD
ENDBRANCH   5  19
ENDBRANCH   3   5
ENDBRANCH   2   3
ENDBRANCH   1   2
BRANCH   1  23
ATOM     23  C   UNL     1       6.990   0.301   3.299  1.00  0.00     0.275 C 
BRANCH  23  24
ATOM     24  O   UNL     1       6.371  -0.904   3.778  1.00  0.00    -0.458 OA
BRANCH  24  25
ATOM     25  C   UNL     1       5.596  -0.762   4.873  1.00  0.00     0.338 C 
ATOM     26  O   UNL     1       5.449   0.253   5.544  1.00  0.00    -0.246 OA
BRANCH  25  27
ATOM     27  C   UNL     1       4.868  -2.012   5.168  1.00  0.00     0.060 A 
ATOM     28  C   UNL     1       4.346  -2.798   4.141  1.00  0.00     0.016 A 
ATOM     29  C   UNL     1       4.553  -2.309   6.493  1.00  0.00     0.016 A 
ATOM     30  C   UNL     1       3.387  -3.773   4.431  1.00  0.00     0.010 A 
ATOM     31  C   UNL     1       3.680  -3.361   6.784  1.00  0.00     0.010 A 
ATOM     32  C   UNL     1       3.025  -4.061   5.755  1.00  0.00    -0.014 A 
BRANCH  32  33
ATOM     33  C   UNL     1       1.907  -4.995   6.088  1.00  0.00     0.031 A 
ATOM     34  C   UNL     1       0.802  -4.537   7.012  1.00  0.00     0.074 A 
ATOM     35  C   UNL     1       1.835  -6.242   5.582  1.00  0.00     0.049 A 
ATOM     36  N   UNL     1      -0.057  -5.248   7.699  1.00  0.00    -0.248 NA
ATOM     37  C   UNL     1       0.665  -3.084   7.205  1.00  0.00     0.031 C 
ATOM     38  C   UNL     1       2.750  -6.827   4.604  1.00  0.00     0.029 A 
ATOM     39  N   UNL     1       0.929  -7.247   5.826  1.00  0.00    -0.354 N 
ATOM     40  C   UNL     1      -0.757  -4.339   8.486  1.00  0.00     0.074 A 
ATOM     41  C   UNL     1      -0.245  -3.023   8.167  1.00  0.00     0.031 C 
ATOM     42  C   UNL     1       2.325  -8.059   4.284  1.00  0.00     0.029 A 
ATOM     43  C   UNL     1       1.181  -8.398   5.122  1.00  0.00     0.049 A 
ATOM     44  H   UNL     1       0.171  -7.150   6.447  1.00  0.00     0.167 HD
ATOM     45  C   UNL     1      -1.725  -4.584   9.403  1.00  0.00     0.037 A 
ATOM     46  C   UNL     1       0.599  -9.610   5.180  1.00  0.00     0.037 A 
ATOM     47  C   UNL     1      -2.311  -5.879   9.638  1.00  0.00     0.049 A 
ATOM     48  C   UNL     1      -0.473  -9.871   6.197  1.00  0.00     0.074 A 
ATOM     49  C   UNL     1      -3.292  -6.236  10.547  1.00  0.00     0.029 A 
ATOM     50  N   UNL     1      -1.998  -7.023   8.920  1.00  0.00    -0.354 N 
ATOM     51  N   UNL     1      -1.012  -9.046   7.061  1.00  0.00    -0.248 NA
ATOM     52  C   UNL     1      -0.986 -11.246   6.276  1.00  0.00     0.031 C 
ATOM     53  C   UNL     1      -3.566  -7.599  10.386  1.00  0.00     0.029 A 
ATOM     54  C   UNL     1      -2.775  -8.083   9.357  1.00  0.00     0.049 A 
ATOM     55  H   UNL     1      -1.323  -7.074   8.206  1.00  0.00     0.167 HD
ATOM     56  C   UNL     1      -1.929  -9.798   7.782  1.00  0.00     0.074 A 
ATOM     57  C   UNL     1      -1.887 -11.142   7.243  1.00  0.00     0.031 C 
ATOM     58  C   UNL     1      -2.728  -9.412   8.806  1.00  0.00     0.037 A 
BRANCH  45  59
ATOM     59  C   UNL     1      -2.175  -3.436  10.257  1.00  0.00     0.057 A 
ATOM     60  C   UNL     1      -2.995  -2.411   9.773  1.00  0.00     0.134 A 
ATOM     61  C   UNL     1      -1.787  -3.370  11.603  1.00  0.00     0.134 A 
ATOM     62  F   UNL     1      -3.390  -2.405   8.491  1.00  0.00    -0.206 F 
ATOM     63  C   UNL     1      -3.391  -1.347  10.588  1.00  0.00     0.040 A 
ATOM     64  C   UNL     1      -2.196  -2.326  12.434  1.00  0.00     0.040 A 
ATOM     65  F   UNL     1      -1.007  -4.325  12.133  1.00  0.00    -0.206 F 
ATOM     66  C   UNL     1      -2.994  -1.306  11.924  1.00  0.00     0.006 A 
ENDBRANCH  45  59
BRANCH  46  67
ATOM     67  C   UNL     1       1.056 -10.689   4.270  1.00  0.00     0.057 A 
ATOM     68  C   UNL     1       0.248 -11.121   3.213  1.00  0.00     0.134 A 
ATOM     69  C   UNL     1       2.310 -11.293   4.417  1.00  0.00     0.134 A 
ATOM     70  F   UNL     1      -0.974 -10.596   3.039  1.00  0.00    -0.206 F 
ATOM     71  C   UNL     1       0.673 -12.114   2.329  1.00  0.00     0.040 A 
ATOM     72  C   UNL     1       2.758 -12.270   3.527  1.00  0.00     0.040 A 
ATOM     73  F   UNL     1       3.128 -10.922   5.412  1.00  0.00    -0.206 F 
ATOM     74  C   UNL     1       1.937 -12.684   2.480  1.00  0.00     0.006 A 
ENDBRANCH  46  67
BRANCH  58  75
ATOM     75  C   UNL     1      -3.646 -10.447   9.379  1.00  0.00     0.057 A 
ATOM     76  C   UNL     1      -3.180 -11.445  10.244  1.00  0.00     0.134 A 
ATOM     77  C   UNL     1      -5.011 -10.437   9.072  1.00  0.00     0.134 A 
ATOM     78  F   UNL     1      -1.879 -11.516  10.564  1.00  0.00    -0.206 F 
ATOM     79  C   UNL     1      -4.041 -12.411  10.769  1.00  0.00     0.040 A 
ATOM     80  C   UNL     1      -5.884 -11.387   9.603  1.00  0.00     0.040 A 
ATOM     81  F   UNL     1      -5.517  -9.505   8.251  1.00  0.00    -0.206 F 
ATOM     82  C   UNL     1      -5.398 -12.381  10.451  1.00  0.00     0.006 A 
ENDBRANCH  58  75
ENDBRANCH  32  33
ENDBRANCH  25  27
ENDBRANCH  24  25
ENDBRANCH  23  24
ENDBRANCH   1  23
TORSDOF 16
