REMARK SMILES COc1cc(/C=C(\CC(=O)OCCOC(=O)c2ccc(-c3c4nc(c(-c5c(F)cccc5F)c5ccc([nH]5)c(-c5c(F)cccc5F)c5nc(c(-c6c(F)cccc6F)c6ccc3[nH]6)C=C5)C=C4)cc2)c2nc3ccccc3s2)cc(Br)c1OC
REMARK SMILES IDX 12 1 11 2 9 3 10 4 8 5 7 6 6 7 5 8 3 9 4 10 83 11 81 12
REMARK SMILES IDX 80 13 82 14 2 15 1 16 84 17 85 18 71 19 72 20 79 21 73 22
REMARK SMILES IDX 78 23 74 24 77 25 75 26 76 27 13 28 14 29 15 30 16 31 17 32
REMARK SMILES IDX 18 33 70 34 19 35 69 36 20 37 21 38 22 39 63 40 23 41 68 42
REMARK SMILES IDX 62 43 64 44 24 45 67 46 61 47 60 48 25 50 51 51 34 52 50 53
REMARK SMILES IDX 35 54 38 55 49 56 65 57 36 58 37 59 48 61 66 62 39 63 26 64
REMARK SMILES IDX 27 65 32 66 28 67 29 68 31 69 33 70 30 71 52 72 53 73 58 74
REMARK SMILES IDX 54 75 55 76 57 77 59 78 56 79 40 80 41 81 46 82 42 83 43 84
REMARK SMILES IDX 45 85 47 86 44 87
REMARK H PARENT 64 49 38 60
REMARK Flexibility Score: inf
ROOT
ATOM      1  C   UNL     1       5.761   1.165  -3.396  1.00  0.00     0.274 C 
ENDROOT
BRANCH   1   2
ATOM      2  O   UNL     1       5.522   1.928  -2.199  1.00  0.00    -0.462 OA
BRANCH   2   3
ATOM      3  C   UNL     1       4.865   1.270  -1.207  1.00  0.00     0.310 C 
ATOM      4  O   UNL     1       4.389   0.142  -1.315  1.00  0.00    -0.252 OA
BRANCH   3   5
ATOM      5  C   UNL     1       4.759   2.049   0.094  1.00  0.00     0.161 C 
BRANCH   5   6
ATOM      6  C   UNL     1       4.996   3.538  -0.057  1.00  0.00    -0.000 C 
ATOM      7  C   UNL     1       4.019   4.410  -0.421  1.00  0.00     0.015 C 
BRANCH   7   8
ATOM      8  C   UNL     1       2.570   4.155  -0.680  1.00  0.00    -0.020 A 
ATOM      9  C   UNL     1       0.649   2.696  -1.101  1.00  0.00     0.162 A 
ATOM     10  C   UNL     1       2.029   2.929  -1.075  1.00  0.00     0.058 A 
ATOM     11  C   UNL     1      -0.253   3.741  -0.895  1.00  0.00     0.174 A 
ATOM     12  C   UNL     1       0.267   5.012  -0.623  1.00  0.00     0.064 A 
ATOM     13  C   UNL     1       1.661   5.208  -0.510  1.00  0.00     0.028 A 
ATOM     14  Br  UNL     1      -0.823   6.532  -0.289  1.00  0.00    -0.047 Br
BRANCH   9  15
ATOM     15  O   UNL     1       0.170   1.436  -1.378  1.00  0.00    -0.493 OA
ATOM     16  C   UNL     1       0.620   0.471  -0.421  1.00  0.00     0.278 C 
ENDBRANCH   9  15
BRANCH  11  17
ATOM     17  O   UNL     1      -1.576   3.397  -0.807  1.00  0.00    -0.492 OA
ATOM     18  C   UNL     1      -2.439   4.042  -1.736  1.00  0.00     0.278 C 
ENDBRANCH  11  17
ENDBRANCH   7   8
BRANCH   6  19
ATOM     19  C   UNL     1       6.343   3.993   0.238  1.00  0.00     0.121 A 
ATOM     20  N   UNL     1       7.408   3.244   0.012  1.00  0.00    -0.236 NA
ATOM     21  S   UNL     1       6.688   5.429   1.141  1.00  0.00    -0.114 S 
ATOM     22  C   UNL     1       8.541   3.775   0.601  1.00  0.00     0.082 A 
ATOM     23  C   UNL     1       8.345   4.969   1.290  1.00  0.00     0.055 A 
ATOM     24  C   UNL     1       9.831   3.205   0.580  1.00  0.00     0.030 A 
ATOM     25  C   UNL     1       9.399   5.607   1.970  1.00  0.00     0.021 A 
ATOM     26  C   UNL     1      10.883   3.823   1.260  1.00  0.00     0.002 A 
ATOM     27  C   UNL     1      10.666   5.011   1.948  1.00  0.00     0.002 A 
ENDBRANCH   6  19
ENDBRANCH   5   6
ENDBRANCH   3   5
ENDBRANCH   2   3
ENDBRANCH   1   2
BRANCH   1  28
ATOM     28  C   UNL     1       7.138   0.505  -3.338  1.00  0.00     0.275 C 
BRANCH  28  29
ATOM     29  O   UNL     1       7.299  -0.156  -2.071  1.00  0.00    -0.458 OA
BRANCH  29  30
ATOM     30  C   UNL     1       8.475   0.051  -1.440  1.00  0.00     0.338 C 
ATOM     31  O   UNL     1       9.483   0.554  -1.929  1.00  0.00    -0.246 OA
BRANCH  30  32
ATOM     32  C   UNL     1       8.410  -0.411  -0.032  1.00  0.00     0.060 A 
ATOM     33  C   UNL     1       7.199  -0.555   0.649  1.00  0.00     0.016 A 
ATOM     34  C   UNL     1       9.603  -0.663   0.649  1.00  0.00     0.016 A 
ATOM     35  C   UNL     1       7.174  -0.884   2.003  1.00  0.00     0.010 A 
ATOM     36  C   UNL     1       9.575  -1.101   1.976  1.00  0.00     0.010 A 
ATOM     37  C   UNL     1       8.358  -1.223   2.666  1.00  0.00    -0.014 A 
BRANCH  37  38
ATOM     38  C   UNL     1       8.333  -1.829   4.023  1.00  0.00     0.031 A 
ATOM     39  C   UNL     1       9.103  -1.218   5.159  1.00  0.00     0.074 A 
ATOM     40  C   UNL     1       7.695  -3.005   4.201  1.00  0.00     0.049 A 
ATOM     41  N   UNL     1       9.415  -1.740   6.317  1.00  0.00    -0.248 NA
ATOM     42  C   UNL     1       9.600   0.153   4.962  1.00  0.00     0.031 C 
ATOM     43  C   UNL     1       6.903  -3.704   3.185  1.00  0.00     0.029 A 
ATOM     44  N   UNL     1       7.640  -3.839   5.291  1.00  0.00    -0.354 N 
ATOM     45  C   UNL     1      10.182  -0.785   6.971  1.00  0.00     0.074 A 
ATOM     46  C   UNL     1      10.285   0.353   6.081  1.00  0.00     0.031 C 
ATOM     47  C   UNL     1       6.446  -4.855   3.695  1.00  0.00     0.029 A 
ATOM     48  C   UNL     1       6.983  -5.019   5.038  1.00  0.00     0.049 A 
ATOM     49  H   UNL     1       8.032  -3.614   6.165  1.00  0.00     0.167 HD
ATOM     50  C   UNL     1      10.752  -0.861   8.198  1.00  0.00     0.037 A 
ATOM     51  C   UNL     1       6.875  -6.143   5.770  1.00  0.00     0.037 A 
ATOM     52  C   UNL     1      10.617  -1.984   9.091  1.00  0.00     0.049 A 
ATOM     53  C   UNL     1       7.551  -6.217   7.104  1.00  0.00     0.074 A 
ATOM     54  C   UNL     1      11.111  -2.127  10.377  1.00  0.00     0.029 A 
ATOM     55  N   UNL     1       9.940  -3.157   8.792  1.00  0.00    -0.354 N 
ATOM     56  N   UNL     1       8.277  -5.310   7.710  1.00  0.00    -0.248 NA
ATOM     57  C   UNL     1       7.405  -7.473   7.850  1.00  0.00     0.031 C 
ATOM     58  C   UNL     1      10.769  -3.402  10.840  1.00  0.00     0.029 A 
ATOM     59  C   UNL     1      10.026  -4.038   9.859  1.00  0.00     0.049 A 
ATOM     60  H   UNL     1       9.467  -3.337   7.948  1.00  0.00     0.167 HD
ATOM     61  C   UNL     1       8.668  -5.881   8.912  1.00  0.00     0.074 A 
ATOM     62  C   UNL     1       8.083  -7.206   8.957  1.00  0.00     0.031 C 
ATOM     63  C   UNL     1       9.445  -5.355   9.888  1.00  0.00     0.037 A 
BRANCH  50  64
ATOM     64  C   UNL     1      11.602   0.290   8.651  1.00  0.00     0.057 A 
ATOM     65  C   UNL     1      11.047   1.502   9.077  1.00  0.00     0.134 A 
ATOM     66  C   UNL     1      12.994   0.150   8.738  1.00  0.00     0.134 A 
ATOM     67  F   UNL     1       9.722   1.702   9.013  1.00  0.00    -0.206 F 
ATOM     68  C   UNL     1      11.846   2.538   9.566  1.00  0.00     0.040 A 
ATOM     69  C   UNL     1      13.801   1.170   9.243  1.00  0.00     0.040 A 
ATOM     70  F   UNL     1      13.589  -0.990   8.353  1.00  0.00    -0.206 F 
ATOM     71  C   UNL     1      13.227   2.369   9.658  1.00  0.00     0.006 A 
ENDBRANCH  50  64
BRANCH  51  72
ATOM     72  C   UNL     1       6.140  -7.307   5.218  1.00  0.00     0.057 A 
ATOM     73  C   UNL     1       4.897  -7.686   5.734  1.00  0.00     0.134 A 
ATOM     74  C   UNL     1       6.649  -8.048   4.143  1.00  0.00     0.134 A 
ATOM     75  F   UNL     1       4.370  -7.026   6.776  1.00  0.00    -0.206 F 
ATOM     76  C   UNL     1       4.187  -8.764   5.205  1.00  0.00     0.040 A 
ATOM     77  C   UNL     1       5.938  -9.111   3.587  1.00  0.00     0.040 A 
ATOM     78  F   UNL     1       7.833  -7.728   3.600  1.00  0.00    -0.206 F 
ATOM     79  C   UNL     1       4.704  -9.474   4.122  1.00  0.00     0.006 A 
ENDBRANCH  51  72
BRANCH  63  80
ATOM     80  C   UNL     1       9.685  -6.209  11.095  1.00  0.00     0.057 A 
ATOM     81  C   UNL     1      10.562  -7.300  11.061  1.00  0.00     0.134 A 
ATOM     82  C   UNL     1       9.043  -5.928  12.308  1.00  0.00     0.134 A 
ATOM     83  F   UNL     1      11.192  -7.630   9.924  1.00  0.00    -0.206 F 
ATOM     84  C   UNL     1      10.777  -8.095  12.188  1.00  0.00     0.040 A 
ATOM     85  C   UNL     1       9.267  -6.702  13.446  1.00  0.00     0.040 A 
ATOM     86  F   UNL     1       8.194  -4.894  12.405  1.00  0.00    -0.206 F 
ATOM     87  C   UNL     1      10.132  -7.793  13.386  1.00  0.00     0.006 A 
ENDBRANCH  63  80
ENDBRANCH  37  38
ENDBRANCH  30  32
ENDBRANCH  29  30
ENDBRANCH  28  29
ENDBRANCH   1  28
TORSDOF 16
