REMARK SMILES COc1ccc(F)cc1[C@@H](C(=O)OCCOC(=O)c1ccc(-c2c3nc(c(-c4c(F)cccc4F)c4ccc([nH]4)c(-c4c(F)cccc4F)c4nc(c(-c5c(F)cccc5F)c5ccc2[nH]5)C=C4)C=C3)cc1)[N@H+](C)CCn1ccnc1C
REMARK SMILES IDX 14 1 13 2 11 3 12 4 10 5 9 6 3 7 4 8 5 9 8 10 6 11 7 12 2 13
REMARK SMILES IDX 1 14 73 15 74 16 75 18 76 19 77 20 78 21 81 22 79 23 80 24
REMARK SMILES IDX 82 25 15 26 16 27 17 28 18 29 19 30 20 31 72 32 21 33 71 34
REMARK SMILES IDX 22 35 23 36 24 37 65 38 25 39 70 40 64 41 66 42 26 43 69 44
REMARK SMILES IDX 63 45 62 46 27 48 53 49 36 50 52 51 37 52 40 53 51 54 67 55
REMARK SMILES IDX 38 56 39 57 50 59 68 60 41 61 28 62 29 63 34 64 30 65 31 66
REMARK SMILES IDX 33 67 35 68 32 69 54 70 55 71 60 72 56 73 57 74 59 75 61 76
REMARK SMILES IDX 58 77 42 78 43 79 48 80 44 81 45 82 47 83 49 84 46 85
REMARK H PARENT 73 17 66 47 40 58
REMARK Flexibility Score: inf
ROOT
ATOM      1  C   UNL     1      -3.916   0.101  -2.984  1.00  0.00     0.274 C 
ENDROOT
BRANCH   1   2
ATOM      2  O   UNL     1      -2.656  -0.606  -2.926  1.00  0.00    -0.457 OA
BRANCH   2   3
ATOM      3  C   UNL     1      -2.216  -0.962  -1.685  1.00  0.00     0.370 C 
ATOM      4  O   UNL     1      -2.723  -0.522  -0.654  1.00  0.00    -0.245 OA
BRANCH   3   5
ATOM      5  C   UNL     1      -1.199  -2.157  -1.714  1.00  0.00     0.330 C 
BRANCH   5   6
ATOM      6  C   UNL     1       0.304  -1.869  -1.926  1.00  0.00     0.066 A 
ATOM      7  C   UNL     1       0.934  -0.794  -1.250  1.00  0.00     0.128 A 
ATOM      8  C   UNL     1       2.332  -0.600  -1.328  1.00  0.00     0.050 A 
ATOM      9  C   UNL     1       3.143  -1.471  -2.046  1.00  0.00     0.043 A 
ATOM     10  C   UNL     1       1.182  -2.746  -2.589  1.00  0.00     0.053 A 
ATOM     11  C   UNL     1       2.556  -2.543  -2.669  1.00  0.00     0.124 A 
ATOM     12  F   UNL     1       3.307  -3.428  -3.339  1.00  0.00    -0.207 F 
BRANCH   7  13
ATOM     13  O   UNL     1       0.124  -0.017  -0.464  1.00  0.00    -0.496 OA
ATOM     14  C   UNL     1       0.721   1.077   0.223  1.00  0.00     0.278 C 
ENDBRANCH   7  13
ENDBRANCH   5   6
BRANCH   5  15
ATOM     15  N   UNL     1      -1.927  -3.327  -2.334  1.00  0.00    -0.320 N 
ATOM     16  C   UNL     1      -2.567  -4.103  -1.255  1.00  0.00     0.333 C 
ATOM     17  H   UNL     1      -2.549  -2.818  -2.962  1.00  0.00     0.348 HD
BRANCH  15  18
ATOM     18  C   UNL     1      -1.401  -4.177  -3.405  1.00  0.00     0.285 C 
BRANCH  18  19
ATOM     19  C   UNL     1      -1.230  -3.706  -4.890  1.00  0.00     0.184 C 
BRANCH  19  20
ATOM     20  N   UNL     1      -0.571  -2.463  -5.222  1.00  0.00    -0.330 N 
ATOM     21  C   UNL     1      -1.228  -1.268  -5.276  1.00  0.00     0.107 A 
ATOM     22  C   UNL     1       0.664  -2.220  -5.785  1.00  0.00     0.105 A 
ATOM     23  C   UNL     1      -0.292  -0.314  -5.551  1.00  0.00     0.131 A 
ATOM     24  N   UNL     1       0.883  -0.918  -5.881  1.00  0.00    -0.242 NA
ATOM     25  C   UNL     1       1.614  -3.240  -6.280  1.00  0.00     0.087 C 
ENDBRANCH  19  20
ENDBRANCH  18  19
ENDBRANCH  15  18
ENDBRANCH   5  15
ENDBRANCH   3   5
ENDBRANCH   2   3
ENDBRANCH   1   2
BRANCH   1  26
ATOM     26  C   UNL     1      -4.420   0.172  -4.440  1.00  0.00     0.275 C 
BRANCH  26  27
ATOM     27  O   UNL     1      -4.494  -1.139  -5.050  1.00  0.00    -0.458 OA
BRANCH  27  28
ATOM     28  C   UNL     1      -5.550  -1.900  -4.707  1.00  0.00     0.338 C 
ATOM     29  O   UNL     1      -6.549  -1.536  -4.108  1.00  0.00    -0.246 OA
BRANCH  28  30
ATOM     30  C   UNL     1      -5.193  -3.319  -4.905  1.00  0.00     0.060 A 
ATOM     31  C   UNL     1      -4.919  -4.038  -3.748  1.00  0.00     0.016 A 
ATOM     32  C   UNL     1      -5.197  -3.973  -6.142  1.00  0.00     0.016 A 
ATOM     33  C   UNL     1      -4.688  -5.412  -3.816  1.00  0.00     0.010 A 
ATOM     34  C   UNL     1      -5.047  -5.378  -6.194  1.00  0.00     0.010 A 
ATOM     35  C   UNL     1      -4.852  -6.121  -5.019  1.00  0.00    -0.014 A 
BRANCH  35  36
ATOM     36  C   UNL     1      -5.089  -7.600  -4.927  1.00  0.00     0.031 A 
ATOM     37  C   UNL     1      -4.237  -8.643  -5.598  1.00  0.00     0.074 A 
ATOM     38  C   UNL     1      -6.115  -8.011  -4.146  1.00  0.00     0.049 A 
ATOM     39  N   UNL     1      -4.422  -9.942  -5.638  1.00  0.00    -0.248 NA
ATOM     40  C   UNL     1      -3.032  -8.193  -6.305  1.00  0.00     0.031 C 
ATOM     41  C   UNL     1      -7.018  -7.118  -3.412  1.00  0.00     0.029 A 
ATOM     42  N   UNL     1      -6.552  -9.265  -3.794  1.00  0.00    -0.354 N 
ATOM     43  C   UNL     1      -3.385 -10.465  -6.399  1.00  0.00     0.074 A 
ATOM     44  C   UNL     1      -2.556  -9.339  -6.786  1.00  0.00     0.031 C 
ATOM     45  C   UNL     1      -7.809  -7.839  -2.614  1.00  0.00     0.029 A 
ATOM     46  C   UNL     1      -7.592  -9.250  -2.894  1.00  0.00     0.049 A 
ATOM     47  H   UNL     1      -6.158 -10.094  -4.151  1.00  0.00     0.167 HD
ATOM     48  C   UNL     1      -3.162 -11.757  -6.751  1.00  0.00     0.037 A 
ATOM     49  C   UNL     1      -8.348 -10.239  -2.384  1.00  0.00     0.037 A 
ATOM     50  C   UNL     1      -3.982 -12.879  -6.350  1.00  0.00     0.049 A 
ATOM     51  C   UNL     1      -8.122 -11.641  -2.843  1.00  0.00     0.074 A 
ATOM     52  C   UNL     1      -3.835 -14.217  -6.689  1.00  0.00     0.029 A 
ATOM     53  N   UNL     1      -5.090 -12.806  -5.521  1.00  0.00    -0.354 N 
ATOM     54  N   UNL     1      -7.193 -12.100  -3.643  1.00  0.00    -0.248 NA
ATOM     55  C   UNL     1      -9.074 -12.655  -2.372  1.00  0.00     0.031 C 
ATOM     56  C   UNL     1      -4.874 -14.943  -6.098  1.00  0.00     0.029 A 
ATOM     57  C   UNL     1      -5.644 -14.068  -5.353  1.00  0.00     0.049 A 
ATOM     58  H   UNL     1      -5.435 -11.980  -5.111  1.00  0.00     0.167 HD
ATOM     59  C   UNL     1      -7.456 -13.453  -3.787  1.00  0.00     0.074 A 
ATOM     60  C   UNL     1      -8.612 -13.748  -2.964  1.00  0.00     0.031 C 
ATOM     61  C   UNL     1      -6.802 -14.360  -4.549  1.00  0.00     0.037 A 
BRANCH  48  62
ATOM     62  C   UNL     1      -2.000 -12.062  -7.655  1.00  0.00     0.057 A 
ATOM     63  C   UNL     1      -2.222 -12.435  -8.989  1.00  0.00     0.134 A 
ATOM     64  C   UNL     1      -0.686 -12.125  -7.179  1.00  0.00     0.134 A 
ATOM     65  F   UNL     1      -3.461 -12.416  -9.503  1.00  0.00    -0.206 F 
ATOM     66  C   UNL     1      -1.183 -12.881  -9.809  1.00  0.00     0.040 A 
ATOM     67  C   UNL     1       0.366 -12.551  -7.995  1.00  0.00     0.040 A 
ATOM     68  F   UNL     1      -0.405 -11.783  -5.913  1.00  0.00    -0.206 F 
ATOM     69  C   UNL     1       0.117 -12.941  -9.310  1.00  0.00     0.006 A 
ENDBRANCH  48  62
BRANCH  49  70
ATOM     70  C   UNL     1      -9.441  -9.901  -1.438  1.00  0.00     0.057 A 
ATOM     71  C   UNL     1     -10.554  -9.153  -1.849  1.00  0.00     0.134 A 
ATOM     72  C   UNL     1      -9.362 -10.252  -0.087  1.00  0.00     0.134 A 
ATOM     73  F   UNL     1     -10.683  -8.783  -3.132  1.00  0.00    -0.206 F 
ATOM     74  C   UNL     1     -11.519  -8.720  -0.942  1.00  0.00     0.040 A 
ATOM     75  C   UNL     1     -10.341  -9.856   0.826  1.00  0.00     0.040 A 
ATOM     76  F   UNL     1      -8.335 -10.989   0.360  1.00  0.00    -0.206 F 
ATOM     77  C   UNL     1     -11.414  -9.072   0.401  1.00  0.00     0.006 A 
ENDBRANCH  49  70
BRANCH  61  78
ATOM     78  C   UNL     1      -7.322 -15.765  -4.526  1.00  0.00     0.057 A 
ATOM     79  C   UNL     1      -6.641 -16.771  -3.831  1.00  0.00     0.134 A 
ATOM     80  C   UNL     1      -8.490 -16.124  -5.211  1.00  0.00     0.134 A 
ATOM     81  F   UNL     1      -5.516 -16.491  -3.156  1.00  0.00    -0.206 F 
ATOM     82  C   UNL     1      -7.101 -18.088  -3.821  1.00  0.00     0.040 A 
ATOM     83  C   UNL     1      -8.971 -17.434  -5.192  1.00  0.00     0.040 A 
ATOM     84  F   UNL     1      -9.197 -15.201  -5.880  1.00  0.00    -0.206 F 
ATOM     85  C   UNL     1      -8.272 -18.422  -4.500  1.00  0.00     0.006 A 
ENDBRANCH  61  78
ENDBRANCH  35  36
ENDBRANCH  28  30
ENDBRANCH  27  28
ENDBRANCH  26  27
ENDBRANCH   1  26
TORSDOF 17
