REMARK SMILES Cc1ccc(-c2cc(Cl)ccc2Cl)c(C(=O)OCCOC(=O)c2ccc(-c3c4nc(c(-c5c(F)cccc5F)c5ccc([nH]5)c(-c5c(F)cccc5F)c5nc(c(-c6c(F)cccc6F)c6ccc3[nH]6)C=C5)C=C4)cc2)c1
REMARK SMILES IDX 19 1 18 2 17 3 15 4 16 5 14 6 1 7 2 8 3 9 77 10 4 11 5 12
REMARK SMILES IDX 6 13 7 14 12 15 8 16 11 17 13 18 9 19 10 20 20 21 21 22
REMARK SMILES IDX 22 23 23 24 24 25 76 26 25 27 75 28 26 29 27 30 28 31 69 32
REMARK SMILES IDX 29 33 74 34 68 35 70 36 30 37 73 38 67 39 66 40 31 42 57 43
REMARK SMILES IDX 40 44 56 45 41 46 44 47 55 48 71 49 42 50 43 51 54 53 72 54
REMARK SMILES IDX 45 55 32 56 33 57 38 58 34 59 35 60 37 61 39 62 36 63 58 64
REMARK SMILES IDX 59 65 64 66 60 67 61 68 63 69 65 70 62 71 46 72 47 73 52 74
REMARK SMILES IDX 48 75 49 76 51 77 53 78 50 79
REMARK H PARENT 70 41 44 52
REMARK Flexibility Score: inf
ROOT
ATOM      1  C   UNL     1      -2.179   5.110  -2.557  1.00  0.00     0.275 C 
ENDROOT
BRANCH   1   2
ATOM      2  C   UNL     1      -1.127   4.270  -1.807  1.00  0.00     0.275 C 
BRANCH   2   3
ATOM      3  O   UNL     1      -1.264   2.825  -1.918  1.00  0.00    -0.458 OA
BRANCH   3   4
ATOM      4  C   UNL     1      -0.742   2.186  -0.830  1.00  0.00     0.338 C 
ATOM      5  O   UNL     1      -0.310   2.778   0.156  1.00  0.00    -0.246 OA
BRANCH   4   6
ATOM      6  C   UNL     1      -0.381   0.752  -0.958  1.00  0.00     0.068 A 
ATOM      7  C   UNL     1       3.110  -0.617  -0.183  1.00  0.00     0.044 C 
ATOM      8  C   UNL     1       1.656  -0.575  -0.535  1.00  0.00    -0.050 A 
ATOM      9  C   UNL     1       0.888  -1.726  -0.535  1.00  0.00     0.004 A 
ATOM     10  C   UNL     1       1.028   0.635  -0.821  1.00  0.00     0.019 A 
ATOM     11  C   UNL     1      -0.488  -1.643  -0.750  1.00  0.00     0.010 A 
ATOM     12  C   UNL     1      -1.187  -0.410  -0.874  1.00  0.00    -0.002 A 
BRANCH  12  13
ATOM     13  C   UNL     1      -2.673  -0.540  -0.805  1.00  0.00     0.003 A 
ATOM     14  C   UNL     1      -3.501  -0.120  -1.865  1.00  0.00     0.030 A 
ATOM     15  C   UNL     1      -3.318  -1.241   0.260  1.00  0.00     0.049 A 
ATOM     16  C   UNL     1      -4.886  -0.377  -1.854  1.00  0.00     0.041 A 
ATOM     17  C   UNL     1      -4.693  -1.526   0.241  1.00  0.00     0.023 A 
ATOM     18  Cl  UNL     1      -2.475  -1.767   1.688  1.00  0.00    -0.084 Cl
ATOM     19  Cl  UNL     1      -5.888   0.166  -3.144  1.00  0.00    -0.084 Cl
ATOM     20  C   UNL     1      -5.481  -1.081  -0.811  1.00  0.00     0.022 A 
ENDBRANCH  12  13
ENDBRANCH   4   6
ENDBRANCH   3   4
ENDBRANCH   2   3
ENDBRANCH   1   2
BRANCH   1  21
ATOM     21  O   UNL     1      -3.590   4.949  -2.284  1.00  0.00    -0.458 OA
BRANCH  21  22
ATOM     22  C   UNL     1      -4.024   3.839  -1.663  1.00  0.00     0.338 C 
ATOM     23  O   UNL     1      -4.633   2.933  -2.215  1.00  0.00    -0.246 OA
BRANCH  22  24
ATOM     24  C   UNL     1      -3.702   3.846  -0.230  1.00  0.00     0.060 A 
ATOM     25  C   UNL     1      -3.497   2.611   0.398  1.00  0.00     0.016 A 
ATOM     26  C   UNL     1      -3.416   5.048   0.411  1.00  0.00     0.016 A 
ATOM     27  C   UNL     1      -2.900   2.540   1.640  1.00  0.00     0.010 A 
ATOM     28  C   UNL     1      -2.791   4.990   1.627  1.00  0.00     0.010 A 
ATOM     29  C   UNL     1      -2.574   3.740   2.240  1.00  0.00    -0.014 A 
BRANCH  29  30
ATOM     30  C   UNL     1      -2.286   3.825   3.649  1.00  0.00     0.031 A 
ATOM     31  C   UNL     1      -0.909   3.729   4.144  1.00  0.00     0.074 A 
ATOM     32  C   UNL     1      -3.376   4.312   4.278  1.00  0.00     0.049 A 
ATOM     33  N   UNL     1      -0.597   3.743   5.389  1.00  0.00    -0.248 NA
ATOM     34  C   UNL     1       0.259   3.519   3.289  1.00  0.00     0.031 C 
ATOM     35  C   UNL     1      -3.507   5.193   5.418  1.00  0.00     0.029 A 
ATOM     36  N   UNL     1      -4.700   4.040   3.920  1.00  0.00    -0.354 N 
ATOM     37  C   UNL     1       0.760   3.989   5.458  1.00  0.00     0.074 A 
ATOM     38  C   UNL     1       1.265   3.623   4.165  1.00  0.00     0.031 C 
ATOM     39  C   UNL     1      -4.795   5.190   5.821  1.00  0.00     0.029 A 
ATOM     40  C   UNL     1      -5.495   4.163   5.057  1.00  0.00     0.049 A 
ATOM     41  H   UNL     1      -5.016   3.802   3.018  1.00  0.00     0.167 HD
ATOM     42  C   UNL     1       1.216   4.691   6.536  1.00  0.00     0.037 A 
ATOM     43  C   UNL     1      -6.012   3.013   5.597  1.00  0.00     0.037 A 
ATOM     44  C   UNL     1       0.105   4.871   7.476  1.00  0.00     0.049 A 
ATOM     45  C   UNL     1      -5.293   2.668   6.877  1.00  0.00     0.074 A 
ATOM     46  C   UNL     1      -0.777   5.921   7.662  1.00  0.00     0.029 A 
ATOM     47  N   UNL     1      -0.480   3.749   8.057  1.00  0.00    -0.354 N 
ATOM     48  N   UNL     1      -4.046   2.963   7.129  1.00  0.00    -0.248 NA
ATOM     49  C   UNL     1      -5.976   2.047   8.002  1.00  0.00     0.031 C 
ATOM     50  C   UNL     1      -1.952   5.391   8.264  1.00  0.00     0.029 A 
ATOM     51  C   UNL     1      -1.777   4.028   8.447  1.00  0.00     0.049 A 
ATOM     52  H   UNL     1      -0.033   2.880   8.173  1.00  0.00     0.167 HD
ATOM     53  C   UNL     1      -3.782   2.687   8.442  1.00  0.00     0.074 A 
ATOM     54  C   UNL     1      -5.015   2.097   8.938  1.00  0.00     0.031 C 
ATOM     55  C   UNL     1      -2.602   2.995   9.057  1.00  0.00     0.037 A 
BRANCH  42  56
ATOM     56  C   UNL     1       2.509   5.482   6.643  1.00  0.00     0.057 A 
ATOM     57  C   UNL     1       2.692   6.366   7.731  1.00  0.00     0.134 A 
ATOM     58  C   UNL     1       3.564   5.508   5.712  1.00  0.00     0.134 A 
ATOM     59  F   UNL     1       1.805   6.439   8.733  1.00  0.00    -0.206 F 
ATOM     60  C   UNL     1       3.790   7.231   7.851  1.00  0.00     0.040 A 
ATOM     61  C   UNL     1       4.675   6.362   5.826  1.00  0.00     0.040 A 
ATOM     62  F   UNL     1       3.597   4.718   4.637  1.00  0.00    -0.206 F 
ATOM     63  C   UNL     1       4.787   7.237   6.892  1.00  0.00     0.006 A 
ENDBRANCH  42  56
BRANCH  43  64
ATOM     64  C   UNL     1      -6.393   2.022   4.540  1.00  0.00     0.057 A 
ATOM     65  C   UNL     1      -7.369   2.418   3.601  1.00  0.00     0.134 A 
ATOM     66  C   UNL     1      -5.488   1.037   4.142  1.00  0.00     0.134 A 
ATOM     67  F   UNL     1      -8.297   3.326   3.938  1.00  0.00    -0.206 F 
ATOM     68  C   UNL     1      -7.297   2.035   2.261  1.00  0.00     0.040 A 
ATOM     69  C   UNL     1      -5.417   0.645   2.806  1.00  0.00     0.040 A 
ATOM     70  F   UNL     1      -4.561   0.562   4.984  1.00  0.00    -0.206 F 
ATOM     71  C   UNL     1      -6.276   1.193   1.853  1.00  0.00     0.006 A 
ENDBRANCH  43  64
BRANCH  55  72
ATOM     72  C   UNL     1      -2.172   2.427  10.381  1.00  0.00     0.057 A 
ATOM     73  C   UNL     1      -2.612   1.190  10.872  1.00  0.00     0.134 A 
ATOM     74  C   UNL     1      -1.167   3.057  11.148  1.00  0.00     0.134 A 
ATOM     75  F   UNL     1      -3.439   0.404  10.169  1.00  0.00    -0.206 F 
ATOM     76  C   UNL     1      -2.174   0.674  12.094  1.00  0.00     0.040 A 
ATOM     77  C   UNL     1      -0.663   2.510  12.326  1.00  0.00     0.040 A 
ATOM     78  F   UNL     1      -0.606   4.216  10.774  1.00  0.00    -0.206 F 
ATOM     79  C   UNL     1      -1.191   1.329  12.821  1.00  0.00     0.006 A 
ENDBRANCH  55  72
ENDBRANCH  29  30
ENDBRANCH  22  24
ENDBRANCH  21  22
ENDBRANCH   1  21
TORSDOF 12
