REMARK SMILES Cc1ccc(F)c(-c2ccc(C(=O)OCCOC(=O)c3ccc(-c4c5nc(c(-c6c(F)cccc6F)c6ccc([nH]6)c(-c6c(F)cccc6F)c6nc(c(-c7c(F)cccc7F)c7ccc4[nH]7)C=C6)C=C5)cc3)cc2C)c1
REMARK SMILES IDX 16 1 15 2 14 3 12 4 13 5 11 6 8 7 9 8 75 9 10 10 74 11 76 12
REMARK SMILES IDX 7 13 1 14 2 15 3 16 77 17 4 18 5 19 6 20 17 21 18 22 19 23
REMARK SMILES IDX 20 24 21 25 73 26 22 27 72 28 23 29 24 30 25 31 66 32 26 33
REMARK SMILES IDX 71 34 65 35 67 36 27 37 70 38 64 39 63 40 28 42 54 43 37 44
REMARK SMILES IDX 53 45 38 46 41 47 52 48 68 49 39 50 40 51 51 53 69 54 42 55
REMARK SMILES IDX 29 56 30 57 35 58 31 59 32 60 34 61 36 62 33 63 55 64 56 65
REMARK SMILES IDX 61 66 57 67 58 68 60 69 62 70 59 71 43 72 44 73 49 74 45 75
REMARK SMILES IDX 46 76 48 77 50 78 47 79
REMARK H PARENT 67 41 41 52
REMARK Flexibility Score: inf
ROOT
ATOM      1  C   UNL     1      -6.168  -8.182   1.222  1.00  0.00     0.275 C 
ENDROOT
BRANCH   1   2
ATOM      2  C   UNL     1      -5.027  -9.015   0.625  1.00  0.00     0.275 C 
BRANCH   2   3
ATOM      3  O   UNL     1      -3.823  -8.229   0.639  1.00  0.00    -0.458 OA
BRANCH   3   4
ATOM      4  C   UNL     1      -3.711  -7.117  -0.359  1.00  0.00     0.338 C 
ATOM      5  O   UNL     1      -4.380  -7.627  -1.305  1.00  0.00    -0.246 OA
BRANCH   4   6
ATOM      6  C   UNL     1      -2.673  -5.238  -0.105  1.00  0.00     0.060 A 
ATOM      7  C   UNL     1      -1.164  -2.414   0.159  1.00  0.00    -0.012 A 
ATOM      8  C   UNL     1      -1.099  -3.407   1.127  1.00  0.00     0.010 A 
ATOM      9  C   UNL     1      -1.911  -2.740  -0.960  1.00  0.00    -0.042 A 
ATOM     10  C   UNL     1      -1.794  -4.674   1.010  1.00  0.00     0.016 A 
ATOM     11  C   UNL     1      -2.563  -4.028  -1.055  1.00  0.00     0.019 A 
ATOM     12  C   UNL     1      -2.136  -1.789  -2.116  1.00  0.00     0.045 C 
BRANCH   7  13
ATOM     13  C   UNL     1      -0.433  -1.136   0.280  1.00  0.00     0.018 A 
ATOM     14  C   UNL     1       3.181   0.106   0.017  1.00  0.00     0.044 C 
ATOM     15  C   UNL     1       1.684   0.099   0.138  1.00  0.00    -0.050 A 
ATOM     16  C   UNL     1       0.983   1.310   0.140  1.00  0.00     0.006 A 
ATOM     17  C   UNL     1       0.972  -1.112   0.215  1.00  0.00     0.015 A 
ATOM     18  C   UNL     1      -0.406   1.311   0.241  1.00  0.00     0.040 A 
ATOM     19  C   UNL     1      -1.097   0.102   0.321  1.00  0.00     0.131 A 
ATOM     20  F   UNL     1      -2.438   0.147   0.369  1.00  0.00    -0.206 F 
ENDBRANCH   7  13
ENDBRANCH   4   6
ENDBRANCH   3   4
ENDBRANCH   2   3
ENDBRANCH   1   2
BRANCH   1  21
ATOM     21  O   UNL     1      -6.584  -7.038   0.427  1.00  0.00    -0.458 OA
BRANCH  21  22
ATOM     22  C   UNL     1      -6.196  -5.773   0.765  1.00  0.00     0.338 C 
ATOM     23  O   UNL     1      -6.953  -4.845   0.986  1.00  0.00    -0.246 OA
BRANCH  22  24
ATOM     24  C   UNL     1      -4.777  -5.545   0.435  1.00  0.00     0.060 A 
ATOM     25  C   UNL     1      -4.456  -5.468  -1.343  1.00  0.00     0.016 A 
ATOM     26  C   UNL     1      -3.576  -6.285   1.555  1.00  0.00     0.016 A 
ATOM     27  C   UNL     1      -2.908  -6.206  -2.024  1.00  0.00     0.010 A 
ATOM     28  C   UNL     1      -2.054  -7.059   0.868  1.00  0.00     0.010 A 
ATOM     29  C   UNL     1      -1.748  -7.019  -0.921  1.00  0.00    -0.014 A 
BRANCH  29  30
ATOM     30  C   UNL     1      -0.920  -8.117  -1.381  1.00  0.00     0.031 A 
ATOM     31  C   UNL     1       0.407  -8.203  -0.764  1.00  0.00     0.074 A 
ATOM     32  C   UNL     1      -1.484  -9.103  -2.125  1.00  0.00     0.049 A 
ATOM     33  N   UNL     1       1.298  -9.040  -1.126  1.00  0.00    -0.248 NA
ATOM     34  C   UNL     1       0.887  -7.309   0.289  1.00  0.00     0.031 C 
ATOM     35  C   UNL     1      -1.055 -10.490  -2.296  1.00  0.00     0.029 A 
ATOM     36  N   UNL     1      -2.545  -8.986  -3.033  1.00  0.00    -0.354 N 
ATOM     37  C   UNL     1       2.303  -9.031  -0.186  1.00  0.00     0.074 A 
ATOM     38  C   UNL     1       2.042  -7.883   0.633  1.00  0.00     0.031 C 
ATOM     39  C   UNL     1      -1.625 -11.004  -3.401  1.00  0.00     0.029 A 
ATOM     40  C   UNL     1      -2.353  -9.935  -4.054  1.00  0.00     0.049 A 
ATOM     41  H   UNL     1      -3.294  -8.350  -2.968  1.00  0.00     0.167 HD
ATOM     42  C   UNL     1       3.139 -10.101  -0.186  1.00  0.00     0.037 A 
ATOM     43  C   UNL     1      -2.139  -9.531  -5.342  1.00  0.00     0.037 A 
ATOM     44  C   UNL     1       2.864 -10.908  -1.378  1.00  0.00     0.049 A 
ATOM     45  C   UNL     1      -0.711  -9.786  -5.784  1.00  0.00     0.074 A 
ATOM     46  C   UNL     1       2.096 -12.037  -1.606  1.00  0.00     0.029 A 
ATOM     47  N   UNL     1       3.036 -10.304  -2.618  1.00  0.00    -0.354 N 
ATOM     48  N   UNL     1       0.283  -9.992  -4.958  1.00  0.00    -0.248 NA
ATOM     49  C   UNL     1      -0.301  -9.911  -7.177  1.00  0.00     0.031 C 
ATOM     50  C   UNL     1       1.827 -12.106  -3.005  1.00  0.00     0.029 A 
ATOM     51  C   UNL     1       2.447 -11.034  -3.626  1.00  0.00     0.049 A 
ATOM     52  H   UNL     1       3.521  -9.459  -2.758  1.00  0.00     0.167 HD
ATOM     53  C   UNL     1       1.425 -10.310  -5.655  1.00  0.00     0.074 A 
ATOM     54  C   UNL     1       0.994 -10.249  -7.041  1.00  0.00     0.031 C 
ATOM     55  C   UNL     1       2.604 -10.609  -5.017  1.00  0.00     0.037 A 
BRANCH  42  56
ATOM     56  C   UNL     1       4.032 -10.548   0.945  1.00  0.00     0.057 A 
ATOM     57  C   UNL     1       4.526 -11.868   0.954  1.00  0.00     0.134 A 
ATOM     58  C   UNL     1       4.399  -9.792   2.075  1.00  0.00     0.134 A 
ATOM     59  F   UNL     1       4.296 -12.713  -0.060  1.00  0.00    -0.206 F 
ATOM     60  C   UNL     1       5.276 -12.402   2.010  1.00  0.00     0.040 A 
ATOM     61  C   UNL     1       5.138 -10.319   3.146  1.00  0.00     0.040 A 
ATOM     62  F   UNL     1       4.094  -8.500   2.206  1.00  0.00    -0.206 F 
ATOM     63  C   UNL     1       5.576 -11.631   3.119  1.00  0.00     0.006 A 
ENDBRANCH  42  56
BRANCH  43  64
ATOM     64  C   UNL     1      -3.051  -8.416  -5.734  1.00  0.00     0.057 A 
ATOM     65  C   UNL     1      -4.433  -8.695  -5.651  1.00  0.00     0.134 A 
ATOM     66  C   UNL     1      -2.674  -7.075  -5.651  1.00  0.00     0.134 A 
ATOM     67  F   UNL     1      -4.874  -9.953  -5.812  1.00  0.00    -0.206 F 
ATOM     68  C   UNL     1      -5.353  -7.735  -5.226  1.00  0.00     0.040 A 
ATOM     69  C   UNL     1      -3.610  -6.085  -5.307  1.00  0.00     0.040 A 
ATOM     70  F   UNL     1      -1.382  -6.722  -5.710  1.00  0.00    -0.206 F 
ATOM     71  C   UNL     1      -4.928  -6.433  -5.002  1.00  0.00     0.006 A 
ENDBRANCH  43  64
BRANCH  55  72
ATOM     72  C   UNL     1       4.025 -10.601  -5.595  1.00  0.00     0.057 A 
ATOM     73  C   UNL     1       4.370 -10.271  -6.911  1.00  0.00     0.134 A 
ATOM     74  C   UNL     1       5.161 -10.838  -4.766  1.00  0.00     0.134 A 
ATOM     75  F   UNL     1       3.463  -9.925  -7.826  1.00  0.00    -0.206 F 
ATOM     76  C   UNL     1       5.697 -10.229  -7.370  1.00  0.00     0.040 A 
ATOM     77  C   UNL     1       6.487 -10.720  -5.192  1.00  0.00     0.040 A 
ATOM     78  F   UNL     1       5.070 -11.181  -3.476  1.00  0.00    -0.206 F 
ATOM     79  C   UNL     1       6.763 -10.436  -6.510  1.00  0.00     0.006 A 
ENDBRANCH  55  72
ENDBRANCH  29  30
ENDBRANCH  22  24
ENDBRANCH  21  22
ENDBRANCH   1  21
TORSDOF 12
