REMARK SMILES O=C(OCCOC(=O)[C@@H]1CCCN1S(=O)(=O)c1ccc2c3c(cccc13)C(=O)N2)c1ccc(-c2c3nc(c(-c4c(F)cccc4F)c4ccc([nH]4)c(-c4c(F)cccc4F)c4nc(c(-c5c(F)cccc5F)c5ccc2[nH]5)C=C4)C=C3)cc1
REMARK SMILES IDX 4 1 3 2 2 3 1 4 30 5 31 6 83 7 32 8 82 9 33 10 34 11 35 12
REMARK SMILES IDX 76 13 36 14 81 15 75 16 77 17 37 18 80 19 74 20 73 21 38 23
REMARK SMILES IDX 64 24 47 25 63 26 48 27 51 28 62 29 78 30 49 31 50 32 61 34
REMARK SMILES IDX 79 35 52 36 39 37 40 38 45 39 41 40 42 41 44 42 46 43 43 44
REMARK SMILES IDX 65 45 66 46 71 47 67 48 68 49 70 50 72 51 69 52 53 53 54 54
REMARK SMILES IDX 59 55 55 56 56 57 58 58 60 59 57 60 5 61 6 62 7 63 8 64 9 65
REMARK SMILES IDX 10 66 13 67 11 68 12 69 14 70 15 71 16 72 17 73 18 74 26 75
REMARK SMILES IDX 19 76 21 77 25 78 20 79 22 80 24 81 29 82 23 83 27 84 28 86
REMARK H PARENT 77 22 51 33 29 85
REMARK Flexibility Score: inf
ROOT
ATOM      1  C   UNL     1       4.117   1.404   0.305  1.00  0.00     0.275 C 
ENDROOT
BRANCH   1   2
ATOM      2  O   UNL     1       3.021   1.574  -0.603  1.00  0.00    -0.458 OA
BRANCH   2   3
ATOM      3  C   UNL     1       2.623   0.827  -1.653  1.00  0.00     0.338 C 
ATOM      4  O   UNL     1       1.580   1.144  -2.223  1.00  0.00    -0.246 OA
BRANCH   3   5
ATOM      5  C   UNL     1       3.329  -0.402  -2.147  1.00  0.00     0.060 A 
ATOM      6  C   UNL     1       4.615  -0.827  -1.791  1.00  0.00     0.016 A 
ATOM      7  C   UNL     1       2.603  -1.209  -3.046  1.00  0.00     0.016 A 
ATOM      8  C   UNL     1       5.136  -2.039  -2.243  1.00  0.00     0.010 A 
ATOM      9  C   UNL     1       3.140  -2.393  -3.556  1.00  0.00     0.010 A 
ATOM     10  C   UNL     1       4.417  -2.801  -3.159  1.00  0.00    -0.014 A 
BRANCH  10  11
ATOM     11  C   UNL     1       5.124  -3.845  -3.917  1.00  0.00     0.031 A 
ATOM     12  C   UNL     1       5.931  -3.391  -5.093  1.00  0.00     0.074 A 
ATOM     13  C   UNL     1       5.065  -5.136  -3.557  1.00  0.00     0.049 A 
ATOM     14  N   UNL     1       6.629  -4.098  -5.937  1.00  0.00    -0.248 NA
ATOM     15  C   UNL     1       5.992  -1.935  -5.325  1.00  0.00     0.031 C 
ATOM     16  C   UNL     1       4.416  -5.647  -2.355  1.00  0.00     0.029 A 
ATOM     17  N   UNL     1       5.537  -6.257  -4.185  1.00  0.00    -0.354 N 
ATOM     18  C   UNL     1       7.248  -3.173  -6.764  1.00  0.00     0.074 A 
ATOM     19  C   UNL     1       6.823  -1.858  -6.349  1.00  0.00     0.031 C 
ATOM     20  C   UNL     1       4.445  -6.992  -2.377  1.00  0.00     0.029 A 
ATOM     21  C   UNL     1       5.110  -7.426  -3.601  1.00  0.00     0.049 A 
ATOM     22  H   UNL     1       6.123  -6.229  -4.975  1.00  0.00     0.167 HD
ATOM     23  C   UNL     1       8.099  -3.410  -7.784  1.00  0.00     0.037 A 
ATOM     24  C   UNL     1       5.217  -8.691  -4.049  1.00  0.00     0.037 A 
ATOM     25  C   UNL     1       8.428  -4.730  -8.239  1.00  0.00     0.049 A 
ATOM     26  C   UNL     1       5.976  -8.921  -5.331  1.00  0.00     0.074 A 
ATOM     27  C   UNL     1       9.247  -5.107  -9.283  1.00  0.00     0.029 A 
ATOM     28  N   UNL     1       7.903  -5.892  -7.689  1.00  0.00    -0.354 N 
ATOM     29  N   UNL     1       6.612  -8.051  -6.081  1.00  0.00    -0.248 NA
ATOM     30  C   UNL     1       6.044 -10.302  -5.826  1.00  0.00     0.031 C 
ATOM     31  C   UNL     1       9.161  -6.498  -9.410  1.00  0.00     0.029 A 
ATOM     32  C   UNL     1       8.332  -6.989  -8.411  1.00  0.00     0.049 A 
ATOM     33  H   UNL     1       7.312  -5.929  -6.902  1.00  0.00     0.167 HD
ATOM     34  C   UNL     1       7.185  -8.780  -7.113  1.00  0.00     0.074 A 
ATOM     35  C   UNL     1       6.827 -10.167  -6.887  1.00  0.00     0.031 C 
ATOM     36  C   UNL     1       7.946  -8.353  -8.151  1.00  0.00     0.037 A 
BRANCH  23  37
ATOM     37  C   UNL     1       8.649  -2.213  -8.493  1.00  0.00     0.057 A 
ATOM     38  C   UNL     1       8.168  -1.853  -9.756  1.00  0.00     0.134 A 
ATOM     39  C   UNL     1       9.612  -1.385  -7.901  1.00  0.00     0.134 A 
ATOM     40  F   UNL     1       7.228  -2.591 -10.363  1.00  0.00    -0.206 F 
ATOM     41  C   UNL     1       8.629  -0.709 -10.409  1.00  0.00     0.040 A 
ATOM     42  C   UNL     1      10.067  -0.228  -8.537  1.00  0.00     0.040 A 
ATOM     43  F   UNL     1      10.081  -1.655  -6.673  1.00  0.00    -0.206 F 
ATOM     44  C   UNL     1       9.577   0.109  -9.797  1.00  0.00     0.006 A 
ENDBRANCH  23  37
BRANCH  24  45
ATOM     45  C   UNL     1       4.551  -9.818  -3.345  1.00  0.00     0.057 A 
ATOM     46  C   UNL     1       3.154  -9.926  -3.312  1.00  0.00     0.134 A 
ATOM     47  C   UNL     1       5.286 -10.860  -2.766  1.00  0.00     0.134 A 
ATOM     48  F   UNL     1       2.386  -8.965  -3.847  1.00  0.00    -0.206 F 
ATOM     49  C   UNL     1       2.514 -11.031  -2.745  1.00  0.00     0.040 A 
ATOM     50  C   UNL     1       4.660 -11.982  -2.217  1.00  0.00     0.040 A 
ATOM     51  F   UNL     1       6.626 -10.829  -2.784  1.00  0.00    -0.206 F 
ATOM     52  C   UNL     1       3.270 -12.071  -2.208  1.00  0.00     0.006 A 
ENDBRANCH  24  45
BRANCH  36  53
ATOM     53  C   UNL     1       8.447  -9.400  -9.098  1.00  0.00     0.057 A 
ATOM     54  C   UNL     1       9.806  -9.738  -9.127  1.00  0.00     0.134 A 
ATOM     55  C   UNL     1       7.596 -10.035 -10.009  1.00  0.00     0.134 A 
ATOM     56  F   UNL     1      10.672  -9.156  -8.283  1.00  0.00    -0.206 F 
ATOM     57  C   UNL     1      10.303 -10.666 -10.040  1.00  0.00     0.040 A 
ATOM     58  C   UNL     1       8.077 -10.988 -10.906  1.00  0.00     0.040 A 
ATOM     59  F   UNL     1       6.282  -9.763 -10.017  1.00  0.00    -0.206 F 
ATOM     60  C   UNL     1       9.436 -11.298 -10.929  1.00  0.00     0.006 A 
ENDBRANCH  36  53
ENDBRANCH  10  11
ENDBRANCH   3   5
ENDBRANCH   2   3
ENDBRANCH   1   2
BRANCH   1  61
ATOM     61  C   UNL     1       3.882   0.317   1.351  1.00  0.00     0.274 C 
BRANCH  61  62
ATOM     62  O   UNL     1       3.583  -0.983   0.805  1.00  0.00    -0.461 OA
BRANCH  62  63
ATOM     63  C   UNL     1       2.339  -1.506   1.040  1.00  0.00     0.324 C 
ATOM     64  O   UNL     1       1.472  -0.942   1.692  1.00  0.00    -0.250 OA
BRANCH  63  65
ATOM     65  C   UNL     1       2.178  -2.841   0.349  1.00  0.00     0.183 C 
ATOM     66  C   UNL     1       0.711  -3.119   0.012  1.00  0.00     0.034 C 
ATOM     67  N   UNL     1       2.704  -4.152   0.862  1.00  0.00    -0.184 NA
ATOM     68  C   UNL     1       0.796  -4.487  -0.628  1.00  0.00     0.019 C 
ATOM     69  C   UNL     1       1.793  -5.214   0.264  1.00  0.00     0.103 C 
BRANCH  67  70
ATOM     70  S   UNL     1       2.906  -4.417   2.544  1.00  0.00     0.244 S 
ATOM     71  O   UNL     1       1.657  -4.032   3.167  1.00  0.00    -0.207 OA
ATOM     72  O   UNL     1       3.388  -5.775   2.690  1.00  0.00    -0.207 OA
BRANCH  70  73
ATOM     73  C   UNL     1       4.173  -3.313   3.136  1.00  0.00     0.090 A 
ATOM     74  C   UNL     1       3.724  -2.090   3.703  1.00  0.00     0.024 A 
ATOM     75  C   UNL     1       5.560  -3.671   3.207  1.00  0.00     0.005 A 
ATOM     76  C   UNL     1       4.608  -1.111   4.184  1.00  0.00     0.028 A 
ATOM     77  C   UNL     1       6.370  -2.668   3.668  1.00  0.00     0.019 A 
ATOM     78  C   UNL     1       6.264  -4.877   2.929  1.00  0.00     0.010 A 
ATOM     79  C   UNL     1       5.944  -1.431   4.097  1.00  0.00     0.050 A 
ATOM     80  C   UNL     1       7.748  -2.719   3.838  1.00  0.00     0.050 A 
ATOM     81  C   UNL     1       7.657  -4.991   3.159  1.00  0.00     0.002 A 
ATOM     82  N   UNL     1       7.061  -0.695   4.440  1.00  0.00    -0.321 N 
ATOM     83  C   UNL     1       8.428  -3.909   3.608  1.00  0.00     0.014 A 
ATOM     84  C   UNL     1       8.239  -1.437   4.303  1.00  0.00     0.256 C 
ATOM     85  H   UNL     1       7.032   0.241   4.744  1.00  0.00     0.170 HD
ATOM     86  O   UNL     1       9.360  -1.010   4.541  1.00  0.00    -0.269 OA
ENDBRANCH  70  73
ENDBRANCH  67  70
ENDBRANCH  63  65
ENDBRANCH  62  63
ENDBRANCH  61  62
ENDBRANCH   1  61
TORSDOF 13
