REMARK SMILES Cc1cc(OCC(=O)N[C@@H](Cc2ccc(Cl)cc2)C(=O)OCCOC(=O)c2ccc(-c3c4nc(c(-c5c(F)cccc5F)c5ccc([nH]5)c(-c5c(F)cccc5F)c5nc(c(-c6c(F)cccc6F)c6ccc3[nH]6)C=C5)C=C4)cc2)c2c(C)c(C)c(=O)oc2c1
REMARK SMILES IDX 22 1 21 2 19 3 20 4 10 5 9 6 7 7 8 8 6 10 5 11 4 12 1 13
REMARK SMILES IDX 2 14 3 15 90 16 89 17 81 18 88 19 82 20 86 21 83 22 84 23
REMARK SMILES IDX 87 24 85 25 11 26 12 27 13 28 18 29 14 30 17 31 15 32 16 33
REMARK SMILES IDX 23 34 24 35 25 36 26 37 27 38 28 39 80 40 29 41 79 42 30 43
REMARK SMILES IDX 31 44 32 45 73 46 33 47 78 48 72 49 74 50 34 51 77 52 71 53
REMARK SMILES IDX 70 54 35 56 61 57 44 58 60 59 45 60 48 61 59 62 75 63 46 64
REMARK SMILES IDX 47 65 58 67 76 68 49 69 36 70 37 71 42 72 38 73 39 74 41 75
REMARK SMILES IDX 43 76 40 77 62 78 63 79 68 80 64 81 65 82 67 83 69 84 66 85
REMARK SMILES IDX 50 86 51 87 56 88 52 89 53 90 55 91 57 92 54 93
REMARK H PARENT 9 9 74 55 48 66
REMARK Flexibility Score: inf
ROOT
ATOM      1  C   UNL     1       6.505   6.846   3.744  1.00  0.00     0.274 C 
ENDROOT
BRANCH   1   2
ATOM      2  O   UNL     1       5.484   5.938   3.290  1.00  0.00    -0.461 OA
BRANCH   2   3
ATOM      3  C   UNL     1       4.273   6.475   2.978  1.00  0.00     0.329 C 
ATOM      4  O   UNL     1       3.973   7.656   3.120  1.00  0.00    -0.250 OA
BRANCH   3   5
ATOM      5  C   UNL     1       3.263   5.412   2.515  1.00  0.00     0.196 C 
BRANCH   5   6
ATOM      6  N   UNL     1       3.896   4.155   2.100  1.00  0.00    -0.339 N 
ATOM      7  C   UNL     1       3.981   3.587   0.864  1.00  0.00     0.258 C 
ATOM      8  O   UNL     1       4.626   2.543   0.735  1.00  0.00    -0.271 OA
ATOM      9  H   UNL     1       4.325   3.645   2.825  1.00  0.00     0.164 HD
BRANCH   7  10
ATOM     10  C   UNL     1       3.280   4.234  -0.339  1.00  0.00     0.329 C 
BRANCH  10  11
ATOM     11  O   UNL     1       1.916   4.597  -0.183  1.00  0.00    -0.483 OA
BRANCH  11  12
ATOM     12  C   UNL     1       0.979   3.626   0.052  1.00  0.00     0.131 A 
ATOM     13  C   UNL     1       0.751  -0.193   0.041  1.00  0.00     0.044 C 
ATOM     14  C   UNL     1       0.385   1.250   0.209  1.00  0.00    -0.044 A 
ATOM     15  C   UNL     1       1.294   2.259  -0.108  1.00  0.00     0.050 A 
ATOM     16  C   UNL     1      -0.878   1.620   0.641  1.00  0.00     0.051 A 
ATOM     17  C   UNL     1      -1.204   2.977   0.759  1.00  0.00     0.142 A 
ATOM     18  C   UNL     1      -0.316   4.024   0.470  1.00  0.00     0.063 A 
ATOM     19  O   UNL     1      -2.517   3.199   1.208  1.00  0.00    -0.422 OA
ATOM     20  C   UNL     1      -0.841   5.415   0.642  1.00  0.00    -0.026 A 
ATOM     21  C   UNL     1      -3.018   4.465   1.396  1.00  0.00     0.339 A 
ATOM     22  C   UNL     1      -0.019   6.638   0.317  1.00  0.00     0.046 C 
ATOM     23  C   UNL     1      -2.111   5.597   1.082  1.00  0.00     0.038 A 
ATOM     24  O   UNL     1      -4.161   4.641   1.803  1.00  0.00    -0.246 OA
ATOM     25  C   UNL     1      -2.778   6.932   1.312  1.00  0.00     0.052 C 
ENDBRANCH  11  12
ENDBRANCH  10  11
ENDBRANCH   7  10
ENDBRANCH   5   6
BRANCH   5  26
ATOM     26  C   UNL     1       2.216   5.194   3.624  1.00  0.00     0.072 C 
BRANCH  26  27
ATOM     27  C   UNL     1       2.828   4.616   4.881  1.00  0.00    -0.045 A 
ATOM     28  C   UNL     1       3.449   5.456   5.819  1.00  0.00     0.005 A 
ATOM     29  C   UNL     1       2.892   3.227   5.054  1.00  0.00     0.005 A 
ATOM     30  C   UNL     1       4.186   4.912   6.870  1.00  0.00     0.021 A 
ATOM     31  C   UNL     1       3.616   2.686   6.116  1.00  0.00     0.021 A 
ATOM     32  C   UNL     1       4.275   3.529   7.008  1.00  0.00     0.041 A 
ATOM     33  Cl  UNL     1       5.225   2.860   8.275  1.00  0.00    -0.084 Cl
ENDBRANCH  26  27
ENDBRANCH   5  26
ENDBRANCH   3   5
ENDBRANCH   2   3
ENDBRANCH   1   2
BRANCH   1  34
ATOM     34  C   UNL     1       7.548   7.074   2.649  1.00  0.00     0.275 C 
BRANCH  34  35
ATOM     35  O   UNL     1       6.991   7.815   1.549  1.00  0.00    -0.458 OA
BRANCH  35  36
ATOM     36  C   UNL     1       6.390   7.063   0.600  1.00  0.00     0.338 C 
ATOM     37  O   UNL     1       6.308   5.849   0.538  1.00  0.00    -0.246 OA
BRANCH  36  38
ATOM     38  C   UNL     1       5.657   7.945  -0.310  1.00  0.00     0.060 A 
ATOM     39  C   UNL     1       6.329   8.764  -1.212  1.00  0.00     0.016 A 
ATOM     40  C   UNL     1       4.262   7.877  -0.304  1.00  0.00     0.016 A 
ATOM     41  C   UNL     1       5.583   9.526  -2.111  1.00  0.00     0.010 A 
ATOM     42  C   UNL     1       3.522   8.600  -1.223  1.00  0.00     0.010 A 
ATOM     43  C   UNL     1       4.179   9.440  -2.125  1.00  0.00    -0.014 A 
BRANCH  43  44
ATOM     44  C   UNL     1       3.378  10.193  -3.108  1.00  0.00     0.031 A 
ATOM     45  C   UNL     1       2.507  11.329  -2.663  1.00  0.00     0.074 A 
ATOM     46  C   UNL     1       3.401   9.799  -4.392  1.00  0.00     0.049 A 
ATOM     47  N   UNL     1       1.772  12.134  -3.386  1.00  0.00    -0.248 NA
ATOM     48  C   UNL     1       2.433  11.579  -1.216  1.00  0.00     0.031 C 
ATOM     49  C   UNL     1       4.162   8.661  -4.910  1.00  0.00     0.029 A 
ATOM     50  N   UNL     1       2.775  10.315  -5.494  1.00  0.00    -0.354 N 
ATOM     51  C   UNL     1       1.161  12.995  -2.484  1.00  0.00     0.074 A 
ATOM     52  C   UNL     1       1.553  12.567  -1.159  1.00  0.00     0.031 C 
ATOM     53  C   UNL     1       4.001   8.598  -6.240  1.00  0.00     0.029 A 
ATOM     54  C   UNL     1       3.102   9.668  -6.659  1.00  0.00     0.049 A 
ATOM     55  H   UNL     1       2.151  11.076  -5.455  1.00  0.00     0.167 HD
ATOM     56  C   UNL     1       0.367  14.061  -2.744  1.00  0.00     0.037 A 
ATOM     57  C   UNL     1       2.724   9.924  -7.923  1.00  0.00     0.037 A 
ATOM     58  C   UNL     1      -0.027  14.458  -4.071  1.00  0.00     0.049 A 
ATOM     59  C   UNL     1       1.797  11.077  -8.180  1.00  0.00     0.074 A 
ATOM     60  C   UNL     1      -0.773  15.555  -4.462  1.00  0.00     0.029 A 
ATOM     61  N   UNL     1       0.277  13.749  -5.226  1.00  0.00    -0.354 N 
ATOM     62  N   UNL     1       1.312  11.954  -7.335  1.00  0.00    -0.248 NA
ATOM     63  C   UNL     1       1.360  11.269  -9.568  1.00  0.00     0.031 C 
ATOM     64  C   UNL     1      -0.970  15.476  -5.847  1.00  0.00     0.029 A 
ATOM     65  C   UNL     1      -0.306  14.357  -6.325  1.00  0.00     0.049 A 
ATOM     66  H   UNL     1       0.827  12.933  -5.258  1.00  0.00     0.167 HD
ATOM     67  C   UNL     1       0.522  12.811  -8.088  1.00  0.00     0.074 A 
ATOM     68  C   UNL     1       0.616  12.360  -9.463  1.00  0.00     0.031 C 
ATOM     69  C   UNL     1      -0.217  13.873  -7.681  1.00  0.00     0.037 A 
BRANCH  56  70
ATOM     70  C   UNL     1      -0.124  14.850  -1.564  1.00  0.00     0.057 A 
ATOM     71  C   UNL     1      -1.480  14.849  -1.213  1.00  0.00     0.134 A 
ATOM     72  C   UNL     1       0.748  15.597  -0.758  1.00  0.00     0.134 A 
ATOM     73  F   UNL     1      -2.373  14.163  -1.942  1.00  0.00    -0.206 F 
ATOM     74  C   UNL     1      -1.946  15.547  -0.096  1.00  0.00     0.040 A 
ATOM     75  C   UNL     1       0.298  16.273   0.379  1.00  0.00     0.040 A 
ATOM     76  F   UNL     1       2.062  15.633  -1.029  1.00  0.00    -0.206 F 
ATOM     77  C   UNL     1      -1.054  16.250   0.711  1.00  0.00     0.006 A 
ENDBRANCH  56  70
BRANCH  57  78
ATOM     78  C   UNL     1       3.262   9.107  -9.037  1.00  0.00     0.057 A 
ATOM     79  C   UNL     1       2.894   7.768  -9.214  1.00  0.00     0.134 A 
ATOM     80  C   UNL     1       4.178   9.651  -9.943  1.00  0.00     0.134 A 
ATOM     81  F   UNL     1       2.028   7.186  -8.372  1.00  0.00    -0.206 F 
ATOM     82  C   UNL     1       3.425   6.997 -10.248  1.00  0.00     0.040 A 
ATOM     83  C   UNL     1       4.700   8.899 -10.995  1.00  0.00     0.040 A 
ATOM     84  F   UNL     1       4.559  10.932  -9.830  1.00  0.00    -0.206 F 
ATOM     85  C   UNL     1       4.328   7.564 -11.146  1.00  0.00     0.006 A 
ENDBRANCH  57  78
BRANCH  69  86
ATOM     86  C   UNL     1      -0.983  14.606  -8.744  1.00  0.00     0.057 A 
ATOM     87  C   UNL     1      -0.598  15.888  -9.152  1.00  0.00     0.134 A 
ATOM     88  C   UNL     1      -2.113  14.043  -9.353  1.00  0.00     0.134 A 
ATOM     89  F   UNL     1       0.471  16.486  -8.605  1.00  0.00    -0.206 F 
ATOM     90  C   UNL     1      -1.311  16.587 -10.127  1.00  0.00     0.040 A 
ATOM     91  C   UNL     1      -2.817  14.721 -10.349  1.00  0.00     0.040 A 
ATOM     92  F   UNL     1      -2.522  12.810  -9.019  1.00  0.00    -0.206 F 
ATOM     93  C   UNL     1      -2.420  16.000 -10.734  1.00  0.00     0.006 A 
ENDBRANCH  69  86
ENDBRANCH  43  44
ENDBRANCH  36  38
ENDBRANCH  35  36
ENDBRANCH  34  35
ENDBRANCH   1  34
TORSDOF 17
