REMARK SMILES CC1=C(C)C[C@H](C(=O)OCCOC(=O)c2ccc(-c3c4nc(c(-c5c(F)cccc5F)c5ccc([nH]5)c(-c5c(F)cccc5F)c5nc(c(-c6c(F)cccc6F)c6ccc3[nH]6)C=C5)C=C4)cc2)[C@@H](C(=O)Nc2sc3c(c2C(=O)NC2CCCC2)CCCC3)C1
REMARK SMILES IDX 10 1 9 2 7 3 8 4 6 5 1 6 2 7 3 8 90 9 4 10 5 11 69 12 70 13
REMARK SMILES IDX 71 14 72 15 73 17 74 18 77 19 75 20 76 21 89 22 86 23 88 24
REMARK SMILES IDX 87 25 78 26 79 27 80 28 81 30 82 31 85 32 83 33 84 34 11 35
REMARK SMILES IDX 12 36 13 37 14 38 15 39 16 40 68 41 17 42 67 43 18 44 19 45
REMARK SMILES IDX 20 46 61 47 21 48 66 49 60 50 62 51 22 52 65 53 59 54 58 55
REMARK SMILES IDX 23 57 49 58 32 59 48 60 33 61 36 62 47 63 63 64 34 65 35 66
REMARK SMILES IDX 46 68 64 69 37 70 24 71 25 72 30 73 26 74 27 75 29 76 31 77
REMARK SMILES IDX 28 78 50 79 51 80 56 81 52 82 53 83 55 84 57 85 54 86 38 87
REMARK SMILES IDX 39 88 44 89 40 90 41 91 43 92 45 93 42 94
REMARK H PARENT 72 16 80 29 62 56 36 67
REMARK Flexibility Score: inf
ROOT
ATOM      1  C   UNL     1       3.248   1.291  -5.614  1.00  0.00     0.274 C 
ENDROOT
BRANCH   1   2
ATOM      2  O   UNL     1       2.494   1.250  -4.383  1.00  0.00    -0.462 OA
BRANCH   2   3
ATOM      3  C   UNL     1       1.180   1.530  -4.532  1.00  0.00     0.310 C 
ATOM      4  O   UNL     1       0.626   1.667  -5.616  1.00  0.00    -0.252 OA
BRANCH   3   5
ATOM      5  C   UNL     1       0.396   1.626  -3.247  1.00  0.00     0.116 C 
ATOM      6  C   UNL     1       1.468  -0.104   0.732  1.00  0.00     0.039 C 
ATOM      7  C   UNL     1       1.055   0.396  -0.631  1.00  0.00    -0.074 C 
ATOM      8  C   UNL     1       0.339  -0.323  -1.515  1.00  0.00    -0.073 C 
ATOM      9  C   UNL     1       1.538   1.801  -0.925  1.00  0.00     0.045 C 
ATOM     10  C   UNL     1      -0.119  -1.754  -1.347  1.00  0.00     0.039 C 
ATOM     11  C   UNL     1      -0.086   0.241  -2.834  1.00  0.00     0.046 C 
ATOM     12  C   UNL     1       1.050   2.519  -2.203  1.00  0.00     0.097 C 
BRANCH  12  13
ATOM     13  C   UNL     1       0.069   3.626  -1.804  1.00  0.00     0.229 C 
ATOM     14  O   UNL     1      -0.827   3.423  -0.980  1.00  0.00    -0.274 OA
ATOM     15  N   UNL     1       0.206   4.898  -2.293  1.00  0.00    -0.317 N 
ATOM     16  H   UNL     1      -0.301   5.594  -1.817  1.00  0.00     0.170 HD
BRANCH  15  17
ATOM     17  C   UNL     1       0.955   5.331  -3.358  1.00  0.00     0.108 A 
ATOM     18  S   UNL     1       1.952   6.641  -2.877  1.00  0.00    -0.122 S 
ATOM     19  C   UNL     1       1.051   5.064  -4.720  1.00  0.00     0.078 A 
ATOM     20  C   UNL     1       2.866   6.506  -4.284  1.00  0.00     0.011 A 
ATOM     21  C   UNL     1       2.357   5.568  -5.156  1.00  0.00    -0.019 A 
ATOM     22  C   UNL     1       4.075   7.328  -4.592  1.00  0.00     0.047 C 
ATOM     23  C   UNL     1       3.150   5.276  -6.401  1.00  0.00     0.037 C 
ATOM     24  C   UNL     1       4.052   7.704  -6.083  1.00  0.00     0.006 C 
ATOM     25  C   UNL     1       3.720   6.546  -7.048  1.00  0.00     0.005 C 
BRANCH  19  26
ATOM     26  C   UNL     1       0.123   4.422  -5.672  1.00  0.00     0.254 C 
ATOM     27  O   UNL     1       0.474   4.213  -6.838  1.00  0.00    -0.269 OA
ATOM     28  N   UNL     1      -1.180   4.081  -5.438  1.00  0.00    -0.349 N 
ATOM     29  H   UNL     1      -1.543   3.504  -6.148  1.00  0.00     0.164 HD
BRANCH  28  30
ATOM     30  C   UNL     1      -2.154   4.354  -4.413  1.00  0.00     0.082 C 
ATOM     31  C   UNL     1      -3.062   5.530  -4.743  1.00  0.00     0.025 C 
ATOM     32  C   UNL     1      -3.160   3.216  -4.246  1.00  0.00     0.025 C 
ATOM     33  C   UNL     1      -4.203   5.363  -3.744  1.00  0.00     0.002 C 
ATOM     34  C   UNL     1      -4.318   3.857  -3.489  1.00  0.00     0.002 C 
ENDBRANCH  28  30
ENDBRANCH  19  26
ENDBRANCH  15  17
ENDBRANCH  12  13
ENDBRANCH   3   5
ENDBRANCH   2   3
ENDBRANCH   1   2
BRANCH   1  35
ATOM     35  C   UNL     1       3.244  -0.034  -6.391  1.00  0.00     0.275 C 
BRANCH  35  36
ATOM     36  O   UNL     1       1.970  -0.314  -7.007  1.00  0.00    -0.458 OA
BRANCH  36  37
ATOM     37  C   UNL     1       1.176  -1.169  -6.328  1.00  0.00     0.338 C 
ATOM     38  O   UNL     1       1.461  -1.788  -5.309  1.00  0.00    -0.246 OA
BRANCH  37  39
ATOM     39  C   UNL     1      -0.175  -1.220  -6.913  1.00  0.00     0.060 A 
ATOM     40  C   UNL     1      -1.240  -0.671  -6.191  1.00  0.00     0.016 A 
ATOM     41  C   UNL     1      -0.420  -1.946  -8.077  1.00  0.00     0.016 A 
ATOM     42  C   UNL     1      -2.554  -0.880  -6.587  1.00  0.00     0.010 A 
ATOM     43  C   UNL     1      -1.743  -2.151  -8.485  1.00  0.00     0.010 A 
ATOM     44  C   UNL     1      -2.814  -1.648  -7.723  1.00  0.00    -0.014 A 
BRANCH  44  45
ATOM     45  C   UNL     1      -4.209  -2.021  -8.037  1.00  0.00     0.031 A 
ATOM     46  C   UNL     1      -4.677  -3.413  -7.736  1.00  0.00     0.074 A 
ATOM     47  C   UNL     1      -5.057  -1.113  -8.549  1.00  0.00     0.049 A 
ATOM     48  N   UNL     1      -5.802  -3.997  -8.056  1.00  0.00    -0.248 NA
ATOM     49  C   UNL     1      -3.750  -4.264  -6.971  1.00  0.00     0.031 C 
ATOM     50  C   UNL     1      -4.739   0.291  -8.806  1.00  0.00     0.029 A 
ATOM     51  N   UNL     1      -6.359  -1.246  -8.957  1.00  0.00    -0.354 N 
ATOM     52  C   UNL     1      -5.705  -5.293  -7.568  1.00  0.00     0.074 A 
ATOM     53  C   UNL     1      -4.413  -5.410  -6.926  1.00  0.00     0.031 C 
ATOM     54  C   UNL     1      -5.812   0.886  -9.353  1.00  0.00     0.029 A 
ATOM     55  C   UNL     1      -6.868  -0.107  -9.528  1.00  0.00     0.049 A 
ATOM     56  H   UNL     1      -6.877  -2.076  -8.851  1.00  0.00     0.167 HD
ATOM     57  C   UNL     1      -6.610  -6.294  -7.658  1.00  0.00     0.037 A 
ATOM     58  C   UNL     1      -8.037   0.095 -10.164  1.00  0.00     0.037 A 
ATOM     59  C   UNL     1      -7.902  -6.160  -8.276  1.00  0.00     0.049 A 
ATOM     60  C   UNL     1      -9.005  -1.046 -10.304  1.00  0.00     0.074 A 
ATOM     61  C   UNL     1      -8.901  -7.109  -8.406  1.00  0.00     0.029 A 
ATOM     62  N   UNL     1      -8.373  -4.997  -8.866  1.00  0.00    -0.354 N 
ATOM     63  N   UNL     1      -8.896  -2.279  -9.870  1.00  0.00    -0.248 NA
ATOM     64  C   UNL     1     -10.251  -0.773 -11.032  1.00  0.00     0.031 C 
ATOM     65  C   UNL     1      -9.964  -6.528  -9.107  1.00  0.00     0.029 A 
ATOM     66  C   UNL     1      -9.641  -5.209  -9.381  1.00  0.00     0.049 A 
ATOM     67  H   UNL     1      -7.880  -4.146  -8.911  1.00  0.00     0.167 HD
ATOM     68  C   UNL     1     -10.059  -2.926 -10.263  1.00  0.00     0.074 A 
ATOM     69  C   UNL     1     -10.868  -1.944 -10.958  1.00  0.00     0.031 C 
ATOM     70  C   UNL     1     -10.425  -4.216 -10.070  1.00  0.00     0.037 A 
BRANCH  57  71
ATOM     71  C   UNL     1      -6.208  -7.632  -7.117  1.00  0.00     0.057 A 
ATOM     72  C   UNL     1      -6.162  -7.897  -5.744  1.00  0.00     0.134 A 
ATOM     73  C   UNL     1      -5.866  -8.672  -7.991  1.00  0.00     0.134 A 
ATOM     74  F   UNL     1      -6.460  -6.936  -4.856  1.00  0.00    -0.206 F 
ATOM     75  C   UNL     1      -5.770  -9.145  -5.256  1.00  0.00     0.040 A 
ATOM     76  C   UNL     1      -5.492  -9.929  -7.516  1.00  0.00     0.040 A 
ATOM     77  F   UNL     1      -5.889  -8.481  -9.319  1.00  0.00    -0.206 F 
ATOM     78  C   UNL     1      -5.437 -10.167  -6.145  1.00  0.00     0.006 A 
ENDBRANCH  57  71
BRANCH  58  79
ATOM     79  C   UNL     1      -8.325   1.419 -10.764  1.00  0.00     0.057 A 
ATOM     80  C   UNL     1      -9.285   2.274 -10.214  1.00  0.00     0.134 A 
ATOM     81  C   UNL     1      -7.636   1.864 -11.900  1.00  0.00     0.134 A 
ATOM     82  F   UNL     1      -9.992   1.893  -9.140  1.00  0.00    -0.206 F 
ATOM     83  C   UNL     1      -9.555   3.524 -10.774  1.00  0.00     0.040 A 
ATOM     84  C   UNL     1      -7.880   3.119 -12.458  1.00  0.00     0.040 A 
ATOM     85  F   UNL     1      -6.704   1.088 -12.473  1.00  0.00    -0.206 F 
ATOM     86  C   UNL     1      -8.845   3.952 -11.896  1.00  0.00     0.006 A 
ENDBRANCH  58  79
BRANCH  70  87
ATOM     87  C   UNL     1     -11.763  -4.632 -10.600  1.00  0.00     0.057 A 
ATOM     88  C   UNL     1     -11.969  -4.871 -11.964  1.00  0.00     0.134 A 
ATOM     89  C   UNL     1     -12.842  -4.838  -9.733  1.00  0.00     0.134 A 
ATOM     90  F   UNL     1     -10.976  -4.678 -12.845  1.00  0.00    -0.206 F 
ATOM     91  C   UNL     1     -13.209  -5.289 -12.450  1.00  0.00     0.040 A 
ATOM     92  C   UNL     1     -14.081  -5.274 -10.204  1.00  0.00     0.040 A 
ATOM     93  F   UNL     1     -12.706  -4.632  -8.414  1.00  0.00    -0.206 F 
ATOM     94  C   UNL     1     -14.267  -5.498 -11.567  1.00  0.00     0.006 A 
ENDBRANCH  70  87
ENDBRANCH  44  45
ENDBRANCH  37  39
ENDBRANCH  36  37
ENDBRANCH  35  36
ENDBRANCH   1  35
TORSDOF 15
