REMARK SMILES CO[C@@H]1C[C@H](C(=O)OCCOC(=O)c2ccc(-c3c4nc(c(-c5c(F)cccc5F)c5ccc([nH]5)c(-c5c(F)cccc5F)c5nc(c(-c6c(F)cccc6F)c6ccc3[nH]6)C=C5)C=C4)cc2)N(C(=O)c2ccc([N+](=O)[O-])s2)C1
REMARK SMILES IDX 9 1 8 2 6 3 7 4 5 5 3 6 4 7 79 8 68 9 2 10 1 11 69 12 70 13
REMARK SMILES IDX 71 14 72 15 78 16 73 17 74 18 75 19 76 20 77 21 10 22 11 23
REMARK SMILES IDX 12 24 13 25 14 26 15 27 67 28 16 29 66 30 17 31 18 32 19 33
REMARK SMILES IDX 60 34 20 35 65 36 59 37 61 38 21 39 64 40 58 41 57 42 22 44
REMARK SMILES IDX 48 45 31 46 47 47 32 48 35 49 46 50 62 51 33 52 34 53 45 55
REMARK SMILES IDX 63 56 36 57 23 58 24 59 29 60 25 61 26 62 28 63 30 64 27 65
REMARK SMILES IDX 49 66 50 67 55 68 51 69 52 70 54 71 56 72 53 73 37 74 38 75
REMARK SMILES IDX 43 76 39 77 40 78 42 79 44 80 41 81
REMARK H PARENT 61 43 35 54
REMARK Flexibility Score: inf
ROOT
ATOM      1  C   UNL     1       1.154   3.457  -2.255  1.00  0.00     0.274 C 
ENDROOT
BRANCH   1   2
ATOM      2  O   UNL     1       1.094   3.185  -0.843  1.00  0.00    -0.461 OA
BRANCH   2   3
ATOM      3  C   UNL     1       2.076   3.700  -0.069  1.00  0.00     0.329 C 
ATOM      4  O   UNL     1       2.992   4.400  -0.492  1.00  0.00    -0.250 OA
BRANCH   3   5
ATOM      5  C   UNL     1       1.933   3.348   1.426  1.00  0.00     0.198 C 
ATOM      6  C   UNL     1       1.286   1.046   1.673  1.00  0.00     0.140 C 
ATOM      7  C   UNL     1       0.752   2.469   1.827  1.00  0.00     0.071 C 
ATOM      8  C   UNL     1       2.783   1.179   1.994  1.00  0.00     0.152 C 
ATOM      9  N   UNL     1       3.096   2.598   1.893  1.00  0.00    -0.321 N 
BRANCH   6  10
ATOM     10  O   UNL     1       1.038   0.636   0.329  1.00  0.00    -0.380 OA
ATOM     11  C   UNL     1       1.182  -0.762   0.129  1.00  0.00     0.195 C 
ENDBRANCH   6  10
BRANCH   9  12
ATOM     12  C   UNL     1       4.374   3.061   2.177  1.00  0.00     0.265 C 
ATOM     13  O   UNL     1       5.266   2.260   2.459  1.00  0.00    -0.268 OA
BRANCH  12  14
ATOM     14  C   UNL     1       4.614   4.496   2.154  1.00  0.00     0.099 A 
ATOM     15  C   UNL     1       4.017   5.512   2.881  1.00  0.00     0.033 A 
ATOM     16  S   UNL     1       5.882   5.102   1.165  1.00  0.00    -0.058 S 
ATOM     17  C   UNL     1       4.561   6.798   2.570  1.00  0.00     0.099 A 
ATOM     18  C   UNL     1       5.565   6.703   1.631  1.00  0.00     0.324 A 
BRANCH  18  19
ATOM     19  N   UNL     1       6.336   7.790   1.086  1.00  0.00     0.074 N 
ATOM     20  O   UNL     1       6.201   8.890   1.639  1.00  0.00    -0.258 OA
ATOM     21  O   UNL     1       7.063   7.568   0.109  1.00  0.00    -0.258 OA
ENDBRANCH  18  19
ENDBRANCH  12  14
ENDBRANCH   9  12
ENDBRANCH   3   5
ENDBRANCH   2   3
ENDBRANCH   1   2
BRANCH   1  22
ATOM     22  C   UNL     1      -0.055   4.289  -2.684  1.00  0.00     0.275 C 
BRANCH  22  23
ATOM     23  O   UNL     1      -0.021   5.597  -2.080  1.00  0.00    -0.458 OA
BRANCH  23  24
ATOM     24  C   UNL     1      -0.630   5.678  -0.875  1.00  0.00     0.338 C 
ATOM     25  O   UNL     1      -1.244   4.807  -0.284  1.00  0.00    -0.246 OA
BRANCH  24  26
ATOM     26  C   UNL     1      -0.300   6.961  -0.244  1.00  0.00     0.060 A 
ATOM     27  C   UNL     1       0.489   6.922   0.906  1.00  0.00     0.016 A 
ATOM     28  C   UNL     1      -0.842   8.164  -0.696  1.00  0.00     0.016 A 
ATOM     29  C   UNL     1       0.725   8.079   1.633  1.00  0.00     0.010 A 
ATOM     30  C   UNL     1      -0.597   9.334   0.031  1.00  0.00     0.010 A 
ATOM     31  C   UNL     1       0.172   9.292   1.208  1.00  0.00    -0.014 A 
BRANCH  31  32
ATOM     32  C   UNL     1       0.359  10.492   2.053  1.00  0.00     0.031 A 
ATOM     33  C   UNL     1      -0.779  11.004   2.885  1.00  0.00     0.074 A 
ATOM     34  C   UNL     1       1.571  11.070   2.126  1.00  0.00     0.049 A 
ATOM     35  N   UNL     1      -0.827  12.055   3.662  1.00  0.00    -0.248 NA
ATOM     36  C   UNL     1      -2.029  10.229   2.841  1.00  0.00     0.031 C 
ATOM     37  C   UNL     1       2.764  10.622   1.407  1.00  0.00     0.029 A 
ATOM     38  N   UNL     1       2.001  12.149   2.853  1.00  0.00    -0.354 N 
ATOM     39  C   UNL     1      -2.116  12.087   4.175  1.00  0.00     0.074 A 
ATOM     40  C   UNL     1      -2.821  10.951   3.621  1.00  0.00     0.031 C 
ATOM     41  C   UNL     1       3.797  11.409   1.745  1.00  0.00     0.029 A 
ATOM     42  C   UNL     1       3.328  12.443   2.662  1.00  0.00     0.049 A 
ATOM     43  H   UNL     1       1.415  12.664   3.454  1.00  0.00     0.167 HD
ATOM     44  C   UNL     1      -2.660  12.985   5.030  1.00  0.00     0.037 A 
ATOM     45  C   UNL     1       4.074  13.449   3.154  1.00  0.00     0.037 A 
ATOM     46  C   UNL     1      -1.948  14.102   5.593  1.00  0.00     0.049 A 
ATOM     47  C   UNL     1       3.435  14.455   4.068  1.00  0.00     0.074 A 
ATOM     48  C   UNL     1      -2.412  15.071   6.465  1.00  0.00     0.029 A 
ATOM     49  N   UNL     1      -0.617  14.396   5.340  1.00  0.00    -0.354 N 
ATOM     50  N   UNL     1       2.206  14.494   4.522  1.00  0.00    -0.248 NA
ATOM     51  C   UNL     1       4.283  15.563   4.526  1.00  0.00     0.031 C 
ATOM     52  C   UNL     1      -1.368  15.970   6.716  1.00  0.00     0.029 A 
ATOM     53  C   UNL     1      -0.245  15.539   6.027  1.00  0.00     0.049 A 
ATOM     54  H   UNL     1      -0.023  13.868   4.758  1.00  0.00     0.167 HD
ATOM     55  C   UNL     1       2.132  15.627   5.321  1.00  0.00     0.074 A 
ATOM     56  C   UNL     1       3.449  16.232   5.310  1.00  0.00     0.031 C 
ATOM     57  C   UNL     1       1.069  16.128   5.995  1.00  0.00     0.037 A 
BRANCH  44  58
ATOM     58  C   UNL     1      -4.108  12.812   5.374  1.00  0.00     0.057 A 
ATOM     59  C   UNL     1      -4.549  11.815   6.253  1.00  0.00     0.134 A 
ATOM     60  C   UNL     1      -5.073  13.667   4.827  1.00  0.00     0.134 A 
ATOM     61  F   UNL     1      -3.676  10.952   6.794  1.00  0.00    -0.206 F 
ATOM     62  C   UNL     1      -5.902  11.663   6.561  1.00  0.00     0.040 A 
ATOM     63  C   UNL     1      -6.426  13.537   5.143  1.00  0.00     0.040 A 
ATOM     64  F   UNL     1      -4.716  14.642   3.977  1.00  0.00    -0.206 F 
ATOM     65  C   UNL     1      -6.845  12.529   6.009  1.00  0.00     0.006 A 
ENDBRANCH  44  58
BRANCH  45  66
ATOM     66  C   UNL     1       5.502  13.566   2.771  1.00  0.00     0.057 A 
ATOM     67  C   UNL     1       6.522  13.319   3.696  1.00  0.00     0.134 A 
ATOM     68  C   UNL     1       5.879  13.929   1.472  1.00  0.00     0.134 A 
ATOM     69  F   UNL     1       6.220  12.993   4.962  1.00  0.00    -0.206 F 
ATOM     70  C   UNL     1       7.868  13.437   3.346  1.00  0.00     0.040 A 
ATOM     71  C   UNL     1       7.221  14.028   1.102  1.00  0.00     0.040 A 
ATOM     72  F   UNL     1       4.947  14.182   0.542  1.00  0.00    -0.206 F 
ATOM     73  C   UNL     1       8.220  13.786   2.043  1.00  0.00     0.006 A 
ENDBRANCH  45  66
BRANCH  57  74
ATOM     74  C   UNL     1       1.296  17.385   6.778  1.00  0.00     0.057 A 
ATOM     75  C   UNL     1       1.414  18.630   6.146  1.00  0.00     0.134 A 
ATOM     76  C   UNL     1       1.379  17.355   8.175  1.00  0.00     0.134 A 
ATOM     77  F   UNL     1       1.357  18.721   4.809  1.00  0.00    -0.206 F 
ATOM     78  C   UNL     1       1.628  19.799   6.877  1.00  0.00     0.040 A 
ATOM     79  C   UNL     1       1.573  18.520   8.918  1.00  0.00     0.040 A 
ATOM     80  F   UNL     1       1.268  16.194   8.839  1.00  0.00    -0.206 F 
ATOM     81  C   UNL     1       1.704  19.746   8.268  1.00  0.00     0.006 A 
ENDBRANCH  57  74
ENDBRANCH  31  32
ENDBRANCH  24  26
ENDBRANCH  23  24
ENDBRANCH  22  23
ENDBRANCH   1  22
TORSDOF 15
