REMARK SMILES O=C(OCCOC(=O)[C@@H]1[C@H](C(=O)Nc2ccccc2Cc2ccccc2)[C@H]2C=C[C@@H]1O2)c1ccc(-c2c3nc(c(-c4c(F)cccc4F)c4ccc([nH]4)c(-c4c(F)cccc4F)c4nc(c(-c5c(F)cccc5F)c5ccc2[nH]5)C=C4)C=C3)cc1
REMARK SMILES IDX 5 1 4 2 3 3 2 4 1 5 32 6 33 7 85 8 34 9 84 10 35 11 36 12
REMARK SMILES IDX 37 13 78 14 38 15 83 16 77 17 79 18 39 19 82 20 76 21 75 22
REMARK SMILES IDX 40 24 66 25 49 26 65 27 50 28 53 29 64 30 80 31 51 32 52 33
REMARK SMILES IDX 63 35 81 36 54 37 41 38 42 39 47 40 43 41 44 42 46 43 48 44
REMARK SMILES IDX 45 45 67 46 68 47 73 48 69 49 70 50 72 51 74 52 71 53 55 54
REMARK SMILES IDX 56 55 61 56 57 57 58 58 60 59 62 60 59 61 6 62 7 63 8 64
REMARK SMILES IDX 9 65 10 66 30 67 27 68 29 69 31 70 28 71 11 72 12 73 13 74
REMARK SMILES IDX 14 76 15 77 19 78 16 79 18 80 17 81 20 82 21 83 22 84 26 85
REMARK SMILES IDX 23 86 25 87 24 88
REMARK H PARENT 79 23 53 34 13 75
REMARK Flexibility Score: inf
ROOT
ATOM      1  C   UNL     1       5.527  -2.169  -0.351  1.00  0.00     0.274 C 
ENDROOT
BRANCH   1   2
ATOM      2  C   UNL     1       5.791  -1.146   0.822  1.00  0.00     0.275 C 
BRANCH   2   3
ATOM      3  O   UNL     1       4.927  -0.006   0.982  1.00  0.00    -0.458 OA
BRANCH   3   4
ATOM      4  C   UNL     1       3.623  -0.136   0.624  1.00  0.00     0.338 C 
ATOM      5  O   UNL     1       2.848  -0.775   1.302  1.00  0.00    -0.246 OA
BRANCH   4   6
ATOM      6  C   UNL     1       3.490   0.747  -0.738  1.00  0.00     0.060 A 
ATOM      7  C   UNL     1       5.188   0.829  -1.376  1.00  0.00     0.016 A 
ATOM      8  C   UNL     1       2.360   2.186  -1.271  1.00  0.00     0.016 A 
ATOM      9  C   UNL     1       5.767   1.984  -2.405  1.00  0.00     0.010 A 
ATOM     10  C   UNL     1       3.165   3.526  -2.251  1.00  0.00     0.010 A 
ATOM     11  C   UNL     1       4.789   3.272  -2.887  1.00  0.00    -0.014 A 
BRANCH  11  12
ATOM     12  C   UNL     1       5.278   3.837  -4.176  1.00  0.00     0.031 A 
ATOM     13  C   UNL     1       5.878   5.154  -3.964  1.00  0.00     0.074 A 
ATOM     14  C   UNL     1       5.267   3.213  -5.391  1.00  0.00     0.049 A 
ATOM     15  N   UNL     1       6.167   6.070  -4.824  1.00  0.00    -0.248 NA
ATOM     16  C   UNL     1       6.126   5.503  -2.555  1.00  0.00     0.031 C 
ATOM     17  C   UNL     1       4.940   1.812  -5.699  1.00  0.00     0.029 A 
ATOM     18  N   UNL     1       5.500   3.702  -6.657  1.00  0.00    -0.354 N 
ATOM     19  C   UNL     1       6.604   7.114  -4.039  1.00  0.00     0.074 A 
ATOM     20  C   UNL     1       6.342   6.795  -2.660  1.00  0.00     0.031 C 
ATOM     21  C   UNL     1       4.771   1.619  -7.015  1.00  0.00     0.029 A 
ATOM     22  C   UNL     1       5.127   2.843  -7.683  1.00  0.00     0.049 A 
ATOM     23  H   UNL     1       5.898   4.587  -6.822  1.00  0.00     0.167 HD
ATOM     24  C   UNL     1       7.278   8.199  -4.449  1.00  0.00     0.037 A 
ATOM     25  C   UNL     1       5.104   3.015  -9.019  1.00  0.00     0.037 A 
ATOM     26  C   UNL     1       7.519   8.428  -5.836  1.00  0.00     0.049 A 
ATOM     27  C   UNL     1       5.686   4.313  -9.486  1.00  0.00     0.074 A 
ATOM     28  C   UNL     1       8.111   9.508  -6.443  1.00  0.00     0.029 A 
ATOM     29  N   UNL     1       7.144   7.535  -6.841  1.00  0.00    -0.354 N 
ATOM     30  N   UNL     1       6.110   5.314  -8.747  1.00  0.00    -0.248 NA
ATOM     31  C   UNL     1       5.843   4.507 -10.927  1.00  0.00     0.031 C 
ATOM     32  C   UNL     1       8.001   9.314  -7.822  1.00  0.00     0.029 A 
ATOM     33  C   UNL     1       7.441   8.064  -8.075  1.00  0.00     0.049 A 
ATOM     34  H   UNL     1       6.727   6.656  -6.688  1.00  0.00     0.167 HD
ATOM     35  C   UNL     1       6.636   6.240  -9.623  1.00  0.00     0.074 A 
ATOM     36  C   UNL     1       6.457   5.684 -10.956  1.00  0.00     0.031 C 
ATOM     37  C   UNL     1       7.229   7.429  -9.357  1.00  0.00     0.037 A 
BRANCH  24  38
ATOM     38  C   UNL     1       7.657   9.150  -3.362  1.00  0.00     0.057 A 
ATOM     39  C   UNL     1       8.533   8.786  -2.321  1.00  0.00     0.134 A 
ATOM     40  C   UNL     1       6.936  10.337  -3.219  1.00  0.00     0.134 A 
ATOM     41  F   UNL     1       9.194   7.618  -2.363  1.00  0.00    -0.206 F 
ATOM     42  C   UNL     1       8.609   9.531  -1.144  1.00  0.00     0.040 A 
ATOM     43  C   UNL     1       7.042  11.113  -2.066  1.00  0.00     0.040 A 
ATOM     44  F   UNL     1       6.056  10.716  -4.157  1.00  0.00    -0.206 F 
ATOM     45  C   UNL     1       7.859  10.698  -1.015  1.00  0.00     0.006 A 
ENDBRANCH  24  38
BRANCH  25  46
ATOM     46  C   UNL     1       4.611   1.955  -9.954  1.00  0.00     0.057 A 
ATOM     47  C   UNL     1       5.477   1.226 -10.781  1.00  0.00     0.134 A 
ATOM     48  C   UNL     1       3.249   1.620 -10.031  1.00  0.00     0.134 A 
ATOM     49  F   UNL     1       6.793   1.482 -10.769  1.00  0.00    -0.206 F 
ATOM     50  C   UNL     1       5.015   0.230 -11.653  1.00  0.00     0.040 A 
ATOM     51  C   UNL     1       2.774   0.616 -10.887  1.00  0.00     0.040 A 
ATOM     52  F   UNL     1       2.353   2.256  -9.263  1.00  0.00    -0.206 F 
ATOM     53  C   UNL     1       3.658  -0.080 -11.707  1.00  0.00     0.006 A 
ENDBRANCH  25  46
BRANCH  37  54
ATOM     54  C   UNL     1       7.762   8.181 -10.527  1.00  0.00     0.057 A 
ATOM     55  C   UNL     1       6.915   8.864 -11.403  1.00  0.00     0.134 A 
ATOM     56  C   UNL     1       9.145   8.354 -10.659  1.00  0.00     0.134 A 
ATOM     57  F   UNL     1       5.584   8.720 -11.319  1.00  0.00    -0.206 F 
ATOM     58  C   UNL     1       7.432   9.714 -12.375  1.00  0.00     0.040 A 
ATOM     59  C   UNL     1       9.669   9.233 -11.598  1.00  0.00     0.040 A 
ATOM     60  F   UNL     1       9.993   7.730  -9.828  1.00  0.00    -0.206 F 
ATOM     61  C   UNL     1       8.811   9.917 -12.457  1.00  0.00     0.006 A 
ENDBRANCH  37  54
ENDBRANCH  11  12
ENDBRANCH   4   6
ENDBRANCH   3   4
ENDBRANCH   2   3
ENDBRANCH   1   2
BRANCH   1  62
ATOM     62  O   UNL     1       5.218  -1.640  -1.734  1.00  0.00    -0.462 OA
BRANCH  62  63
ATOM     63  C   UNL     1       3.880  -1.395  -1.937  1.00  0.00     0.312 C 
ATOM     64  O   UNL     1       3.173  -1.852  -1.061  1.00  0.00    -0.252 OA
BRANCH  63  65
ATOM     65  C   UNL     1       3.385  -0.236  -3.048  1.00  0.00     0.147 C 
ATOM     66  C   UNL     1       3.551   1.487  -2.620  1.00  0.00     0.129 C 
ATOM     67  C   UNL     1       1.924  -0.167  -3.847  1.00  0.00     0.157 C 
ATOM     68  C   UNL     1       2.014   1.956  -3.540  1.00  0.00     0.155 C 
ATOM     69  C   UNL     1       1.916   0.481  -5.202  1.00  0.00     0.004 C 
ATOM     70  O   UNL     1       1.172   0.864  -3.190  1.00  0.00    -0.365 OA
ATOM     71  C   UNL     1       1.999   1.796  -5.004  1.00  0.00     0.004 C 
BRANCH  66  72
ATOM     72  C   UNL     1       4.179   2.545  -0.783  1.00  0.00     0.231 C 
ATOM     73  O   UNL     1       5.165   3.246  -0.467  1.00  0.00    -0.274 OA
ATOM     74  N   UNL     1       3.209   2.420   0.659  1.00  0.00    -0.325 N 
ATOM     75  H   UNL     1       3.612   2.891   1.423  1.00  0.00     0.169 HD
BRANCH  74  76
ATOM     76  C   UNL     1       1.726   1.674   1.063  1.00  0.00     0.044 A 
ATOM     77  C   UNL     1       1.258   2.378   2.185  1.00  0.00     0.026 A 
ATOM     78  C   UNL     1       0.723   0.576   0.422  1.00  0.00    -0.020 A 
ATOM     79  C   UNL     1      -0.074   2.289   2.589  1.00  0.00     0.002 A 
ATOM     80  C   UNL     1      -0.599   0.599   0.910  1.00  0.00     0.006 A 
ATOM     81  C   UNL     1      -0.988   1.462   1.934  1.00  0.00     0.000 A 
BRANCH  78  82
ATOM     82  C   UNL     1       0.691  -0.500  -0.911  1.00  0.00     0.073 C 
BRANCH  82  83
ATOM     83  C   UNL     1       0.683  -2.130  -1.166  1.00  0.00    -0.044 A 
ATOM     84  C   UNL     1       1.402  -2.753  -2.269  1.00  0.00     0.004 A 
ATOM     85  C   UNL     1       0.052  -3.098  -0.417  1.00  0.00     0.004 A 
ATOM     86  C   UNL     1       1.919  -4.063  -2.301  1.00  0.00     0.000 A 
ATOM     87  C   UNL     1       0.441  -4.479  -0.528  1.00  0.00     0.000 A 
ATOM     88  C   UNL     1       1.472  -4.931  -1.359  1.00  0.00     0.000 A 
ENDBRANCH  82  83
ENDBRANCH  78  82
ENDBRANCH  74  76
ENDBRANCH  66  72
ENDBRANCH  63  65
ENDBRANCH  62  63
ENDBRANCH   1  62
TORSDOF 15
