REMARK SMILES CCCCCCNC(=O)Oc1cccc(-c2ccc([C@@H](C)C(=O)OCCOC(=O)c3ccc(-c4c5nc(c(-c6c(F)cccc6F)c6ccc([nH]6)c(-c6c(F)cccc6F)c6nc(c(-c7c(F)cccc7F)c7ccc4[nH]7)C=C6)C=C5)cc3)cc2Cl)c1
REMARK SMILES IDX 20 1 21 2 19 3 16 4 17 5 85 6 18 7 84 8 86 9 15 10 11 11
REMARK SMILES IDX 12 12 87 13 13 14 14 15 10 16 8 17 7 18 9 20 6 21 5 22 4 23
REMARK SMILES IDX 3 24 2 25 1 26 22 27 23 28 24 29 25 30 26 31 27 32 28 33
REMARK SMILES IDX 29 34 30 35 31 36 83 37 32 38 82 39 33 40 34 41 35 42 76 43
REMARK SMILES IDX 36 44 81 45 75 46 77 47 37 48 80 49 74 50 73 51 38 53 64 54
REMARK SMILES IDX 47 55 63 56 48 57 51 58 62 59 78 60 49 61 50 62 61 64 79 65
REMARK SMILES IDX 52 66 39 67 40 68 45 69 41 70 42 71 44 72 46 73 43 74 65 75
REMARK SMILES IDX 66 76 71 77 67 78 68 79 70 80 72 81 69 82 53 83 54 84 59 85
REMARK SMILES IDX 55 86 56 87 58 88 60 89 57 90
REMARK H PARENT 7 19 77 52 51 63
REMARK Flexibility Score: inf
ROOT
ATOM      1  C   UNL     1      -4.913  -7.233  11.903  1.00  0.00     0.126 C 
ATOM      2  C   UNL     1      -6.192  -7.848  12.465  1.00  0.00     0.025 C 
ENDROOT
BRANCH   1   3
ATOM      3  C   UNL     1      -4.959  -7.073  10.390  1.00  0.00    -0.033 A 
ATOM      4  C   UNL     1      -5.068  -6.700   7.559  1.00  0.00     0.000 A 
ATOM      5  C   UNL     1      -5.195  -7.975   8.144  1.00  0.00     0.010 A 
ATOM      6  C   UNL     1      -4.878  -5.611   8.429  1.00  0.00     0.049 A 
ATOM      7  C   UNL     1      -5.151  -8.159   9.530  1.00  0.00     0.005 A 
ATOM      8  C   UNL     1      -4.825  -5.798   9.818  1.00  0.00     0.025 A 
ATOM      9  Cl  UNL     1      -4.763  -3.975   7.864  1.00  0.00    -0.084 Cl
BRANCH   4  10
ATOM     10  C   UNL     1      -5.182  -6.570   6.093  1.00  0.00    -0.013 A 
ATOM     11  C   UNL     1      -4.319  -5.864   3.937  1.00  0.00     0.133 A 
ATOM     12  C   UNL     1      -5.479  -6.298   3.299  1.00  0.00     0.047 A 
ATOM     13  C   UNL     1      -4.160  -5.997   5.318  1.00  0.00     0.056 A 
ATOM     14  C   UNL     1      -6.490  -6.888   4.050  1.00  0.00     0.004 A 
ATOM     15  C   UNL     1      -6.343  -7.018   5.433  1.00  0.00     0.009 A 
BRANCH  11  16
ATOM     16  O   UNL     1      -3.394  -5.161   3.147  1.00  0.00    -0.410 OA
BRANCH  16  17
ATOM     17  C   UNL     1      -2.054  -5.513   3.203  1.00  0.00     0.412 C 
ATOM     18  N   UNL     1      -1.257  -4.700   2.442  1.00  0.00    -0.321 N 
ATOM     19  H   UNL     1      -0.294  -4.905   2.441  1.00  0.00     0.167 HD
ATOM     20  O   UNL     1      -1.579  -6.450   3.831  1.00  0.00    -0.224 OA
BRANCH  18  21
ATOM     21  C   UNL     1      -1.680  -3.570   1.640  1.00  0.00     0.119 C 
BRANCH  21  22
ATOM     22  C   UNL     1      -1.079  -2.254   2.134  1.00  0.00     0.021 C 
BRANCH  22  23
ATOM     23  C   UNL     1       0.450  -2.169   2.052  1.00  0.00     0.002 C 
BRANCH  23  24
ATOM     24  C   UNL     1       1.052  -2.370   0.657  1.00  0.00    -0.000 C 
BRANCH  24  25
ATOM     25  C   UNL     1       0.570  -1.391  -0.417  1.00  0.00    -0.003 C 
ATOM     26  C   UNL     1       0.939   0.055  -0.124  1.00  0.00     0.004 C 
ENDBRANCH  24  25
ENDBRANCH  23  24
ENDBRANCH  22  23
ENDBRANCH  21  22
ENDBRANCH  18  21
ENDBRANCH  16  17
ENDBRANCH  11  16
ENDBRANCH   4  10
ENDBRANCH   1   3
BRANCH   1  27
ATOM     27  C   UNL     1      -3.694  -7.957  12.464  1.00  0.00     0.313 C 
ATOM     28  O   UNL     1      -3.225  -7.682  13.565  1.00  0.00    -0.252 OA
BRANCH  27  29
ATOM     29  O   UNL     1      -3.223  -8.943  11.658  1.00  0.00    -0.462 OA
BRANCH  29  30
ATOM     30  C   UNL     1      -2.044  -9.642  12.103  1.00  0.00     0.274 C 
BRANCH  30  31
ATOM     31  C   UNL     1      -0.783  -9.117  11.411  1.00  0.00     0.275 C 
BRANCH  31  32
ATOM     32  O   UNL     1      -0.451  -7.788  11.857  1.00  0.00    -0.458 OA
BRANCH  32  33
ATOM     33  C   UNL     1      -0.928  -6.793  11.076  1.00  0.00     0.338 C 
ATOM     34  O   UNL     1      -1.552  -6.903  10.035  1.00  0.00    -0.246 OA
BRANCH  33  35
ATOM     35  C   UNL     1      -0.707  -5.493  11.724  1.00  0.00     0.060 A 
ATOM     36  C   UNL     1      -1.833  -4.748  12.080  1.00  0.00     0.016 A 
ATOM     37  C   UNL     1       0.574  -4.958  11.869  1.00  0.00     0.016 A 
ATOM     38  C   UNL     1      -1.692  -3.447  12.548  1.00  0.00     0.010 A 
ATOM     39  C   UNL     1       0.716  -3.651  12.351  1.00  0.00     0.010 A 
ATOM     40  C   UNL     1      -0.417  -2.880  12.666  1.00  0.00    -0.014 A 
BRANCH  40  41
ATOM     41  C   UNL     1      -0.295  -1.450  13.034  1.00  0.00     0.031 A 
ATOM     42  C   UNL     1       0.044  -0.438  11.977  1.00  0.00     0.074 A 
ATOM     43  C   UNL     1      -0.542  -1.054  14.296  1.00  0.00     0.049 A 
ATOM     44  N   UNL     1       0.235   0.852  12.096  1.00  0.00    -0.248 NA
ATOM     45  C   UNL     1       0.185  -0.943  10.602  1.00  0.00     0.031 C 
ATOM     46  C   UNL     1      -0.927  -1.935  15.398  1.00  0.00     0.029 A 
ATOM     47  N   UNL     1      -0.513   0.197  14.860  1.00  0.00    -0.354 N 
ATOM     48  C   UNL     1       0.540   1.307  10.820  1.00  0.00     0.074 A 
ATOM     49  C   UNL     1       0.523   0.156   9.943  1.00  0.00     0.031 C 
ATOM     50  C   UNL     1      -1.103  -1.196  16.506  1.00  0.00     0.029 A 
ATOM     51  C   UNL     1      -0.807   0.201  16.200  1.00  0.00     0.049 A 
ATOM     52  H   UNL     1      -0.300   1.012  14.351  1.00  0.00     0.167 HD
ATOM     53  C   UNL     1       0.804   2.573  10.416  1.00  0.00     0.037 A 
ATOM     54  C   UNL     1      -0.818   1.216  17.085  1.00  0.00     0.037 A 
ATOM     55  C   UNL     1       0.794   3.721  11.283  1.00  0.00     0.049 A 
ATOM     56  C   UNL     1      -0.484   2.606  16.616  1.00  0.00     0.074 A 
ATOM     57  C   UNL     1       1.042   5.046  10.964  1.00  0.00     0.029 A 
ATOM     58  N   UNL     1       0.515   3.682  12.640  1.00  0.00    -0.354 N 
ATOM     59  N   UNL     1      -0.187   3.023  15.410  1.00  0.00    -0.248 NA
ATOM     60  C   UNL     1      -0.485   3.666  17.635  1.00  0.00     0.031 C 
ATOM     61  C   UNL     1       0.941   5.804  12.136  1.00  0.00     0.029 A 
ATOM     62  C   UNL     1       0.596   4.956  13.176  1.00  0.00     0.049 A 
ATOM     63  H   UNL     1       0.292   2.868  13.148  1.00  0.00     0.167 HD
ATOM     64  C   UNL     1       0.016   4.392  15.520  1.00  0.00     0.074 A 
ATOM     65  C   UNL     1      -0.209   4.739  16.907  1.00  0.00     0.031 C 
ATOM     66  C   UNL     1       0.361   5.283  14.558  1.00  0.00     0.037 A 
BRANCH  53  67
ATOM     67  C   UNL     1       1.151   2.778   8.972  1.00  0.00     0.057 A 
ATOM     68  C   UNL     1       0.179   2.735   7.965  1.00  0.00     0.134 A 
ATOM     69  C   UNL     1       2.469   3.058   8.591  1.00  0.00     0.134 A 
ATOM     70  F   UNL     1      -1.099   2.458   8.265  1.00  0.00    -0.206 F 
ATOM     71  C   UNL     1       0.509   2.947   6.625  1.00  0.00     0.040 A 
ATOM     72  C   UNL     1       2.808   3.292   7.257  1.00  0.00     0.040 A 
ATOM     73  F   UNL     1       3.446   3.116   9.508  1.00  0.00    -0.206 F 
ATOM     74  C   UNL     1       1.827   3.233   6.270  1.00  0.00     0.006 A 
ENDBRANCH  53  67
BRANCH  54  75
ATOM     75  C   UNL     1      -1.136   0.957  18.510  1.00  0.00     0.057 A 
ATOM     76  C   UNL     1      -2.327   1.417  19.083  1.00  0.00     0.134 A 
ATOM     77  C   UNL     1      -0.246   0.264  19.338  1.00  0.00     0.134 A 
ATOM     78  F   UNL     1      -3.208   2.109  18.346  1.00  0.00    -0.206 F 
ATOM     79  C   UNL     1      -2.614   1.213  20.434  1.00  0.00     0.040 A 
ATOM     80  C   UNL     1      -0.530   0.031  20.684  1.00  0.00     0.040 A 
ATOM     81  F   UNL     1       0.913  -0.202  18.848  1.00  0.00    -0.206 F 
ATOM     82  C   UNL     1      -1.715   0.513  21.237  1.00  0.00     0.006 A 
ENDBRANCH  54  75
BRANCH  66  83
ATOM     83  C   UNL     1       0.486   6.718  14.972  1.00  0.00     0.057 A 
ATOM     84  C   UNL     1       1.582   7.178  15.712  1.00  0.00     0.134 A 
ATOM     85  C   UNL     1      -0.487   7.655  14.601  1.00  0.00     0.134 A 
ATOM     86  F   UNL     1       2.540   6.327  16.109  1.00  0.00    -0.206 F 
ATOM     87  C   UNL     1       1.696   8.518  16.087  1.00  0.00     0.040 A 
ATOM     88  C   UNL     1      -0.373   9.001  14.951  1.00  0.00     0.040 A 
ATOM     89  F   UNL     1      -1.557   7.279  13.885  1.00  0.00    -0.206 F 
ATOM     90  C   UNL     1       0.719   9.434  15.702  1.00  0.00     0.006 A 
ENDBRANCH  66  83
ENDBRANCH  40  41
ENDBRANCH  33  35
ENDBRANCH  32  33
ENDBRANCH  31  32
ENDBRANCH  30  31
ENDBRANCH  29  30
ENDBRANCH  27  29
ENDBRANCH   1  27
TORSDOF 20
