REMARK SMILES O=C(OCCOC(=O)c1ccc(-c2c3nc(c(-c4c(F)cccc4F)c4ccc([nH]4)c(-c4c(F)cccc4F)c4nc(c(-c5c(F)cccc5F)c5ccc2[nH]5)C=C4)C=C3)cc1)c1ccc(/[NH+]=C2\S[C@@H](Cc3ccc(F)cc3)C(=O)N2Cc2ccccc2)cc1
REMARK SMILES IDX 4 1 3 2 2 3 1 4 63 5 64 6 90 7 65 8 89 9 66 10 67 11 68 12
REMARK SMILES IDX 69 14 81 15 70 16 79 17 80 18 82 19 83 20 84 21 88 22 85 23
REMARK SMILES IDX 87 24 86 25 71 26 72 27 73 28 78 29 74 30 77 31 75 32 76 33
REMARK SMILES IDX 5 34 6 35 7 36 8 37 9 38 10 39 62 40 11 41 61 42 12 43 13 44
REMARK SMILES IDX 14 45 55 46 15 47 60 48 54 49 56 50 16 51 59 52 53 53 52 54
REMARK SMILES IDX 17 56 43 57 26 58 42 59 27 60 30 61 41 62 57 63 28 64 29 65
REMARK SMILES IDX 40 67 58 68 31 69 18 70 19 71 24 72 20 73 21 74 23 75 25 76
REMARK SMILES IDX 22 77 44 78 45 79 50 80 46 81 47 82 49 83 51 84 48 85 32 86
REMARK SMILES IDX 33 87 38 88 34 89 35 90 37 91 39 92 36 93
REMARK H PARENT 67 13 56 55 30 66
REMARK Flexibility Score: inf
ROOT
ATOM      1  C   UNL     1       4.042   1.450  -0.614  1.00  0.00     0.275 C 
ENDROOT
BRANCH   1   2
ATOM      2  O   UNL     1       2.850   0.730  -0.987  1.00  0.00    -0.458 OA
BRANCH   2   3
ATOM      3  C   UNL     1       2.571  -0.596  -0.968  1.00  0.00     0.338 C 
ATOM      4  O   UNL     1       1.587  -0.996  -1.588  1.00  0.00    -0.246 OA
BRANCH   3   5
ATOM      5  C   UNL     1       3.309  -1.598  -0.133  1.00  0.00     0.060 A 
ATOM      6  C   UNL     1       4.596  -1.444   0.375  1.00  0.00     0.020 A 
ATOM      7  C   UNL     1       2.618  -2.786   0.194  1.00  0.00     0.020 A 
ATOM      8  C   UNL     1       5.129  -2.371   1.264  1.00  0.00     0.052 A 
ATOM      9  C   UNL     1       3.174  -3.743   1.052  1.00  0.00     0.052 A 
ATOM     10  C   UNL     1       4.425  -3.521   1.610  1.00  0.00     0.125 A 
BRANCH  10  11
ATOM     11  N   UNL     1       5.044  -4.396   2.504  1.00  0.00    -0.235 N 
ATOM     12  C   UNL     1       5.872  -5.261   2.025  1.00  0.00     0.320 C 
ATOM     13  H   UNL     1       4.855  -4.354   3.470  1.00  0.00     0.313 HD
ATOM     14  S   UNL     1       6.006  -5.723   0.349  1.00  0.00    -0.022 SA
ATOM     15  N   UNL     1       6.811  -5.891   2.790  1.00  0.00    -0.186 N 
ATOM     16  C   UNL     1       7.112  -7.095   0.739  1.00  0.00     0.178 C 
ATOM     17  C   UNL     1       7.637  -6.782   2.135  1.00  0.00     0.324 C 
ATOM     18  O   UNL     1       8.630  -7.303   2.630  1.00  0.00    -0.245 OA
BRANCH  15  19
ATOM     19  C   UNL     1       7.028  -5.553   4.195  1.00  0.00     0.283 C 
BRANCH  19  20
ATOM     20  C   UNL     1       7.801  -4.261   4.408  1.00  0.00    -0.006 A 
ATOM     21  C   UNL     1       9.185  -4.273   4.625  1.00  0.00     0.008 A 
ATOM     22  C   UNL     1       7.138  -3.022   4.418  1.00  0.00     0.008 A 
ATOM     23  C   UNL     1       9.882  -3.079   4.847  1.00  0.00     0.000 A 
ATOM     24  C   UNL     1       7.838  -1.828   4.609  1.00  0.00     0.000 A 
ATOM     25  C   UNL     1       9.210  -1.857   4.829  1.00  0.00     0.000 A 
ENDBRANCH  19  20
ENDBRANCH  15  19
BRANCH  16  26
ATOM     26  C   UNL     1       8.167  -7.197  -0.358  1.00  0.00     0.063 C 
BRANCH  26  27
ATOM     27  C   UNL     1       8.975  -8.468  -0.283  1.00  0.00    -0.046 A 
ATOM     28  C   UNL     1      10.362  -8.400  -0.090  1.00  0.00     0.007 A 
ATOM     29  C   UNL     1       8.356  -9.723  -0.397  1.00  0.00     0.007 A 
ATOM     30  C   UNL     1      11.113  -9.568   0.022  1.00  0.00     0.039 A 
ATOM     31  C   UNL     1       9.109 -10.890  -0.275  1.00  0.00     0.039 A 
ATOM     32  C   UNL     1      10.479 -10.800  -0.061  1.00  0.00     0.123 A 
ATOM     33  F   UNL     1      11.199 -11.922   0.066  1.00  0.00    -0.207 F 
ENDBRANCH  26  27
ENDBRANCH  16  26
ENDBRANCH  10  11
ENDBRANCH   3   5
ENDBRANCH   2   3
ENDBRANCH   1   2
BRANCH   1  34
ATOM     34  C   UNL     1       4.049   1.943   0.839  1.00  0.00     0.275 C 
BRANCH  34  35
ATOM     35  O   UNL     1       3.702   0.918   1.787  1.00  0.00    -0.458 OA
BRANCH  35  36
ATOM     36  C   UNL     1       2.385   0.873   2.119  1.00  0.00     0.338 C 
ATOM     37  O   UNL     1       1.531   1.673   1.771  1.00  0.00    -0.246 OA
BRANCH  36  38
ATOM     38  C   UNL     1       2.063  -0.357   2.885  1.00  0.00     0.060 A 
ATOM     39  C   UNL     1       0.796  -0.921   2.690  1.00  0.00     0.016 A 
ATOM     40  C   UNL     1       2.948  -0.944   3.796  1.00  0.00     0.016 A 
ATOM     41  C   UNL     1       0.389  -2.026   3.443  1.00  0.00     0.010 A 
ATOM     42  C   UNL     1       2.543  -2.065   4.539  1.00  0.00     0.010 A 
ATOM     43  C   UNL     1       1.242  -2.586   4.403  1.00  0.00    -0.014 A 
BRANCH  43  44
ATOM     44  C   UNL     1       0.695  -3.583   5.367  1.00  0.00     0.031 A 
ATOM     45  C   UNL     1       0.330  -3.131   6.757  1.00  0.00     0.074 A 
ATOM     46  C   UNL     1       0.444  -4.859   5.013  1.00  0.00     0.049 A 
ATOM     47  N   UNL     1      -0.284  -3.788   7.710  1.00  0.00    -0.248 NA
ATOM     48  C   UNL     1       0.703  -1.756   7.121  1.00  0.00     0.031 C 
ATOM     49  C   UNL     1       0.727  -5.444   3.708  1.00  0.00     0.029 A 
ATOM     50  N   UNL     1      -0.120  -5.892   5.725  1.00  0.00    -0.354 N 
ATOM     51  C   UNL     1      -0.385  -2.903   8.775  1.00  0.00     0.074 A 
ATOM     52  C   UNL     1       0.286  -1.685   8.376  1.00  0.00     0.031 C 
ATOM     53  C   UNL     1       0.338  -6.730   3.706  1.00  0.00     0.029 A 
ATOM     54  C   UNL     1      -0.232  -7.061   5.011  1.00  0.00     0.049 A 
ATOM     55  H   UNL     1      -0.417  -5.802   6.660  1.00  0.00     0.167 HD
ATOM     56  C   UNL     1      -1.002  -3.070   9.969  1.00  0.00     0.037 A 
ATOM     57  C   UNL     1      -0.749  -8.256   5.359  1.00  0.00     0.037 A 
ATOM     58  C   UNL     1      -1.673  -4.272  10.385  1.00  0.00     0.049 A 
ATOM     59  C   UNL     1      -1.382  -8.436   6.715  1.00  0.00     0.074 A 
ATOM     60  C   UNL     1      -2.355  -4.513  11.565  1.00  0.00     0.029 A 
ATOM     61  N   UNL     1      -1.737  -5.440   9.642  1.00  0.00    -0.354 N 
ATOM     62  N   UNL     1      -1.546  -7.562   7.678  1.00  0.00    -0.248 NA
ATOM     63  C   UNL     1      -1.926  -9.769   7.021  1.00  0.00     0.031 C 
ATOM     64  C   UNL     1      -2.787  -5.844  11.560  1.00  0.00     0.029 A 
ATOM     65  C   UNL     1      -2.423  -6.414  10.351  1.00  0.00     0.049 A 
ATOM     66  H   UNL     1      -1.351  -5.561   8.745  1.00  0.00     0.167 HD
ATOM     67  C   UNL     1      -2.255  -8.222   8.676  1.00  0.00     0.074 A 
ATOM     68  C   UNL     1      -2.491  -9.569   8.203  1.00  0.00     0.031 C 
ATOM     69  C   UNL     1      -2.679  -7.748   9.873  1.00  0.00     0.037 A 
BRANCH  56  70
ATOM     70  C   UNL     1      -0.972  -1.910  10.920  1.00  0.00     0.057 A 
ATOM     71  C   UNL     1      -1.718  -0.747  10.687  1.00  0.00     0.134 A 
ATOM     72  C   UNL     1      -0.206  -1.966  12.089  1.00  0.00     0.134 A 
ATOM     73  F   UNL     1      -2.461  -0.625   9.577  1.00  0.00    -0.206 F 
ATOM     74  C   UNL     1      -1.679   0.332  11.571  1.00  0.00     0.040 A 
ATOM     75  C   UNL     1      -0.181  -0.905  12.995  1.00  0.00     0.040 A 
ATOM     76  F   UNL     1       0.527  -3.054  12.373  1.00  0.00    -0.206 F 
ATOM     77  C   UNL     1      -0.913   0.251  12.733  1.00  0.00     0.006 A 
ENDBRANCH  56  70
BRANCH  57  78
ATOM     78  C   UNL     1      -0.736  -9.389   4.397  1.00  0.00     0.057 A 
ATOM     79  C   UNL     1      -1.922  -9.873   3.831  1.00  0.00     0.134 A 
ATOM     80  C   UNL     1       0.451 -10.054   4.072  1.00  0.00     0.134 A 
ATOM     81  F   UNL     1      -3.096  -9.293   4.125  1.00  0.00    -0.206 F 
ATOM     82  C   UNL     1      -1.933 -10.995   3.002  1.00  0.00     0.040 A 
ATOM     83  C   UNL     1       0.459 -11.164   3.225  1.00  0.00     0.040 A 
ATOM     84  F   UNL     1       1.621  -9.640   4.581  1.00  0.00    -0.206 F 
ATOM     85  C   UNL     1      -0.738 -11.644   2.696  1.00  0.00     0.006 A 
ENDBRANCH  57  78
BRANCH  69  86
ATOM     86  C   UNL     1      -3.500  -8.665  10.737  1.00  0.00     0.057 A 
ATOM     87  C   UNL     1      -2.950  -9.783  11.376  1.00  0.00     0.134 A 
ATOM     88  C   UNL     1      -4.859  -8.401  10.958  1.00  0.00     0.134 A 
ATOM     89  F   UNL     1      -1.659 -10.101  11.200  1.00  0.00    -0.206 F 
ATOM     90  C   UNL     1      -3.727 -10.622  12.178  1.00  0.00     0.040 A 
ATOM     91  C   UNL     1      -5.638  -9.214  11.782  1.00  0.00     0.040 A 
ATOM     92  F   UNL     1      -5.449  -7.340  10.387  1.00  0.00    -0.206 F 
ATOM     93  C   UNL     1      -5.074 -10.334  12.389  1.00  0.00     0.006 A 
ENDBRANCH  69  86
ENDBRANCH  43  44
ENDBRANCH  36  38
ENDBRANCH  35  36
ENDBRANCH  34  35
ENDBRANCH   1  34
TORSDOF 16
