REMARK SMILES Cc1cc(NS(=O)(=O)c2ccc(F)c(Cl)c2)sc1C(=O)OCCOC(=O)c1ccc(-c2c3nc(c(-c4c(F)cccc4F)c4ccc([nH]4)c(-c4c(F)cccc4F)c4nc(c(-c5c(F)cccc5F)c5ccc2[nH]5)C=C4)C=C3)cc1
REMARK SMILES IDX 22 1 21 2 19 3 20 4 18 5 1 6 2 7 3 8 4 9 17 10 5 11 6 13
REMARK SMILES IDX 7 14 8 15 9 16 10 17 16 18 11 19 14 20 12 21 15 22 13 23
REMARK SMILES IDX 23 24 24 25 25 26 26 27 27 28 28 29 80 30 29 31 79 32 30 33
REMARK SMILES IDX 31 34 32 35 73 36 33 37 78 38 72 39 74 40 34 41 77 42 71 43
REMARK SMILES IDX 70 44 35 46 61 47 44 48 60 49 45 50 48 51 59 52 75 53 46 54
REMARK SMILES IDX 47 55 58 57 76 58 49 59 36 60 37 61 42 62 38 63 39 64 41 65
REMARK SMILES IDX 43 66 40 67 62 68 63 69 68 70 64 71 65 72 67 73 69 74 66 75
REMARK SMILES IDX 50 76 51 77 56 78 52 79 53 80 55 81 57 82 54 83
REMARK H PARENT 5 12 74 45 48 56
REMARK Flexibility Score: inf
ROOT
ATOM      1  C   UNL     1       1.741  -4.354  -0.198  1.00  0.00     0.275 C 
ENDROOT
BRANCH   1   2
ATOM      2  O   UNL     1       1.599  -2.918  -0.222  1.00  0.00    -0.458 OA
BRANCH   2   3
ATOM      3  C   UNL     1       0.546  -2.425  -0.938  1.00  0.00     0.348 C 
ATOM      4  O   UNL     1      -0.307  -3.128  -1.470  1.00  0.00    -0.245 OA
BRANCH   3   5
ATOM      5  C   UNL     1       0.556  -0.969  -0.951  1.00  0.00     0.117 A 
ATOM      6  C   UNL     1       3.049  -0.326  -0.803  1.00  0.00     0.046 C 
ATOM      7  C   UNL     1       1.592  -0.042  -0.961  1.00  0.00    -0.023 A 
ATOM      8  C   UNL     1       1.078   1.300  -1.130  1.00  0.00     0.043 A 
ATOM      9  C   UNL     1      -0.227   1.357  -0.716  1.00  0.00     0.103 A 
ATOM     10  S   UNL     1      -0.962  -0.154  -0.930  1.00  0.00    -0.110 S 
BRANCH   9  11
ATOM     11  N   UNL     1      -0.951   2.416  -0.131  1.00  0.00    -0.270 N 
ATOM     12  H   UNL     1      -1.825   2.175   0.255  1.00  0.00     0.181 HD
BRANCH  11  13
ATOM     13  S   UNL     1      -0.527   4.014  -0.006  1.00  0.00     0.262 S 
ATOM     14  O   UNL     1      -0.706   4.597  -1.319  1.00  0.00    -0.201 OA
ATOM     15  O   UNL     1      -1.245   4.529   1.140  1.00  0.00    -0.201 OA
BRANCH  13  16
ATOM     16  C   UNL     1       1.197   4.179   0.398  1.00  0.00     0.089 A 
ATOM     17  C   UNL     1       1.905   3.206   1.109  1.00  0.00     0.025 A 
ATOM     18  C   UNL     1       1.864   5.282  -0.159  1.00  0.00     0.045 A 
ATOM     19  C   UNL     1       3.303   3.270   1.136  1.00  0.00     0.042 A 
ATOM     20  C   UNL     1       3.251   5.361  -0.085  1.00  0.00     0.078 A 
ATOM     21  C   UNL     1       3.967   4.337   0.529  1.00  0.00     0.141 A 
ATOM     22  Cl  UNL     1       4.059   6.704  -0.794  1.00  0.00    -0.081 Cl
ATOM     23  F   UNL     1       5.308   4.347   0.530  1.00  0.00    -0.205 F 
ENDBRANCH  13  16
ENDBRANCH  11  13
ENDBRANCH   9  11
ENDBRANCH   3   5
ENDBRANCH   2   3
ENDBRANCH   1   2
BRANCH   1  24
ATOM     24  C   UNL     1       1.271  -4.974   1.122  1.00  0.00     0.275 C 
BRANCH  24  25
ATOM     25  O   UNL     1      -0.162  -4.926   1.242  1.00  0.00    -0.458 OA
BRANCH  25  26
ATOM     26  C   UNL     1      -0.638  -3.920   2.010  1.00  0.00     0.338 C 
ATOM     27  O   UNL     1       0.007  -3.092   2.632  1.00  0.00    -0.246 OA
BRANCH  26  28
ATOM     28  C   UNL     1      -2.094  -3.820   1.838  1.00  0.00     0.060 A 
ATOM     29  C   UNL     1      -2.543  -2.812   0.993  1.00  0.00     0.016 A 
ATOM     30  C   UNL     1      -3.004  -4.590   2.555  1.00  0.00     0.016 A 
ATOM     31  C   UNL     1      -3.893  -2.524   0.874  1.00  0.00     0.010 A 
ATOM     32  C   UNL     1      -4.376  -4.332   2.406  1.00  0.00     0.010 A 
ATOM     33  C   UNL     1      -4.829  -3.284   1.579  1.00  0.00    -0.014 A 
BRANCH  33  34
ATOM     34  C   UNL     1      -6.266  -2.920   1.487  1.00  0.00     0.031 A 
ATOM     35  C   UNL     1      -6.984  -2.406   2.702  1.00  0.00     0.074 A 
ATOM     36  C   UNL     1      -6.908  -2.984   0.304  1.00  0.00     0.049 A 
ATOM     37  N   UNL     1      -8.258  -2.156   2.869  1.00  0.00    -0.248 NA
ATOM     38  C   UNL     1      -6.158  -2.140   3.890  1.00  0.00     0.031 C 
ATOM     39  C   UNL     1      -6.303  -3.385  -0.968  1.00  0.00     0.029 A 
ATOM     40  N   UNL     1      -8.211  -2.701  -0.024  1.00  0.00    -0.354 N 
ATOM     41  C   UNL     1      -8.393  -1.750   4.190  1.00  0.00     0.074 A 
ATOM     42  C   UNL     1      -7.074  -1.792   4.783  1.00  0.00     0.031 C 
ATOM     43  C   UNL     1      -7.225  -3.302  -1.940  1.00  0.00     0.029 A 
ATOM     44  C   UNL     1      -8.503  -2.922  -1.349  1.00  0.00     0.049 A 
ATOM     45  H   UNL     1      -8.872  -2.372   0.626  1.00  0.00     0.167 HD
ATOM     46  C   UNL     1      -9.518  -1.379   4.846  1.00  0.00     0.037 A 
ATOM     47  C   UNL     1      -9.678  -2.870  -2.005  1.00  0.00     0.037 A 
ATOM     48  C   UNL     1     -10.820  -1.304   4.236  1.00  0.00     0.049 A 
ATOM     49  C   UNL     1     -10.923  -2.518  -1.241  1.00  0.00     0.074 A 
ATOM     50  C   UNL     1     -12.026  -0.946   4.813  1.00  0.00     0.029 A 
ATOM     51  N   UNL     1     -11.083  -1.582   2.902  1.00  0.00    -0.354 N 
ATOM     52  N   UNL     1     -11.053  -2.196   0.024  1.00  0.00    -0.248 NA
ATOM     53  C   UNL     1     -12.187  -2.538  -1.989  1.00  0.00     0.031 C 
ATOM     54  C   UNL     1     -13.025  -1.047   3.839  1.00  0.00     0.029 A 
ATOM     55  C   UNL     1     -12.434  -1.420   2.642  1.00  0.00     0.049 A 
ATOM     56  H   UNL     1     -10.409  -1.855   2.238  1.00  0.00     0.167 HD
ATOM     57  C   UNL     1     -12.407  -1.960   0.220  1.00  0.00     0.074 A 
ATOM     58  C   UNL     1     -13.054  -2.157  -1.062  1.00  0.00     0.031 C 
ATOM     59  C   UNL     1     -13.058  -1.615   1.358  1.00  0.00     0.037 A 
BRANCH  46  60
ATOM     60  C   UNL     1      -9.395  -1.072   6.311  1.00  0.00     0.057 A 
ATOM     61  C   UNL     1      -8.766   0.086   6.783  1.00  0.00     0.134 A 
ATOM     62  C   UNL     1      -9.933  -1.948   7.263  1.00  0.00     0.134 A 
ATOM     63  F   UNL     1      -8.214   0.958   5.926  1.00  0.00    -0.206 F 
ATOM     64  C   UNL     1      -8.653   0.349   8.150  1.00  0.00     0.040 A 
ATOM     65  C   UNL     1      -9.850  -1.683   8.631  1.00  0.00     0.040 A 
ATOM     66  F   UNL     1     -10.552  -3.075   6.880  1.00  0.00    -0.206 F 
ATOM     67  C   UNL     1      -9.202  -0.534   9.078  1.00  0.00     0.006 A 
ENDBRANCH  46  60
BRANCH  47  68
ATOM     68  C   UNL     1      -9.739  -3.211  -3.450  1.00  0.00     0.057 A 
ATOM     69  C   UNL     1     -10.051  -2.246  -4.413  1.00  0.00     0.134 A 
ATOM     70  C   UNL     1      -9.492  -4.514  -3.901  1.00  0.00     0.134 A 
ATOM     71  F   UNL     1     -10.323  -0.986  -4.043  1.00  0.00    -0.206 F 
ATOM     72  C   UNL     1     -10.126  -2.565  -5.771  1.00  0.00     0.040 A 
ATOM     73  C   UNL     1      -9.534  -4.841  -5.257  1.00  0.00     0.040 A 
ATOM     74  F   UNL     1      -9.189  -5.487  -3.029  1.00  0.00    -0.206 F 
ATOM     75  C   UNL     1      -9.858  -3.865  -6.196  1.00  0.00     0.006 A 
ENDBRANCH  47  68
BRANCH  59  76
ATOM     76  C   UNL     1     -14.538  -1.395   1.257  1.00  0.00     0.057 A 
ATOM     77  C   UNL     1     -15.435  -2.459   1.101  1.00  0.00     0.134 A 
ATOM     78  C   UNL     1     -15.073  -0.104   1.350  1.00  0.00     0.134 A 
ATOM     79  F   UNL     1     -14.985  -3.718   0.992  1.00  0.00    -0.206 F 
ATOM     80  C   UNL     1     -16.812  -2.244   1.019  1.00  0.00     0.040 A 
ATOM     81  C   UNL     1     -16.448   0.121   1.295  1.00  0.00     0.040 A 
ATOM     82  F   UNL     1     -14.267   0.958   1.507  1.00  0.00    -0.206 F 
ATOM     83  C   UNL     1     -17.322  -0.951   1.123  1.00  0.00     0.006 A 
ENDBRANCH  59  76
ENDBRANCH  33  34
ENDBRANCH  26  28
ENDBRANCH  25  26
ENDBRANCH  24  25
ENDBRANCH   1  24
TORSDOF 14
