REMARK SMILES Cc1cc(C(=O)N[C@H]2C=C[C@H](C(=O)OCCOC(=O)c3ccc(-c4c5nc(c(-c6c(F)cccc6F)c6ccc([nH]6)c(-c6c(F)cccc6F)c6nc(c(-c7c(F)cccc7F)c7ccc4[nH]7)C=C6)C=C5)cc3)C2)ccc1F
REMARK SMILES IDX 15 1 14 2 12 3 13 4 11 5 8 6 9 7 74 8 10 9 7 10 5 11 6 12
REMARK SMILES IDX 4 14 1 15 2 16 3 17 77 18 76 19 78 20 75 21 16 22 17 23
REMARK SMILES IDX 18 24 19 25 20 26 21 27 73 28 22 29 72 30 23 31 24 32 25 33
REMARK SMILES IDX 66 34 26 35 71 36 65 37 67 38 27 39 70 40 64 41 63 42 28 44
REMARK SMILES IDX 54 45 37 46 53 47 38 48 41 49 52 50 68 51 39 52 40 53 51 55
REMARK SMILES IDX 69 56 42 57 29 58 30 59 35 60 31 61 32 62 34 63 36 64 33 65
REMARK SMILES IDX 55 66 56 67 61 68 57 69 58 70 60 71 62 72 59 73 43 74 44 75
REMARK SMILES IDX 49 76 45 77 46 78 48 79 50 80 47 81
REMARK H PARENT 7 13 67 43 41 54
REMARK Flexibility Score: inf
ROOT
ATOM      1  C   UNL     1       2.076   6.452   0.034  1.00  0.00     0.274 C 
ENDROOT
BRANCH   1   2
ATOM      2  O   UNL     1       0.692   6.462   0.439  1.00  0.00    -0.462 OA
BRANCH   2   3
ATOM      3  C   UNL     1       0.009   5.312   0.182  1.00  0.00     0.312 C 
ATOM      4  O   UNL     1       0.433   4.403  -0.526  1.00  0.00    -0.252 OA
BRANCH   3   5
ATOM      5  C   UNL     1      -1.315   5.244   0.950  1.00  0.00     0.124 C 
ATOM      6  C   UNL     1      -2.536   3.614  -0.329  1.00  0.00     0.106 C 
ATOM      7  C   UNL     1      -3.182   4.961  -0.446  1.00  0.00    -0.006 C 
ATOM      8  C   UNL     1      -1.791   3.782   0.997  1.00  0.00     0.048 C 
ATOM      9  C   UNL     1      -2.464   5.878   0.222  1.00  0.00    -0.014 C 
BRANCH   6  10
ATOM     10  N   UNL     1      -3.486   2.541  -0.343  1.00  0.00    -0.346 N 
ATOM     11  C   UNL     1      -3.301   1.179  -0.408  1.00  0.00     0.251 C 
ATOM     12  O   UNL     1      -4.317   0.483  -0.476  1.00  0.00    -0.269 OA
ATOM     13  H   UNL     1      -4.428   2.826  -0.299  1.00  0.00     0.164 HD
BRANCH  11  14
ATOM     14  C   UNL     1      -1.968   0.492  -0.334  1.00  0.00     0.040 A 
ATOM     15  C   UNL     1       1.796   1.032  -0.709  1.00  0.00     0.047 C 
ATOM     16  C   UNL     1       0.476   0.355  -0.482  1.00  0.00    -0.015 A 
ATOM     17  C   UNL     1      -0.729   1.056  -0.668  1.00  0.00     0.020 A 
ATOM     18  C   UNL     1       0.426  -0.955  -0.012  1.00  0.00     0.126 A 
ATOM     19  C   UNL     1      -0.790  -1.567   0.261  1.00  0.00     0.040 A 
ATOM     20  F   UNL     1       1.560  -1.642   0.181  1.00  0.00    -0.207 F 
ATOM     21  C   UNL     1      -1.978  -0.845   0.108  1.00  0.00     0.017 A 
ENDBRANCH  11  14
ENDBRANCH   6  10
ENDBRANCH   3   5
ENDBRANCH   2   3
ENDBRANCH   1   2
BRANCH   1  22
ATOM     22  C   UNL     1       3.007   6.029   1.175  1.00  0.00     0.275 C 
BRANCH  22  23
ATOM     23  O   UNL     1       2.808   4.668   1.589  1.00  0.00    -0.458 OA
BRANCH  23  24
ATOM     24  C   UNL     1       1.832   4.526   2.513  1.00  0.00     0.338 C 
ATOM     25  O   UNL     1       1.041   5.380   2.884  1.00  0.00    -0.246 OA
BRANCH  24  26
ATOM     26  C   UNL     1       1.892   3.234   3.198  1.00  0.00     0.060 A 
ATOM     27  C   UNL     1       0.691   2.757   3.746  1.00  0.00     0.016 A 
ATOM     28  C   UNL     1       3.136   2.832   3.681  1.00  0.00     0.016 A 
ATOM     29  C   UNL     1       0.725   2.047   4.933  1.00  0.00     0.010 A 
ATOM     30  C   UNL     1       3.167   2.136   4.871  1.00  0.00     0.010 A 
ATOM     31  C   UNL     1       1.963   1.845   5.533  1.00  0.00    -0.014 A 
BRANCH  31  32
ATOM     32  C   UNL     1       2.086   1.521   6.943  1.00  0.00     0.031 A 
ATOM     33  C   UNL     1       2.120   0.123   7.393  1.00  0.00     0.074 A 
ATOM     34  C   UNL     1       2.185   2.543   7.820  1.00  0.00     0.049 A 
ATOM     35  N   UNL     1       2.004  -0.249   8.622  1.00  0.00    -0.248 NA
ATOM     36  C   UNL     1       2.173  -0.988   6.449  1.00  0.00     0.031 C 
ATOM     37  C   UNL     1       2.656   2.494   9.197  1.00  0.00     0.029 A 
ATOM     38  N   UNL     1       1.631   3.824   7.677  1.00  0.00    -0.354 N 
ATOM     39  C   UNL     1       2.241  -1.601   8.666  1.00  0.00     0.074 A 
ATOM     40  C   UNL     1       2.180  -2.025   7.291  1.00  0.00     0.031 C 
ATOM     41  C   UNL     1       2.182   3.565   9.852  1.00  0.00     0.029 A 
ATOM     42  C   UNL     1       1.228   4.218   8.971  1.00  0.00     0.049 A 
ATOM     43  H   UNL     1       1.541   4.342   6.845  1.00  0.00     0.167 HD
ATOM     44  C   UNL     1       2.606  -2.158   9.855  1.00  0.00     0.037 A 
ATOM     45  C   UNL     1      -0.091   4.411   9.270  1.00  0.00     0.037 A 
ATOM     46  C   UNL     1       2.303  -1.249  10.966  1.00  0.00     0.049 A 
ATOM     47  C   UNL     1      -0.632   3.524  10.370  1.00  0.00     0.074 A 
ATOM     48  C   UNL     1       3.050  -0.372  11.734  1.00  0.00     0.029 A 
ATOM     49  N   UNL     1       0.974  -0.961  11.238  1.00  0.00    -0.354 N 
ATOM     50  N   UNL     1       0.000   2.493  10.855  1.00  0.00    -0.248 NA
ATOM     51  C   UNL     1      -1.975   3.675  10.935  1.00  0.00     0.031 C 
ATOM     52  C   UNL     1       2.147   0.503  12.407  1.00  0.00     0.029 A 
ATOM     53  C   UNL     1       0.856   0.138  12.067  1.00  0.00     0.049 A 
ATOM     54  H   UNL     1       0.211  -1.474  10.886  1.00  0.00     0.167 HD
ATOM     55  C   UNL     1      -0.819   1.837  11.728  1.00  0.00     0.074 A 
ATOM     56  C   UNL     1      -2.044   2.612  11.754  1.00  0.00     0.031 C 
ATOM     57  C   UNL     1      -0.462   0.678  12.344  1.00  0.00     0.037 A 
BRANCH  44  58
ATOM     58  C   UNL     1       3.435  -3.422  10.012  1.00  0.00     0.057 A 
ATOM     59  C   UNL     1       3.965  -3.759  11.276  1.00  0.00     0.134 A 
ATOM     60  C   UNL     1       3.865  -4.278   8.977  1.00  0.00     0.134 A 
ATOM     61  F   UNL     1       3.642  -3.070  12.380  1.00  0.00    -0.206 F 
ATOM     62  C   UNL     1       4.878  -4.807  11.475  1.00  0.00     0.040 A 
ATOM     63  C   UNL     1       4.760  -5.340   9.166  1.00  0.00     0.040 A 
ATOM     64  F   UNL     1       3.478  -4.141   7.709  1.00  0.00    -0.206 F 
ATOM     65  C   UNL     1       5.287  -5.600  10.415  1.00  0.00     0.006 A 
ENDBRANCH  44  58
BRANCH  45  66
ATOM     66  C   UNL     1      -0.910   4.879   8.123  1.00  0.00     0.057 A 
ATOM     67  C   UNL     1      -0.636   6.126   7.539  1.00  0.00     0.134 A 
ATOM     68  C   UNL     1      -1.736   4.005   7.409  1.00  0.00     0.134 A 
ATOM     69  F   UNL     1       0.150   7.011   8.173  1.00  0.00    -0.206 F 
ATOM     70  C   UNL     1      -1.090   6.454   6.261  1.00  0.00     0.040 A 
ATOM     71  C   UNL     1      -2.205   4.326   6.132  1.00  0.00     0.040 A 
ATOM     72  F   UNL     1      -2.035   2.793   7.898  1.00  0.00    -0.206 F 
ATOM     73  C   UNL     1      -1.857   5.541   5.543  1.00  0.00     0.006 A 
ENDBRANCH  45  66
BRANCH  57  74
ATOM     74  C   UNL     1      -1.380  -0.024  13.279  1.00  0.00     0.057 A 
ATOM     75  C   UNL     1      -1.875   0.599  14.431  1.00  0.00     0.134 A 
ATOM     76  C   UNL     1      -1.702  -1.377  13.100  1.00  0.00     0.134 A 
ATOM     77  F   UNL     1      -1.606   1.889  14.681  1.00  0.00    -0.206 F 
ATOM     78  C   UNL     1      -2.654  -0.093  15.362  1.00  0.00     0.040 A 
ATOM     79  C   UNL     1      -2.453  -2.087  14.037  1.00  0.00     0.040 A 
ATOM     80  F   UNL     1      -1.303  -2.043  12.005  1.00  0.00    -0.206 F 
ATOM     81  C   UNL     1      -2.932  -1.444  15.174  1.00  0.00     0.006 A 
ENDBRANCH  57  74
ENDBRANCH  31  32
ENDBRANCH  24  26
ENDBRANCH  23  24
ENDBRANCH  22  23
ENDBRANCH   1  22
TORSDOF 13
