REMARK SMILES CC(C)=CCc1cccc2c(C(=O)OCCOC(=O)c3ccc(-c4c5nc(c(-c6c(F)cccc6F)c6ccc([nH]6)c(-c6c(F)cccc6F)c6nc(c(-c7c(F)cccc7F)c7ccc4[nH]7)C=C6)C=C5)cc3)c[nH]c12
REMARK SMILES IDX 15 1 14 2 12 3 13 4 11 5 6 6 7 7 76 8 8 9 10 10 75 11 9 12
REMARK SMILES IDX 74 13 5 15 4 16 1 17 2 18 3 19 16 20 17 21 18 22 19 23 20 24
REMARK SMILES IDX 21 25 73 26 22 27 72 28 23 29 24 30 25 31 66 32 26 33 71 34
REMARK SMILES IDX 65 35 67 36 27 37 70 38 64 39 63 40 28 42 54 43 37 44 53 45
REMARK SMILES IDX 38 46 41 47 52 48 68 49 39 50 40 51 51 53 69 54 42 55 29 56
REMARK SMILES IDX 30 57 35 58 31 59 32 60 34 61 36 62 33 63 55 64 56 65 61 66
REMARK SMILES IDX 57 67 58 68 60 69 62 70 59 71 43 72 44 73 49 74 45 75 46 76
REMARK SMILES IDX 48 77 50 78 47 79
REMARK H PARENT 75 14 67 41 41 52
REMARK Flexibility Score: inf
ROOT
ATOM      1  C   UNL     1       9.300   1.753   5.640  1.00  0.00     0.275 C 
ENDROOT
BRANCH   1   2
ATOM      2  O   UNL     1       7.946   1.634   5.164  1.00  0.00    -0.458 OA
BRANCH   2   3
ATOM      3  C   UNL     1       7.708   0.634   4.263  1.00  0.00     0.340 C 
ATOM      4  O   UNL     1       8.571  -0.120   3.832  1.00  0.00    -0.246 OA
BRANCH   3   5
ATOM      5  C   UNL     1       6.295   0.485   3.924  1.00  0.00     0.085 A 
ATOM      6  C   UNL     1       2.833   1.477   3.328  1.00  0.00    -0.020 A 
ATOM      7  C   UNL     1       2.853   2.868   3.561  1.00  0.00     0.006 A 
ATOM      8  C   UNL     1       4.066   0.819   3.516  1.00  0.00     0.050 A 
ATOM      9  C   UNL     1       4.013   3.544   3.938  1.00  0.00     0.001 A 
ATOM     10  C   UNL     1       5.249   1.464   3.897  1.00  0.00     0.014 A 
ATOM     11  N   UNL     1       4.373  -0.514   3.374  1.00  0.00    -0.360 N 
ATOM     12  C   UNL     1       5.211   2.854   4.120  1.00  0.00     0.011 A 
ATOM     13  C   UNL     1       5.718  -0.702   3.498  1.00  0.00     0.099 A 
ATOM     14  H   UNL     1       3.717  -1.229   3.207  1.00  0.00     0.166 HD
BRANCH   6  15
ATOM     15  C   UNL     1       1.563   0.743   2.945  1.00  0.00     0.065 C 
BRANCH  15  16
ATOM     16  C   UNL     1       0.656   1.506   2.019  1.00  0.00    -0.024 C 
ATOM     17  C   UNL     1       1.072   0.153  -0.056  1.00  0.00     0.039 C 
ATOM     18  C   UNL     1       0.433   1.276   0.710  1.00  0.00    -0.080 C 
ATOM     19  C   UNL     1      -0.473   2.201  -0.054  1.00  0.00     0.039 C 
ENDBRANCH  15  16
ENDBRANCH   6  15
ENDBRANCH   3   5
ENDBRANCH   2   3
ENDBRANCH   1   2
BRANCH   1  20
ATOM     20  C   UNL     1       9.490   1.072   6.999  1.00  0.00     0.275 C 
BRANCH  20  21
ATOM     21  O   UNL     1       9.418  -0.361   6.878  1.00  0.00    -0.458 OA
BRANCH  21  22
ATOM     22  C   UNL     1       8.255  -0.915   7.284  1.00  0.00     0.338 C 
ATOM     23  O   UNL     1       7.290  -0.349   7.771  1.00  0.00    -0.246 OA
BRANCH  22  24
ATOM     24  C   UNL     1       8.239  -2.345   6.951  1.00  0.00     0.060 A 
ATOM     25  C   UNL     1       7.655  -2.713   5.744  1.00  0.00     0.016 A 
ATOM     26  C   UNL     1       8.636  -3.320   7.861  1.00  0.00     0.016 A 
ATOM     27  C   UNL     1       7.394  -4.045   5.454  1.00  0.00     0.010 A 
ATOM     28  C   UNL     1       8.438  -4.671   7.541  1.00  0.00     0.010 A 
ATOM     29  C   UNL     1       7.787  -5.045   6.348  1.00  0.00    -0.014 A 
BRANCH  29  30
ATOM     30  C   UNL     1       7.462  -6.466   6.055  1.00  0.00     0.031 A 
ATOM     31  C   UNL     1       6.561  -7.234   6.982  1.00  0.00     0.074 A 
ATOM     32  C   UNL     1       7.945  -7.062   4.946  1.00  0.00     0.049 A 
ATOM     33  N   UNL     1       6.287  -8.514   7.002  1.00  0.00    -0.248 NA
ATOM     34  C   UNL     1       5.885  -6.460   8.035  1.00  0.00     0.031 C 
ATOM     35  C   UNL     1       8.770  -6.413   3.925  1.00  0.00     0.029 A 
ATOM     36  N   UNL     1       7.813  -8.351   4.494  1.00  0.00    -0.354 N 
ATOM     37  C   UNL     1       5.449  -8.706   8.094  1.00  0.00     0.074 A 
ATOM     38  C   UNL     1       5.268  -7.413   8.719  1.00  0.00     0.031 C 
ATOM     39  C   UNL     1       9.057  -7.301   2.961  1.00  0.00     0.029 A 
ATOM     40  C   UNL     1       8.512  -8.601   3.337  1.00  0.00     0.049 A 
ATOM     41  H   UNL     1       7.269  -9.032   4.953  1.00  0.00     0.167 HD
ATOM     42  C   UNL     1       4.885  -9.856   8.534  1.00  0.00     0.037 A 
ATOM     43  C   UNL     1       8.735  -9.754   2.680  1.00  0.00     0.037 A 
ATOM     44  C   UNL     1       5.041 -11.132   7.883  1.00  0.00     0.049 A 
ATOM     45  C   UNL     1       8.158 -11.029   3.227  1.00  0.00     0.074 A 
ATOM     46  C   UNL     1       4.501 -12.355   8.241  1.00  0.00     0.029 A 
ATOM     47  N   UNL     1       5.791 -11.347   6.735  1.00  0.00    -0.354 N 
ATOM     48  N   UNL     1       7.399 -11.208   4.281  1.00  0.00    -0.248 NA
ATOM     49  C   UNL     1       8.479 -12.266   2.501  1.00  0.00     0.031 C 
ATOM     50  C   UNL     1       4.965 -13.319   7.340  1.00  0.00     0.029 A 
ATOM     51  C   UNL     1       5.746 -12.687   6.386  1.00  0.00     0.049 A 
ATOM     52  H   UNL     1       6.282 -10.650   6.242  1.00  0.00     0.167 HD
ATOM     53  C   UNL     1       7.133 -12.570   4.332  1.00  0.00     0.074 A 
ATOM     54  C   UNL     1       7.798 -13.168   3.192  1.00  0.00     0.031 C 
ATOM     55  C   UNL     1       6.407 -13.264   5.242  1.00  0.00     0.037 A 
BRANCH  42  56
ATOM     56  C   UNL     1       4.080  -9.796   9.801  1.00  0.00     0.057 A 
ATOM     57  C   UNL     1       2.831  -9.166   9.867  1.00  0.00     0.134 A 
ATOM     58  C   UNL     1       4.556 -10.405  10.970  1.00  0.00     0.134 A 
ATOM     59  F   UNL     1       2.321  -8.552   8.790  1.00  0.00    -0.206 F 
ATOM     60  C   UNL     1       2.098  -9.121  11.056  1.00  0.00     0.040 A 
ATOM     61  C   UNL     1       3.820 -10.392  12.156  1.00  0.00     0.040 A 
ATOM     62  F   UNL     1       5.742 -11.033  10.977  1.00  0.00    -0.206 F 
ATOM     63  C   UNL     1       2.590  -9.741  12.203  1.00  0.00     0.006 A 
ENDBRANCH  42  56
BRANCH  43  64
ATOM     64  C   UNL     1       9.584  -9.765   1.460  1.00  0.00     0.057 A 
ATOM     65  C   UNL     1       9.046 -10.068   0.204  1.00  0.00     0.134 A 
ATOM     66  C   UNL     1      10.955  -9.484   1.522  1.00  0.00     0.134 A 
ATOM     67  F   UNL     1       7.745 -10.369   0.082  1.00  0.00    -0.206 F 
ATOM     68  C   UNL     1       9.842 -10.106  -0.942  1.00  0.00     0.040 A 
ATOM     69  C   UNL     1      11.756  -9.488   0.379  1.00  0.00     0.040 A 
ATOM     70  F   UNL     1      11.534  -9.186   2.694  1.00  0.00    -0.206 F 
ATOM     71  C   UNL     1      11.200  -9.808  -0.857  1.00  0.00     0.006 A 
ENDBRANCH  43  64
BRANCH  55  72
ATOM     72  C   UNL     1       6.256 -14.741   5.015  1.00  0.00     0.057 A 
ATOM     73  C   UNL     1       7.320 -15.633   5.199  1.00  0.00     0.134 A 
ATOM     74  C   UNL     1       5.019 -15.279   4.638  1.00  0.00     0.134 A 
ATOM     75  F   UNL     1       8.535 -15.181   5.545  1.00  0.00    -0.206 F 
ATOM     76  C   UNL     1       7.166 -17.004   4.990  1.00  0.00     0.040 A 
ATOM     77  C   UNL     1       4.845 -16.651   4.455  1.00  0.00     0.040 A 
ATOM     78  F   UNL     1       3.956 -14.481   4.453  1.00  0.00    -0.206 F 
ATOM     79  C   UNL     1       5.922 -17.517   4.624  1.00  0.00     0.006 A 
ENDBRANCH  55  72
ENDBRANCH  29  30
ENDBRANCH  22  24
ENDBRANCH  21  22
ENDBRANCH  20  21
ENDBRANCH   1  20
TORSDOF 13
