REMARK SMILES CCCCCCOC(=O)Nc1cccc(-c2ccc([C@@H](C)C(=O)OCCOC(=O)c3ccc(-c4c5nc(c(-c6c(F)cccc6F)c6ccc([nH]6)c(-c6c(F)cccc6F)c6nc(c(-c7c(F)cccc7F)c7ccc4[nH]7)C=C6)C=C5)cc3)cc2F)c1
REMARK SMILES IDX 20 1 21 2 19 3 16 4 17 5 85 6 18 7 84 8 86 9 15 10 11 11
REMARK SMILES IDX 12 12 87 13 13 14 14 15 10 16 8 17 9 18 7 20 6 21 5 22 4 23
REMARK SMILES IDX 3 24 2 25 1 26 22 27 23 28 24 29 25 30 26 31 27 32 28 33
REMARK SMILES IDX 29 34 30 35 31 36 83 37 32 38 82 39 33 40 34 41 35 42 76 43
REMARK SMILES IDX 36 44 81 45 75 46 77 47 37 48 80 49 74 50 73 51 38 53 64 54
REMARK SMILES IDX 47 55 63 56 48 57 51 58 62 59 78 60 49 61 50 62 61 64 79 65
REMARK SMILES IDX 52 66 39 67 40 68 45 69 41 70 42 71 44 72 46 73 43 74 65 75
REMARK SMILES IDX 66 76 71 77 67 78 68 79 70 80 72 81 69 82 53 83 54 84 59 85
REMARK SMILES IDX 55 86 56 87 58 88 60 89 57 90
REMARK H PARENT 10 19 77 52 51 63
REMARK Flexibility Score: inf
ROOT
ATOM      1  C   UNL     1      -6.484  -0.744  11.231  1.00  0.00     0.126 C 
ATOM      2  C   UNL     1      -7.011  -0.089  12.504  1.00  0.00     0.025 C 
ENDROOT
BRANCH   1   3
ATOM      3  C   UNL     1      -5.364   0.057  10.587  1.00  0.00    -0.031 A 
ATOM      4  C   UNL     1      -3.213   1.540   9.457  1.00  0.00     0.018 A 
ATOM      5  C   UNL     1      -4.481   2.114   9.618  1.00  0.00     0.012 A 
ATOM      6  C   UNL     1      -3.054   0.204   9.850  1.00  0.00     0.131 A 
ATOM      7  C   UNL     1      -5.539   1.387  10.178  1.00  0.00     0.005 A 
ATOM      8  C   UNL     1      -4.102  -0.528  10.407  1.00  0.00     0.044 A 
ATOM      9  F   UNL     1      -1.861  -0.402   9.732  1.00  0.00    -0.206 F 
BRANCH   4  10
ATOM     10  C   UNL     1      -2.082   2.326   8.941  1.00  0.00    -0.013 A 
ATOM     11  C   UNL     1      -0.157   2.540   7.455  1.00  0.00     0.045 A 
ATOM     12  C   UNL     1       0.231   3.704   8.118  1.00  0.00     0.026 A 
ATOM     13  C   UNL     1      -1.313   1.864   7.861  1.00  0.00     0.035 A 
ATOM     14  C   UNL     1      -0.553   4.212   9.152  1.00  0.00     0.003 A 
ATOM     15  C   UNL     1      -1.697   3.525   9.562  1.00  0.00     0.009 A 
BRANCH  11  16
ATOM     16  N   UNL     1       0.700   2.019   6.476  1.00  0.00    -0.291 N 
ATOM     17  C   UNL     1       0.391   1.142   5.473  1.00  0.00     0.411 C 
ATOM     18  O   UNL     1       1.254   0.437   4.964  1.00  0.00    -0.224 OA
ATOM     19  H   UNL     1       1.636   2.320   6.515  1.00  0.00     0.173 HD
BRANCH  17  20
ATOM     20  O   UNL     1      -0.891   1.249   5.043  1.00  0.00    -0.449 OA
BRANCH  20  21
ATOM     21  C   UNL     1      -1.285   0.485   3.892  1.00  0.00     0.235 C 
BRANCH  21  22
ATOM     22  C   UNL     1      -1.000   1.226   2.580  1.00  0.00     0.042 C 
BRANCH  22  23
ATOM     23  C   UNL     1       0.469   1.270   2.143  1.00  0.00     0.003 C 
BRANCH  23  24
ATOM     24  C   UNL     1       1.124  -0.100   1.920  1.00  0.00    -0.000 C 
BRANCH  24  25
ATOM     25  C   UNL     1       0.593  -0.885   0.721  1.00  0.00    -0.003 C 
ATOM     26  C   UNL     1       0.970  -0.254  -0.610  1.00  0.00     0.004 C 
ENDBRANCH  24  25
ENDBRANCH  23  24
ENDBRANCH  22  23
ENDBRANCH  21  22
ENDBRANCH  20  21
ENDBRANCH  17  20
ENDBRANCH  11  16
ENDBRANCH   4  10
ENDBRANCH   1   3
BRANCH   1  27
ATOM     27  C   UNL     1      -7.642  -1.131  10.316  1.00  0.00     0.313 C 
ATOM     28  O   UNL     1      -8.329  -2.126  10.524  1.00  0.00    -0.252 OA
BRANCH  27  29
ATOM     29  O   UNL     1      -7.842  -0.264   9.291  1.00  0.00    -0.462 OA
BRANCH  29  30
ATOM     30  C   UNL     1      -8.864  -0.606   8.337  1.00  0.00     0.274 C 
BRANCH  30  31
ATOM     31  C   UNL     1      -8.256  -1.216   7.072  1.00  0.00     0.275 C 
BRANCH  31  32
ATOM     32  O   UNL     1      -7.686  -2.511   7.340  1.00  0.00    -0.458 OA
BRANCH  32  33
ATOM     33  C   UNL     1      -6.348  -2.519   7.539  1.00  0.00     0.338 C 
ATOM     34  O   UNL     1      -5.579  -1.577   7.472  1.00  0.00    -0.246 OA
BRANCH  33  35
ATOM     35  C   UNL     1      -5.927  -3.854   7.985  1.00  0.00     0.060 A 
ATOM     36  C   UNL     1      -5.550  -4.010   9.319  1.00  0.00     0.016 A 
ATOM     37  C   UNL     1      -5.810  -4.915   7.088  1.00  0.00     0.016 A 
ATOM     38  C   UNL     1      -5.035  -5.221   9.766  1.00  0.00     0.010 A 
ATOM     39  C   UNL     1      -5.313  -6.142   7.543  1.00  0.00     0.010 A 
ATOM     40  C   UNL     1      -4.911  -6.299   8.882  1.00  0.00    -0.014 A 
BRANCH  40  41
ATOM     41  C   UNL     1      -4.337  -7.578   9.367  1.00  0.00     0.031 A 
ATOM     42  C   UNL     1      -2.972  -8.013   8.917  1.00  0.00     0.074 A 
ATOM     43  C   UNL     1      -5.034  -8.330  10.239  1.00  0.00     0.049 A 
ATOM     44  N   UNL     1      -2.329  -9.122   9.180  1.00  0.00    -0.248 NA
ATOM     45  C   UNL     1      -2.233  -7.078   8.056  1.00  0.00     0.031 C 
ATOM     46  C   UNL     1      -6.352  -7.993  10.779  1.00  0.00     0.029 A 
ATOM     47  N   UNL     1      -4.731  -9.533  10.824  1.00  0.00    -0.354 N 
ATOM     48  C   UNL     1      -1.121  -9.030   8.502  1.00  0.00     0.074 A 
ATOM     49  C   UNL     1      -1.128  -7.764   7.798  1.00  0.00     0.031 C 
ATOM     50  C   UNL     1      -6.740  -8.962  11.623  1.00  0.00     0.029 A 
ATOM     51  C   UNL     1      -5.726 -10.010  11.643  1.00  0.00     0.049 A 
ATOM     52  H   UNL     1      -3.883 -10.009  10.672  1.00  0.00     0.167 HD
ATOM     53  C   UNL     1      -0.099  -9.918   8.474  1.00  0.00     0.037 A 
ATOM     54  C   UNL     1      -5.821 -11.175  12.311  1.00  0.00     0.037 A 
ATOM     55  C   UNL     1      -0.091 -11.169   9.189  1.00  0.00     0.049 A 
ATOM     56  C   UNL     1      -4.696 -12.168  12.217  1.00  0.00     0.074 A 
ATOM     57  C   UNL     1       0.905 -12.129   9.239  1.00  0.00     0.029 A 
ATOM     58  N   UNL     1      -1.131 -11.633   9.981  1.00  0.00    -0.354 N 
ATOM     59  N   UNL     1      -3.559 -12.070  11.572  1.00  0.00    -0.248 NA
ATOM     60  C   UNL     1      -4.871 -13.434  12.941  1.00  0.00     0.031 C 
ATOM     61  C   UNL     1       0.449 -13.195  10.022  1.00  0.00     0.029 A 
ATOM     62  C   UNL     1      -0.811 -12.877  10.503  1.00  0.00     0.049 A 
ATOM     63  H   UNL     1      -1.973 -11.151  10.147  1.00  0.00     0.167 HD
ATOM     64  C   UNL     1      -2.875 -13.252  11.825  1.00  0.00     0.074 A 
ATOM     65  C   UNL     1      -3.717 -14.041  12.702  1.00  0.00     0.031 C 
ATOM     66  C   UNL     1      -1.661 -13.650  11.372  1.00  0.00     0.037 A 
BRANCH  53  67
ATOM     67  C   UNL     1       1.087  -9.583   7.617  1.00  0.00     0.057 A 
ATOM     68  C   UNL     1       1.999  -8.579   7.968  1.00  0.00     0.134 A 
ATOM     69  C   UNL     1       1.338 -10.299   6.439  1.00  0.00     0.134 A 
ATOM     70  F   UNL     1       1.811  -7.848   9.077  1.00  0.00    -0.206 F 
ATOM     71  C   UNL     1       3.104  -8.284   7.167  1.00  0.00     0.040 A 
ATOM     72  C   UNL     1       2.454 -10.031   5.643  1.00  0.00     0.040 A 
ATOM     73  F   UNL     1       0.509 -11.278   6.047  1.00  0.00    -0.206 F 
ATOM     74  C   UNL     1       3.338  -9.016   6.004  1.00  0.00     0.006 A 
ENDBRANCH  53  67
BRANCH  54  75
ATOM     75  C   UNL     1      -7.037 -11.477  13.107  1.00  0.00     0.057 A 
ATOM     76  C   UNL     1      -6.991 -11.553  14.503  1.00  0.00     0.134 A 
ATOM     77  C   UNL     1      -8.272 -11.709  12.489  1.00  0.00     0.134 A 
ATOM     78  F   UNL     1      -5.832 -11.365  15.152  1.00  0.00    -0.206 F 
ATOM     79  C   UNL     1      -8.125 -11.864  15.256  1.00  0.00     0.040 A 
ATOM     80  C   UNL     1      -9.420 -11.992  13.230  1.00  0.00     0.040 A 
ATOM     81  F   UNL     1      -8.384 -11.649  11.153  1.00  0.00    -0.206 F 
ATOM     82  C   UNL     1      -9.346 -12.078  14.619  1.00  0.00     0.006 A 
ENDBRANCH  54  75
BRANCH  66  83
ATOM     83  C   UNL     1      -1.166 -14.988  11.840  1.00  0.00     0.057 A 
ATOM     84  C   UNL     1      -1.725 -16.186  11.378  1.00  0.00     0.134 A 
ATOM     85  C   UNL     1      -0.106 -15.077  12.752  1.00  0.00     0.134 A 
ATOM     86  F   UNL     1      -2.752 -16.169  10.515  1.00  0.00    -0.206 F 
ATOM     87  C   UNL     1      -1.267 -17.425  11.829  1.00  0.00     0.040 A 
ATOM     88  C   UNL     1       0.378 -16.310  13.189  1.00  0.00     0.040 A 
ATOM     89  F   UNL     1       0.479 -13.967  13.227  1.00  0.00    -0.206 F 
ATOM     90  C   UNL     1      -0.209 -17.489  12.734  1.00  0.00     0.006 A 
ENDBRANCH  66  83
ENDBRANCH  40  41
ENDBRANCH  33  35
ENDBRANCH  32  33
ENDBRANCH  31  32
ENDBRANCH  30  31
ENDBRANCH  29  30
ENDBRANCH  27  29
ENDBRANCH   1  27
TORSDOF 20
