REMARK SMILES C[C@H](c1cnccn1)[N@@H+]1[C@@H](C(=O)OCCOC(=O)c2ccc(-c3c4nc(c(-c5c(F)cccc5F)c5ccc([nH]5)c(-c5c(F)cccc5F)c5nc(c(-c6c(F)cccc6F)c6ccc3[nH]6)C=C5)C=C4)cc2)CC[C@H]2CCCC[C@H]21
REMARK SMILES IDX 14 1 13 2 11 3 12 4 10 5 9 6 80 7 73 9 75 10 79 11 74 12
REMARK SMILES IDX 76 13 78 14 77 15 2 16 1 17 3 18 4 19 8 20 5 21 7 22 6 23
REMARK SMILES IDX 15 24 16 25 17 26 18 27 19 28 20 29 72 30 21 31 71 32 22 33
REMARK SMILES IDX 23 34 24 35 65 36 25 37 70 38 64 39 66 40 26 41 69 42 63 43
REMARK SMILES IDX 62 44 27 46 53 47 36 48 52 49 37 50 40 51 51 52 67 53 38 54
REMARK SMILES IDX 39 55 50 57 68 58 41 59 28 60 29 61 34 62 30 63 31 64 33 65
REMARK SMILES IDX 35 66 32 67 54 68 55 69 60 70 56 71 57 72 59 73 61 74 58 75
REMARK SMILES IDX 42 76 43 77 48 78 44 79 45 80 47 81 49 82 46 83
REMARK H PARENT 9 8 66 45 40 56
REMARK Flexibility Score: inf
ROOT
ATOM      1  C   UNL     1      -0.699   3.799  -4.275  1.00  0.00     0.274 C 
ENDROOT
BRANCH   1   2
ATOM      2  O   UNL     1      -1.255   3.053  -3.173  1.00  0.00    -0.458 OA
BRANCH   2   3
ATOM      3  C   UNL     1      -0.595   3.155  -1.987  1.00  0.00     0.365 C 
ATOM      4  O   UNL     1       0.407   3.843  -1.809  1.00  0.00    -0.245 OA
BRANCH   3   5
ATOM      5  C   UNL     1      -1.215   2.311  -0.866  1.00  0.00     0.295 C 
ATOM      6  N   UNL     1      -0.816   0.836  -0.853  1.00  0.00    -0.313 N 
ATOM      7  C   UNL     1      -1.484   0.204   0.353  1.00  0.00     0.188 C 
ATOM      8  H   UNL     1      -1.129   0.315  -1.672  1.00  0.00     0.349 HD
ATOM      9  C   UNL     1      -2.730   2.558  -0.871  1.00  0.00     0.078 C 
ATOM     10  C   UNL     1      -3.033   0.446   0.391  1.00  0.00     0.048 C 
ATOM     11  C   UNL     1      -1.384  -1.333   0.510  1.00  0.00     0.065 C 
ATOM     12  C   UNL     1      -3.373   1.929   0.343  1.00  0.00     0.016 C 
ATOM     13  C   UNL     1      -3.799  -0.324  -0.712  1.00  0.00     0.010 C 
ATOM     14  C   UNL     1      -1.940  -2.060  -0.704  1.00  0.00     0.006 C 
ATOM     15  C   UNL     1      -3.432  -1.800  -0.837  1.00  0.00     0.001 C 
BRANCH   6  16
ATOM     16  C   UNL     1       0.710   0.754  -0.868  1.00  0.00     0.233 C 
ATOM     17  C   UNL     1       1.259   0.828  -2.316  1.00  0.00     0.083 C 
BRANCH  16  18
ATOM     18  C   UNL     1       1.402  -0.441  -0.208  1.00  0.00     0.116 A 
ATOM     19  C   UNL     1       1.582  -1.661  -0.869  1.00  0.00     0.141 A 
ATOM     20  N   UNL     1       1.887  -0.263   1.054  1.00  0.00    -0.252 NA
ATOM     21  N   UNL     1       2.226  -2.720  -0.320  1.00  0.00    -0.261 NA
ATOM     22  C   UNL     1       2.530  -1.322   1.600  1.00  0.00     0.131 A 
ATOM     23  C   UNL     1       2.696  -2.521   0.929  1.00  0.00     0.131 A 
ENDBRANCH  16  18
ENDBRANCH   6  16
ENDBRANCH   3   5
ENDBRANCH   2   3
ENDBRANCH   1   2
BRANCH   1  24
ATOM     24  C   UNL     1      -1.274   5.216  -4.389  1.00  0.00     0.275 C 
BRANCH  24  25
ATOM     25  O   UNL     1      -0.848   6.053  -3.297  1.00  0.00    -0.458 OA
BRANCH  25  26
ATOM     26  C   UNL     1      -1.738   6.170  -2.287  1.00  0.00     0.338 C 
ATOM     27  O   UNL     1      -2.883   5.736  -2.263  1.00  0.00    -0.246 OA
BRANCH  26  28
ATOM     28  C   UNL     1      -1.099   6.756  -1.097  1.00  0.00     0.060 A 
ATOM     29  C   UNL     1      -1.159   6.019   0.091  1.00  0.00     0.016 A 
ATOM     30  C   UNL     1      -0.538   8.033  -1.104  1.00  0.00     0.016 A 
ATOM     31  C   UNL     1      -0.678   6.550   1.278  1.00  0.00     0.010 A 
ATOM     32  C   UNL     1      -0.072   8.581   0.099  1.00  0.00     0.010 A 
ATOM     33  C   UNL     1      -0.164   7.849   1.296  1.00  0.00    -0.014 A 
BRANCH  33  34
ATOM     34  C   UNL     1       0.120   8.464   2.612  1.00  0.00     0.031 A 
ATOM     35  C   UNL     1      -0.924   9.339   3.244  1.00  0.00     0.074 A 
ATOM     36  C   UNL     1       1.245   8.155   3.280  1.00  0.00     0.049 A 
ATOM     37  N   UNL     1      -0.901   9.956   4.398  1.00  0.00    -0.248 NA
ATOM     38  C   UNL     1      -2.164   9.538   2.477  1.00  0.00     0.031 C 
ATOM     39  C   UNL     1       2.293   7.257   2.799  1.00  0.00     0.029 A 
ATOM     40  N   UNL     1       1.680   8.552   4.518  1.00  0.00    -0.354 N 
ATOM     41  C   UNL     1      -2.116  10.622   4.490  1.00  0.00     0.074 A 
ATOM     42  C   UNL     1      -2.846  10.350   3.271  1.00  0.00     0.031 C 
ATOM     43  C   UNL     1       3.253   7.169   3.736  1.00  0.00     0.029 A 
ATOM     44  C   UNL     1       2.898   8.024   4.866  1.00  0.00     0.049 A 
ATOM     45  H   UNL     1       1.168   9.158   5.101  1.00  0.00     0.167 HD
ATOM     46  C   UNL     1      -2.582  11.389   5.504  1.00  0.00     0.037 A 
ATOM     47  C   UNL     1       3.644   8.222   5.969  1.00  0.00     0.037 A 
ATOM     48  C   UNL     1      -1.860  11.654   6.719  1.00  0.00     0.049 A 
ATOM     49  C   UNL     1       3.128   9.125   7.055  1.00  0.00     0.074 A 
ATOM     50  C   UNL     1      -2.240  12.431   7.799  1.00  0.00     0.029 A 
ATOM     51  N   UNL     1      -0.606  11.142   7.015  1.00  0.00    -0.354 N 
ATOM     52  N   UNL     1       1.987   9.768   7.125  1.00  0.00    -0.248 NA
ATOM     53  C   UNL     1       4.005   9.331   8.217  1.00  0.00     0.031 C 
ATOM     54  C   UNL     1      -1.200  12.415   8.736  1.00  0.00     0.029 A 
ATOM     55  C   UNL     1      -0.190  11.597   8.255  1.00  0.00     0.049 A 
ATOM     56  H   UNL     1      -0.088  10.543   6.430  1.00  0.00     0.167 HD
ATOM     57  C   UNL     1       2.002  10.439   8.341  1.00  0.00     0.074 A 
ATOM     58  C   UNL     1       3.257  10.110   8.985  1.00  0.00     0.031 C 
ATOM     59  C   UNL     1       1.062  11.256   8.878  1.00  0.00     0.037 A 
BRANCH  46  60
ATOM     60  C   UNL     1      -3.927  12.024   5.315  1.00  0.00     0.057 A 
ATOM     61  C   UNL     1      -5.113  11.285   5.409  1.00  0.00     0.134 A 
ATOM     62  C   UNL     1      -4.034  13.392   5.041  1.00  0.00     0.134 A 
ATOM     63  F   UNL     1      -5.075   9.966   5.649  1.00  0.00    -0.206 F 
ATOM     64  C   UNL     1      -6.359  11.883   5.216  1.00  0.00     0.040 A 
ATOM     65  C   UNL     1      -5.275  14.005   4.867  1.00  0.00     0.040 A 
ATOM     66  F   UNL     1      -2.935  14.154   4.937  1.00  0.00    -0.206 F 
ATOM     67  C   UNL     1      -6.443  13.249   4.949  1.00  0.00     0.006 A 
ENDBRANCH  46  60
BRANCH  47  68
ATOM     68  C   UNL     1       4.968   7.565   6.098  1.00  0.00     0.057 A 
ATOM     69  C   UNL     1       5.185   6.541   7.025  1.00  0.00     0.134 A 
ATOM     70  C   UNL     1       6.054   7.965   5.310  1.00  0.00     0.134 A 
ATOM     71  F   UNL     1       4.189   6.133   7.826  1.00  0.00    -0.206 F 
ATOM     72  C   UNL     1       6.439   5.947   7.176  1.00  0.00     0.040 A 
ATOM     73  C   UNL     1       7.307   7.365   5.434  1.00  0.00     0.040 A 
ATOM     74  F   UNL     1       5.910   8.945   4.405  1.00  0.00    -0.206 F 
ATOM     75  C   UNL     1       7.503   6.356   6.375  1.00  0.00     0.006 A 
ENDBRANCH  47  68
BRANCH  59  76
ATOM     76  C   UNL     1       1.351  11.828  10.233  1.00  0.00     0.057 A 
ATOM     77  C   UNL     1       2.281  12.860  10.413  1.00  0.00     0.134 A 
ATOM     78  C   UNL     1       0.675  11.359  11.365  1.00  0.00     0.134 A 
ATOM     79  F   UNL     1       2.970  13.344   9.368  1.00  0.00    -0.206 F 
ATOM     80  C   UNL     1       2.545  13.389  11.677  1.00  0.00     0.040 A 
ATOM     81  C   UNL     1       0.915  11.895  12.631  1.00  0.00     0.040 A 
ATOM     82  F   UNL     1      -0.233  10.377  11.258  1.00  0.00    -0.206 F 
ATOM     83  C   UNL     1       1.857  12.909  12.790  1.00  0.00     0.006 A 
ENDBRANCH  59  76
ENDBRANCH  33  34
ENDBRANCH  26  28
ENDBRANCH  25  26
ENDBRANCH  24  25
ENDBRANCH   1  24
TORSDOF 13
