REMARK SMILES O=C(OCCOC(=O)[C@@H]1[C@H](C(=O)NCc2cccnc2)[C@H]2C=C[C@@H]1C2)c1ccc(-c2c3nc(c(-c4c(F)cccc4F)c4ccc([nH]4)c(-c4c(F)cccc4F)c4nc(c(-c5c(F)cccc5F)c5ccc2[nH]5)C=C4)C=C3)cc1
REMARK SMILES IDX 5 1 4 2 3 3 2 4 1 5 26 6 27 7 79 8 28 9 78 10 29 11 30 12
REMARK SMILES IDX 31 13 72 14 32 15 77 16 71 17 73 18 33 19 76 20 70 21 69 22
REMARK SMILES IDX 34 24 60 25 43 26 59 27 44 28 47 29 58 30 74 31 45 32 46 33
REMARK SMILES IDX 57 35 75 36 48 37 35 38 36 39 41 40 37 41 38 42 40 43 42 44
REMARK SMILES IDX 39 45 61 46 62 47 67 48 63 49 64 50 66 51 68 52 65 53 49 54
REMARK SMILES IDX 50 55 55 56 51 57 52 58 54 59 56 60 53 61 6 62 7 63 8 64
REMARK SMILES IDX 9 65 10 66 24 67 21 68 23 69 25 70 22 71 11 72 12 73 13 74
REMARK SMILES IDX 14 76 15 77 16 78 20 79 17 80 19 81 18 82
REMARK H PARENT 73 23 47 34 13 75
REMARK Flexibility Score: inf
ROOT
ATOM      1  C   UNL     1       2.764   1.411  -0.420  1.00  0.00     0.274 C 
ENDROOT
BRANCH   1   2
ATOM      2  C   UNL     1       3.182   0.283  -1.354  1.00  0.00     0.275 C 
BRANCH   2   3
ATOM      3  O   UNL     1       2.352  -0.891  -1.280  1.00  0.00    -0.458 OA
BRANCH   3   4
ATOM      4  C   UNL     1       2.153  -1.730  -0.239  1.00  0.00     0.338 C 
ATOM      5  O   UNL     1       1.057  -2.278  -0.134  1.00  0.00    -0.246 OA
BRANCH   4   6
ATOM      6  C   UNL     1       3.205  -2.066   0.782  1.00  0.00     0.060 A 
ATOM      7  C   UNL     1       4.543  -1.666   0.771  1.00  0.00     0.016 A 
ATOM      8  C   UNL     1       2.793  -2.876   1.855  1.00  0.00     0.016 A 
ATOM      9  C   UNL     1       5.398  -1.933   1.859  1.00  0.00     0.010 A 
ATOM     10  C   UNL     1       3.636  -3.130   2.944  1.00  0.00     0.010 A 
ATOM     11  C   UNL     1       4.939  -2.605   2.986  1.00  0.00    -0.014 A 
BRANCH  11  12
ATOM     12  C   UNL     1       5.826  -2.900   4.146  1.00  0.00     0.031 A 
ATOM     13  C   UNL     1       6.290  -4.309   4.282  1.00  0.00     0.074 A 
ATOM     14  C   UNL     1       6.218  -1.992   5.070  1.00  0.00     0.049 A 
ATOM     15  N   UNL     1       7.009  -4.845   5.227  1.00  0.00    -0.248 NA
ATOM     16  C   UNL     1       5.937  -5.219   3.180  1.00  0.00     0.031 C 
ATOM     17  C   UNL     1       6.014  -0.555   4.998  1.00  0.00     0.029 A 
ATOM     18  N   UNL     1       6.833  -2.145   6.293  1.00  0.00    -0.354 N 
ATOM     19  C   UNL     1       7.275  -6.126   4.784  1.00  0.00     0.074 A 
ATOM     20  C   UNL     1       6.516  -6.339   3.572  1.00  0.00     0.031 C 
ATOM     21  C   UNL     1       6.320   0.024   6.171  1.00  0.00     0.029 A 
ATOM     22  C   UNL     1       6.816  -1.001   7.069  1.00  0.00     0.049 A 
ATOM     23  H   UNL     1       7.246  -2.989   6.587  1.00  0.00     0.167 HD
ATOM     24  C   UNL     1       8.158  -7.011   5.289  1.00  0.00     0.037 A 
ATOM     25  C   UNL     1       7.167  -0.794   8.354  1.00  0.00     0.037 A 
ATOM     26  C   UNL     1       8.871  -6.818   6.517  1.00  0.00     0.049 A 
ATOM     27  C   UNL     1       7.908  -1.899   9.048  1.00  0.00     0.074 A 
ATOM     28  C   UNL     1       9.739  -7.681   7.154  1.00  0.00     0.029 A 
ATOM     29  N   UNL     1       8.772  -5.682   7.310  1.00  0.00    -0.354 N 
ATOM     30  N   UNL     1       8.208  -3.089   8.591  1.00  0.00    -0.248 NA
ATOM     31  C   UNL     1       8.445  -1.609  10.383  1.00  0.00     0.031 C 
ATOM     32  C   UNL     1      10.125  -7.090   8.362  1.00  0.00     0.029 A 
ATOM     33  C   UNL     1       9.540  -5.836   8.451  1.00  0.00     0.049 A 
ATOM     34  H   UNL     1       8.236  -4.886   7.093  1.00  0.00     0.167 HD
ATOM     35  C   UNL     1       9.047  -3.656   9.537  1.00  0.00     0.074 A 
ATOM     36  C   UNL     1       9.185  -2.686  10.605  1.00  0.00     0.031 C 
ATOM     37  C   UNL     1       9.672  -4.857   9.501  1.00  0.00     0.037 A 
BRANCH  24  38
ATOM     38  C   UNL     1       8.370  -8.239   4.466  1.00  0.00     0.057 A 
ATOM     39  C   UNL     1       9.029  -8.172   3.228  1.00  0.00     0.134 A 
ATOM     40  C   UNL     1       7.812  -9.461   4.844  1.00  0.00     0.134 A 
ATOM     41  F   UNL     1       9.541  -7.010   2.791  1.00  0.00    -0.206 F 
ATOM     42  C   UNL     1       9.090  -9.273   2.376  1.00  0.00     0.040 A 
ATOM     43  C   UNL     1       7.890 -10.577   4.011  1.00  0.00     0.040 A 
ATOM     44  F   UNL     1       7.149  -9.577   6.003  1.00  0.00    -0.206 F 
ATOM     45  C   UNL     1       8.518 -10.481   2.769  1.00  0.00     0.006 A 
ENDBRANCH  24  38
BRANCH  25  46
ATOM     46  C   UNL     1       6.904   0.498   9.049  1.00  0.00     0.057 A 
ATOM     47  C   UNL     1       7.938   1.382   9.381  1.00  0.00     0.134 A 
ATOM     48  C   UNL     1       5.614   0.837   9.480  1.00  0.00     0.134 A 
ATOM     49  F   UNL     1       9.198   1.111   9.013  1.00  0.00    -0.206 F 
ATOM     50  C   UNL     1       7.711   2.527  10.152  1.00  0.00     0.040 A 
ATOM     51  C   UNL     1       5.369   1.989  10.237  1.00  0.00     0.040 A 
ATOM     52  F   UNL     1       4.573   0.042   9.195  1.00  0.00    -0.206 F 
ATOM     53  C   UNL     1       6.423   2.830  10.587  1.00  0.00     0.006 A 
ENDBRANCH  25  46
BRANCH  37  54
ATOM     54  C   UNL     1      10.609  -5.165  10.627  1.00  0.00     0.057 A 
ATOM     55  C   UNL     1      10.152  -5.423  11.924  1.00  0.00     0.134 A 
ATOM     56  C   UNL     1      11.989  -5.237  10.396  1.00  0.00     0.134 A 
ATOM     57  F   UNL     1       8.843  -5.349  12.212  1.00  0.00    -0.206 F 
ATOM     58  C   UNL     1      11.037  -5.719  12.960  1.00  0.00     0.040 A 
ATOM     59  C   UNL     1      12.880  -5.567  11.416  1.00  0.00     0.040 A 
ATOM     60  F   UNL     1      12.490  -5.003   9.174  1.00  0.00    -0.206 F 
ATOM     61  C   UNL     1      12.405  -5.802  12.704  1.00  0.00     0.006 A 
ENDBRANCH  37  54
ENDBRANCH  11  12
ENDBRANCH   4   6
ENDBRANCH   3   4
ENDBRANCH   2   3
ENDBRANCH   1   2
BRANCH   1  62
ATOM     62  O   UNL     1       2.611   1.003   0.949  1.00  0.00    -0.462 OA
BRANCH  62  63
ATOM     63  C   UNL     1       1.682   1.748   1.612  1.00  0.00     0.310 C 
ATOM     64  O   UNL     1       1.042   2.658   1.110  1.00  0.00    -0.252 OA
BRANCH  63  65
ATOM     65  C   UNL     1       1.543   1.419   3.074  1.00  0.00     0.119 C 
ATOM     66  C   UNL     1       2.555   2.149   4.000  1.00  0.00     0.100 C 
ATOM     67  C   UNL     1       1.649  -0.059   3.508  1.00  0.00     0.027 C 
ATOM     68  C   UNL     1       3.049   1.016   4.908  1.00  0.00     0.025 C 
ATOM     69  C   UNL     1       1.074  -0.205   4.898  1.00  0.00    -0.027 C 
ATOM     70  C   UNL     1       3.100  -0.149   3.938  1.00  0.00     0.017 C 
ATOM     71  C   UNL     1       1.895   0.454   5.735  1.00  0.00    -0.027 C 
BRANCH  66  72
ATOM     72  C   UNL     1       3.550   3.159   3.386  1.00  0.00     0.224 C 
ATOM     73  O   UNL     1       3.271   4.362   3.541  1.00  0.00    -0.275 OA
ATOM     74  N   UNL     1       4.677   2.995   2.661  1.00  0.00    -0.352 N 
ATOM     75  H   UNL     1       4.944   3.849   2.252  1.00  0.00     0.163 HD
BRANCH  74  76
ATOM     76  C   UNL     1       5.619   1.946   2.297  1.00  0.00     0.153 C 
BRANCH  76  77
ATOM     77  C   UNL     1       6.184   2.010   0.892  1.00  0.00    -0.010 A 
ATOM     78  C   UNL     1       5.976   3.045  -0.019  1.00  0.00     0.009 A 
ATOM     79  C   UNL     1       6.933   0.931   0.419  1.00  0.00     0.116 A 
ATOM     80  C   UNL     1       6.375   2.897  -1.352  1.00  0.00     0.020 A 
ATOM     81  N   UNL     1       7.297   0.738  -0.870  1.00  0.00    -0.264 NA
ATOM     82  C   UNL     1       6.991   1.719  -1.737  1.00  0.00     0.111 A 
ENDBRANCH  76  77
ENDBRANCH  74  76
ENDBRANCH  66  72
ENDBRANCH  63  65
ENDBRANCH  62  63
ENDBRANCH   1  62
TORSDOF 14
