REMARK SMILES C[C@@H](Oc1ccc(/C=N/NC(=O)c2ccc(I)c(O)c2)cc1)C(=O)OCCOC(=O)c1ccc(-c2c3nc(c(-c4c(F)cccc4F)c4ccc([nH]4)c(-c4c(F)cccc4F)c4nc(c(-c5c(F)cccc5F)c5ccc2[nH]5)C=C4)C=C3)cc1
REMARK SMILES IDX 23 1 24 2 2 3 1 4 3 5 4 6 5 7 22 8 6 9 21 10 7 11 8 12 9 13
REMARK SMILES IDX 10 14 11 15 12 17 13 18 14 19 20 20 15 21 18 22 16 23 17 24
REMARK SMILES IDX 19 25 25 27 26 28 27 29 28 30 29 31 30 32 31 33 32 34 84 35
REMARK SMILES IDX 33 36 83 37 34 38 35 39 36 40 77 41 37 42 82 43 76 44 78 45
REMARK SMILES IDX 38 46 81 47 75 48 74 49 39 51 65 52 48 53 64 54 49 55 52 56
REMARK SMILES IDX 63 57 79 58 50 59 51 60 62 62 80 63 53 64 40 65 41 66 46 67
REMARK SMILES IDX 42 68 43 69 45 70 47 71 44 72 66 73 67 74 72 75 68 76 69 77
REMARK SMILES IDX 71 78 73 79 70 80 54 81 55 82 60 83 56 84 57 85 59 86 61 87
REMARK SMILES IDX 58 88
REMARK H PARENT 10 16 19 26 78 50 52 61
REMARK Flexibility Score: inf
ROOT
ATOM      1  C   UNL     1      -0.923   0.198   1.959  1.00  0.00     0.347 C 
ATOM      2  O   UNL     1      -1.274  -0.470   2.925  1.00  0.00    -0.248 OA
ENDROOT
BRANCH   1   3
ATOM      3  C   UNL     1       0.535   0.317   1.512  1.00  0.00     0.279 C 
ATOM      4  C   UNL     1       0.636   0.394  -0.012  1.00  0.00     0.066 C 
BRANCH   3   5
ATOM      5  O   UNL     1       1.119   1.462   2.145  1.00  0.00    -0.479 OA
BRANCH   5   6
ATOM      6  C   UNL     1       2.429   1.245   2.480  1.00  0.00     0.120 A 
ATOM      7  C   UNL     1       2.774   1.173   3.831  1.00  0.00     0.047 A 
ATOM      8  C   UNL     1       3.413   1.172   1.495  1.00  0.00     0.047 A 
ATOM      9  C   UNL     1       4.114   1.008   4.198  1.00  0.00     0.013 A 
ATOM     10  C   UNL     1       4.736   0.945   1.852  1.00  0.00     0.013 A 
ATOM     11  C   UNL     1       5.083   0.882   3.202  1.00  0.00    -0.005 A 
BRANCH  11  12
ATOM     12  C   UNL     1       6.516   0.800   3.511  1.00  0.00     0.141 C 
ATOM     13  N   UNL     1       7.057   1.596   4.377  1.00  0.00    -0.180 NA
BRANCH  13  14
ATOM     14  N   UNL     1       8.423   1.606   4.436  1.00  0.00    -0.243 N 
ATOM     15  C   UNL     1       9.342   1.685   3.399  1.00  0.00     0.271 C 
ATOM     16  H   UNL     1       8.809   1.549   5.340  1.00  0.00     0.194 HD
ATOM     17  O   UNL     1      10.549   1.604   3.621  1.00  0.00    -0.267 OA
BRANCH  15  18
ATOM     18  C   UNL     1       8.894   1.874   1.997  1.00  0.00     0.045 A 
ATOM     19  C   UNL     1       9.457   1.059   1.007  1.00  0.00     0.015 A 
ATOM     20  C   UNL     1       7.925   2.826   1.655  1.00  0.00     0.061 A 
ATOM     21  C   UNL     1       9.007   1.147  -0.312  1.00  0.00     0.019 A 
ATOM     22  C   UNL     1       7.467   2.900   0.338  1.00  0.00     0.129 A 
ATOM     23  C   UNL     1       8.000   2.058  -0.645  1.00  0.00     0.055 A 
ATOM     24  I   UNL     1       7.306   2.084  -2.617  1.00  0.00    -0.040 I 
BRANCH  22  25
ATOM     25  O   UNL     1       6.460   3.770   0.025  1.00  0.00    -0.507 OA
ATOM     26  H   UNL     1       6.146   3.826  -0.856  1.00  0.00     0.293 HD
ENDBRANCH  22  25
ENDBRANCH  15  18
ENDBRANCH  13  14
ENDBRANCH  11  12
ENDBRANCH   5   6
ENDBRANCH   3   5
ENDBRANCH   1   3
BRANCH   1  27
ATOM     27  O   UNL     1      -1.765   0.889   1.141  1.00  0.00    -0.459 OA
BRANCH  27  28
ATOM     28  C   UNL     1      -3.174   0.672   1.338  1.00  0.00     0.274 C 
BRANCH  28  29
ATOM     29  C   UNL     1      -3.690  -0.355   0.331  1.00  0.00     0.275 C 
BRANCH  29  30
ATOM     30  O   UNL     1      -3.114  -1.649   0.601  1.00  0.00    -0.458 OA
BRANCH  30  31
ATOM     31  C   UNL     1      -2.344  -2.175  -0.378  1.00  0.00     0.338 C 
ATOM     32  O   UNL     1      -2.095  -1.706  -1.473  1.00  0.00    -0.246 OA
BRANCH  31  33
ATOM     33  C   UNL     1      -1.769  -3.440   0.099  1.00  0.00     0.060 A 
ATOM     34  C   UNL     1      -0.539  -3.425   0.760  1.00  0.00     0.016 A 
ATOM     35  C   UNL     1      -2.409  -4.646  -0.190  1.00  0.00     0.016 A 
ATOM     36  C   UNL     1       0.065  -4.626   1.131  1.00  0.00     0.010 A 
ATOM     37  C   UNL     1      -1.812  -5.847   0.202  1.00  0.00     0.010 A 
ATOM     38  C   UNL     1      -0.566  -5.846   0.853  1.00  0.00    -0.014 A 
BRANCH  38  39
ATOM     39  C   UNL     1       0.088  -7.127   1.216  1.00  0.00     0.031 A 
ATOM     40  C   UNL     1       0.682  -7.999   0.147  1.00  0.00     0.074 A 
ATOM     41  C   UNL     1       0.144  -7.509   2.505  1.00  0.00     0.049 A 
ATOM     42  N   UNL     1       1.206  -9.193   0.251  1.00  0.00    -0.248 NA
ATOM     43  C   UNL     1       0.683  -7.456  -1.220  1.00  0.00     0.031 C 
ATOM     44  C   UNL     1      -0.369  -6.740   3.638  1.00  0.00     0.029 A 
ATOM     45  N   UNL     1       0.653  -8.649   3.075  1.00  0.00    -0.354 N 
ATOM     46  C   UNL     1       1.583  -9.554  -1.036  1.00  0.00     0.074 A 
ATOM     47  C   UNL     1       1.215  -8.457  -1.907  1.00  0.00     0.031 C 
ATOM     48  C   UNL     1      -0.152  -7.431   4.769  1.00  0.00     0.029 A 
ATOM     49  C   UNL     1       0.478  -8.705   4.436  1.00  0.00     0.049 A 
ATOM     50  H   UNL     1       1.100  -9.357   2.559  1.00  0.00     0.167 HD
ATOM     51  C   UNL     1       2.184 -10.694  -1.452  1.00  0.00     0.037 A 
ATOM     52  C   UNL     1       0.767  -9.686   5.311  1.00  0.00     0.037 A 
ATOM     53  C   UNL     1       2.563 -11.780  -0.587  1.00  0.00     0.049 A 
ATOM     54  C   UNL     1       1.393 -10.960   4.817  1.00  0.00     0.074 A 
ATOM     55  C   UNL     1       3.189 -12.970  -0.917  1.00  0.00     0.029 A 
ATOM     56  N   UNL     1       2.353 -11.806   0.783  1.00  0.00    -0.354 N 
ATOM     57  N   UNL     1       1.739 -11.291   3.598  1.00  0.00    -0.248 NA
ATOM     58  C   UNL     1       1.661 -11.999   5.822  1.00  0.00     0.031 C 
ATOM     59  C   UNL     1       3.332 -13.729   0.250  1.00  0.00     0.029 A 
ATOM     60  C   UNL     1       2.824 -12.997   1.311  1.00  0.00     0.049 A 
ATOM     61  H   UNL     1       1.931 -11.085   1.304  1.00  0.00     0.167 HD
ATOM     62  C   UNL     1       2.277 -12.567   3.689  1.00  0.00     0.074 A 
ATOM     63  C   UNL     1       2.226 -12.946   5.086  1.00  0.00     0.031 C 
ATOM     64  C   UNL     1       2.766 -13.357   2.703  1.00  0.00     0.037 A 
BRANCH  51  65
ATOM     65  C   UNL     1       2.454 -10.835  -2.919  1.00  0.00     0.057 A 
ATOM     66  C   UNL     1       3.505 -10.153  -3.543  1.00  0.00     0.134 A 
ATOM     67  C   UNL     1       1.677 -11.693  -3.708  1.00  0.00     0.134 A 
ATOM     68  F   UNL     1       4.276  -9.306  -2.844  1.00  0.00    -0.206 F 
ATOM     69  C   UNL     1       3.768 -10.310  -4.905  1.00  0.00     0.040 A 
ATOM     70  C   UNL     1       1.941 -11.872  -5.067  1.00  0.00     0.040 A 
ATOM     71  F   UNL     1       0.657 -12.377  -3.168  1.00  0.00    -0.206 F 
ATOM     72  C   UNL     1       2.988 -11.176  -5.670  1.00  0.00     0.006 A 
ENDBRANCH  51  65
BRANCH  52  73
ATOM     73  C   UNL     1       0.448  -9.512   6.749  1.00  0.00     0.057 A 
ATOM     74  C   UNL     1       1.460  -9.322   7.696  1.00  0.00     0.134 A 
ATOM     75  C   UNL     1      -0.873  -9.544   7.209  1.00  0.00     0.134 A 
ATOM     76  F   UNL     1       2.746  -9.306   7.315  1.00  0.00    -0.206 F 
ATOM     77  C   UNL     1       1.171  -9.181   9.053  1.00  0.00     0.040 A 
ATOM     78  C   UNL     1      -1.179  -9.383   8.561  1.00  0.00     0.040 A 
ATOM     79  F   UNL     1      -1.886  -9.724   6.348  1.00  0.00    -0.206 F 
ATOM     80  C   UNL     1      -0.154  -9.206   9.488  1.00  0.00     0.006 A 
ENDBRANCH  52  73
BRANCH  64  81
ATOM     81  C   UNL     1       3.303 -14.697   3.107  1.00  0.00     0.057 A 
ATOM     82  C   UNL     1       2.453 -15.761   3.431  1.00  0.00     0.134 A 
ATOM     83  C   UNL     1       4.683 -14.931   3.149  1.00  0.00     0.134 A 
ATOM     84  F   UNL     1       1.121 -15.593   3.424  1.00  0.00    -0.206 F 
ATOM     85  C   UNL     1       2.957 -17.008   3.802  1.00  0.00     0.040 A 
ATOM     86  C   UNL     1       5.199 -16.179   3.499  1.00  0.00     0.040 A 
ATOM     87  F   UNL     1       5.549 -13.953   2.845  1.00  0.00    -0.206 F 
ATOM     88  C   UNL     1       4.334 -17.221   3.832  1.00  0.00     0.006 A 
ENDBRANCH  64  81
ENDBRANCH  38  39
ENDBRANCH  31  33
ENDBRANCH  30  31
ENDBRANCH  29  30
ENDBRANCH  28  29
ENDBRANCH  27  28
ENDBRANCH   1  27
TORSDOF 17
