REMARK SMILES O=C(OCCOC(=O)C1(NC(=O)c2nc(C3CC3)n[nH]2)CCCCC1)c1ccc(-c2c3nc(c(-c4c(F)cccc4F)c4ccc([nH]4)c(-c4c(F)cccc4F)c4nc(c(-c5c(F)cccc5F)c5ccc2[nH]5)C=C4)C=C3)cc1
REMARK SMILES IDX 5 1 4 2 3 3 2 4 1 5 26 6 27 7 79 8 28 9 78 10 29 11 30 12
REMARK SMILES IDX 31 13 72 14 32 15 77 16 71 17 73 18 33 19 76 20 70 21 69 22
REMARK SMILES IDX 34 24 60 25 43 26 59 27 44 28 47 29 58 30 74 31 45 32 46 33
REMARK SMILES IDX 57 35 75 36 48 37 35 38 36 39 41 40 37 41 38 42 40 43 42 44
REMARK SMILES IDX 39 45 61 46 62 47 67 48 63 49 64 50 66 51 68 52 65 53 49 54
REMARK SMILES IDX 50 55 55 56 51 57 52 58 54 59 56 60 53 61 6 62 7 63 8 64
REMARK SMILES IDX 9 65 21 66 25 67 22 68 24 69 23 70 10 71 11 72 12 74 13 75
REMARK SMILES IDX 14 76 20 77 15 78 19 79 16 81 17 82 18 83
REMARK H PARENT 73 23 47 34 10 73 20 80
REMARK Flexibility Score: inf
ROOT
ATOM      1  C   UNL     1       5.793   0.450   2.295  1.00  0.00     0.274 C 
ENDROOT
BRANCH   1   2
ATOM      2  C   UNL     1       4.981   2.116   1.801  1.00  0.00     0.275 C 
BRANCH   2   3
ATOM      3  O   UNL     1       3.403   2.241   0.857  1.00  0.00    -0.458 OA
BRANCH   3   4
ATOM      4  C   UNL     1       2.534   1.268  -0.160  1.00  0.00     0.338 C 
ATOM      5  O   UNL     1       1.426   1.692  -0.498  1.00  0.00    -0.246 OA
BRANCH   4   6
ATOM      6  C   UNL     1       2.983  -0.417  -0.771  1.00  0.00     0.060 A 
ATOM      7  C   UNL     1       4.492  -1.501  -0.336  1.00  0.00     0.016 A 
ATOM      8  C   UNL     1       2.033  -0.979  -2.207  1.00  0.00     0.016 A 
ATOM      9  C   UNL     1       5.066  -2.849  -1.403  1.00  0.00     0.010 A 
ATOM     10  C   UNL     1       2.571  -2.418  -3.201  1.00  0.00     0.010 A 
ATOM     11  C   UNL     1       4.099  -3.313  -2.812  1.00  0.00    -0.014 A 
BRANCH  11  12
ATOM     12  C   UNL     1       4.735  -4.467  -3.542  1.00  0.00     0.031 A 
ATOM     13  C   UNL     1       5.563  -4.289  -4.780  1.00  0.00     0.074 A 
ATOM     14  C   UNL     1       4.963  -5.620  -2.869  1.00  0.00     0.049 A 
ATOM     15  N   UNL     1       6.304  -5.181  -5.393  1.00  0.00    -0.248 NA
ATOM     16  C   UNL     1       5.689  -2.937  -5.329  1.00  0.00     0.031 C 
ATOM     17  C   UNL     1       4.695  -5.783  -1.459  1.00  0.00     0.029 A 
ATOM     18  N   UNL     1       5.512  -6.837  -3.187  1.00  0.00    -0.354 N 
ATOM     19  C   UNL     1       7.009  -4.492  -6.366  1.00  0.00     0.074 A 
ATOM     20  C   UNL     1       6.603  -3.107  -6.276  1.00  0.00     0.031 C 
ATOM     21  C   UNL     1       4.923  -7.021  -1.034  1.00  0.00     0.029 A 
ATOM     22  C   UNL     1       5.384  -7.769  -2.174  1.00  0.00     0.049 A 
ATOM     23  H   UNL     1       5.952  -7.026  -4.047  1.00  0.00     0.167 HD
ATOM     24  C   UNL     1       7.916  -4.976  -7.246  1.00  0.00     0.037 A 
ATOM     25  C   UNL     1       5.584  -9.095  -2.133  1.00  0.00     0.037 A 
ATOM     26  C   UNL     1       8.315  -6.358  -7.324  1.00  0.00     0.049 A 
ATOM     27  C   UNL     1       6.298  -9.685  -3.288  1.00  0.00     0.074 A 
ATOM     28  C   UNL     1       9.140  -6.965  -8.255  1.00  0.00     0.029 A 
ATOM     29  N   UNL     1       7.917  -7.351  -6.439  1.00  0.00    -0.354 N 
ATOM     30  N   UNL     1       6.838  -9.046  -4.294  1.00  0.00    -0.248 NA
ATOM     31  C   UNL     1       6.483 -11.135  -3.302  1.00  0.00     0.031 C 
ATOM     32  C   UNL     1       9.183  -8.335  -7.975  1.00  0.00     0.029 A 
ATOM     33  C   UNL     1       8.422  -8.579  -6.843  1.00  0.00     0.049 A 
ATOM     34  H   UNL     1       7.357  -7.206  -5.642  1.00  0.00     0.167 HD
ATOM     35  C   UNL     1       7.464 -10.010  -5.052  1.00  0.00     0.074 A 
ATOM     36  C   UNL     1       7.238 -11.279  -4.383  1.00  0.00     0.031 C 
ATOM     37  C   UNL     1       8.173  -9.839  -6.190  1.00  0.00     0.037 A 
BRANCH  24  38
ATOM     38  C   UNL     1       8.443  -4.016  -8.269  1.00  0.00     0.057 A 
ATOM     39  C   UNL     1       9.453  -3.088  -7.991  1.00  0.00     0.134 A 
ATOM     40  C   UNL     1       7.913  -4.030  -9.565  1.00  0.00     0.134 A 
ATOM     41  F   UNL     1       9.985  -3.007  -6.762  1.00  0.00    -0.206 F 
ATOM     42  C   UNL     1       9.909  -2.198  -8.967  1.00  0.00     0.040 A 
ATOM     43  C   UNL     1       8.371  -3.158 -10.552  1.00  0.00     0.040 A 
ATOM     44  F   UNL     1       6.938  -4.892  -9.890  1.00  0.00    -0.206 F 
ATOM     45  C   UNL     1       9.370  -2.235 -10.253  1.00  0.00     0.006 A 
ENDBRANCH  24  38
BRANCH  25  46
ATOM     46  C   UNL     1       5.040  -9.898  -1.007  1.00  0.00     0.057 A 
ATOM     47  C   UNL     1       5.847 -10.626  -0.130  1.00  0.00     0.134 A 
ATOM     48  C   UNL     1       3.651  -9.949  -0.790  1.00  0.00     0.134 A 
ATOM     49  F   UNL     1       7.180 -10.616  -0.272  1.00  0.00    -0.206 F 
ATOM     50  C   UNL     1       5.296 -11.398   0.898  1.00  0.00     0.040 A 
ATOM     51  C   UNL     1       3.090 -10.695   0.245  1.00  0.00     0.040 A 
ATOM     52  F   UNL     1       2.815  -9.258  -1.582  1.00  0.00    -0.206 F 
ATOM     53  C   UNL     1       3.915 -11.434   1.087  1.00  0.00     0.006 A 
ENDBRANCH  25  46
BRANCH  37  54
ATOM     54  C   UNL     1       8.744 -11.080  -6.787  1.00  0.00     0.057 A 
ATOM     55  C   UNL     1       7.927 -12.018  -7.429  1.00  0.00     0.134 A 
ATOM     56  C   UNL     1      10.115 -11.345  -6.709  1.00  0.00     0.134 A 
ATOM     57  F   UNL     1       6.601 -11.828  -7.501  1.00  0.00    -0.206 F 
ATOM     58  C   UNL     1       8.455 -13.192  -7.960  1.00  0.00     0.040 A 
ATOM     59  C   UNL     1      10.658 -12.503  -7.260  1.00  0.00     0.040 A 
ATOM     60  F   UNL     1      10.943 -10.485  -6.097  1.00  0.00    -0.206 F 
ATOM     61  C   UNL     1       9.826 -13.433  -7.882  1.00  0.00     0.006 A 
ENDBRANCH  37  54
ENDBRANCH  11  12
ENDBRANCH   4   6
ENDBRANCH   3   4
ENDBRANCH   2   3
ENDBRANCH   1   2
BRANCH   1  62
ATOM     62  O   UNL     1       5.225  -1.254   2.127  1.00  0.00    -0.460 OA
BRANCH  62  63
ATOM     63  C   UNL     1       4.098  -2.247   2.080  1.00  0.00     0.331 C 
ATOM     64  O   UNL     1       3.902  -2.859   3.144  1.00  0.00    -0.249 OA
BRANCH  63  65
ATOM     65  C   UNL     1       2.961  -2.717   0.651  1.00  0.00     0.138 C 
ATOM     66  C   UNL     1       2.946  -4.290   0.882  1.00  0.00     0.040 C 
ATOM     67  C   UNL     1       1.407  -2.421   0.931  1.00  0.00     0.040 C 
ATOM     68  C   UNL     1       2.038  -5.129  -0.022  1.00  0.00     0.003 C 
ATOM     69  C   UNL     1       0.401  -3.234   0.063  1.00  0.00     0.003 C 
ATOM     70  C   UNL     1       0.584  -4.743   0.125  1.00  0.00     0.000 C 
BRANCH  65  71
ATOM     71  N   UNL     1       3.102  -2.403  -1.167  1.00  0.00    -0.333 N 
ATOM     72  C   UNL     1       4.179  -1.167  -2.281  1.00  0.00     0.289 C 
ATOM     73  H   UNL     1       2.509  -2.980  -1.701  1.00  0.00     0.165 HD
ATOM     74  O   UNL     1       4.101  -0.929  -3.509  1.00  0.00    -0.266 OA
BRANCH  72  75
ATOM     75  C   UNL     1       5.382  -0.033  -1.752  1.00  0.00     0.214 A 
ATOM     76  N   UNL     1       5.915   0.088  -0.505  1.00  0.00    -0.207 NA
ATOM     77  N   UNL     1       5.128   1.287  -2.021  1.00  0.00    -0.255 N 
ATOM     78  C   UNL     1       4.895   0.797   0.108  1.00  0.00     0.154 A 
ATOM     79  N   UNL     1       4.748   1.831  -0.834  1.00  0.00    -0.158 NA
ATOM     80  H   UNL     1       5.205   1.745  -2.889  1.00  0.00     0.192 HD
BRANCH  78  81
ATOM     81  C   UNL     1       3.589   0.278   1.625  1.00  0.00     0.060 C 
ATOM     82  C   UNL     1       3.443  -0.068   3.177  1.00  0.00     0.012 C 
ATOM     83  C   UNL     1       2.946   1.249   2.848  1.00  0.00     0.012 C 
ENDBRANCH  78  81
ENDBRANCH  72  75
ENDBRANCH  65  71
ENDBRANCH  63  65
ENDBRANCH  62  63
ENDBRANCH   1  62
TORSDOF 14
