REMARK SMILES CCCCNC(=O)[C@]1(C)CC[C@@](C)(C(=O)OCCOC(=O)c2ccc(-c3c4nc(c(-c5c(F)cccc5F)c5ccc([nH]5)c(-c5c(F)cccc5F)c5nc(c(-c6c(F)cccc6F)c6ccc3[nH]6)C=C5)C=C4)cc2)C1(C)C
REMARK SMILES IDX 17 1 16 2 14 3 15 4 12 5 8 6 10 7 76 8 9 9 11 10 77 11 78 12
REMARK SMILES IDX 13 13 6 14 5 15 7 17 4 18 3 19 2 20 1 21 18 22 19 23 20 24
REMARK SMILES IDX 21 25 22 26 23 27 75 28 24 29 74 30 25 31 26 32 27 33 68 34
REMARK SMILES IDX 28 35 73 36 67 37 69 38 29 39 72 40 66 41 65 42 30 44 56 45
REMARK SMILES IDX 39 46 55 47 40 48 43 49 54 50 70 51 41 52 42 53 53 55 71 56
REMARK SMILES IDX 44 57 31 58 32 59 37 60 33 61 34 62 36 63 38 64 35 65 57 66
REMARK SMILES IDX 58 67 63 68 59 69 60 70 62 71 64 72 61 73 45 74 46 75 51 76
REMARK SMILES IDX 47 77 48 78 50 79 52 80 49 81
REMARK H PARENT 5 16 69 43 43 54
REMARK Flexibility Score: inf
ROOT
ATOM      1  C   UNL     1      -4.865  -8.089   3.459  1.00  0.00     0.274 C 
ENDROOT
BRANCH   1   2
ATOM      2  O   UNL     1      -3.549  -7.594   3.145  1.00  0.00    -0.462 OA
BRANCH   2   3
ATOM      3  C   UNL     1      -2.967  -6.771   4.065  1.00  0.00     0.312 C 
ATOM      4  O   UNL     1      -3.511  -6.400   5.097  1.00  0.00    -0.252 OA
BRANCH   3   5
ATOM      5  C   UNL     1      -1.526  -6.377   3.632  1.00  0.00     0.071 C 
ATOM      6  C   UNL     1      -0.829  -3.958   3.108  1.00  0.00     0.053 C 
ATOM      7  C   UNL     1      -1.116  -4.159   4.606  1.00  0.00     0.018 C 
ATOM      8  C   UNL     1      -1.501  -5.261   2.444  1.00  0.00    -0.005 C 
ATOM      9  C   UNL     1      -1.552  -2.646   2.666  1.00  0.00     0.022 C 
ATOM     10  C   UNL     1      -0.880  -5.638   4.847  1.00  0.00     0.020 C 
ATOM     11  C   UNL     1      -2.981  -4.959   2.014  1.00  0.00     0.013 C 
ATOM     12  C   UNL     1      -0.826  -5.624   1.101  1.00  0.00     0.013 C 
ATOM     13  C   UNL     1      -0.784  -7.728   3.429  1.00  0.00     0.024 C 
BRANCH   6  14
ATOM     14  C   UNL     1       0.706  -3.593   2.948  1.00  0.00     0.226 C 
ATOM     15  N   UNL     1       1.776  -4.415   2.888  1.00  0.00    -0.356 N 
ATOM     16  H   UNL     1       2.626  -3.920   2.900  1.00  0.00     0.163 HD
ATOM     17  O   UNL     1       1.051  -2.399   2.968  1.00  0.00    -0.274 OA
BRANCH  15  18
ATOM     18  C   UNL     1       1.978  -5.841   2.809  1.00  0.00     0.116 C 
BRANCH  18  19
ATOM     19  C   UNL     1       2.488  -6.299   1.441  1.00  0.00     0.021 C 
BRANCH  19  20
ATOM     20  C   UNL     1       4.003  -6.479   1.355  1.00  0.00    -0.002 C 
ATOM     21  C   UNL     1       4.503  -7.681   2.143  1.00  0.00     0.004 C 
ENDBRANCH  19  20
ENDBRANCH  18  19
ENDBRANCH  15  18
ENDBRANCH   6  14
ENDBRANCH   3   5
ENDBRANCH   2   3
ENDBRANCH   1   2
BRANCH   1  22
ATOM     22  C   UNL     1      -4.789  -9.590   3.709  1.00  0.00     0.275 C 
BRANCH  22  23
ATOM     23  O   UNL     1      -3.905  -9.828   4.819  1.00  0.00    -0.458 OA
BRANCH  23  24
ATOM     24  C   UNL     1      -2.946 -10.754   4.611  1.00  0.00     0.338 C 
ATOM     25  O   UNL     1      -2.804 -11.470   3.628  1.00  0.00    -0.246 OA
BRANCH  24  26
ATOM     26  C   UNL     1      -2.021 -10.796   5.757  1.00  0.00     0.060 A 
ATOM     27  C   UNL     1      -1.426  -9.629   6.240  1.00  0.00     0.016 A 
ATOM     28  C   UNL     1      -1.639 -12.039   6.261  1.00  0.00     0.016 A 
ATOM     29  C   UNL     1      -0.368  -9.713   7.146  1.00  0.00     0.010 A 
ATOM     30  C   UNL     1      -0.653 -12.111   7.246  1.00  0.00     0.010 A 
ATOM     31  C   UNL     1       0.028 -10.955   7.667  1.00  0.00    -0.014 A 
BRANCH  31  32
ATOM     32  C   UNL     1       1.170 -11.070   8.617  1.00  0.00     0.031 A 
ATOM     33  C   UNL     1       2.345 -11.954   8.283  1.00  0.00     0.074 A 
ATOM     34  C   UNL     1       1.147 -10.419   9.797  1.00  0.00     0.049 A 
ATOM     35  N   UNL     1       3.318 -12.368   9.055  1.00  0.00    -0.248 NA
ATOM     36  C   UNL     1       2.425 -12.457   6.901  1.00  0.00     0.031 C 
ATOM     37  C   UNL     1       0.088  -9.515  10.251  1.00  0.00     0.029 A 
ATOM     38  N   UNL     1       2.039 -10.433  10.842  1.00  0.00    -0.354 N 
ATOM     39  C   UNL     1       4.081 -13.232   8.277  1.00  0.00     0.074 A 
ATOM     40  C   UNL     1       3.465 -13.277   6.969  1.00  0.00     0.031 C 
ATOM     41  C   UNL     1       0.397  -9.050  11.470  1.00  0.00     0.029 A 
ATOM     42  C   UNL     1       1.633  -9.682  11.919  1.00  0.00     0.049 A 
ATOM     43  H   UNL     1       2.887 -10.932  10.821  1.00  0.00     0.167 HD
ATOM     44  C   UNL     1       5.191 -13.926   8.625  1.00  0.00     0.037 A 
ATOM     45  C   UNL     1       2.163  -9.553  13.150  1.00  0.00     0.037 A 
ATOM     46  C   UNL     1       5.849 -13.820   9.901  1.00  0.00     0.049 A 
ATOM     47  C   UNL     1       3.403 -10.322  13.505  1.00  0.00     0.074 A 
ATOM     48  C   UNL     1       7.014 -14.439  10.323  1.00  0.00     0.029 A 
ATOM     49  N   UNL     1       5.410 -13.034  10.954  1.00  0.00    -0.354 N 
ATOM     50  N   UNL     1       4.100 -11.152  12.768  1.00  0.00    -0.248 NA
ATOM     51  C   UNL     1       3.922 -10.149  14.870  1.00  0.00     0.031 C 
ATOM     52  C   UNL     1       7.265 -14.049  11.642  1.00  0.00     0.029 A 
ATOM     53  C   UNL     1       6.274 -13.161  12.029  1.00  0.00     0.049 A 
ATOM     54  H   UNL     1       4.604 -12.469  10.940  1.00  0.00     0.167 HD
ATOM     55  C   UNL     1       5.141 -11.593  13.574  1.00  0.00     0.074 A 
ATOM     56  C   UNL     1       4.999 -10.921  14.849  1.00  0.00     0.031 C 
ATOM     57  C   UNL     1       6.121 -12.482  13.288  1.00  0.00     0.037 A 
BRANCH  44  58
ATOM     58  C   UNL     1       5.763 -14.885   7.624  1.00  0.00     0.057 A 
ATOM     59  C   UNL     1       6.496 -14.455   6.513  1.00  0.00     0.134 A 
ATOM     60  C   UNL     1       5.636 -16.267   7.821  1.00  0.00     0.134 A 
ATOM     61  F   UNL     1       6.645 -13.146   6.261  1.00  0.00    -0.206 F 
ATOM     62  C   UNL     1       7.075 -15.366   5.626  1.00  0.00     0.040 A 
ATOM     63  C   UNL     1       6.227 -17.186   6.954  1.00  0.00     0.040 A 
ATOM     64  F   UNL     1       4.951 -16.744   8.871  1.00  0.00    -0.206 F 
ATOM     65  C   UNL     1       6.949 -16.736   5.851  1.00  0.00     0.006 A 
ENDBRANCH  44  58
BRANCH  45  66
ATOM     66  C   UNL     1       1.492  -8.696  14.159  1.00  0.00     0.057 A 
ATOM     67  C   UNL     1       2.067  -7.495  14.586  1.00  0.00     0.134 A 
ATOM     68  C   UNL     1       0.265  -9.064  14.725  1.00  0.00     0.134 A 
ATOM     69  F   UNL     1       3.253  -7.103  14.097  1.00  0.00    -0.206 F 
ATOM     70  C   UNL     1       1.454  -6.695  15.552  1.00  0.00     0.040 A 
ATOM     71  C   UNL     1      -0.372  -8.261  15.671  1.00  0.00     0.040 A 
ATOM     72  F   UNL     1      -0.338 -10.203  14.354  1.00  0.00    -0.206 F 
ATOM     73  C   UNL     1       0.227  -7.076  16.093  1.00  0.00     0.006 A 
ENDBRANCH  45  66
BRANCH  57  74
ATOM     74  C   UNL     1       7.126 -12.758  14.364  1.00  0.00     0.057 A 
ATOM     75  C   UNL     1       6.814 -13.552  15.474  1.00  0.00     0.134 A 
ATOM     76  C   UNL     1       8.426 -12.245  14.276  1.00  0.00     0.134 A 
ATOM     77  F   UNL     1       5.581 -14.060  15.621  1.00  0.00    -0.206 F 
ATOM     78  C   UNL     1       7.755 -13.810  16.471  1.00  0.00     0.040 A 
ATOM     79  C   UNL     1       9.381 -12.513  15.257  1.00  0.00     0.040 A 
ATOM     80  F   UNL     1       8.788 -11.482  13.234  1.00  0.00    -0.206 F 
ATOM     81  C   UNL     1       9.045 -13.293  16.361  1.00  0.00     0.006 A 
ENDBRANCH  57  74
ENDBRANCH  31  32
ENDBRANCH  24  26
ENDBRANCH  23  24
ENDBRANCH  22  23
ENDBRANCH   1  22
TORSDOF 15
