REMARK SMILES C[C@@H]1CN(C(=O)Nc2ccc(O)c(C(=O)OCCOC(=O)c3ccc(-c4c5nc(c(-c6c(F)cccc6F)c6ccc([nH]6)c(-c6c(F)cccc6F)c6nc(c(-c7c(F)cccc7F)c7ccc4[nH]7)C=C6)C=C5)cc3)c2)C[C@@H]1C
REMARK SMILES IDX 17 1 16 2 14 3 15 4 13 5 8 6 9 7 76 8 10 9 11 10 7 11 5 12
REMARK SMILES IDX 6 13 4 15 1 16 2 17 3 18 78 19 77 20 79 21 12 22 18 24 19 25
REMARK SMILES IDX 20 26 21 27 22 28 23 29 75 30 24 31 74 32 25 33 26 34 27 35
REMARK SMILES IDX 68 36 28 37 73 38 67 39 69 40 29 41 72 42 66 43 65 44 30 46
REMARK SMILES IDX 56 47 39 48 55 49 40 50 43 51 54 52 70 53 41 54 42 55 53 57
REMARK SMILES IDX 71 58 44 59 31 60 32 61 37 62 33 63 34 64 36 65 38 66 35 67
REMARK SMILES IDX 57 68 58 69 63 70 59 71 60 72 62 73 64 74 61 75 45 76 46 77
REMARK SMILES IDX 51 78 47 79 48 80 50 81 52 82 49 83
REMARK H PARENT 7 14 12 23 69 45 43 56
REMARK Flexibility Score: inf
ROOT
ATOM      1  C   UNL     1       8.999   2.377  -0.490  1.00  0.00     0.275 C 
ENDROOT
BRANCH   1   2
ATOM      2  O   UNL     1       7.707   2.542  -1.101  1.00  0.00    -0.458 OA
BRANCH   2   3
ATOM      3  C   UNL     1       6.632   2.470  -0.279  1.00  0.00     0.342 C 
ATOM      4  O   UNL     1       6.644   2.276   0.920  1.00  0.00    -0.246 OA
BRANCH   3   5
ATOM      5  C   UNL     1       5.402   2.864  -1.008  1.00  0.00     0.103 A 
ATOM      6  C   UNL     1       3.309   4.080  -0.907  1.00  0.00     0.044 A 
ATOM      7  C   UNL     1       3.059   3.771  -2.243  1.00  0.00     0.030 A 
ATOM      8  C   UNL     1       4.481   3.647  -0.298  1.00  0.00     0.045 A 
ATOM      9  C   UNL     1       3.957   2.966  -2.950  1.00  0.00     0.049 A 
ATOM     10  C   UNL     1       5.117   2.497  -2.326  1.00  0.00     0.130 A 
BRANCH   6  11
ATOM     11  N   UNL     1       2.424   4.849  -0.158  1.00  0.00    -0.308 N 
ATOM     12  C   UNL     1       1.116   4.654   0.155  1.00  0.00     0.321 C 
ATOM     13  O   UNL     1       0.505   5.614   0.632  1.00  0.00    -0.248 OA
ATOM     14  H   UNL     1       2.812   5.676   0.209  1.00  0.00     0.171 HD
BRANCH  12  15
ATOM     15  N   UNL     1       0.555   3.406   0.088  1.00  0.00    -0.324 N 
ATOM     16  C   UNL     1       0.685  -0.301   0.234  1.00  0.00     0.010 C 
ATOM     17  C   UNL     1       0.087   1.075  -0.014  1.00  0.00     0.010 C 
ATOM     18  C   UNL     1       1.151   2.135  -0.307  1.00  0.00     0.125 C 
ATOM     19  C   UNL     1      -0.710   1.701   1.140  1.00  0.00     0.010 C 
ATOM     20  C   UNL     1      -0.734   3.177   0.723  1.00  0.00     0.125 C 
ATOM     21  C   UNL     1      -0.068   1.510   2.516  1.00  0.00     0.010 C 
ENDBRANCH  12  15
ENDBRANCH   6  11
BRANCH  10  22
ATOM     22  O   UNL     1       5.940   1.642  -3.002  1.00  0.00    -0.507 OA
ATOM     23  H   UNL     1       5.742   1.401  -3.885  1.00  0.00     0.293 HD
ENDBRANCH  10  22
ENDBRANCH   3   5
ENDBRANCH   2   3
ENDBRANCH   1   2
BRANCH   1  24
ATOM     24  C   UNL     1       9.783   3.680  -0.617  1.00  0.00     0.275 C 
BRANCH  24  25
ATOM     25  O   UNL     1       9.144   4.689   0.190  1.00  0.00    -0.458 OA
BRANCH  25  26
ATOM     26  C   UNL     1       8.766   5.815  -0.452  1.00  0.00     0.338 C 
ATOM     27  O   UNL     1       8.980   6.130  -1.612  1.00  0.00    -0.246 OA
BRANCH  26  28
ATOM     28  C   UNL     1       7.970   6.643   0.467  1.00  0.00     0.060 A 
ATOM     29  C   UNL     1       6.708   6.191   0.843  1.00  0.00     0.016 A 
ATOM     30  C   UNL     1       8.407   7.903   0.864  1.00  0.00     0.016 A 
ATOM     31  C   UNL     1       5.844   7.021   1.554  1.00  0.00     0.010 A 
ATOM     32  C   UNL     1       7.569   8.707   1.650  1.00  0.00     0.010 A 
ATOM     33  C   UNL     1       6.263   8.293   1.974  1.00  0.00    -0.014 A 
BRANCH  33  34
ATOM     34  C   UNL     1       5.314   9.192   2.696  1.00  0.00     0.031 A 
ATOM     35  C   UNL     1       4.934  10.531   2.110  1.00  0.00     0.074 A 
ATOM     36  C   UNL     1       4.754   8.805   3.861  1.00  0.00     0.049 A 
ATOM     37  N   UNL     1       4.206  11.488   2.632  1.00  0.00    -0.248 NA
ATOM     38  C   UNL     1       5.448  10.841   0.767  1.00  0.00     0.031 C 
ATOM     39  C   UNL     1       5.000   7.531   4.539  1.00  0.00     0.029 A 
ATOM     40  N   UNL     1       3.845   9.440   4.673  1.00  0.00    -0.354 N 
ATOM     41  C   UNL     1       4.223  12.528   1.710  1.00  0.00     0.074 A 
ATOM     42  C   UNL     1       5.035  12.089   0.596  1.00  0.00     0.031 C 
ATOM     43  C   UNL     1       4.223   7.456   5.631  1.00  0.00     0.029 A 
ATOM     44  C   UNL     1       3.480   8.704   5.776  1.00  0.00     0.049 A 
ATOM     45  H   UNL     1       3.489  10.338   4.484  1.00  0.00     0.167 HD
ATOM     46  C   UNL     1       3.616  13.738   1.782  1.00  0.00     0.037 A 
ATOM     47  C   UNL     1       2.661   9.004   6.802  1.00  0.00     0.037 A 
ATOM     48  C   UNL     1       2.743  14.155   2.849  1.00  0.00     0.049 A 
ATOM     49  C   UNL     1       2.001  10.354   6.855  1.00  0.00     0.074 A 
ATOM     50  C   UNL     1       2.051  15.348   2.978  1.00  0.00     0.029 A 
ATOM     51  N   UNL     1       2.426  13.389   3.958  1.00  0.00    -0.354 N 
ATOM     52  N   UNL     1       2.056  11.336   5.990  1.00  0.00    -0.248 NA
ATOM     53  C   UNL     1       1.181  10.642   8.041  1.00  0.00     0.031 C 
ATOM     54  C   UNL     1       1.341  15.317   4.183  1.00  0.00     0.029 A 
ATOM     55  C   UNL     1       1.563  14.090   4.785  1.00  0.00     0.049 A 
ATOM     56  H   UNL     1       2.763  12.480   4.132  1.00  0.00     0.167 HD
ATOM     57  C   UNL     1       1.272  12.352   6.521  1.00  0.00     0.074 A 
ATOM     58  C   UNL     1       0.731  11.858   7.769  1.00  0.00     0.031 C 
ATOM     59  C   UNL     1       1.031  13.589   6.024  1.00  0.00     0.037 A 
BRANCH  46  60
ATOM     60  C   UNL     1       3.890  14.722   0.683  1.00  0.00     0.057 A 
ATOM     61  C   UNL     1       3.311  14.606  -0.586  1.00  0.00     0.134 A 
ATOM     62  C   UNL     1       4.697  15.842   0.927  1.00  0.00     0.134 A 
ATOM     63  F   UNL     1       2.538  13.552  -0.887  1.00  0.00    -0.206 F 
ATOM     64  C   UNL     1       3.535  15.563  -1.578  1.00  0.00     0.040 A 
ATOM     65  C   UNL     1       4.910  16.816  -0.049  1.00  0.00     0.040 A 
ATOM     66  F   UNL     1       5.275  16.017   2.125  1.00  0.00    -0.206 F 
ATOM     67  C   UNL     1       4.330  16.676  -1.308  1.00  0.00     0.006 A 
ENDBRANCH  46  60
BRANCH  47  68
ATOM     68  C   UNL     1       2.437   8.021   7.894  1.00  0.00     0.057 A 
ATOM     69  C   UNL     1       1.185   7.422   8.081  1.00  0.00     0.134 A 
ATOM     70  C   UNL     1       3.453   7.687   8.796  1.00  0.00     0.134 A 
ATOM     71  F   UNL     1       0.162   7.725   7.269  1.00  0.00    -0.206 F 
ATOM     72  C   UNL     1       0.949   6.538   9.136  1.00  0.00     0.040 A 
ATOM     73  C   UNL     1       3.239   6.784   9.838  1.00  0.00     0.040 A 
ATOM     74  F   UNL     1       4.673   8.230   8.674  1.00  0.00    -0.206 F 
ATOM     75  C   UNL     1       1.980   6.213  10.015  1.00  0.00     0.006 A 
ENDBRANCH  47  68
BRANCH  59  76
ATOM     76  C   UNL     1       0.131  14.481   6.826  1.00  0.00     0.057 A 
ATOM     77  C   UNL     1       0.559  15.076   8.019  1.00  0.00     0.134 A 
ATOM     78  C   UNL     1      -1.175  14.752   6.399  1.00  0.00     0.134 A 
ATOM     79  F   UNL     1       1.794  14.844   8.490  1.00  0.00    -0.206 F 
ATOM     80  C   UNL     1      -0.289  15.887   8.775  1.00  0.00     0.040 A 
ATOM     81  C   UNL     1      -2.025  15.580   7.134  1.00  0.00     0.040 A 
ATOM     82  F   UNL     1      -1.644  14.219   5.261  1.00  0.00    -0.206 F 
ATOM     83  C   UNL     1      -1.584  16.144   8.330  1.00  0.00     0.006 A 
ENDBRANCH  59  76
ENDBRANCH  33  34
ENDBRANCH  26  28
ENDBRANCH  25  26
ENDBRANCH  24  25
ENDBRANCH   1  24
TORSDOF 14
