REMARK SMILES Cc1cc(C(=O)N2C[C@@H](C(=O)OCCOC(=O)c3ccc(-c4c5nc(c(-c6c(F)cccc6F)c6ccc([nH]6)c(-c6c(F)cccc6F)c6nc(c(-c7c(F)cccc7F)c7ccc4[nH]7)C=C6)C=C5)cc3)[C@H](C3CC3)C2)sc1C
REMARK SMILES IDX 13 1 12 2 10 3 11 4 9 5 7 6 8 7 76 8 72 9 5 10 6 11 4 12
REMARK SMILES IDX 1 13 2 14 3 15 78 16 77 17 79 18 73 19 74 20 75 21 14 22
REMARK SMILES IDX 15 23 16 24 17 25 18 26 19 27 71 28 20 29 70 30 21 31 22 32
REMARK SMILES IDX 23 33 64 34 24 35 69 36 63 37 65 38 25 39 68 40 62 41 61 42
REMARK SMILES IDX 26 44 52 45 35 46 51 47 36 48 39 49 50 50 66 51 37 52 38 53
REMARK SMILES IDX 49 55 67 56 40 57 27 58 28 59 33 60 29 61 30 62 32 63 34 64
REMARK SMILES IDX 31 65 53 66 54 67 59 68 55 69 56 70 58 71 60 72 57 73 41 74
REMARK SMILES IDX 42 75 47 76 43 77 44 78 46 79 48 80 45 81
REMARK H PARENT 65 43 39 54
REMARK Flexibility Score: inf
ROOT
ATOM      1  C   UNL     1       7.876   1.626   1.458  1.00  0.00     0.274 C 
ENDROOT
BRANCH   1   2
ATOM      2  O   UNL     1       6.709   1.268   0.688  1.00  0.00    -0.462 OA
BRANCH   2   3
ATOM      3  C   UNL     1       6.528  -0.060   0.454  1.00  0.00     0.311 C 
ATOM      4  O   UNL     1       7.218  -0.953   0.928  1.00  0.00    -0.252 OA
BRANCH   3   5
ATOM      5  C   UNL     1       5.377  -0.297  -0.493  1.00  0.00     0.124 C 
ATOM      6  N   UNL     1       3.487  -1.603  -0.855  1.00  0.00    -0.337 N 
ATOM      7  C   UNL     1       4.169  -0.894   0.207  1.00  0.00     0.135 C 
ATOM      8  C   UNL     1       4.455  -2.164  -1.770  1.00  0.00     0.124 C 
ATOM      9  C   UNL     1       5.749  -1.354  -1.559  1.00  0.00     0.028 C 
BRANCH   6  10
ATOM     10  C   UNL     1       2.161  -2.004  -0.916  1.00  0.00     0.263 C 
ATOM     11  O   UNL     1       1.887  -3.089  -1.436  1.00  0.00    -0.268 OA
BRANCH  10  12
ATOM     12  C   UNL     1       1.107  -1.106  -0.458  1.00  0.00     0.093 A 
ATOM     13  C   UNL     1      -2.538  -0.496   0.286  1.00  0.00     0.045 C 
ATOM     14  C   UNL     1      -1.073  -0.350   0.036  1.00  0.00    -0.037 A 
ATOM     15  C   UNL     1      -0.191  -1.468  -0.144  1.00  0.00     0.029 A 
ATOM     16  C   UNL     1      -0.383   0.844  -0.096  1.00  0.00     0.005 A 
ATOM     17  S   UNL     1       1.256   0.595  -0.507  1.00  0.00    -0.135 S 
ATOM     18  C   UNL     1      -0.902   2.240   0.011  1.00  0.00     0.056 C 
ENDBRANCH  10  12
ENDBRANCH   6  10
BRANCH   9  19
ATOM     19  C   UNL     1       6.297  -0.827  -2.864  1.00  0.00    -0.005 C 
ATOM     20  C   UNL     1       6.296   0.622  -3.296  1.00  0.00     0.004 C 
ATOM     21  C   UNL     1       7.582  -0.035  -2.878  1.00  0.00     0.004 C 
ENDBRANCH   9  19
ENDBRANCH   3   5
ENDBRANCH   2   3
ENDBRANCH   1   2
BRANCH   1  22
ATOM     22  C   UNL     1       7.510   1.989   2.894  1.00  0.00     0.275 C 
BRANCH  22  23
ATOM     23  O   UNL     1       7.023   0.828   3.590  1.00  0.00    -0.458 OA
BRANCH  23  24
ATOM     24  C   UNL     1       5.704   0.833   3.872  1.00  0.00     0.338 C 
ATOM     25  O   UNL     1       4.893   1.719   3.646  1.00  0.00    -0.246 OA
BRANCH  24  26
ATOM     26  C   UNL     1       5.314  -0.456   4.455  1.00  0.00     0.060 A 
ATOM     27  C   UNL     1       5.251  -1.571   3.625  1.00  0.00     0.016 A 
ATOM     28  C   UNL     1       4.840  -0.526   5.763  1.00  0.00     0.016 A 
ATOM     29  C   UNL     1       4.601  -2.724   4.050  1.00  0.00     0.010 A 
ATOM     30  C   UNL     1       4.286  -1.725   6.227  1.00  0.00     0.010 A 
ATOM     31  C   UNL     1       4.115  -2.821   5.360  1.00  0.00    -0.014 A 
BRANCH  31  32
ATOM     32  C   UNL     1       3.370  -4.034   5.796  1.00  0.00     0.031 A 
ATOM     33  C   UNL     1       1.954  -3.909   6.294  1.00  0.00     0.074 A 
ATOM     34  C   UNL     1       3.935  -5.255   5.717  1.00  0.00     0.049 A 
ATOM     35  N   UNL     1       1.210  -4.795   6.905  1.00  0.00    -0.248 NA
ATOM     36  C   UNL     1       1.294  -2.608   6.094  1.00  0.00     0.031 C 
ATOM     37  C   UNL     1       5.273  -5.543   5.198  1.00  0.00     0.029 A 
ATOM     38  N   UNL     1       3.442  -6.490   6.060  1.00  0.00    -0.354 N 
ATOM     39  C   UNL     1       0.029  -4.139   7.231  1.00  0.00     0.074 A 
ATOM     40  C   UNL     1       0.148  -2.784   6.735  1.00  0.00     0.031 C 
ATOM     41  C   UNL     1       5.474  -6.870   5.208  1.00  0.00     0.029 A 
ATOM     42  C   UNL     1       4.319  -7.519   5.818  1.00  0.00     0.049 A 
ATOM     43  H   UNL     1       2.546  -6.625   6.444  1.00  0.00     0.167 HD
ATOM     44  C   UNL     1      -1.050  -4.622   7.891  1.00  0.00     0.037 A 
ATOM     45  C   UNL     1       4.225  -8.834   6.091  1.00  0.00     0.037 A 
ATOM     46  C   UNL     1      -1.200  -5.990   8.310  1.00  0.00     0.049 A 
ATOM     47  C   UNL     1       3.012  -9.351   6.807  1.00  0.00     0.074 A 
ATOM     48  C   UNL     1      -2.254  -6.576   8.990  1.00  0.00     0.029 A 
ATOM     49  N   UNL     1      -0.280  -6.995   8.056  1.00  0.00    -0.354 N 
ATOM     50  N   UNL     1       1.950  -8.697   7.209  1.00  0.00    -0.248 NA
ATOM     51  C   UNL     1       2.999 -10.784   7.134  1.00  0.00     0.031 C 
ATOM     52  C   UNL     1      -1.965  -7.935   9.160  1.00  0.00     0.029 A 
ATOM     53  C   UNL     1      -0.743  -8.198   8.562  1.00  0.00     0.049 A 
ATOM     54  H   UNL     1       0.576  -6.872   7.587  1.00  0.00     0.167 HD
ATOM     55  C   UNL     1       1.144  -9.634   7.839  1.00  0.00     0.074 A 
ATOM     56  C   UNL     1       1.827 -10.909   7.743  1.00  0.00     0.031 C 
ATOM     57  C   UNL     1      -0.049  -9.454   8.455  1.00  0.00     0.037 A 
BRANCH  44  58
ATOM     58  C   UNL     1      -2.138  -3.650   8.236  1.00  0.00     0.057 A 
ATOM     59  C   UNL     1      -3.051  -3.179   7.286  1.00  0.00     0.134 A 
ATOM     60  C   UNL     1      -2.286  -3.201   9.556  1.00  0.00     0.134 A 
ATOM     61  F   UNL     1      -2.952  -3.557   6.003  1.00  0.00    -0.206 F 
ATOM     62  C   UNL     1      -4.062  -2.280   7.631  1.00  0.00     0.040 A 
ATOM     63  C   UNL     1      -3.305  -2.319   9.917  1.00  0.00     0.040 A 
ATOM     64  F   UNL     1      -1.446  -3.617  10.515  1.00  0.00    -0.206 F 
ATOM     65  C   UNL     1      -4.195  -1.853   8.952  1.00  0.00     0.006 A 
ENDBRANCH  44  58
BRANCH  45  66
ATOM     66  C   UNL     1       5.336  -9.744   5.721  1.00  0.00     0.057 A 
ATOM     67  C   UNL     1       5.194 -10.669   4.681  1.00  0.00     0.134 A 
ATOM     68  C   UNL     1       6.567  -9.702   6.387  1.00  0.00     0.134 A 
ATOM     69  F   UNL     1       4.030 -10.772   4.024  1.00  0.00    -0.206 F 
ATOM     70  C   UNL     1       6.237 -11.522   4.316  1.00  0.00     0.040 A 
ATOM     71  C   UNL     1       7.626 -10.532   6.017  1.00  0.00     0.040 A 
ATOM     72  F   UNL     1       6.764  -8.836   7.392  1.00  0.00    -0.206 F 
ATOM     73  C   UNL     1       7.460 -11.448   4.981  1.00  0.00     0.006 A 
ENDBRANCH  45  66
BRANCH  57  74
ATOM     74  C   UNL     1      -0.690 -10.665   9.056  1.00  0.00     0.057 A 
ATOM     75  C   UNL     1      -0.252 -11.195  10.275  1.00  0.00     0.134 A 
ATOM     76  C   UNL     1      -1.768 -11.293   8.422  1.00  0.00     0.134 A 
ATOM     77  F   UNL     1       0.786 -10.644  10.922  1.00  0.00    -0.206 F 
ATOM     78  C   UNL     1      -0.854 -12.322  10.836  1.00  0.00     0.040 A 
ATOM     79  C   UNL     1      -2.389 -12.410   8.981  1.00  0.00     0.040 A 
ATOM     80  F   UNL     1      -2.234 -10.829   7.253  1.00  0.00    -0.206 F 
ATOM     81  C   UNL     1      -1.929 -12.930  10.190  1.00  0.00     0.006 A 
ENDBRANCH  57  74
ENDBRANCH  31  32
ENDBRANCH  24  26
ENDBRANCH  23  24
ENDBRANCH  22  23
ENDBRANCH   1  22
TORSDOF 14
