REMARK SMILES CS(=O)(=O)c1ccc(C2=NN(c3ccc(C(=O)OCCOC(=O)c4ccc(-c5c6nc(c(-c7c(F)cccc7F)c7ccc([nH]7)c(-c7c(F)cccc7F)c7nc(c(-c8c(F)cccc8F)c8ccc5[nH]8)C=C7)C=C6)cc4)cc3)[C@H](c3ccc(Cl)cc3)C2)cc1
REMARK SMILES IDX 19 1 18 2 16 3 17 4 15 5 12 6 13 7 79 8 14 9 78 10 11 11
REMARK SMILES IDX 9 12 10 13 88 14 80 15 8 16 5 17 6 18 90 19 7 20 89 21 2 22
REMARK SMILES IDX 1 23 3 24 4 25 81 26 82 27 87 28 83 29 86 30 84 31 85 32
REMARK SMILES IDX 20 33 21 34 22 35 23 36 24 37 25 38 77 39 26 40 76 41 27 42
REMARK SMILES IDX 28 43 29 44 70 45 30 46 75 47 69 48 71 49 31 50 74 51 68 52
REMARK SMILES IDX 67 53 32 55 58 56 41 57 57 58 42 59 45 60 56 61 72 62 43 63
REMARK SMILES IDX 44 64 55 66 73 67 46 68 33 69 34 70 39 71 35 72 36 73 38 74
REMARK SMILES IDX 40 75 37 76 59 77 60 78 65 79 61 80 62 81 64 82 66 83 63 84
REMARK SMILES IDX 47 85 48 86 53 87 49 88 50 89 52 90 54 91 51 92
REMARK H PARENT 71 54 45 65
REMARK Flexibility Score: inf
ROOT
ATOM      1  C   UNL     1      -0.752 -15.276  -5.446  1.00  0.00     0.275 C 
ENDROOT
BRANCH   1   2
ATOM      2  O   UNL     1      -0.368 -14.152  -4.631  1.00  0.00    -0.458 OA
BRANCH   2   3
ATOM      3  C   UNL     1       0.446 -13.248  -5.225  1.00  0.00     0.338 C 
ATOM      4  O   UNL     1       0.902 -13.316  -6.357  1.00  0.00    -0.246 OA
BRANCH   3   5
ATOM      5  C   UNL     1       0.689 -12.080  -4.342  1.00  0.00     0.060 A 
ATOM      6  C   UNL     1       1.371  -9.862  -2.761  1.00  0.00     0.060 A 
ATOM      7  C   UNL     1       1.424  -9.775  -4.153  1.00  0.00     0.029 A 
ATOM      8  C   UNL     1       0.897 -11.044  -2.172  1.00  0.00     0.029 A 
ATOM      9  C   UNL     1       1.115 -10.883  -4.937  1.00  0.00     0.018 A 
ATOM     10  C   UNL     1       0.554 -12.150  -2.954  1.00  0.00     0.018 A 
BRANCH   6  11
ATOM     11  N   UNL     1       1.943  -8.873  -1.963  1.00  0.00    -0.257 N 
ATOM     12  C   UNL     1       2.132  -6.828  -1.405  1.00  0.00     0.071 C 
ATOM     13  N   UNL     1       1.253  -7.742  -1.683  1.00  0.00    -0.176 NA
ATOM     14  C   UNL     1       3.572  -7.233  -1.583  1.00  0.00     0.091 C 
ATOM     15  C   UNL     1       3.402  -8.707  -1.967  1.00  0.00     0.144 C 
BRANCH  12  16
ATOM     16  C   UNL     1       1.756  -5.483  -0.922  1.00  0.00    -0.002 A 
ATOM     17  C   UNL     1       1.024  -3.011   0.149  1.00  0.00     0.067 A 
ATOM     18  C   UNL     1       0.200  -4.124   0.342  1.00  0.00     0.021 A 
ATOM     19  C   UNL     1       2.202  -3.121  -0.597  1.00  0.00     0.021 A 
ATOM     20  C   UNL     1       0.564  -5.356  -0.199  1.00  0.00     0.011 A 
ATOM     21  C   UNL     1       2.570  -4.364  -1.131  1.00  0.00     0.011 A 
BRANCH  17  22
ATOM     22  S   UNL     1       0.543  -1.475   0.905  1.00  0.00     0.175 S 
ATOM     23  C   UNL     1       1.083  -0.182  -0.176  1.00  0.00     0.163 C 
ATOM     24  O   UNL     1       1.298  -1.376   2.139  1.00  0.00    -0.224 OA
ATOM     25  O   UNL     1      -0.908  -1.443   0.908  1.00  0.00    -0.224 OA
ENDBRANCH  17  22
ENDBRANCH  12  16
BRANCH  15  26
ATOM     26  C   UNL     1       4.027  -9.776  -1.081  1.00  0.00    -0.023 A 
ATOM     27  C   UNL     1       4.257  -9.606   0.291  1.00  0.00     0.007 A 
ATOM     28  C   UNL     1       4.265 -11.050  -1.641  1.00  0.00     0.007 A 
ATOM     29  C   UNL     1       4.704 -10.675   1.077  1.00  0.00     0.021 A 
ATOM     30  C   UNL     1       4.681 -12.124  -0.852  1.00  0.00     0.021 A 
ATOM     31  C   UNL     1       4.899 -11.931   0.506  1.00  0.00     0.041 A 
ATOM     32  Cl  UNL     1       5.382 -13.256   1.490  1.00  0.00    -0.084 Cl
ENDBRANCH  15  26
ENDBRANCH   6  11
ENDBRANCH   3   5
ENDBRANCH   2   3
ENDBRANCH   1   2
BRANCH   1  33
ATOM     33  C   UNL     1      -2.160 -15.080  -6.003  1.00  0.00     0.275 C 
BRANCH  33  34
ATOM     34  O   UNL     1      -2.179 -13.958  -6.905  1.00  0.00    -0.458 OA
BRANCH  34  35
ATOM     35  C   UNL     1      -2.956 -12.915  -6.532  1.00  0.00     0.338 C 
ATOM     36  O   UNL     1      -3.693 -12.838  -5.566  1.00  0.00    -0.246 OA
BRANCH  35  37
ATOM     37  C   UNL     1      -2.772 -11.811  -7.487  1.00  0.00     0.060 A 
ATOM     38  C   UNL     1      -1.573 -11.104  -7.480  1.00  0.00     0.016 A 
ATOM     39  C   UNL     1      -3.826 -11.395  -8.297  1.00  0.00     0.016 A 
ATOM     40  C   UNL     1      -1.435  -9.943  -8.235  1.00  0.00     0.010 A 
ATOM     41  C   UNL     1      -3.661 -10.271  -9.116  1.00  0.00     0.010 A 
ATOM     42  C   UNL     1      -2.474  -9.515  -9.072  1.00  0.00    -0.014 A 
BRANCH  42  43
ATOM     43  C   UNL     1      -2.336  -8.258  -9.859  1.00  0.00     0.031 A 
ATOM     44  C   UNL     1      -3.289  -7.114  -9.629  1.00  0.00     0.074 A 
ATOM     45  C   UNL     1      -1.348  -8.121 -10.766  1.00  0.00     0.049 A 
ATOM     46  N   UNL     1      -3.442  -6.011 -10.318  1.00  0.00    -0.248 NA
ATOM     47  C   UNL     1      -4.197  -7.233  -8.478  1.00  0.00     0.031 C 
ATOM     48  C   UNL     1      -0.320  -9.121 -11.058  1.00  0.00     0.029 A 
ATOM     49  N   UNL     1      -1.044  -7.079 -11.607  1.00  0.00    -0.354 N 
ATOM     50  C   UNL     1      -4.497  -5.333  -9.719  1.00  0.00     0.074 A 
ATOM     51  C   UNL     1      -4.948  -6.150  -8.612  1.00  0.00     0.031 C 
ATOM     52  C   UNL     1       0.520  -8.632 -11.982  1.00  0.00     0.029 A 
ATOM     53  C   UNL     1       0.045  -7.321 -12.410  1.00  0.00     0.049 A 
ATOM     54  H   UNL     1      -1.556  -6.239 -11.632  1.00  0.00     0.167 HD
ATOM     55  C   UNL     1      -5.040  -4.140 -10.061  1.00  0.00     0.037 A 
ATOM     56  C   UNL     1       0.579  -6.591 -13.408  1.00  0.00     0.037 A 
ATOM     57  C   UNL     1      -4.557  -3.302 -11.128  1.00  0.00     0.049 A 
ATOM     58  C   UNL     1      -0.063  -5.289 -13.794  1.00  0.00     0.074 A 
ATOM     59  C   UNL     1      -5.034  -2.070 -11.542  1.00  0.00     0.029 A 
ATOM     60  N   UNL     1      -3.476  -3.604 -11.941  1.00  0.00    -0.354 N 
ATOM     61  N   UNL     1      -1.096  -4.687 -13.259  1.00  0.00    -0.248 NA
ATOM     62  C   UNL     1       0.522  -4.578 -14.940  1.00  0.00     0.031 C 
ATOM     63  C   UNL     1      -4.259  -1.641 -12.626  1.00  0.00     0.029 A 
ATOM     64  C   UNL     1      -3.276  -2.588 -12.861  1.00  0.00     0.049 A 
ATOM     65  H   UNL     1      -2.930  -4.421 -11.874  1.00  0.00     0.167 HD
ATOM     66  C   UNL     1      -1.282  -3.525 -13.995  1.00  0.00     0.074 A 
ATOM     67  C   UNL     1      -0.240  -3.495 -15.001  1.00  0.00     0.031 C 
ATOM     68  C   UNL     1      -2.235  -2.572 -13.855  1.00  0.00     0.037 A 
BRANCH  55  69
ATOM     69  C   UNL     1      -6.245  -3.683  -9.291  1.00  0.00     0.057 A 
ATOM     70  C   UNL     1      -6.157  -3.213  -7.976  1.00  0.00     0.134 A 
ATOM     71  C   UNL     1      -7.512  -3.690  -9.892  1.00  0.00     0.134 A 
ATOM     72  F   UNL     1      -4.977  -3.192  -7.339  1.00  0.00    -0.206 F 
ATOM     73  C   UNL     1      -7.289  -2.790  -7.275  1.00  0.00     0.040 A 
ATOM     74  C   UNL     1      -8.646  -3.246  -9.211  1.00  0.00     0.040 A 
ATOM     75  F   UNL     1      -7.665  -4.120 -11.153  1.00  0.00    -0.206 F 
ATOM     76  C   UNL     1      -8.537  -2.800  -7.896  1.00  0.00     0.006 A 
ENDBRANCH  55  69
BRANCH  56  77
ATOM     77  C   UNL     1       1.767  -7.098 -14.141  1.00  0.00     0.057 A 
ATOM     78  C   UNL     1       3.014  -6.478 -14.011  1.00  0.00     0.134 A 
ATOM     79  C   UNL     1       1.684  -8.214 -14.982  1.00  0.00     0.134 A 
ATOM     80  F   UNL     1       3.151  -5.389 -13.241  1.00  0.00    -0.206 F 
ATOM     81  C   UNL     1       4.137  -6.948 -14.695  1.00  0.00     0.040 A 
ATOM     82  C   UNL     1       2.804  -8.711 -15.650  1.00  0.00     0.040 A 
ATOM     83  F   UNL     1       0.516  -8.851 -15.149  1.00  0.00    -0.206 F 
ATOM     84  C   UNL     1       4.035  -8.074 -15.511  1.00  0.00     0.006 A 
ENDBRANCH  56  77
BRANCH  68  85
ATOM     85  C   UNL     1      -2.176  -1.407 -14.797  1.00  0.00     0.057 A 
ATOM     86  C   UNL     1      -2.565  -1.523 -16.137  1.00  0.00     0.134 A 
ATOM     87  C   UNL     1      -1.748  -0.150 -14.352  1.00  0.00     0.134 A 
ATOM     88  F   UNL     1      -2.969  -2.704 -16.628  1.00  0.00    -0.206 F 
ATOM     89  C   UNL     1      -2.511  -0.433 -17.008  1.00  0.00     0.040 A 
ATOM     90  C   UNL     1      -1.711   0.952 -15.207  1.00  0.00     0.040 A 
ATOM     91  F   UNL     1      -1.367   0.029 -13.078  1.00  0.00    -0.206 F 
ATOM     92  C   UNL     1      -2.088   0.810 -16.541  1.00  0.00     0.006 A 
ENDBRANCH  68  85
ENDBRANCH  42  43
ENDBRANCH  35  37
ENDBRANCH  34  35
ENDBRANCH  33  34
ENDBRANCH   1  33
TORSDOF 15
