REMARK SMILES O=C(Cc1ccc(OC[C@H]2Cc3ccccc3S2)cc1)OCCOC(=O)c1ccc(-c2c3nc(c(-c4c(F)cccc4F)c4ccc([nH]4)c(-c4c(F)cccc4F)c4nc(c(-c5c(F)cccc5F)c5ccc2[nH]5)C=C4)C=C3)cc1
REMARK SMILES IDX 22 1 21 2 2 3 1 4 3 5 4 6 5 7 20 8 6 9 19 10 7 11 8 12 9 13
REMARK SMILES IDX 10 14 11 15 18 16 12 17 17 18 13 19 16 20 14 21 15 22 23 23
REMARK SMILES IDX 24 24 25 25 26 26 27 27 28 28 80 29 29 30 79 31 30 32 31 33
REMARK SMILES IDX 32 34 73 35 33 36 78 37 72 38 74 39 34 40 77 41 71 42 70 43
REMARK SMILES IDX 35 45 61 46 44 47 60 48 45 49 48 50 59 51 75 52 46 53 47 54
REMARK SMILES IDX 58 56 76 57 49 58 36 59 37 60 42 61 38 62 39 63 41 64 43 65
REMARK SMILES IDX 40 66 62 67 63 68 68 69 64 70 65 71 67 72 69 73 66 74 50 75
REMARK SMILES IDX 51 76 56 77 52 78 53 79 55 80 57 81 54 82
REMARK H PARENT 74 44 48 55
REMARK Flexibility Score: inf
ROOT
ATOM      1  C   UNL     1       6.562   5.185  -8.233  1.00  0.00     0.274 C 
ENDROOT
BRANCH   1   2
ATOM      2  O   UNL     1       6.775   3.836  -7.772  1.00  0.00    -0.462 OA
BRANCH   2   3
ATOM      3  C   UNL     1       6.699   3.453  -6.472  1.00  0.00     0.310 C 
ATOM      4  O   UNL     1       7.229   2.405  -6.105  1.00  0.00    -0.252 OA
BRANCH   3   5
ATOM      5  C   UNL     1       5.854   4.270  -5.529  1.00  0.00     0.158 C 
BRANCH   5   6
ATOM      6  C   UNL     1       6.589   4.989  -4.428  1.00  0.00    -0.037 A 
ATOM      7  C   UNL     1       7.075   6.288  -4.617  1.00  0.00     0.008 A 
ATOM      8  C   UNL     1       6.678   4.420  -3.153  1.00  0.00     0.008 A 
ATOM      9  C   UNL     1       7.494   7.051  -3.530  1.00  0.00     0.047 A 
ATOM     10  C   UNL     1       7.111   5.185  -2.067  1.00  0.00     0.047 A 
ATOM     11  C   UNL     1       7.425   6.533  -2.241  1.00  0.00     0.119 A 
BRANCH  11  12
ATOM     12  O   UNL     1       7.615   7.458  -1.252  1.00  0.00    -0.492 OA
BRANCH  12  13
ATOM     13  C   UNL     1       7.079   7.170   0.038  1.00  0.00     0.244 C 
BRANCH  13  14
ATOM     14  C   UNL     1       5.583   7.458   0.245  1.00  0.00     0.094 C 
ATOM     15  C   UNL     1       5.149   8.921   0.043  1.00  0.00     0.055 C 
ATOM     16  S   UNL     1       4.374   6.486  -0.738  1.00  0.00    -0.119 SA
ATOM     17  C   UNL     1       3.640   8.881   0.053  1.00  0.00    -0.033 A 
ATOM     18  C   UNL     1       3.109   7.681  -0.434  1.00  0.00     0.011 A 
ATOM     19  C   UNL     1       2.789   9.891   0.486  1.00  0.00     0.005 A 
ATOM     20  C   UNL     1       1.744   7.478  -0.536  1.00  0.00     0.015 A 
ATOM     21  C   UNL     1       1.408   9.675   0.438  1.00  0.00     0.000 A 
ATOM     22  C   UNL     1       0.888   8.481  -0.082  1.00  0.00     0.001 A 
ENDBRANCH  13  14
ENDBRANCH  12  13
ENDBRANCH  11  12
ENDBRANCH   5   6
ENDBRANCH   3   5
ENDBRANCH   2   3
ENDBRANCH   1   2
BRANCH   1  23
ATOM     23  C   UNL     1       5.250   5.356  -9.002  1.00  0.00     0.275 C 
BRANCH  23  24
ATOM     24  O   UNL     1       4.123   4.987  -8.190  1.00  0.00    -0.458 OA
BRANCH  24  25
ATOM     25  C   UNL     1       3.691   3.712  -8.356  1.00  0.00     0.338 C 
ATOM     26  O   UNL     1       4.080   2.908  -9.187  1.00  0.00    -0.246 OA
BRANCH  25  27
ATOM     27  C   UNL     1       2.778   3.360  -7.249  1.00  0.00     0.060 A 
ATOM     28  C   UNL     1       2.945   2.113  -6.634  1.00  0.00     0.016 A 
ATOM     29  C   UNL     1       1.778   4.234  -6.813  1.00  0.00     0.016 A 
ATOM     30  C   UNL     1       2.106   1.733  -5.584  1.00  0.00     0.010 A 
ATOM     31  C   UNL     1       0.932   3.846  -5.770  1.00  0.00     0.010 A 
ATOM     32  C   UNL     1       1.083   2.590  -5.158  1.00  0.00    -0.014 A 
BRANCH  32  33
ATOM     33  C   UNL     1       0.114   2.153  -4.125  1.00  0.00     0.031 A 
ATOM     34  C   UNL     1      -1.203   1.569  -4.550  1.00  0.00     0.074 A 
ATOM     35  C   UNL     1       0.391   2.313  -2.818  1.00  0.00     0.049 A 
ATOM     36  N   UNL     1      -2.225   1.211  -3.814  1.00  0.00    -0.248 NA
ATOM     37  C   UNL     1      -1.399   1.369  -5.994  1.00  0.00     0.031 C 
ATOM     38  C   UNL     1       1.635   2.856  -2.275  1.00  0.00     0.029 A 
ATOM     39  N   UNL     1      -0.378   2.055  -1.710  1.00  0.00    -0.354 N 
ATOM     40  C   UNL     1      -3.186   0.750  -4.704  1.00  0.00     0.074 A 
ATOM     41  C   UNL     1      -2.634   0.887  -6.035  1.00  0.00     0.031 C 
ATOM     42  C   UNL     1       1.533   2.920  -0.936  1.00  0.00     0.029 A 
ATOM     43  C   UNL     1       0.209   2.448  -0.532  1.00  0.00     0.049 A 
ATOM     44  H   UNL     1      -1.264   1.629  -1.755  1.00  0.00     0.167 HD
ATOM     45  C   UNL     1      -4.417   0.256  -4.434  1.00  0.00     0.037 A 
ATOM     46  C   UNL     1      -0.282   2.462   0.723  1.00  0.00     0.037 A 
ATOM     47  C   UNL     1      -4.968   0.112  -3.112  1.00  0.00     0.049 A 
ATOM     48  C   UNL     1      -1.684   1.977   0.984  1.00  0.00     0.074 A 
ATOM     49  C   UNL     1      -6.180  -0.445  -2.743  1.00  0.00     0.029 A 
ATOM     50  N   UNL     1      -4.353   0.543  -1.949  1.00  0.00    -0.354 N 
ATOM     51  N   UNL     1      -2.559   1.481   0.144  1.00  0.00    -0.248 NA
ATOM     52  C   UNL     1      -2.170   2.066   2.370  1.00  0.00     0.031 C 
ATOM     53  C   UNL     1      -6.323  -0.301  -1.359  1.00  0.00     0.029 A 
ATOM     54  C   UNL     1      -5.181   0.307  -0.865  1.00  0.00     0.049 A 
ATOM     55  H   UNL     1      -3.460   0.956  -1.901  1.00  0.00     0.167 HD
ATOM     56  C   UNL     1      -3.687   1.185   0.900  1.00  0.00     0.074 A 
ATOM     57  C   UNL     1      -3.383   1.541   2.269  1.00  0.00     0.031 C 
ATOM     58  C   UNL     1      -4.870   0.665   0.494  1.00  0.00     0.037 A 
BRANCH  45  59
ATOM     59  C   UNL     1      -5.274  -0.153  -5.591  1.00  0.00     0.057 A 
ATOM     60  C   UNL     1      -5.052  -1.346  -6.287  1.00  0.00     0.134 A 
ATOM     61  C   UNL     1      -6.382   0.620  -5.961  1.00  0.00     0.134 A 
ATOM     62  F   UNL     1      -4.002  -2.124  -5.985  1.00  0.00    -0.206 F 
ATOM     63  C   UNL     1      -5.901  -1.755  -7.317  1.00  0.00     0.040 A 
ATOM     64  C   UNL     1      -7.248   0.212  -6.975  1.00  0.00     0.040 A 
ATOM     65  F   UNL     1      -6.650   1.772  -5.327  1.00  0.00    -0.206 F 
ATOM     66  C   UNL     1      -7.008  -0.979  -7.657  1.00  0.00     0.006 A 
ENDBRANCH  45  59
BRANCH  46  67
ATOM     67  C   UNL     1       0.528   3.015   1.836  1.00  0.00     0.057 A 
ATOM     68  C   UNL     1       1.022   2.199   2.858  1.00  0.00     0.134 A 
ATOM     69  C   UNL     1       0.768   4.390   1.931  1.00  0.00     0.134 A 
ATOM     70  F   UNL     1       0.787   0.879   2.842  1.00  0.00    -0.206 F 
ATOM     71  C   UNL     1       1.712   2.735   3.948  1.00  0.00     0.040 A 
ATOM     72  C   UNL     1       1.484   4.936   2.997  1.00  0.00     0.040 A 
ATOM     73  F   UNL     1       0.289   5.222   0.996  1.00  0.00    -0.206 F 
ATOM     74  C   UNL     1       1.949   4.107   4.016  1.00  0.00     0.006 A 
ENDBRANCH  46  67
BRANCH  58  75
ATOM     75  C   UNL     1      -5.921   0.434   1.538  1.00  0.00     0.057 A 
ATOM     76  C   UNL     1      -6.646   1.494   2.098  1.00  0.00     0.134 A 
ATOM     77  C   UNL     1      -6.252  -0.864   1.948  1.00  0.00     0.134 A 
ATOM     78  F   UNL     1      -6.368   2.762   1.758  1.00  0.00    -0.206 F 
ATOM     79  C   UNL     1      -7.655   1.271   3.036  1.00  0.00     0.040 A 
ATOM     80  C   UNL     1      -7.274  -1.101   2.868  1.00  0.00     0.040 A 
ATOM     81  F   UNL     1      -5.601  -1.923   1.444  1.00  0.00    -0.206 F 
ATOM     82  C   UNL     1      -7.977  -0.030   3.417  1.00  0.00     0.006 A 
ENDBRANCH  58  75
ENDBRANCH  32  33
ENDBRANCH  25  27
ENDBRANCH  24  25
ENDBRANCH  23  24
ENDBRANCH   1  23
TORSDOF 15
