REMARK SMILES Cc1ccc(Cl)c(Nc2ccccc2C(=O)N[C@@H](C)C(=O)OCCOC(=O)c2ccc(-c3c4nc(c(-c5c(F)cccc5F)c5ccc([nH]5)c(-c5c(F)cccc5F)c5nc(c(-c6c(F)cccc6F)c6ccc3[nH]6)C=C5)C=C4)cc2)c1Cl
REMARK SMILES IDX 23 1 22 2 20 3 21 4 18 5 19 6 17 7 15 8 16 9 14 11 9 12
REMARK SMILES IDX 10 13 11 14 13 15 12 16 8 17 7 19 1 20 2 21 3 22 82 23 4 24
REMARK SMILES IDX 83 25 5 26 6 27 24 28 25 29 26 30 27 31 28 32 29 33 81 34
REMARK SMILES IDX 30 35 80 36 31 37 32 38 33 39 74 40 34 41 79 42 73 43 75 44
REMARK SMILES IDX 35 45 78 46 72 47 71 48 36 50 62 51 45 52 61 53 46 54 49 55
REMARK SMILES IDX 60 56 76 57 47 58 48 59 59 61 77 62 50 63 37 64 38 65 43 66
REMARK SMILES IDX 39 67 40 68 42 69 44 70 41 71 63 72 64 73 69 74 65 75 66 76
REMARK SMILES IDX 68 77 70 78 67 79 51 80 52 81 57 82 53 83 54 84 56 85 58 86
REMARK SMILES IDX 55 87
REMARK H PARENT 17 10 8 18 75 49 49 60
REMARK Flexibility Score: inf
ROOT
ATOM      1  C   UNL     1      -1.133   3.026   0.162  1.00  0.00     0.274 C 
ENDROOT
BRANCH   1   2
ATOM      2  O   UNL     1      -1.314   1.651   0.700  1.00  0.00    -0.461 OA
BRANCH   2   3
ATOM      3  C   UNL     1      -0.750   1.167   1.871  1.00  0.00     0.328 C 
ATOM      4  O   UNL     1      -0.127   1.864   2.642  1.00  0.00    -0.250 OA
BRANCH   3   5
ATOM      5  C   UNL     1      -0.988  -0.429   2.086  1.00  0.00     0.189 C 
ATOM      6  C   UNL     1      -2.249  -0.663   2.915  1.00  0.00     0.043 C 
BRANCH   5   7
ATOM      7  N   UNL     1       0.195  -1.086   2.731  1.00  0.00    -0.339 N 
ATOM      8  C   UNL     1       0.969  -2.231   2.798  1.00  0.00     0.254 C 
ATOM      9  O   UNL     1       1.797  -2.108   3.722  1.00  0.00    -0.269 OA
ATOM     10  H   UNL     1       0.577  -0.438   3.366  1.00  0.00     0.164 HD
BRANCH   8  11
ATOM     11  C   UNL     1       1.062  -3.570   2.033  1.00  0.00     0.063 A 
ATOM     12  C   UNL     1       0.392  -4.084   0.897  1.00  0.00     0.051 A 
ATOM     13  C   UNL     1       0.714  -5.357   0.337  1.00  0.00     0.027 A 
ATOM     14  C   UNL     1       1.805  -6.082   0.772  1.00  0.00     0.002 A 
ATOM     15  C   UNL     1       2.142  -4.390   2.472  1.00  0.00     0.016 A 
ATOM     16  C   UNL     1       2.533  -5.586   1.836  1.00  0.00     0.001 A 
BRANCH  12  17
ATOM     17  N   UNL     1      -0.291  -3.302  -0.030  1.00  0.00    -0.352 N 
ATOM     18  H   UNL     1      -1.221  -3.542  -0.247  1.00  0.00     0.167 HD
BRANCH  17  19
ATOM     19  C   UNL     1       0.277  -2.183  -0.674  1.00  0.00     0.077 A 
ATOM     20  C   UNL     1       3.278   0.091   0.150  1.00  0.00     0.046 C 
ATOM     21  C   UNL     1       1.949  -0.440  -0.297  1.00  0.00    -0.030 A 
ATOM     22  C   UNL     1       0.923   0.442  -0.510  1.00  0.00     0.006 A 
ATOM     23  C   UNL     1       1.635  -1.773  -0.485  1.00  0.00     0.069 A 
ATOM     24  C   UNL     1      -0.328   0.036  -1.022  1.00  0.00     0.023 A 
ATOM     25  Cl  UNL     1       2.950  -2.896  -0.559  1.00  0.00    -0.082 Cl
ATOM     26  C   UNL     1      -0.659  -1.279  -1.129  1.00  0.00     0.066 A 
ATOM     27  Cl  UNL     1      -2.283  -1.711  -1.537  1.00  0.00    -0.082 Cl
ENDBRANCH  17  19
ENDBRANCH  12  17
ENDBRANCH   8  11
ENDBRANCH   5   7
ENDBRANCH   3   5
ENDBRANCH   2   3
ENDBRANCH   1   2
BRANCH   1  28
ATOM     28  C   UNL     1      -0.133   3.357  -1.078  1.00  0.00     0.275 C 
BRANCH  28  29
ATOM     29  O   UNL     1      -0.054   2.435  -2.240  1.00  0.00    -0.458 OA
BRANCH  29  30
ATOM     30  C   UNL     1       1.171   2.281  -2.891  1.00  0.00     0.338 C 
ATOM     31  O   UNL     1       2.098   3.067  -2.763  1.00  0.00    -0.246 OA
BRANCH  30  32
ATOM     32  C   UNL     1       1.373   0.929  -3.606  1.00  0.00     0.060 A 
ATOM     33  C   UNL     1       0.330   0.037  -3.796  1.00  0.00     0.016 A 
ATOM     34  C   UNL     1       2.655   0.428  -3.924  1.00  0.00     0.016 A 
ATOM     35  C   UNL     1       0.584  -1.330  -4.074  1.00  0.00     0.010 A 
ATOM     36  C   UNL     1       2.866  -0.912  -4.414  1.00  0.00     0.010 A 
ATOM     37  C   UNL     1       1.821  -1.842  -4.508  1.00  0.00    -0.014 A 
BRANCH  37  38
ATOM     38  C   UNL     1       1.913  -3.249  -5.134  1.00  0.00     0.031 A 
ATOM     39  C   UNL     1       3.097  -4.215  -4.978  1.00  0.00     0.074 A 
ATOM     40  C   UNL     1       0.900  -3.723  -5.912  1.00  0.00     0.049 A 
ATOM     41  N   UNL     1       3.389  -5.294  -5.684  1.00  0.00    -0.248 NA
ATOM     42  C   UNL     1       4.048  -3.973  -3.888  1.00  0.00     0.031 C 
ATOM     43  C   UNL     1      -0.367  -3.044  -6.188  1.00  0.00     0.029 A 
ATOM     44  N   UNL     1       0.772  -4.902  -6.632  1.00  0.00    -0.354 N 
ATOM     45  C   UNL     1       4.569  -5.824  -5.155  1.00  0.00     0.074 A 
ATOM     46  C   UNL     1       4.920  -4.968  -4.038  1.00  0.00     0.031 C 
ATOM     47  C   UNL     1      -1.162  -3.827  -6.918  1.00  0.00     0.029 A 
ATOM     48  C   UNL     1      -0.391  -4.971  -7.369  1.00  0.00     0.049 A 
ATOM     49  H   UNL     1       1.446  -5.619  -6.619  1.00  0.00     0.167 HD
ATOM     50  C   UNL     1       5.303  -6.899  -5.561  1.00  0.00     0.037 A 
ATOM     51  C   UNL     1      -0.797  -5.746  -8.394  1.00  0.00     0.037 A 
ATOM     52  C   UNL     1       4.968  -7.796  -6.649  1.00  0.00     0.049 A 
ATOM     53  C   UNL     1       0.095  -6.802  -8.955  1.00  0.00     0.074 A 
ATOM     54  C   UNL     1       5.675  -8.901  -7.110  1.00  0.00     0.029 A 
ATOM     55  N   UNL     1       3.841  -7.702  -7.447  1.00  0.00    -0.354 N 
ATOM     56  N   UNL     1       1.265  -7.196  -8.528  1.00  0.00    -0.248 NA
ATOM     57  C   UNL     1      -0.372  -7.489 -10.168  1.00  0.00     0.031 C 
ATOM     58  C   UNL     1       5.007  -9.437  -8.218  1.00  0.00     0.029 A 
ATOM     59  C   UNL     1       3.856  -8.699  -8.416  1.00  0.00     0.049 A 
ATOM     60  H   UNL     1       3.132  -7.028  -7.343  1.00  0.00     0.167 HD
ATOM     61  C   UNL     1       1.677  -8.173  -9.421  1.00  0.00     0.074 A 
ATOM     62  C   UNL     1       0.624  -8.332 -10.399  1.00  0.00     0.031 C 
ATOM     63  C   UNL     1       2.839  -8.866  -9.419  1.00  0.00     0.037 A 
BRANCH  50  64
ATOM     64  C   UNL     1       6.621  -7.172  -4.877  1.00  0.00     0.057 A 
ATOM     65  C   UNL     1       6.708  -7.813  -3.636  1.00  0.00     0.134 A 
ATOM     66  C   UNL     1       7.826  -6.921  -5.555  1.00  0.00     0.134 A 
ATOM     67  F   UNL     1       5.599  -8.104  -2.941  1.00  0.00    -0.206 F 
ATOM     68  C   UNL     1       7.943  -8.182  -3.089  1.00  0.00     0.040 A 
ATOM     69  C   UNL     1       9.062  -7.303  -5.028  1.00  0.00     0.040 A 
ATOM     70  F   UNL     1       7.816  -6.344  -6.766  1.00  0.00    -0.206 F 
ATOM     71  C   UNL     1       9.124  -7.935  -3.789  1.00  0.00     0.006 A 
ENDBRANCH  50  64
BRANCH  51  72
ATOM     72  C   UNL     1      -2.084  -5.424  -9.070  1.00  0.00     0.057 A 
ATOM     73  C   UNL     1      -3.194  -6.265  -8.961  1.00  0.00     0.134 A 
ATOM     74  C   UNL     1      -2.236  -4.237  -9.802  1.00  0.00     0.134 A 
ATOM     75  F   UNL     1      -3.098  -7.429  -8.304  1.00  0.00    -0.206 F 
ATOM     76  C   UNL     1      -4.417  -5.927  -9.541  1.00  0.00     0.040 A 
ATOM     77  C   UNL     1      -3.461  -3.869 -10.353  1.00  0.00     0.040 A 
ATOM     78  F   UNL     1      -1.205  -3.389  -9.941  1.00  0.00    -0.206 F 
ATOM     79  C   UNL     1      -4.557  -4.718 -10.224  1.00  0.00     0.006 A 
ENDBRANCH  51  72
BRANCH  63  80
ATOM     80  C   UNL     1       3.029  -9.880 -10.507  1.00  0.00     0.057 A 
ATOM     81  C   UNL     1       3.309  -9.496 -11.825  1.00  0.00     0.134 A 
ATOM     82  C   UNL     1       2.907 -11.250 -10.245  1.00  0.00     0.134 A 
ATOM     83  F   UNL     1       3.411  -8.198 -12.148  1.00  0.00    -0.206 F 
ATOM     84  C   UNL     1       3.441 -10.438 -12.848  1.00  0.00     0.040 A 
ATOM     85  C   UNL     1       3.057 -12.202 -11.256  1.00  0.00     0.040 A 
ATOM     86  F   UNL     1       2.634 -11.685  -9.007  1.00  0.00    -0.206 F 
ATOM     87  C   UNL     1       3.318 -11.796 -12.563  1.00  0.00     0.006 A 
ENDBRANCH  63  80
ENDBRANCH  37  38
ENDBRANCH  30  32
ENDBRANCH  29  30
ENDBRANCH  28  29
ENDBRANCH   1  28
TORSDOF 15
