REMARK SMILES O=C(CCCNC(=O)[C@@H]1CCCN(S(=O)(=O)c2ccc(F)cc2)C1)OCCOC(=O)c1ccc(-c2c3nc(c(-c4c(F)cccc4F)c4ccc([nH]4)c(-c4c(F)cccc4F)c4nc(c(-c5c(F)cccc5F)c5ccc2[nH]5)C=C4)C=C3)cc1
REMARK SMILES IDX 1 1 2 2 3 3 4 4 5 5 6 6 7 7 8 9 9 10 10 11 24 12 11 13 13 14
REMARK SMILES IDX 12 15 14 16 15 17 16 18 17 19 18 20 23 21 19 22 22 23 20 24
REMARK SMILES IDX 21 25 25 26 26 27 27 28 28 29 29 30 30 31 31 32 32 33 84 34
REMARK SMILES IDX 33 35 83 36 34 37 35 38 36 39 77 40 37 41 82 42 76 43 78 44
REMARK SMILES IDX 38 45 81 46 75 47 74 48 39 50 65 51 48 52 64 53 49 54 52 55
REMARK SMILES IDX 63 56 79 57 50 58 51 59 62 61 80 62 53 63 40 64 41 65 46 66
REMARK SMILES IDX 42 67 43 68 45 69 47 70 44 71 66 72 67 73 72 74 68 75 69 76
REMARK SMILES IDX 71 77 73 78 70 79 54 80 55 81 60 82 56 83 57 84 59 85 61 86
REMARK SMILES IDX 58 87
REMARK H PARENT 6 8 78 49 52 60
REMARK Flexibility Score: inf
ROOT
ATOM      1  O   UNL     1       1.718  -1.542  -1.585  1.00  0.00    -0.252 OA
ATOM      2  C   UNL     1       2.322  -0.881  -0.749  1.00  0.00     0.305 C 
ENDROOT
BRANCH   2   3
ATOM      3  C   UNL     1       2.829  -1.489   0.539  1.00  0.00     0.124 C 
BRANCH   3   4
ATOM      4  C   UNL     1       3.804  -2.652   0.350  1.00  0.00     0.033 C 
BRANCH   4   5
ATOM      5  C   UNL     1       5.179  -2.262  -0.193  1.00  0.00     0.116 C 
BRANCH   5   6
ATOM      6  N   UNL     1       5.800  -1.198   0.579  1.00  0.00    -0.356 N 
ATOM      7  C   UNL     1       7.054  -0.684   0.434  1.00  0.00     0.224 C 
ATOM      8  H   UNL     1       5.250  -0.802   1.293  1.00  0.00     0.163 HD
ATOM      9  O   UNL     1       7.189   0.513   0.683  1.00  0.00    -0.275 OA
BRANCH   7  10
ATOM     10  C   UNL     1       8.193  -1.605   0.020  1.00  0.00     0.093 C 
ATOM     11  C   UNL     1       8.406  -2.708   1.062  1.00  0.00     0.016 C 
ATOM     12  C   UNL     1       9.498  -0.820  -0.173  1.00  0.00     0.116 C 
ATOM     13  C   UNL     1       8.914  -2.116   2.370  1.00  0.00     0.018 C 
ATOM     14  N   UNL     1      10.035  -0.279   1.121  1.00  0.00    -0.197 NA
ATOM     15  C   UNL     1      10.201  -1.328   2.162  1.00  0.00     0.102 C 
BRANCH  14  16
ATOM     16  S   UNL     1      11.413   0.724   0.879  1.00  0.00     0.243 S 
ATOM     17  O   UNL     1      12.575  -0.139   0.831  1.00  0.00    -0.207 OA
ATOM     18  O   UNL     1      11.125   1.632  -0.212  1.00  0.00    -0.207 OA
BRANCH  16  19
ATOM     19  C   UNL     1      11.523   1.700   2.368  1.00  0.00     0.082 A 
ATOM     20  C   UNL     1      12.130   1.159   3.509  1.00  0.00     0.025 A 
ATOM     21  C   UNL     1      11.113   3.039   2.352  1.00  0.00     0.025 A 
ATOM     22  C   UNL     1      12.266   1.940   4.657  1.00  0.00     0.040 A 
ATOM     23  C   UNL     1      11.280   3.825   3.496  1.00  0.00     0.040 A 
ATOM     24  C   UNL     1      11.843   3.266   4.639  1.00  0.00     0.123 A 
ATOM     25  F   UNL     1      11.997   4.019   5.735  1.00  0.00    -0.207 F 
ENDBRANCH  16  19
ENDBRANCH  14  16
ENDBRANCH   7  10
ENDBRANCH   5   6
ENDBRANCH   4   5
ENDBRANCH   3   4
ENDBRANCH   2   3
BRANCH   2  26
ATOM     26  O   UNL     1       2.432   0.470  -0.839  1.00  0.00    -0.462 OA
BRANCH  26  27
ATOM     27  C   UNL     1       3.750   1.035  -0.975  1.00  0.00     0.274 C 
BRANCH  27  28
ATOM     28  C   UNL     1       4.050   2.094   0.090  1.00  0.00     0.275 C 
BRANCH  28  29
ATOM     29  O   UNL     1       3.770   1.592   1.408  1.00  0.00    -0.458 OA
BRANCH  29  30
ATOM     30  C   UNL     1       2.520   1.884   1.854  1.00  0.00     0.338 C 
ATOM     31  O   UNL     1       1.693   2.588   1.308  1.00  0.00    -0.246 OA
BRANCH  30  32
ATOM     32  C   UNL     1       2.213   1.073   3.051  1.00  0.00     0.060 A 
ATOM     33  C   UNL     1       0.929   0.523   3.137  1.00  0.00     0.016 A 
ATOM     34  C   UNL     1       3.138   0.876   4.082  1.00  0.00     0.016 A 
ATOM     35  C   UNL     1       0.545  -0.174   4.280  1.00  0.00     0.010 A 
ATOM     36  C   UNL     1       2.750   0.177   5.230  1.00  0.00     0.010 A 
ATOM     37  C   UNL     1       1.438  -0.314   5.350  1.00  0.00    -0.014 A 
BRANCH  37  38
ATOM     38  C   UNL     1       0.924  -0.819   6.645  1.00  0.00     0.031 A 
ATOM     39  C   UNL     1       0.486   0.173   7.686  1.00  0.00     0.074 A 
ATOM     40  C   UNL     1       0.768  -2.136   6.864  1.00  0.00     0.049 A 
ATOM     41  N   UNL     1      -0.094  -0.039   8.840  1.00  0.00    -0.248 NA
ATOM     42  C   UNL     1       0.725   1.593   7.382  1.00  0.00     0.031 C 
ATOM     43  C   UNL     1       1.124  -3.197   5.924  1.00  0.00     0.029 A 
ATOM     44  N   UNL     1       0.250  -2.802   7.946  1.00  0.00    -0.354 N 
ATOM     45  C   UNL     1      -0.312   1.219   9.386  1.00  0.00     0.074 A 
ATOM     46  C   UNL     1       0.246   2.186   8.465  1.00  0.00     0.031 C 
ATOM     47  C   UNL     1       0.801  -4.384   6.467  1.00  0.00     0.029 A 
ATOM     48  C   UNL     1       0.226  -4.165   7.794  1.00  0.00     0.049 A 
ATOM     49  H   UNL     1      -0.074  -2.344   8.755  1.00  0.00     0.167 HD
ATOM     50  C   UNL     1      -0.942   1.545  10.539  1.00  0.00     0.037 A 
ATOM     51  C   UNL     1      -0.217  -5.127   8.627  1.00  0.00     0.037 A 
ATOM     52  C   UNL     1      -1.482   0.590  11.468  1.00  0.00     0.049 A 
ATOM     53  C   UNL     1      -0.839  -4.746   9.944  1.00  0.00     0.074 A 
ATOM     54  C   UNL     1      -2.132   0.827  12.666  1.00  0.00     0.029 A 
ATOM     55  N   UNL     1      -1.427  -0.785  11.305  1.00  0.00    -0.354 N 
ATOM     56  N   UNL     1      -1.066  -3.553  10.437  1.00  0.00    -0.248 NA
ATOM     57  C   UNL     1      -1.275  -5.847  10.816  1.00  0.00     0.031 C 
ATOM     58  C   UNL     1      -2.433  -0.407  13.250  1.00  0.00     0.029 A 
ATOM     59  C   UNL     1      -2.012  -1.412  12.393  1.00  0.00     0.049 A 
ATOM     60  H   UNL     1      -1.032  -1.248  10.532  1.00  0.00     0.167 HD
ATOM     61  C   UNL     1      -1.694  -3.757  11.660  1.00  0.00     0.074 A 
ATOM     62  C   UNL     1      -1.817  -5.189  11.833  1.00  0.00     0.031 C 
ATOM     63  C   UNL     1      -2.132  -2.838  12.555  1.00  0.00     0.037 A 
BRANCH  50  64
ATOM     64  C   UNL     1      -1.076   3.003  10.857  1.00  0.00     0.057 A 
ATOM     65  C   UNL     1      -0.323   3.587  11.881  1.00  0.00     0.134 A 
ATOM     66  C   UNL     1      -1.975   3.824  10.163  1.00  0.00     0.134 A 
ATOM     67  F   UNL     1       0.554   2.855  12.584  1.00  0.00    -0.206 F 
ATOM     68  C   UNL     1      -0.462   4.937  12.208  1.00  0.00     0.040 A 
ATOM     69  C   UNL     1      -2.107   5.180  10.465  1.00  0.00     0.040 A 
ATOM     70  F   UNL     1      -2.714   3.326   9.159  1.00  0.00    -0.206 F 
ATOM     71  C   UNL     1      -1.353   5.738  11.496  1.00  0.00     0.006 A 
ENDBRANCH  50  64
BRANCH  51  72
ATOM     72  C   UNL     1      -0.116  -6.550   8.223  1.00  0.00     0.057 A 
ATOM     73  C   UNL     1       1.119  -7.208   8.181  1.00  0.00     0.134 A 
ATOM     74  C   UNL     1      -1.251  -7.281   7.860  1.00  0.00     0.134 A 
ATOM     75  F   UNL     1       2.244  -6.560   8.517  1.00  0.00    -0.206 F 
ATOM     76  C   UNL     1       1.223  -8.540   7.778  1.00  0.00     0.040 A 
ATOM     77  C   UNL     1      -1.165  -8.620   7.472  1.00  0.00     0.040 A 
ATOM     78  F   UNL     1      -2.464  -6.710   7.901  1.00  0.00    -0.206 F 
ATOM     79  C   UNL     1       0.077  -9.251   7.425  1.00  0.00     0.006 A 
ENDBRANCH  51  72
BRANCH  63  80
ATOM     80  C   UNL     1      -2.807  -3.340  13.798  1.00  0.00     0.057 A 
ATOM     81  C   UNL     1      -4.185  -3.165  13.981  1.00  0.00     0.134 A 
ATOM     82  C   UNL     1      -2.083  -3.920  14.846  1.00  0.00     0.134 A 
ATOM     83  F   UNL     1      -4.935  -2.605  13.019  1.00  0.00    -0.206 F 
ATOM     84  C   UNL     1      -4.817  -3.538  15.168  1.00  0.00     0.040 A 
ATOM     85  C   UNL     1      -2.708  -4.319  16.029  1.00  0.00     0.040 A 
ATOM     86  F   UNL     1      -0.762  -4.123  14.729  1.00  0.00    -0.206 F 
ATOM     87  C   UNL     1      -4.078  -4.119  16.196  1.00  0.00     0.006 A 
ENDBRANCH  63  80
ENDBRANCH  37  38
ENDBRANCH  30  32
ENDBRANCH  29  30
ENDBRANCH  28  29
ENDBRANCH  27  28
ENDBRANCH  26  27
ENDBRANCH   2  26
TORSDOF 17
