REMARK SMILES C[C@H](NC(=O)[C@H]1CC[C@H]2CCCC[C@@H]2[NH2+]1)C(=O)OCCOC(=O)c1ccc(-c2c3nc(c(-c4c(F)cccc4F)c4ccc([nH]4)c(-c4c(F)cccc4F)c4nc(c(-c5c(F)cccc5F)c5ccc2[nH]5)C=C4)C=C3)cc1
REMARK SMILES IDX 19 1 18 2 16 3 17 4 2 5 1 6 3 7 4 8 5 10 6 11 7 12 15 13
REMARK SMILES IDX 8 14 14 15 9 18 13 19 10 20 12 21 11 22 20 23 21 24 22 25
REMARK SMILES IDX 23 26 24 27 25 28 77 29 26 30 76 31 27 32 28 33 29 34 70 35
REMARK SMILES IDX 30 36 75 37 69 38 71 39 31 40 74 41 68 42 67 43 32 45 58 46
REMARK SMILES IDX 41 47 57 48 42 49 45 50 56 51 72 52 43 53 44 54 55 56 73 57
REMARK SMILES IDX 46 58 33 59 34 60 39 61 35 62 36 63 38 64 40 65 37 66 59 67
REMARK SMILES IDX 60 68 65 69 61 70 62 71 64 72 66 73 63 74 47 75 48 76 53 77
REMARK SMILES IDX 49 78 50 79 52 80 54 81 51 82
REMARK H PARENT 3 9 15 16 15 17 71 44 45 55
REMARK Flexibility Score: inf
ROOT
ATOM      1  C   UNL     1      -3.409   0.403  -0.529  1.00  0.00     0.274 C 
ENDROOT
BRANCH   1   2
ATOM      2  O   UNL     1      -1.986   0.536  -0.709  1.00  0.00    -0.461 OA
BRANCH   2   3
ATOM      3  C   UNL     1      -1.441   1.695  -0.246  1.00  0.00     0.328 C 
ATOM      4  O   UNL     1      -2.077   2.608   0.271  1.00  0.00    -0.250 OA
BRANCH   3   5
ATOM      5  C   UNL     1       0.046   1.827  -0.592  1.00  0.00     0.189 C 
ATOM      6  C   UNL     1       0.125   2.092  -2.099  1.00  0.00     0.043 C 
BRANCH   5   7
ATOM      7  N   UNL     1       0.888   0.685  -0.259  1.00  0.00    -0.338 N 
ATOM      8  C   UNL     1       2.234   0.591  -0.059  1.00  0.00     0.278 C 
ATOM      9  H   UNL     1       0.401  -0.165  -0.160  1.00  0.00     0.164 HD
ATOM     10  O   UNL     1       2.674  -0.565   0.026  1.00  0.00    -0.268 OA
BRANCH   8  11
ATOM     11  C   UNL     1       3.211   1.804   0.199  1.00  0.00     0.272 C 
ATOM     12  C   UNL     1       2.938   3.182  -0.434  1.00  0.00     0.076 C 
ATOM     13  N   UNL     1       3.583   1.787   1.632  1.00  0.00    -0.333 N 
ATOM     14  C   UNL     1       3.091   4.361   0.522  1.00  0.00     0.016 C 
ATOM     15  C   UNL     1       4.216   2.963   2.223  1.00  0.00     0.186 C 
ATOM     16  H   UNL     1       4.227   1.006   1.762  1.00  0.00     0.347 HD
ATOM     17  H   UNL     1       2.685   1.730   2.113  1.00  0.00     0.347 HD
ATOM     18  C   UNL     1       4.393   4.149   1.269  1.00  0.00     0.048 C 
ATOM     19  C   UNL     1       5.583   2.614   2.831  1.00  0.00     0.065 C 
ATOM     20  C   UNL     1       4.864   5.379   2.044  1.00  0.00     0.010 C 
ATOM     21  C   UNL     1       6.208   3.827   3.537  1.00  0.00     0.006 C 
ATOM     22  C   UNL     1       6.227   5.090   2.673  1.00  0.00     0.001 C 
ENDBRANCH   8  11
ENDBRANCH   5   7
ENDBRANCH   3   5
ENDBRANCH   2   3
ENDBRANCH   1   2
BRANCH   1  23
ATOM     23  C   UNL     1      -3.752  -0.530   0.635  1.00  0.00     0.275 C 
BRANCH  23  24
ATOM     24  O   UNL     1      -3.231  -0.059   1.889  1.00  0.00    -0.458 OA
BRANCH  24  25
ATOM     25  C   UNL     1      -1.945  -0.417   2.133  1.00  0.00     0.338 C 
ATOM     26  O   UNL     1      -1.215  -1.067   1.403  1.00  0.00    -0.246 OA
BRANCH  25  27
ATOM     27  C   UNL     1      -1.473   0.184   3.392  1.00  0.00     0.060 A 
ATOM     28  C   UNL     1      -0.197   0.758   3.403  1.00  0.00     0.016 A 
ATOM     29  C   UNL     1      -2.221   0.095   4.568  1.00  0.00     0.016 A 
ATOM     30  C   UNL     1       0.353   1.214   4.598  1.00  0.00     0.010 A 
ATOM     31  C   UNL     1      -1.668   0.551   5.768  1.00  0.00     0.010 A 
ATOM     32  C   UNL     1      -0.369   1.087   5.793  1.00  0.00    -0.014 A 
BRANCH  32  33
ATOM     33  C   UNL     1       0.274   1.435   7.082  1.00  0.00     0.031 A 
ATOM     34  C   UNL     1       0.789   0.342   7.975  1.00  0.00     0.074 A 
ATOM     35  C   UNL     1       0.410   2.722   7.443  1.00  0.00     0.049 A 
ATOM     36  N   UNL     1       1.339   0.430   9.159  1.00  0.00    -0.248 NA
ATOM     37  C   UNL     1       0.664  -1.034   7.468  1.00  0.00     0.031 C 
ATOM     38  C   UNL     1      -0.023   3.872   6.651  1.00  0.00     0.029 A 
ATOM     39  N   UNL     1       0.950   3.275   8.575  1.00  0.00    -0.354 N 
ATOM     40  C   UNL     1       1.616  -0.875   9.545  1.00  0.00     0.074 A 
ATOM     41  C   UNL     1       1.151  -1.738   8.480  1.00  0.00     0.031 C 
ATOM     42  C   UNL     1       0.270   4.998   7.323  1.00  0.00     0.029 A 
ATOM     43  C   UNL     1       0.880   4.646   8.603  1.00  0.00     0.049 A 
ATOM     44  H   UNL     1       1.350   2.741   9.299  1.00  0.00     0.167 HD
ATOM     45  C   UNL     1       2.212  -1.313  10.680  1.00  0.00     0.037 A 
ATOM     46  C   UNL     1       1.251   5.515   9.562  1.00  0.00     0.037 A 
ATOM     47  C   UNL     1       2.687  -0.456  11.733  1.00  0.00     0.049 A 
ATOM     48  C   UNL     1       1.864   5.000  10.834  1.00  0.00     0.074 A 
ATOM     49  C   UNL     1       3.324  -0.807  12.911  1.00  0.00     0.029 A 
ATOM     50  N   UNL     1       2.576   0.926  11.736  1.00  0.00    -0.354 N 
ATOM     51  N   UNL     1       2.133   3.766  11.182  1.00  0.00    -0.248 NA
ATOM     52  C   UNL     1       2.223   6.003  11.848  1.00  0.00     0.031 C 
ATOM     53  C   UNL     1       3.567   0.361  13.643  1.00  0.00     0.029 A 
ATOM     54  C   UNL     1       3.116   1.442  12.903  1.00  0.00     0.049 A 
ATOM     55  H   UNL     1       2.173   1.462  11.014  1.00  0.00     0.167 HD
ATOM     56  C   UNL     1       2.716   3.844  12.441  1.00  0.00     0.074 A 
ATOM     57  C   UNL     1       2.769   5.248  12.792  1.00  0.00     0.031 C 
ATOM     58  C   UNL     1       3.167   2.842  13.235  1.00  0.00     0.037 A 
BRANCH  45  59
ATOM     59  C   UNL     1       2.365  -2.795  10.847  1.00  0.00     0.057 A 
ATOM     60  C   UNL     1       3.315  -3.526  10.122  1.00  0.00     0.134 A 
ATOM     61  C   UNL     1       1.572  -3.495  11.765  1.00  0.00     0.134 A 
ATOM     62  F   UNL     1       4.096  -2.916   9.218  1.00  0.00    -0.206 F 
ATOM     63  C   UNL     1       3.456  -4.904  10.289  1.00  0.00     0.040 A 
ATOM     64  C   UNL     1       1.719  -4.869  11.957  1.00  0.00     0.040 A 
ATOM     65  F   UNL     1       0.646  -2.853  12.494  1.00  0.00    -0.206 F 
ATOM     66  C   UNL     1       2.660  -5.579  11.213  1.00  0.00     0.006 A 
ENDBRANCH  45  59
BRANCH  46  67
ATOM     67  C   UNL     1       1.051   6.970   9.357  1.00  0.00     0.057 A 
ATOM     68  C   UNL     1       2.138   7.824   9.143  1.00  0.00     0.134 A 
ATOM     69  C   UNL     1      -0.227   7.541   9.383  1.00  0.00     0.134 A 
ATOM     70  F   UNL     1       3.387   7.336   9.130  1.00  0.00    -0.206 F 
ATOM     71  C   UNL     1       1.964   9.198   8.976  1.00  0.00     0.040 A 
ATOM     72  C   UNL     1      -0.418   8.910   9.196  1.00  0.00     0.040 A 
ATOM     73  F   UNL     1      -1.308   6.773   9.584  1.00  0.00    -0.206 F 
ATOM     74  C   UNL     1       0.681   9.744   8.997  1.00  0.00     0.006 A 
ENDBRANCH  46  67
BRANCH  58  75
ATOM     75  C   UNL     1       3.788   3.233  14.542  1.00  0.00     0.057 A 
ATOM     76  C   UNL     1       3.015   3.667  15.626  1.00  0.00     0.134 A 
ATOM     77  C   UNL     1       5.174   3.148  14.727  1.00  0.00     0.134 A 
ATOM     78  F   UNL     1       1.684   3.783  15.508  1.00  0.00    -0.206 F 
ATOM     79  C   UNL     1       3.601   4.022  16.842  1.00  0.00     0.040 A 
ATOM     80  C   UNL     1       5.769   3.480  15.945  1.00  0.00     0.040 A 
ATOM     81  F   UNL     1       5.970   2.734  13.730  1.00  0.00    -0.206 F 
ATOM     82  C   UNL     1       4.982   3.924  17.005  1.00  0.00     0.006 A 
ENDBRANCH  58  75
ENDBRANCH  32  33
ENDBRANCH  25  27
ENDBRANCH  24  25
ENDBRANCH  23  24
ENDBRANCH   1  23
TORSDOF 13
