REMARK SMILES CC1(C)CCCC[C@H]1[N@H+]1CCC[N@H+](CC(=O)OCCOC(=O)c2ccc(-c3c4nc(c(-c5c(F)cccc5F)c5ccc([nH]5)c(-c5c(F)cccc5F)c5nc(c(-c6c(F)cccc6F)c6ccc3[nH]6)C=C5)C=C4)cc2)CC1
REMARK SMILES IDX 17 1 15 2 16 3 14 4 13 5 77 7 78 8 9 9 8 11 1 12 2 13 3 14
REMARK SMILES IDX 4 15 5 16 7 17 6 18 10 19 12 21 11 22 18 24 19 25 20 26
REMARK SMILES IDX 21 27 22 28 23 29 24 30 76 31 25 32 75 33 26 34 27 35 28 36
REMARK SMILES IDX 69 37 29 38 74 39 68 40 70 41 30 42 73 43 67 44 66 45 31 47
REMARK SMILES IDX 57 48 40 49 56 50 41 51 44 52 55 53 71 54 42 55 43 56 54 58
REMARK SMILES IDX 72 59 45 60 32 61 33 62 38 63 34 64 35 65 37 66 39 67 36 68
REMARK SMILES IDX 58 69 59 70 64 71 60 72 61 73 63 74 65 75 62 76 46 77 47 78
REMARK SMILES IDX 52 79 48 80 49 81 51 82 53 83 50 84
REMARK H PARENT 13 6 9 10 70 46 44 57
REMARK Flexibility Score: 90.00
ROOT
ATOM      1  O   UNL     1       0.613  -3.099  -1.451  1.00  0.00    -0.458 OA
ENDROOT
BRANCH   1   2
ATOM      2  C   UNL     1       1.114  -3.396  -0.218  1.00  0.00     0.361 C 
ATOM      3  O   UNL     1       0.551  -3.142   0.843  1.00  0.00    -0.245 OA
BRANCH   2   4
ATOM      4  C   UNL     1       2.430  -4.145  -0.303  1.00  0.00     0.386 C 
BRANCH   4   5
ATOM      5  N   UNL     1       3.463  -3.486  -1.104  1.00  0.00    -0.321 N 
ATOM      6  H   UNL     1       4.259  -4.109  -0.970  1.00  0.00     0.348 HD
BRANCH   5   7
ATOM      7  C   UNL     1       4.015  -2.253  -0.565  1.00  0.00     0.324 C 
BRANCH   7   8
ATOM      8  C   UNL     1       3.240  -0.903  -0.666  1.00  0.00     0.324 C 
BRANCH   8   9
ATOM      9  N   UNL     1       2.307  -0.596  -1.774  1.00  0.00    -0.327 N 
ATOM     10  H   UNL     1       1.480  -1.150  -1.553  1.00  0.00     0.348 HD
BRANCH   9  11
ATOM     11  C   UNL     1       1.851   0.873  -1.838  1.00  0.00     0.189 C 
ATOM     12  C   UNL     1       1.028   1.191   0.632  1.00  0.00     0.017 C 
ATOM     13  C   UNL     1       0.716   1.490  -0.842  1.00  0.00     0.017 C 
ATOM     14  C   UNL     1      -0.757   1.077  -1.090  1.00  0.00     0.017 C 
ATOM     15  C   UNL     1       0.588   3.033  -1.061  1.00  0.00     0.012 C 
ATOM     16  C   UNL     1       1.881   3.805  -1.035  1.00  0.00     0.001 C 
ATOM     17  C   UNL     1       3.104   1.810  -1.851  1.00  0.00     0.065 C 
ATOM     18  C   UNL     1       2.792   3.272  -2.116  1.00  0.00     0.006 C 
ENDBRANCH   9  11
BRANCH   9  19
ATOM     19  C   UNL     1       2.836  -1.025  -3.104  1.00  0.00     0.268 CG0
ATOM     20  G   UNL     1       3.667  -2.306  -3.326  1.00  0.00     0.000 G0
ENDBRANCH   9  19
ENDBRANCH   8   9
ENDBRANCH   7   8
ENDBRANCH   5   7
BRANCH   5  21
ATOM     21  C   UNL     1       3.293  -3.560  -2.545  1.00  0.00     0.268 C 
BRANCH  21  22
ATOM     22  C   UNL     1       3.667  -2.306  -3.326  1.00  0.00     0.123 CG0
ATOM     23  G   UNL     1       2.836  -1.025  -3.104  1.00  0.00     0.000 G0
ENDBRANCH  21  22
ENDBRANCH   5  21
ENDBRANCH   4   5
ENDBRANCH   2   4
ENDBRANCH   1   2
BRANCH   1  24
ATOM     24  C   UNL     1      -0.504  -2.216  -1.401  1.00  0.00     0.274 C 
BRANCH  24  25
ATOM     25  C   UNL     1      -0.831  -1.584  -2.759  1.00  0.00     0.275 C 
BRANCH  25  26
ATOM     26  O   UNL     1      -1.331  -2.575  -3.644  1.00  0.00    -0.458 OA
BRANCH  26  27
ATOM     27  C   UNL     1      -0.386  -3.250  -4.320  1.00  0.00     0.338 C 
ATOM     28  O   UNL     1       0.732  -2.925  -4.675  1.00  0.00    -0.246 OA
BRANCH  27  29
ATOM     29  C   UNL     1      -0.914  -4.595  -4.320  1.00  0.00     0.060 A 
ATOM     30  C   UNL     1      -0.593  -5.420  -3.233  1.00  0.00     0.016 A 
ATOM     31  C   UNL     1      -1.846  -4.941  -5.290  1.00  0.00     0.016 A 
ATOM     32  C   UNL     1      -1.210  -6.640  -3.110  1.00  0.00     0.010 A 
ATOM     33  C   UNL     1      -2.464  -6.163  -5.169  1.00  0.00     0.010 A 
ATOM     34  C   UNL     1      -2.128  -7.005  -4.091  1.00  0.00    -0.014 A 
BRANCH  34  35
ATOM     35  C   UNL     1      -2.687  -8.348  -4.091  1.00  0.00     0.031 A 
ATOM     36  C   UNL     1      -2.145  -9.288  -5.110  1.00  0.00     0.074 A 
ATOM     37  C   UNL     1      -3.719  -8.596  -3.275  1.00  0.00     0.049 A 
ATOM     38  N   UNL     1      -2.657 -10.393  -5.560  1.00  0.00    -0.248 NA
ATOM     39  C   UNL     1      -0.877  -8.892  -5.755  1.00  0.00     0.031 C 
ATOM     40  C   UNL     1      -4.235  -7.672  -2.259  1.00  0.00     0.029 A 
ATOM     41  N   UNL     1      -4.550  -9.671  -3.211  1.00  0.00    -0.354 N 
ATOM     42  C   UNL     1      -1.804 -10.803  -6.575  1.00  0.00     0.074 A 
ATOM     43  C   UNL     1      -0.750  -9.822  -6.688  1.00  0.00     0.031 C 
ATOM     44  C   UNL     1      -5.327  -8.211  -1.696  1.00  0.00     0.029 A 
ATOM     45  C   UNL     1      -5.605  -9.479  -2.355  1.00  0.00     0.049 A 
ATOM     46  H   UNL     1      -4.409 -10.500  -3.724  1.00  0.00     0.167 HD
ATOM     47  C   UNL     1      -1.927 -11.908  -7.341  1.00  0.00     0.037 A 
ATOM     48  C   UNL     1      -6.697 -10.241  -2.184  1.00  0.00     0.037 A 
ATOM     49  C   UNL     1      -3.016 -12.830  -7.164  1.00  0.00     0.049 A 
ATOM     50  C   UNL     1      -6.796 -11.475  -3.032  1.00  0.00     0.074 A 
ATOM     51  C   UNL     1      -3.285 -14.003  -7.838  1.00  0.00     0.029 A 
ATOM     52  N   UNL     1      -4.026 -12.663  -6.218  1.00  0.00    -0.354 N 
ATOM     53  N   UNL     1      -5.997 -11.877  -3.996  1.00  0.00    -0.248 NA
ATOM     54  C   UNL     1      -7.930 -12.364  -2.774  1.00  0.00     0.031 C 
ATOM     55  C   UNL     1      -4.471 -14.533  -7.315  1.00  0.00     0.029 A 
ATOM     56  C   UNL     1      -4.919 -13.713  -6.286  1.00  0.00     0.049 A 
ATOM     57  H   UNL     1      -4.092 -11.906  -5.592  1.00  0.00     0.167 HD
ATOM     58  C   UNL     1      -6.513 -13.079  -4.447  1.00  0.00     0.074 A 
ATOM     59  C   UNL     1      -7.691 -13.343  -3.636  1.00  0.00     0.031 C 
ATOM     60  C   UNL     1      -6.069 -13.900  -5.433  1.00  0.00     0.037 A 
BRANCH  47  61
ATOM     61  C   UNL     1      -0.901 -12.128  -8.412  1.00  0.00     0.057 A 
ATOM     62  C   UNL     1       0.439 -12.415  -8.111  1.00  0.00     0.134 A 
ATOM     63  C   UNL     1      -1.243 -12.024  -9.766  1.00  0.00     0.134 A 
ATOM     64  F   UNL     1       0.846 -12.499  -6.835  1.00  0.00    -0.206 F 
ATOM     65  C   UNL     1       1.401 -12.566  -9.112  1.00  0.00     0.040 A 
ATOM     66  C   UNL     1      -0.295 -12.199 -10.778  1.00  0.00     0.040 A 
ATOM     67  F   UNL     1      -2.501 -11.737 -10.131  1.00  0.00    -0.206 F 
ATOM     68  C   UNL     1       1.034 -12.464 -10.452  1.00  0.00     0.006 A 
ENDBRANCH  47  61
BRANCH  48  69
ATOM     69  C   UNL     1      -7.716  -9.859  -1.179  1.00  0.00     0.057 A 
ATOM     70  C   UNL     1      -7.845 -10.575   0.015  1.00  0.00     0.134 A 
ATOM     71  C   UNL     1      -8.529  -8.729  -1.341  1.00  0.00     0.134 A 
ATOM     72  F   UNL     1      -7.093 -11.665   0.230  1.00  0.00    -0.206 F 
ATOM     73  C   UNL     1      -8.748 -10.192   1.007  1.00  0.00     0.040 A 
ATOM     74  C   UNL     1      -9.421  -8.320  -0.347  1.00  0.00     0.040 A 
ATOM     75  F   UNL     1      -8.438  -7.981  -2.451  1.00  0.00    -0.206 F 
ATOM     76  C   UNL     1      -9.535  -9.055   0.831  1.00  0.00     0.006 A 
ENDBRANCH  48  69
BRANCH  60  77
ATOM     77  C   UNL     1      -6.852 -15.157  -5.634  1.00  0.00     0.057 A 
ATOM     78  C   UNL     1      -8.099 -15.153  -6.266  1.00  0.00     0.134 A 
ATOM     79  C   UNL     1      -6.327 -16.386  -5.217  1.00  0.00     0.134 A 
ATOM     80  F   UNL     1      -8.653 -13.999  -6.671  1.00  0.00    -0.206 F 
ATOM     81  C   UNL     1      -8.815 -16.332  -6.455  1.00  0.00     0.040 A 
ATOM     82  C   UNL     1      -7.021 -17.574  -5.425  1.00  0.00     0.040 A 
ATOM     83  F   UNL     1      -5.130 -16.446  -4.613  1.00  0.00    -0.206 F 
ATOM     84  C   UNL     1      -8.271 -17.548  -6.040  1.00  0.00     0.006 A 
ENDBRANCH  60  77
ENDBRANCH  34  35
ENDBRANCH  27  29
ENDBRANCH  26  27
ENDBRANCH  25  26
ENDBRANCH  24  25
ENDBRANCH   1  24
TORSDOF 13
