REMARK SMILES NC(=O)c1ccc(NC(=O)Cc2ccccc2C(=O)OCCOC(=O)c2ccc(-c3c4nc(c(-c5c(F)cccc5F)c5ccc([nH]5)c(-c5c(F)cccc5F)c5nc(c(-c6c(F)cccc6F)c6ccc3[nH]6)C=C5)C=C4)cc2)cc1
REMARK SMILES IDX 21 1 20 2 18 3 19 4 17 5 12 6 13 7 14 8 16 9 15 10 11 11
REMARK SMILES IDX 9 12 8 13 10 15 7 16 4 17 5 18 81 19 6 20 80 21 2 22 1 23
REMARK SMILES IDX 3 26 22 27 23 28 24 29 25 30 26 31 27 32 79 33 28 34 78 35
REMARK SMILES IDX 29 36 30 37 31 38 72 39 32 40 77 41 71 42 73 43 33 44 76 45
REMARK SMILES IDX 70 46 69 47 34 49 60 50 43 51 59 52 44 53 47 54 58 55 74 56
REMARK SMILES IDX 45 57 46 58 57 60 75 61 48 62 35 63 36 64 41 65 37 66 38 67
REMARK SMILES IDX 40 68 42 69 39 70 61 71 62 72 67 73 63 74 64 75 66 76 68 77
REMARK SMILES IDX 65 78 49 79 50 80 55 81 51 82 52 83 54 84 56 85 53 86
REMARK H PARENT 8 14 1 24 1 25 73 48 47 59
REMARK Flexibility Score: inf
ROOT
ATOM      1  C   UNL     1       3.242   5.519  -1.454  1.00  0.00     0.275 C 
ENDROOT
BRANCH   1   2
ATOM      2  O   UNL     1       1.871   6.170  -1.910  1.00  0.00    -0.458 OA
BRANCH   2   3
ATOM      3  C   UNL     1       0.731   5.805  -2.628  1.00  0.00     0.338 C 
ATOM      4  O   UNL     1       0.234   4.748  -3.015  1.00  0.00    -0.246 OA
BRANCH   3   5
ATOM      5  C   UNL     1       0.081   6.851  -3.324  1.00  0.00     0.063 A 
ATOM      6  C   UNL     1       0.843   7.404  -4.333  1.00  0.00    -0.024 A 
ATOM      7  C   UNL     1       0.175   8.329  -5.143  1.00  0.00     0.005 A 
ATOM      8  C   UNL     1      -1.231   8.471  -5.066  1.00  0.00     0.000 A 
ATOM      9  C   UNL     1      -1.323   6.873  -3.310  1.00  0.00     0.016 A 
ATOM     10  C   UNL     1      -1.989   7.681  -4.204  1.00  0.00     0.001 A 
BRANCH   6  11
ATOM     11  C   UNL     1       2.296   6.957  -4.475  1.00  0.00     0.136 C 
BRANCH  11  12
ATOM     12  C   UNL     1       2.686   5.442  -4.727  1.00  0.00     0.228 C 
ATOM     13  N   UNL     1       2.651   4.255  -4.026  1.00  0.00    -0.326 N 
ATOM     14  H   UNL     1       3.094   3.612  -4.626  1.00  0.00     0.169 HD
ATOM     15  O   UNL     1       3.332   5.276  -5.793  1.00  0.00    -0.274 OA
BRANCH  13  16
ATOM     16  C   UNL     1       2.290   3.440  -2.835  1.00  0.00     0.041 A 
ATOM     17  C   UNL     1       2.337   1.091  -0.025  1.00  0.00     0.039 A 
ATOM     18  C   UNL     1       1.516   2.655   0.199  1.00  0.00     0.016 A 
ATOM     19  C   UNL     1       3.176   0.696  -1.565  1.00  0.00     0.016 A 
ATOM     20  C   UNL     1       1.412   3.799  -1.219  1.00  0.00     0.027 A 
ATOM     21  C   UNL     1       3.173   1.850  -2.959  1.00  0.00     0.027 A 
BRANCH  17  22
ATOM     22  C   UNL     1       1.822   0.051   0.898  1.00  0.00     0.248 C 
ATOM     23  N   UNL     1       2.249  -1.230   0.740  1.00  0.00    -0.366 N 
ATOM     24  H   UNL     1       1.921  -1.937   1.341  1.00  0.00     0.159 HD
ATOM     25  H   UNL     1       2.888  -1.451   0.023  1.00  0.00     0.159 HD
ATOM     26  O   UNL     1       0.961   0.314   1.728  1.00  0.00    -0.270 OA
ENDBRANCH  17  22
ENDBRANCH  13  16
ENDBRANCH  11  12
ENDBRANCH   6  11
ENDBRANCH   3   5
ENDBRANCH   2   3
ENDBRANCH   1   2
BRANCH   1  27
ATOM     27  C   UNL     1       3.581   4.041  -0.732  1.00  0.00     0.275 C 
BRANCH  27  28
ATOM     28  O   UNL     1       2.796   2.554  -1.247  1.00  0.00    -0.458 OA
BRANCH  28  29
ATOM     29  C   UNL     1       1.166   1.813  -1.817  1.00  0.00     0.338 C 
ATOM     30  O   UNL     1       0.012   2.068  -1.333  1.00  0.00    -0.246 OA
BRANCH  29  31
ATOM     31  C   UNL     1       0.784   0.813  -2.914  1.00  0.00     0.060 A 
ATOM     32  C   UNL     1      -0.038   1.407  -3.899  1.00  0.00     0.016 A 
ATOM     33  C   UNL     1       0.443  -0.468  -2.442  1.00  0.00     0.016 A 
ATOM     34  C   UNL     1      -1.284   0.853  -4.192  1.00  0.00     0.010 A 
ATOM     35  C   UNL     1      -0.771  -1.052  -2.793  1.00  0.00     0.010 A 
ATOM     36  C   UNL     1      -1.670  -0.365  -3.615  1.00  0.00    -0.014 A 
BRANCH  36  37
ATOM     37  C   UNL     1      -2.954  -1.012  -3.954  1.00  0.00     0.031 A 
ATOM     38  C   UNL     1      -4.020  -1.268  -2.924  1.00  0.00     0.074 A 
ATOM     39  C   UNL     1      -3.051  -1.506  -5.199  1.00  0.00     0.049 A 
ATOM     40  N   UNL     1      -5.078  -2.036  -3.013  1.00  0.00    -0.248 NA
ATOM     41  C   UNL     1      -3.877  -0.592  -1.625  1.00  0.00     0.031 C 
ATOM     42  C   UNL     1      -2.046  -1.321  -6.250  1.00  0.00     0.029 A 
ATOM     43  N   UNL     1      -4.001  -2.300  -5.777  1.00  0.00    -0.354 N 
ATOM     44  C   UNL     1      -5.716  -1.958  -1.778  1.00  0.00     0.074 A 
ATOM     45  C   UNL     1      -4.920  -1.071  -0.954  1.00  0.00     0.031 C 
ATOM     46  C   UNL     1      -2.418  -2.004  -7.337  1.00  0.00     0.029 A 
ATOM     47  C   UNL     1      -3.649  -2.720  -7.034  1.00  0.00     0.049 A 
ATOM     48  H   UNL     1      -4.848  -2.545  -5.337  1.00  0.00     0.167 HD
ATOM     49  C   UNL     1      -6.855  -2.584  -1.383  1.00  0.00     0.037 A 
ATOM     50  C   UNL     1      -4.221  -3.625  -7.841  1.00  0.00     0.037 A 
ATOM     51  C   UNL     1      -7.621  -3.465  -2.236  1.00  0.00     0.049 A 
ATOM     52  C   UNL     1      -5.465  -4.308  -7.378  1.00  0.00     0.074 A 
ATOM     53  C   UNL     1      -8.813  -4.115  -1.965  1.00  0.00     0.029 A 
ATOM     54  N   UNL     1      -7.260  -3.824  -3.528  1.00  0.00    -0.354 N 
ATOM     55  N   UNL     1      -6.076  -4.207  -6.223  1.00  0.00    -0.248 NA
ATOM     56  C   UNL     1      -6.106  -5.218  -8.331  1.00  0.00     0.031 C 
ATOM     57  C   UNL     1      -9.148  -4.901  -3.074  1.00  0.00     0.029 A 
ATOM     58  C   UNL     1      -8.192  -4.703  -4.058  1.00  0.00     0.049 A 
ATOM     59  H   UNL     1      -6.457  -3.502  -4.000  1.00  0.00     0.167 HD
ATOM     60  C   UNL     1      -7.189  -5.025  -6.312  1.00  0.00     0.074 A 
ATOM     61  C   UNL     1      -7.171  -5.604  -7.643  1.00  0.00     0.031 C 
ATOM     62  C   UNL     1      -8.142  -5.273  -5.381  1.00  0.00     0.037 A 
BRANCH  49  63
ATOM     63  C   UNL     1      -7.341  -2.367   0.026  1.00  0.00     0.057 A 
ATOM     64  C   UNL     1      -7.891  -1.148   0.446  1.00  0.00     0.134 A 
ATOM     65  C   UNL     1      -7.337  -3.417   0.956  1.00  0.00     0.134 A 
ATOM     66  F   UNL     1      -7.938  -0.100  -0.389  1.00  0.00    -0.206 F 
ATOM     67  C   UNL     1      -8.396  -0.976   1.740  1.00  0.00     0.040 A 
ATOM     68  C   UNL     1      -7.860  -3.265   2.244  1.00  0.00     0.040 A 
ATOM     69  F   UNL     1      -6.845  -4.620   0.622  1.00  0.00    -0.206 F 
ATOM     70  C   UNL     1      -8.387  -2.039   2.640  1.00  0.00     0.006 A 
ENDBRANCH  49  63
BRANCH  50  71
ATOM     71  C   UNL     1      -3.603  -3.895  -9.158  1.00  0.00     0.057 A 
ATOM     72  C   UNL     1      -4.172  -3.385 -10.328  1.00  0.00     0.134 A 
ATOM     73  C   UNL     1      -2.375  -4.561  -9.268  1.00  0.00     0.134 A 
ATOM     74  F   UNL     1      -5.345  -2.737 -10.280  1.00  0.00    -0.206 F 
ATOM     75  C   UNL     1      -3.543  -3.528 -11.564  1.00  0.00     0.040 A 
ATOM     76  C   UNL     1      -1.723  -4.689 -10.494  1.00  0.00     0.040 A 
ATOM     77  F   UNL     1      -1.765  -5.044  -8.174  1.00  0.00    -0.206 F 
ATOM     78  C   UNL     1      -2.310  -4.171 -11.647  1.00  0.00     0.006 A 
ENDBRANCH  50  71
BRANCH  62  79
ATOM     79  C   UNL     1      -9.249  -6.192  -5.797  1.00  0.00     0.057 A 
ATOM     80  C   UNL     1      -9.052  -7.572  -5.930  1.00  0.00     0.134 A 
ATOM     81  C   UNL     1     -10.525  -5.687  -6.076  1.00  0.00     0.134 A 
ATOM     82  F   UNL     1      -7.845  -8.111  -5.698  1.00  0.00    -0.206 F 
ATOM     83  C   UNL     1     -10.078  -8.415  -6.355  1.00  0.00     0.040 A 
ATOM     84  C   UNL     1     -11.566  -6.523  -6.478  1.00  0.00     0.040 A 
ATOM     85  F   UNL     1     -10.777  -4.374  -5.966  1.00  0.00    -0.206 F 
ATOM     86  C   UNL     1     -11.341  -7.891  -6.626  1.00  0.00     0.006 A 
ENDBRANCH  62  79
ENDBRANCH  36  37
ENDBRANCH  29  31
ENDBRANCH  28  29
ENDBRANCH  27  28
ENDBRANCH   1  27
TORSDOF 15
