REMARK SMILES Cc1nccn1C1(C(=O)OCCOC(=O)c2ccc(-c3c4nc(c(-c5c(F)cccc5F)c5ccc([nH]5)c(-c5c(F)cccc5F)c5nc(c(-c6c(F)cccc6F)c6ccc3[nH]6)C=C5)C=C4)cc2)CCN(C(=O)[C@@H]2C[C@H]2c2ccccc2)CC1
REMARK SMILES IDX 11 1 10 2 8 3 9 4 7 5 70 6 85 7 71 8 84 9 72 10 73 11 74 12
REMARK SMILES IDX 6 13 1 14 2 15 3 16 4 17 5 18 75 19 76 20 77 21 78 22 79 23
REMARK SMILES IDX 83 24 80 25 82 26 81 27 12 28 13 29 14 30 15 31 16 32 17 33
REMARK SMILES IDX 69 34 18 35 68 36 19 37 20 38 21 39 62 40 22 41 67 42 61 43
REMARK SMILES IDX 63 44 23 45 66 46 60 47 59 48 24 50 50 51 33 52 49 53 34 54
REMARK SMILES IDX 37 55 48 56 64 57 35 58 36 59 47 61 65 62 38 63 25 64 26 65
REMARK SMILES IDX 31 66 27 67 28 68 30 69 32 70 29 71 51 72 52 73 57 74 53 75
REMARK SMILES IDX 54 76 56 77 58 78 55 79 39 80 40 81 45 82 41 83 42 84 44 85
REMARK SMILES IDX 46 86 43 87
REMARK H PARENT 63 49 37 60
REMARK Flexibility Score: inf
ROOT
ATOM      1  C   UNL     1       0.820   6.349  -1.891  1.00  0.00     0.274 C 
ENDROOT
BRANCH   1   2
ATOM      2  O   UNL     1       1.053   5.103  -1.201  1.00  0.00    -0.460 OA
BRANCH   2   3
ATOM      3  C   UNL     1       0.302   4.040  -1.623  1.00  0.00     0.332 C 
ATOM      4  O   UNL     1      -0.689   4.214  -2.328  1.00  0.00    -0.249 OA
BRANCH   3   5
ATOM      5  C   UNL     1       0.706   2.667  -0.960  1.00  0.00     0.146 C 
ATOM      6  C   UNL     1       2.159   2.695  -0.399  1.00  0.00     0.062 C 
ATOM      7  C   UNL     1      -0.342   2.681   0.156  1.00  0.00     0.062 C 
ATOM      8  C   UNL     1       2.418   2.091   0.984  1.00  0.00     0.122 C 
ATOM      9  C   UNL     1      -0.028   1.796   1.315  1.00  0.00     0.122 C 
ATOM     10  N   UNL     1       1.279   2.048   1.889  1.00  0.00    -0.342 N 
ATOM     11  C   UNL     1       1.565   1.890   3.251  1.00  0.00     0.226 C 
ATOM     12  O   UNL     1       2.706   1.692   3.663  1.00  0.00    -0.275 OA
BRANCH   5  13
ATOM     13  N   UNL     1       0.465   1.489  -1.870  1.00  0.00    -0.318 N 
ATOM     14  C   UNL     1       1.696  -0.525  -0.743  1.00  0.00     0.087 C 
ATOM     15  C   UNL     1       0.805   0.137  -1.728  1.00  0.00     0.106 A 
ATOM     16  N   UNL     1       0.240  -0.599  -2.668  1.00  0.00    -0.242 NA
ATOM     17  C   UNL     1      -0.420   0.247  -3.485  1.00  0.00     0.131 A 
ATOM     18  C   UNL     1      -0.262   1.532  -3.048  1.00  0.00     0.108 A 
ENDBRANCH   5  13
BRANCH  11  19
ATOM     19  C   UNL     1       0.509   2.154   4.265  1.00  0.00     0.087 C 
ATOM     20  C   UNL     1       0.048   1.111   5.248  1.00  0.00     0.023 C 
ATOM     21  C   UNL     1      -0.915   1.621   4.224  1.00  0.00     0.032 C 
BRANCH  21  22
ATOM     22  C   UNL     1      -2.021   2.638   4.447  1.00  0.00    -0.044 A 
ATOM     23  C   UNL     1      -3.265   2.244   4.957  1.00  0.00     0.004 A 
ATOM     24  C   UNL     1      -1.900   3.982   4.030  1.00  0.00     0.004 A 
ATOM     25  C   UNL     1      -4.338   3.139   5.038  1.00  0.00     0.000 A 
ATOM     26  C   UNL     1      -2.964   4.885   4.120  1.00  0.00     0.000 A 
ATOM     27  C   UNL     1      -4.188   4.458   4.618  1.00  0.00     0.000 A 
ENDBRANCH  21  22
ENDBRANCH  11  19
ENDBRANCH   3   5
ENDBRANCH   2   3
ENDBRANCH   1   2
BRANCH   1  28
ATOM     28  C   UNL     1       1.738   6.497  -3.101  1.00  0.00     0.275 C 
BRANCH  28  29
ATOM     29  O   UNL     1       1.496   5.500  -4.098  1.00  0.00    -0.458 OA
BRANCH  29  30
ATOM     30  C   UNL     1       2.198   4.367  -3.891  1.00  0.00     0.338 C 
ATOM     31  O   UNL     1       2.765   4.017  -2.869  1.00  0.00    -0.246 OA
BRANCH  30  32
ATOM     32  C   UNL     1       2.445   3.663  -5.134  1.00  0.00     0.060 A 
ATOM     33  C   UNL     1       2.777   2.307  -5.033  1.00  0.00     0.016 A 
ATOM     34  C   UNL     1       2.786   4.453  -6.234  1.00  0.00     0.016 A 
ATOM     35  C   UNL     1       3.615   1.770  -5.980  1.00  0.00     0.010 A 
ATOM     36  C   UNL     1       3.631   3.918  -7.169  1.00  0.00     0.010 A 
ATOM     37  C   UNL     1       4.091   2.610  -6.989  1.00  0.00    -0.014 A 
BRANCH  37  38
ATOM     38  C   UNL     1       5.020   2.060  -7.951  1.00  0.00     0.031 A 
ATOM     39  C   UNL     1       4.404   1.098  -8.900  1.00  0.00     0.074 A 
ATOM     40  C   UNL     1       6.252   2.582  -8.085  1.00  0.00     0.049 A 
ATOM     41  N   UNL     1       4.830  -0.066  -9.263  1.00  0.00    -0.248 NA
ATOM     42  C   UNL     1       3.079   1.451  -9.447  1.00  0.00     0.031 C 
ATOM     43  C   UNL     1       6.825   3.740  -7.391  1.00  0.00     0.029 A 
ATOM     44  N   UNL     1       7.197   2.283  -9.011  1.00  0.00    -0.354 N 
ATOM     45  C   UNL     1       3.911  -0.526 -10.203  1.00  0.00     0.074 A 
ATOM     46  C   UNL     1       2.794   0.378 -10.178  1.00  0.00     0.031 C 
ATOM     47  C   UNL     1       7.887   4.190  -8.095  1.00  0.00     0.029 A 
ATOM     48  C   UNL     1       8.117   3.297  -9.219  1.00  0.00     0.049 A 
ATOM     49  H   UNL     1       7.226   1.424  -9.491  1.00  0.00     0.167 HD
ATOM     50  C   UNL     1       4.218  -1.505 -11.092  1.00  0.00     0.037 A 
ATOM     51  C   UNL     1       8.918   3.436 -10.303  1.00  0.00     0.037 A 
ATOM     52  C   UNL     1       5.325  -2.304 -10.648  1.00  0.00     0.049 A 
ATOM     53  C   UNL     1       8.936   2.130 -11.017  1.00  0.00     0.074 A 
ATOM     54  C   UNL     1       5.559  -3.079  -9.527  1.00  0.00     0.029 A 
ATOM     55  N   UNL     1       6.556  -2.099 -11.220  1.00  0.00    -0.354 N 
ATOM     56  N   UNL     1       9.516   1.054 -10.563  1.00  0.00    -0.248 NA
ATOM     57  C   UNL     1       7.920   1.903 -12.038  1.00  0.00     0.031 C 
ATOM     58  C   UNL     1       6.934  -2.875  -9.217  1.00  0.00     0.029 A 
ATOM     59  C   UNL     1       7.457  -2.021 -10.188  1.00  0.00     0.049 A 
ATOM     60  H   UNL     1       6.754  -2.023 -12.182  1.00  0.00     0.167 HD
ATOM     61  C   UNL     1       8.670   0.013 -10.921  1.00  0.00     0.074 A 
ATOM     62  C   UNL     1       7.758   0.583 -11.909  1.00  0.00     0.031 C 
ATOM     63  C   UNL     1       8.592  -1.131 -10.179  1.00  0.00     0.037 A 
BRANCH  50  64
ATOM     64  C   UNL     1       3.708  -1.517 -12.505  1.00  0.00     0.057 A 
ATOM     65  C   UNL     1       3.880  -2.663 -13.296  1.00  0.00     0.134 A 
ATOM     66  C   UNL     1       3.305  -0.356 -13.202  1.00  0.00     0.134 A 
ATOM     67  F   UNL     1       4.287  -3.819 -12.752  1.00  0.00    -0.206 F 
ATOM     68  C   UNL     1       3.718  -2.642 -14.686  1.00  0.00     0.040 A 
ATOM     69  C   UNL     1       3.088  -0.338 -14.580  1.00  0.00     0.040 A 
ATOM     70  F   UNL     1       3.200   0.838 -12.604  1.00  0.00    -0.206 F 
ATOM     71  C   UNL     1       3.324  -1.476 -15.333  1.00  0.00     0.006 A 
ENDBRANCH  50  64
BRANCH  51  72
ATOM     72  C   UNL     1       9.447   4.683 -10.900  1.00  0.00     0.057 A 
ATOM     73  C   UNL     1      10.506   4.652 -11.817  1.00  0.00     0.134 A 
ATOM     74  C   UNL     1       8.791   5.921 -10.764  1.00  0.00     0.134 A 
ATOM     75  F   UNL     1      11.164   3.509 -12.059  1.00  0.00    -0.206 F 
ATOM     76  C   UNL     1      10.890   5.781 -12.553  1.00  0.00     0.040 A 
ATOM     77  C   UNL     1       9.176   7.061 -11.478  1.00  0.00     0.040 A 
ATOM     78  F   UNL     1       7.702   6.055  -9.994  1.00  0.00    -0.206 F 
ATOM     79  C   UNL     1      10.223   6.990 -12.386  1.00  0.00     0.006 A 
ENDBRANCH  51  72
BRANCH  63  80
ATOM     80  C   UNL     1       9.596  -1.325  -9.077  1.00  0.00     0.057 A 
ATOM     81  C   UNL     1       9.701  -0.474  -7.966  1.00  0.00     0.134 A 
ATOM     82  C   UNL     1      10.367  -2.491  -9.051  1.00  0.00     0.134 A 
ATOM     83  F   UNL     1       8.917   0.602  -7.841  1.00  0.00    -0.206 F 
ATOM     84  C   UNL     1      10.574  -0.740  -6.908  1.00  0.00     0.040 A 
ATOM     85  C   UNL     1      11.218  -2.788  -7.983  1.00  0.00     0.040 A 
ATOM     86  F   UNL     1      10.270  -3.390 -10.044  1.00  0.00    -0.206 F 
ATOM     87  C   UNL     1      11.334  -1.904  -6.912  1.00  0.00     0.006 A 
ENDBRANCH  63  80
ENDBRANCH  37  38
ENDBRANCH  30  32
ENDBRANCH  29  30
ENDBRANCH  28  29
ENDBRANCH   1  28
TORSDOF 14
