REMARK SMILES COCC1CCN(C(=O)NC[C@H]2CC[C@H](C(=O)OCCOC(=O)c3ccc(-c4c5nc(c(-c6c(F)cccc6F)c6ccc([nH]6)c(-c6c(F)cccc6F)c6nc(c(-c7c(F)cccc7F)c7ccc4[nH]7)C=C6)C=C5)cc3)O2)CC1
REMARK SMILES IDX 19 1 18 2 16 3 17 4 15 5 12 6 13 7 78 8 14 9 11 10 10 11
REMARK SMILES IDX 4 12 5 13 80 14 6 15 79 16 7 17 8 18 9 19 3 21 2 22 1 23
REMARK SMILES IDX 20 24 21 25 22 26 23 27 24 28 25 29 77 30 26 31 76 32 27 33
REMARK SMILES IDX 28 34 29 35 70 36 30 37 75 38 69 39 71 40 31 41 74 42 68 43
REMARK SMILES IDX 67 44 32 46 58 47 41 48 57 49 42 50 45 51 56 52 72 53 43 54
REMARK SMILES IDX 44 55 55 57 73 58 46 59 33 60 34 61 39 62 35 63 36 64 38 65
REMARK SMILES IDX 40 66 37 67 59 68 60 69 65 70 61 71 62 72 64 73 66 74 63 75
REMARK SMILES IDX 47 76 48 77 53 78 49 79 50 80 52 81 54 82 51 83
REMARK H PARENT 10 20 71 45 45 56
REMARK Flexibility Score: inf
ROOT
ATOM      1  C   UNL     1       2.784   7.257  -3.954  1.00  0.00     0.274 C 
ENDROOT
BRANCH   1   2
ATOM      2  O   UNL     1       1.963   6.811  -2.857  1.00  0.00    -0.460 OA
BRANCH   2   3
ATOM      3  C   UNL     1       2.602   6.187  -1.831  1.00  0.00     0.335 C 
ATOM      4  O   UNL     1       3.793   5.896  -1.828  1.00  0.00    -0.249 OA
BRANCH   3   5
ATOM      5  C   UNL     1       1.671   5.900  -0.642  1.00  0.00     0.228 C 
ATOM      6  C   UNL     1      -0.207   4.516  -0.490  1.00  0.00     0.138 C 
ATOM      7  C   UNL     1      -0.671   5.864  -1.012  1.00  0.00     0.037 C 
ATOM      8  O   UNL     1       1.227   4.537  -0.608  1.00  0.00    -0.361 OA
ATOM      9  C   UNL     1       0.433   6.784  -0.552  1.00  0.00     0.047 C 
BRANCH   6  10
ATOM     10  C   UNL     1      -0.611   4.275   0.981  1.00  0.00     0.149 C 
BRANCH  10  11
ATOM     11  N   UNL     1      -1.879   3.579   1.086  1.00  0.00    -0.335 N 
ATOM     12  C   UNL     1       0.288  -0.870   1.992  1.00  0.00     0.018 C 
ATOM     13  C   UNL     1      -1.244  -0.891   2.169  1.00  0.00     0.027 C 
ATOM     14  C   UNL     1       0.753   0.582   1.794  1.00  0.00     0.027 C 
ATOM     15  C   UNL     1      -1.981  -0.111   1.072  1.00  0.00     0.121 C 
ATOM     16  C   UNL     1       0.004   1.229   0.634  1.00  0.00     0.121 C 
ATOM     17  N   UNL     1      -1.427   1.239   0.920  1.00  0.00    -0.325 N 
ATOM     18  C   UNL     1      -2.277   2.295   1.077  1.00  0.00     0.317 C 
ATOM     19  O   UNL     1      -3.493   2.138   1.233  1.00  0.00    -0.249 OA
ATOM     20  H   UNL     1      -2.635   4.200   1.190  1.00  0.00     0.165 HD
BRANCH  12  21
ATOM     21  C   UNL     1       0.725  -1.814   0.856  1.00  0.00     0.163 C 
BRANCH  21  22
ATOM     22  O   UNL     1       2.136  -1.777   0.646  1.00  0.00    -0.384 OA
ATOM     23  C   UNL     1       2.518  -1.115  -0.555  1.00  0.00     0.194 C 
ENDBRANCH  21  22
ENDBRANCH  12  21
ENDBRANCH  10  11
ENDBRANCH   6  10
ENDBRANCH   3   5
ENDBRANCH   2   3
ENDBRANCH   1   2
BRANCH   1  24
ATOM     24  C   UNL     1       3.065   8.759  -3.851  1.00  0.00     0.275 C 
BRANCH  24  25
ATOM     25  O   UNL     1       3.948   9.059  -2.752  1.00  0.00    -0.458 OA
BRANCH  25  26
ATOM     26  C   UNL     1       3.342   9.434  -1.607  1.00  0.00     0.338 C 
ATOM     27  O   UNL     1       2.140   9.569  -1.407  1.00  0.00    -0.246 OA
BRANCH  26  28
ATOM     28  C   UNL     1       4.329   9.545  -0.527  1.00  0.00     0.060 A 
ATOM     29  C   UNL     1       4.281   8.603   0.503  1.00  0.00     0.016 A 
ATOM     30  C   UNL     1       5.218  10.618  -0.468  1.00  0.00     0.016 A 
ATOM     31  C   UNL     1       5.114   8.732   1.608  1.00  0.00     0.010 A 
ATOM     32  C   UNL     1       6.062  10.744   0.640  1.00  0.00     0.010 A 
ATOM     33  C   UNL     1       6.003   9.810   1.691  1.00  0.00    -0.014 A 
BRANCH  33  34
ATOM     34  C   UNL     1       6.829   9.980   2.909  1.00  0.00     0.031 A 
ATOM     35  C   UNL     1       6.472  11.037   3.913  1.00  0.00     0.074 A 
ATOM     36  C   UNL     1       7.871   9.159   3.131  1.00  0.00     0.049 A 
ATOM     37  N   UNL     1       7.101  11.386   5.006  1.00  0.00    -0.248 NA
ATOM     38  C   UNL     1       5.242  11.801   3.654  1.00  0.00     0.031 C 
ATOM     39  C   UNL     1       8.281   8.060   2.257  1.00  0.00     0.029 A 
ATOM     40  N   UNL     1       8.771   9.121   4.164  1.00  0.00    -0.354 N 
ATOM     41  C   UNL     1       6.356  12.420   5.556  1.00  0.00     0.074 A 
ATOM     42  C   UNL     1       5.235  12.652   4.670  1.00  0.00     0.031 C 
ATOM     43  C   UNL     1       9.348   7.449   2.796  1.00  0.00     0.029 A 
ATOM     44  C   UNL     1       9.721   8.140   4.027  1.00  0.00     0.049 A 
ATOM     45  H   UNL     1       8.738   9.738   4.931  1.00  0.00     0.167 HD
ATOM     46  C   UNL     1       6.587  13.111   6.697  1.00  0.00     0.037 A 
ATOM     47  C   UNL     1      10.785   7.848   4.797  1.00  0.00     0.037 A 
ATOM     48  C   UNL     1       7.695  12.871   7.584  1.00  0.00     0.049 A 
ATOM     49  C   UNL     1      11.053   8.669   6.027  1.00  0.00     0.074 A 
ATOM     50  C   UNL     1       8.018  13.523   8.761  1.00  0.00     0.029 A 
ATOM     51  N   UNL     1       8.661  11.895   7.389  1.00  0.00    -0.354 N 
ATOM     52  N   UNL     1      10.359   9.664   6.522  1.00  0.00    -0.248 NA
ATOM     53  C   UNL     1      12.258   8.332   6.798  1.00  0.00     0.031 C 
ATOM     54  C   UNL     1       9.196  12.959   9.265  1.00  0.00     0.029 A 
ATOM     55  C   UNL     1       9.587  11.935   8.418  1.00  0.00     0.049 A 
ATOM     56  H   UNL     1       8.685  11.267   6.632  1.00  0.00     0.167 HD
ATOM     57  C   UNL     1      11.031  10.062   7.670  1.00  0.00     0.074 A 
ATOM     58  C   UNL     1      12.182   9.192   7.804  1.00  0.00     0.031 C 
ATOM     59  C   UNL     1      10.724  11.059   8.535  1.00  0.00     0.037 A 
BRANCH  46  60
ATOM     60  C   UNL     1       5.631  14.215   7.034  1.00  0.00     0.057 A 
ATOM     61  C   UNL     1       4.348  13.956   7.530  1.00  0.00     0.134 A 
ATOM     62  C   UNL     1       6.007  15.555   6.877  1.00  0.00     0.134 A 
ATOM     63  F   UNL     1       3.922  12.693   7.687  1.00  0.00    -0.206 F 
ATOM     64  C   UNL     1       3.464  14.991   7.841  1.00  0.00     0.040 A 
ATOM     65  C   UNL     1       5.140  16.599   7.202  1.00  0.00     0.040 A 
ATOM     66  F   UNL     1       7.223  15.870   6.407  1.00  0.00    -0.206 F 
ATOM     67  C   UNL     1       3.862  16.318   7.681  1.00  0.00     0.006 A 
ENDBRANCH  46  60
BRANCH  47  68
ATOM     68  C   UNL     1      11.688   6.735   4.418  1.00  0.00     0.057 A 
ATOM     69  C   UNL     1      11.714   5.545   5.151  1.00  0.00     0.134 A 
ATOM     70  C   UNL     1      12.545   6.837   3.315  1.00  0.00     0.134 A 
ATOM     71  F   UNL     1      10.932   5.399   6.230  1.00  0.00    -0.206 F 
ATOM     72  C   UNL     1      12.567   4.495   4.807  1.00  0.00     0.040 A 
ATOM     73  C   UNL     1      13.388   5.788   2.947  1.00  0.00     0.040 A 
ATOM     74  F   UNL     1      12.566   7.954   2.574  1.00  0.00    -0.206 F 
ATOM     75  C   UNL     1      13.403   4.613   3.698  1.00  0.00     0.006 A 
ENDBRANCH  47  68
BRANCH  59  76
ATOM     76  C   UNL     1      11.633  11.241   9.712  1.00  0.00     0.057 A 
ATOM     77  C   UNL     1      12.890  11.845   9.583  1.00  0.00     0.134 A 
ATOM     78  C   UNL     1      11.236  10.831  10.990  1.00  0.00     0.134 A 
ATOM     79  F   UNL     1      13.332  12.245   8.382  1.00  0.00    -0.206 F 
ATOM     80  C   UNL     1      13.729  12.018  10.685  1.00  0.00     0.040 A 
ATOM     81  C   UNL     1      12.058  11.017  12.102  1.00  0.00     0.040 A 
ATOM     82  F   UNL     1      10.041  10.251  11.179  1.00  0.00    -0.206 F 
ATOM     83  C   UNL     1      13.310  11.608  11.950  1.00  0.00     0.006 A 
ENDBRANCH  59  76
ENDBRANCH  33  34
ENDBRANCH  26  28
ENDBRANCH  25  26
ENDBRANCH  24  25
ENDBRANCH   1  24
TORSDOF 15
