REMARK SMILES CC1=Nc2c(c(C)nn2-c2ccc(F)cc2)[C@H](c2ccc(C(=O)OCCOC(=O)c3ccc(-c4c5nc(c(-c6c(F)cccc6F)c6ccc([nH]6)c(-c6c(F)cccc6F)c6nc(c(-c7c(F)cccc7F)c7ccc4[nH]7)C=C6)C=C5)cc3)cc2)S1
REMARK SMILES IDX 25 1 24 2 22 3 23 4 21 5 18 6 19 7 85 8 20 9 84 10 17 11
REMARK SMILES IDX 1 12 2 13 3 14 86 15 4 16 5 17 9 18 6 19 8 20 7 21 10 22
REMARK SMILES IDX 11 23 16 24 12 25 15 26 13 27 14 28 26 29 27 30 28 31 29 32
REMARK SMILES IDX 30 33 31 34 83 35 32 36 82 37 33 38 34 39 35 40 76 41 36 42
REMARK SMILES IDX 81 43 75 44 77 45 37 46 80 47 74 48 73 49 38 51 64 52 47 53
REMARK SMILES IDX 63 54 48 55 51 56 62 57 78 58 49 59 50 60 61 62 79 63 52 64
REMARK SMILES IDX 39 65 40 66 45 67 41 68 42 69 44 70 46 71 43 72 65 73 66 74
REMARK SMILES IDX 71 75 67 76 68 77 70 78 72 79 69 80 53 81 54 82 59 83 55 84
REMARK SMILES IDX 56 85 58 86 60 87 57 88
REMARK H PARENT 77 50 51 61
REMARK Flexibility Score: inf
ROOT
ATOM      1  C   UNL     1       4.581  -3.423   8.086  1.00  0.00     0.275 C 
ENDROOT
BRANCH   1   2
ATOM      2  O   UNL     1       3.693  -2.930   7.068  1.00  0.00    -0.458 OA
BRANCH   2   3
ATOM      3  C   UNL     1       2.500  -2.467   7.519  1.00  0.00     0.338 C 
ATOM      4  O   UNL     1       2.068  -2.597   8.659  1.00  0.00    -0.246 OA
BRANCH   3   5
ATOM      5  C   UNL     1       1.785  -1.679   6.480  1.00  0.00     0.060 A 
ATOM      6  C   UNL     1       0.291  -0.172   4.597  1.00  0.00    -0.030 A 
ATOM      7  C   UNL     1      -0.057  -0.191   5.960  1.00  0.00     0.006 A 
ATOM      8  C   UNL     1       1.442  -0.886   4.210  1.00  0.00     0.006 A 
ATOM      9  C   UNL     1       0.685  -0.921   6.890  1.00  0.00     0.016 A 
ATOM     10  C   UNL     1       2.174  -1.644   5.138  1.00  0.00     0.016 A 
BRANCH   6  11
ATOM     11  C   UNL     1      -0.614   0.575   3.625  1.00  0.00     0.119 C 
ATOM     12  C   UNL     1       0.815  -0.201  -0.192  1.00  0.00     0.075 C 
ATOM     13  C   UNL     1       0.341   0.560   1.018  1.00  0.00     0.074 C 
ATOM     14  N   UNL     1       0.813   1.752   1.191  1.00  0.00    -0.227 NA
ATOM     15  S   UNL     1      -0.844  -0.265   2.019  1.00  0.00    -0.098 SA
ATOM     16  C   UNL     1       0.468   2.422   2.315  1.00  0.00     0.161 A 
ATOM     17  C   UNL     1      -0.105   1.958   3.476  1.00  0.00     0.038 A 
ATOM     18  N   UNL     1       0.732   3.766   2.515  1.00  0.00    -0.215 N 
ATOM     19  C   UNL     1      -0.118   3.085   4.343  1.00  0.00     0.067 A 
ATOM     20  N   UNL     1       0.493   4.144   3.794  1.00  0.00    -0.171 NA
ATOM     21  C   UNL     1      -0.688   3.205   5.709  1.00  0.00     0.069 C 
BRANCH  18  22
ATOM     22  C   UNL     1       1.168   4.690   1.538  1.00  0.00     0.067 A 
ATOM     23  C   UNL     1       0.568   4.686   0.269  1.00  0.00     0.031 A 
ATOM     24  C   UNL     1       2.224   5.559   1.830  1.00  0.00     0.031 A 
ATOM     25  C   UNL     1       1.046   5.540  -0.722  1.00  0.00     0.041 A 
ATOM     26  C   UNL     1       2.732   6.370   0.813  1.00  0.00     0.041 A 
ATOM     27  C   UNL     1       2.139   6.355  -0.448  1.00  0.00     0.123 A 
ATOM     28  F   UNL     1       2.635   7.132  -1.420  1.00  0.00    -0.207 F 
ENDBRANCH  18  22
ENDBRANCH   6  11
ENDBRANCH   3   5
ENDBRANCH   2   3
ENDBRANCH   1   2
BRANCH   1  29
ATOM     29  C   UNL     1       5.492  -2.319   8.608  1.00  0.00     0.275 C 
BRANCH  29  30
ATOM     30  O   UNL     1       4.771  -1.310   9.316  1.00  0.00    -0.458 OA
BRANCH  30  31
ATOM     31  C   UNL     1       4.411  -0.246   8.562  1.00  0.00     0.338 C 
ATOM     32  O   UNL     1       4.330  -0.192   7.347  1.00  0.00    -0.246 OA
BRANCH  31  33
ATOM     33  C   UNL     1       4.370   0.954   9.402  1.00  0.00     0.060 A 
ATOM     34  C   UNL     1       3.878   2.130   8.825  1.00  0.00     0.016 A 
ATOM     35  C   UNL     1       5.072   0.965  10.616  1.00  0.00     0.016 A 
ATOM     36  C   UNL     1       4.210   3.340   9.399  1.00  0.00     0.010 A 
ATOM     37  C   UNL     1       5.419   2.172  11.176  1.00  0.00     0.010 A 
ATOM     38  C   UNL     1       5.033   3.346  10.530  1.00  0.00    -0.014 A 
BRANCH  38  39
ATOM     39  C   UNL     1       5.396   4.624  11.109  1.00  0.00     0.031 A 
ATOM     40  C   UNL     1       4.288   5.277  11.846  1.00  0.00     0.074 A 
ATOM     41  C   UNL     1       6.670   5.061  11.130  1.00  0.00     0.049 A 
ATOM     42  N   UNL     1       3.773   6.444  11.649  1.00  0.00    -0.248 NA
ATOM     43  C   UNL     1       3.585   4.472  12.862  1.00  0.00     0.031 C 
ATOM     44  C   UNL     1       7.869   4.326  10.715  1.00  0.00     0.029 A 
ATOM     45  N   UNL     1       7.178   6.208  11.658  1.00  0.00    -0.354 N 
ATOM     46  C   UNL     1       2.819   6.600  12.651  1.00  0.00     0.074 A 
ATOM     47  C   UNL     1       2.622   5.306  13.245  1.00  0.00     0.031 C 
ATOM     48  C   UNL     1       8.960   4.943  11.220  1.00  0.00     0.029 A 
ATOM     49  C   UNL     1       8.546   6.164  11.891  1.00  0.00     0.049 A 
ATOM     50  H   UNL     1       6.625   6.998  11.857  1.00  0.00     0.167 HD
ATOM     51  C   UNL     1       2.475   7.833  13.106  1.00  0.00     0.037 A 
ATOM     52  C   UNL     1       9.258   7.021  12.663  1.00  0.00     0.037 A 
ATOM     53  C   UNL     1       2.793   8.859  12.149  1.00  0.00     0.049 A 
ATOM     54  C   UNL     1       8.435   8.242  12.855  1.00  0.00     0.074 A 
ATOM     55  C   UNL     1       2.449   9.107  10.835  1.00  0.00     0.029 A 
ATOM     56  N   UNL     1       3.874   9.662  12.411  1.00  0.00    -0.354 N 
ATOM     57  N   UNL     1       8.157   9.103  11.918  1.00  0.00    -0.248 NA
ATOM     58  C   UNL     1       7.583   8.309  14.034  1.00  0.00     0.031 C 
ATOM     59  C   UNL     1       3.611   9.687  10.248  1.00  0.00     0.029 A 
ATOM     60  C   UNL     1       4.580   9.797  11.245  1.00  0.00     0.049 A 
ATOM     61  H   UNL     1       4.102  10.067  13.278  1.00  0.00     0.167 HD
ATOM     62  C   UNL     1       6.861   9.512  12.189  1.00  0.00     0.074 A 
ATOM     63  C   UNL     1       6.608   9.089  13.563  1.00  0.00     0.031 C 
ATOM     64  C   UNL     1       6.020   9.893  11.184  1.00  0.00     0.037 A 
BRANCH  51  65
ATOM     65  C   UNL     1       2.252   8.130  14.569  1.00  0.00     0.057 A 
ATOM     66  C   UNL     1       2.781   7.356  15.626  1.00  0.00     0.134 A 
ATOM     67  C   UNL     1       1.764   9.394  14.942  1.00  0.00     0.134 A 
ATOM     68  F   UNL     1       3.369   6.171  15.429  1.00  0.00    -0.206 F 
ATOM     69  C   UNL     1       2.834   7.809  16.945  1.00  0.00     0.040 A 
ATOM     70  C   UNL     1       1.866   9.880  16.251  1.00  0.00     0.040 A 
ATOM     71  F   UNL     1       1.260  10.233  14.025  1.00  0.00    -0.206 F 
ATOM     72  C   UNL     1       2.408   9.089  17.256  1.00  0.00     0.006 A 
ENDBRANCH  51  65
BRANCH  52  73
ATOM     73  C   UNL     1      10.451   6.747  13.501  1.00  0.00     0.057 A 
ATOM     74  C   UNL     1      10.732   5.466  14.011  1.00  0.00     0.134 A 
ATOM     75  C   UNL     1      11.197   7.800  14.052  1.00  0.00     0.134 A 
ATOM     76  F   UNL     1      10.038   4.390  13.617  1.00  0.00    -0.206 F 
ATOM     77  C   UNL     1      11.678   5.249  15.019  1.00  0.00     0.040 A 
ATOM     78  C   UNL     1      12.135   7.599  15.073  1.00  0.00     0.040 A 
ATOM     79  F   UNL     1      10.981   9.065  13.661  1.00  0.00    -0.206 F 
ATOM     80  C   UNL     1      12.370   6.320  15.568  1.00  0.00     0.006 A 
ENDBRANCH  52  73
BRANCH  64  81
ATOM     81  C   UNL     1       6.617  10.177   9.835  1.00  0.00     0.057 A 
ATOM     82  C   UNL     1       6.390  11.432   9.258  1.00  0.00     0.134 A 
ATOM     83  C   UNL     1       7.264   9.219   9.041  1.00  0.00     0.134 A 
ATOM     84  F   UNL     1       5.728  12.380   9.940  1.00  0.00    -0.206 F 
ATOM     85  C   UNL     1       6.789  11.726   7.953  1.00  0.00     0.040 A 
ATOM     86  C   UNL     1       7.701   9.512   7.746  1.00  0.00     0.040 A 
ATOM     87  F   UNL     1       7.439   7.963   9.470  1.00  0.00    -0.206 F 
ATOM     88  C   UNL     1       7.456  10.767   7.195  1.00  0.00     0.006 A 
ENDBRANCH  64  81
ENDBRANCH  38  39
ENDBRANCH  31  33
ENDBRANCH  30  31
ENDBRANCH  29  30
ENDBRANCH   1  29
TORSDOF 13
