REMARK SMILES Cc1cc(Br)cc2c1O[C@H](C(F)(F)F)C(C(=O)OCCOC(=O)c1ccc(-c3c4nc(c(-c5c(F)cccc5F)c5ccc([nH]5)c(-c5c(F)cccc5F)c5nc(c(-c6c(F)cccc6F)c6ccc3[nH]6)C=C5)C=C4)cc1)=C2
REMARK SMILES IDX 20 1 19 2 18 3 16 4 17 5 15 6 1 7 2 8 3 9 8 10 4 11 7 12
REMARK SMILES IDX 9 13 5 14 6 15 78 16 10 17 11 18 12 19 13 20 14 21 21 22
REMARK SMILES IDX 22 23 23 24 24 25 25 26 77 27 26 28 76 29 27 30 28 31 29 32
REMARK SMILES IDX 70 33 30 34 75 35 69 36 71 37 31 38 74 39 68 40 67 41 32 43
REMARK SMILES IDX 58 44 41 45 57 46 42 47 45 48 56 49 72 50 43 51 44 52 55 54
REMARK SMILES IDX 73 55 46 56 33 57 34 58 39 59 35 60 36 61 38 62 40 63 37 64
REMARK SMILES IDX 59 65 60 66 65 67 61 68 62 69 64 70 66 71 63 72 47 73 48 74
REMARK SMILES IDX 53 75 49 76 50 77 52 78 54 79 51 80
REMARK H PARENT 71 42 45 53
REMARK Flexibility Score: inf
ROOT
ATOM      1  C   UNL     1      -0.764  -6.213   6.319  1.00  0.00     0.275 C 
ENDROOT
BRANCH   1   2
ATOM      2  C   UNL     1      -1.455  -6.094   4.961  1.00  0.00     0.275 C 
BRANCH   2   3
ATOM      3  O   UNL     1      -0.899  -5.010   4.183  1.00  0.00    -0.459 OA
BRANCH   3   4
ATOM      4  C   UNL     1      -1.647  -3.884   4.135  1.00  0.00     0.338 C 
ATOM      5  O   UNL     1      -2.732  -3.705   4.667  1.00  0.00    -0.246 OA
BRANCH   4   6
ATOM      6  C   UNL     1      -0.958  -2.839   3.356  1.00  0.00     0.087 C 
ATOM      7  C   UNL     1       1.075   0.032  -0.408  1.00  0.00     0.048 C 
ATOM      8  C   UNL     1       0.577   0.257   0.991  1.00  0.00    -0.007 A 
ATOM      9  C   UNL     1       0.604   1.559   1.519  1.00  0.00     0.023 A 
ATOM     10  C   UNL     1       0.121  -0.800   1.794  1.00  0.00     0.130 A 
ATOM     11  C   UNL     1       0.170   1.803   2.820  1.00  0.00     0.019 A 
ATOM     12  C   UNL     1      -0.333  -0.540   3.090  1.00  0.00     0.019 A 
ATOM     13  O   UNL     1       0.165  -2.064   1.268  1.00  0.00    -0.475 OA
ATOM     14  Br  UNL     1       0.206   3.559   3.516  1.00  0.00    -0.051 Br
ATOM     15  C   UNL     1      -0.300   0.760   3.608  1.00  0.00     0.027 A 
ATOM     16  C   UNL     1      -0.873  -1.618   3.893  1.00  0.00     0.027 C 
ATOM     17  C   UNL     1      -0.521  -3.148   1.954  1.00  0.00     0.316 C 
BRANCH  17  18
ATOM     18  C   UNL     1      -1.707  -3.610   1.093  1.00  0.00     0.430 C 
ATOM     19  F   UNL     1      -1.325  -3.862  -0.182  1.00  0.00    -0.167 F 
ATOM     20  F   UNL     1      -2.247  -4.759   1.568  1.00  0.00    -0.167 F 
ATOM     21  F   UNL     1      -2.696  -2.688   1.047  1.00  0.00    -0.167 F 
ENDBRANCH  17  18
ENDBRANCH   4   6
ENDBRANCH   3   4
ENDBRANCH   2   3
ENDBRANCH   1   2
BRANCH   1  22
ATOM     22  O   UNL     1      -1.054  -5.055   7.124  1.00  0.00    -0.458 OA
BRANCH  22  23
ATOM     23  C   UNL     1      -0.009  -4.228   7.354  1.00  0.00     0.338 C 
ATOM     24  O   UNL     1       1.149  -4.374   7.003  1.00  0.00    -0.246 OA
BRANCH  23  25
ATOM     25  C   UNL     1      -0.472  -3.020   8.056  1.00  0.00     0.060 A 
ATOM     26  C   UNL     1      -1.353  -2.169   7.401  1.00  0.00     0.016 A 
ATOM     27  C   UNL     1       0.096  -2.633   9.267  1.00  0.00     0.016 A 
ATOM     28  C   UNL     1      -1.542  -0.871   7.862  1.00  0.00     0.010 A 
ATOM     29  C   UNL     1      -0.223  -1.380   9.810  1.00  0.00     0.010 A 
ATOM     30  C   UNL     1      -1.004  -0.459   9.089  1.00  0.00    -0.014 A 
BRANCH  30  31
ATOM     31  C   UNL     1      -1.245   0.933   9.579  1.00  0.00     0.031 A 
ATOM     32  C   UNL     1      -0.090   1.835   9.944  1.00  0.00     0.074 A 
ATOM     33  C   UNL     1      -2.504   1.417   9.652  1.00  0.00     0.049 A 
ATOM     34  N   UNL     1      -0.113   3.024  10.495  1.00  0.00    -0.248 NA
ATOM     35  C   UNL     1       1.266   1.334   9.671  1.00  0.00     0.031 C 
ATOM     36  C   UNL     1      -3.718   0.678   9.296  1.00  0.00     0.029 A 
ATOM     37  N   UNL     1      -2.975   2.655  10.018  1.00  0.00    -0.354 N 
ATOM     38  C   UNL     1       1.217   3.385  10.682  1.00  0.00     0.074 A 
ATOM     39  C   UNL     1       2.023   2.285  10.200  1.00  0.00     0.031 C 
ATOM     40  C   UNL     1      -4.776   1.496   9.376  1.00  0.00     0.029 A 
ATOM     41  C   UNL     1      -4.340   2.785   9.899  1.00  0.00     0.049 A 
ATOM     42  H   UNL     1      -2.392   3.381  10.337  1.00  0.00     0.167 HD
ATOM     43  C   UNL     1       1.720   4.532  11.199  1.00  0.00     0.037 A 
ATOM     44  C   UNL     1      -5.162   3.807  10.205  1.00  0.00     0.037 A 
ATOM     45  C   UNL     1       0.919   5.654  11.616  1.00  0.00     0.049 A 
ATOM     46  C   UNL     1      -4.585   5.051  10.813  1.00  0.00     0.074 A 
ATOM     47  C   UNL     1       1.340   6.863  12.142  1.00  0.00     0.029 A 
ATOM     48  N   UNL     1      -0.464   5.714  11.531  1.00  0.00    -0.354 N 
ATOM     49  N   UNL     1      -3.330   5.349  11.041  1.00  0.00    -0.248 NA
ATOM     50  C   UNL     1      -5.537   6.087  11.238  1.00  0.00     0.031 C 
ATOM     51  C   UNL     1       0.210   7.640  12.411  1.00  0.00     0.029 A 
ATOM     52  C   UNL     1      -0.912   6.933  12.010  1.00  0.00     0.049 A 
ATOM     53  H   UNL     1      -1.041   4.997  11.181  1.00  0.00     0.167 HD
ATOM     54  C   UNL     1      -3.339   6.607  11.627  1.00  0.00     0.074 A 
ATOM     55  C   UNL     1      -4.723   7.026  11.703  1.00  0.00     0.031 C 
ATOM     56  C   UNL     1      -2.292   7.342  12.070  1.00  0.00     0.037 A 
BRANCH  43  57
ATOM     57  C   UNL     1       3.209   4.638  11.362  1.00  0.00     0.057 A 
ATOM     58  C   UNL     1       4.067   4.815  10.270  1.00  0.00     0.134 A 
ATOM     59  C   UNL     1       3.785   4.635  12.640  1.00  0.00     0.134 A 
ATOM     60  F   UNL     1       3.582   4.817   9.019  1.00  0.00    -0.206 F 
ATOM     61  C   UNL     1       5.444   4.968  10.440  1.00  0.00     0.040 A 
ATOM     62  C   UNL     1       5.157   4.814  12.825  1.00  0.00     0.040 A 
ATOM     63  F   UNL     1       3.021   4.482  13.732  1.00  0.00    -0.206 F 
ATOM     64  C   UNL     1       5.992   4.978  11.722  1.00  0.00     0.006 A 
ENDBRANCH  43  57
BRANCH  44  65
ATOM     65  C   UNL     1      -6.623   3.677   9.963  1.00  0.00     0.057 A 
ATOM     66  C   UNL     1      -7.260   4.439   8.977  1.00  0.00     0.134 A 
ATOM     67  C   UNL     1      -7.409   2.767  10.681  1.00  0.00     0.134 A 
ATOM     68  F   UNL     1      -6.567   5.345   8.271  1.00  0.00    -0.206 F 
ATOM     69  C   UNL     1      -8.623   4.297   8.710  1.00  0.00     0.040 A 
ATOM     70  C   UNL     1      -8.766   2.593  10.405  1.00  0.00     0.040 A 
ATOM     71  F   UNL     1      -6.860   2.004  11.638  1.00  0.00    -0.206 F 
ATOM     72  C   UNL     1      -9.377   3.362   9.418  1.00  0.00     0.006 A 
ENDBRANCH  44  65
BRANCH  56  73
ATOM     73  C   UNL     1      -2.586   8.687  12.661  1.00  0.00     0.057 A 
ATOM     74  C   UNL     1      -3.110   8.819  13.952  1.00  0.00     0.134 A 
ATOM     75  C   UNL     1      -2.254   9.858  11.969  1.00  0.00     0.134 A 
ATOM     76  F   UNL     1      -3.458   7.734  14.660  1.00  0.00    -0.206 F 
ATOM     77  C   UNL     1      -3.293  10.073  14.536  1.00  0.00     0.040 A 
ATOM     78  C   UNL     1      -2.413  11.116  12.550  1.00  0.00     0.040 A 
ATOM     79  F   UNL     1      -1.741   9.796  10.731  1.00  0.00    -0.206 F 
ATOM     80  C   UNL     1      -2.933  11.226  13.839  1.00  0.00     0.006 A 
ENDBRANCH  56  73
ENDBRANCH  30  31
ENDBRANCH  23  25
ENDBRANCH  22  23
ENDBRANCH   1  22
TORSDOF 12
