REMARK SMILES CCCCSc1ccccc1C(=O)OCCOC(=O)c1ccc(-c2c3nc(c(-c4c(F)cccc4F)c4ccc([nH]4)c(-c4c(F)cccc4F)c4nc(c(-c5c(F)cccc5F)c5ccc2[nH]5)C=C4)C=C3)cc1
REMARK SMILES IDX 15 1 14 2 12 3 13 4 11 5 6 6 7 7 8 8 10 9 9 10 5 11 4 12
REMARK SMILES IDX 3 13 2 14 1 15 16 16 17 17 18 18 19 19 20 20 21 21 73 22
REMARK SMILES IDX 22 23 72 24 23 25 24 26 25 27 66 28 26 29 71 30 65 31 67 32
REMARK SMILES IDX 27 33 70 34 64 35 63 36 28 38 54 39 37 40 53 41 38 42 41 43
REMARK SMILES IDX 52 44 68 45 39 46 40 47 51 49 69 50 42 51 29 52 30 53 35 54
REMARK SMILES IDX 31 55 32 56 34 57 36 58 33 59 55 60 56 61 61 62 57 63 58 64
REMARK SMILES IDX 60 65 62 66 59 67 43 68 44 69 49 70 45 71 46 72 48 73 50 74
REMARK SMILES IDX 47 75
REMARK H PARENT 67 37 41 48
REMARK Flexibility Score: inf
ROOT
ATOM      1  C   UNL     1      -2.869  -4.490   0.877  1.00  0.00     0.275 C 
ENDROOT
BRANCH   1   2
ATOM      2  O   UNL     1      -2.405  -3.226   0.358  1.00  0.00    -0.458 OA
BRANCH   2   3
ATOM      3  C   UNL     1      -3.270  -2.193   0.478  1.00  0.00     0.339 C 
ATOM      4  O   UNL     1      -4.315  -2.215   1.116  1.00  0.00    -0.246 OA
BRANCH   3   5
ATOM      5  C   UNL     1      -2.810  -0.946  -0.189  1.00  0.00     0.073 A 
ATOM      6  C   UNL     1      -2.198  -0.876  -1.450  1.00  0.00     0.022 A 
ATOM      7  C   UNL     1      -2.060   0.386  -2.058  1.00  0.00     0.016 A 
ATOM      8  C   UNL     1      -2.395   1.563  -1.387  1.00  0.00     0.001 A 
ATOM      9  C   UNL     1      -3.159   0.251   0.471  1.00  0.00     0.017 A 
ATOM     10  C   UNL     1      -2.921   1.497  -0.107  1.00  0.00     0.001 A 
BRANCH   6  11
ATOM     11  S   UNL     1      -1.603  -2.252  -2.420  1.00  0.00    -0.125 SA
BRANCH  11  12
ATOM     12  C   UNL     1       0.037  -2.524  -1.643  1.00  0.00     0.075 C 
BRANCH  12  13
ATOM     13  C   UNL     1       1.165  -1.619  -2.156  1.00  0.00     0.011 C 
BRANCH  13  14
ATOM     14  C   UNL     1       1.285  -0.217  -1.551  1.00  0.00    -0.003 C 
ATOM     15  C   UNL     1       1.360  -0.183  -0.033  1.00  0.00     0.004 C 
ENDBRANCH  13  14
ENDBRANCH  12  13
ENDBRANCH  11  12
ENDBRANCH   6  11
ENDBRANCH   3   5
ENDBRANCH   2   3
ENDBRANCH   1   2
BRANCH   1  16
ATOM     16  C   UNL     1      -2.206  -4.822   2.210  1.00  0.00     0.275 C 
BRANCH  16  17
ATOM     17  O   UNL     1      -2.554  -3.825   3.185  1.00  0.00    -0.458 OA
BRANCH  17  18
ATOM     18  C   UNL     1      -1.517  -3.247   3.826  1.00  0.00     0.338 C 
ATOM     19  O   UNL     1      -0.330  -3.525   3.733  1.00  0.00    -0.246 OA
BRANCH  18  20
ATOM     20  C   UNL     1      -2.009  -2.161   4.688  1.00  0.00     0.060 A 
ATOM     21  C   UNL     1      -2.670  -1.077   4.115  1.00  0.00     0.016 A 
ATOM     22  C   UNL     1      -1.676  -2.145   6.042  1.00  0.00     0.016 A 
ATOM     23  C   UNL     1      -2.918   0.068   4.870  1.00  0.00     0.010 A 
ATOM     24  C   UNL     1      -1.996  -1.026   6.818  1.00  0.00     0.010 A 
ATOM     25  C   UNL     1      -2.571   0.116   6.229  1.00  0.00    -0.014 A 
BRANCH  25  26
ATOM     26  C   UNL     1      -2.705   1.385   7.002  1.00  0.00     0.031 A 
ATOM     27  C   UNL     1      -1.481   2.030   7.606  1.00  0.00     0.074 A 
ATOM     28  C   UNL     1      -3.899   1.996   7.140  1.00  0.00     0.049 A 
ATOM     29  N   UNL     1      -1.399   3.037   8.440  1.00  0.00    -0.248 NA
ATOM     30  C   UNL     1      -0.178   1.455   7.235  1.00  0.00     0.031 C 
ATOM     31  C   UNL     1      -5.165   1.526   6.579  1.00  0.00     0.029 A 
ATOM     32  N   UNL     1      -4.235   3.161   7.786  1.00  0.00    -0.354 N 
ATOM     33  C   UNL     1      -0.049   3.166   8.748  1.00  0.00     0.074 A 
ATOM     34  C   UNL     1       0.653   2.142   8.005  1.00  0.00     0.031 C 
ATOM     35  C   UNL     1      -6.128   2.418   6.860  1.00  0.00     0.029 A 
ATOM     36  C   UNL     1      -5.566   3.485   7.683  1.00  0.00     0.049 A 
ATOM     37  H   UNL     1      -3.583   3.712   8.277  1.00  0.00     0.167 HD
ATOM     38  C   UNL     1       0.552   4.054   9.575  1.00  0.00     0.037 A 
ATOM     39  C   UNL     1      -6.264   4.509   8.210  1.00  0.00     0.037 A 
ATOM     40  C   UNL     1      -0.126   5.128  10.252  1.00  0.00     0.049 A 
ATOM     41  C   UNL     1      -5.572   5.503   9.098  1.00  0.00     0.074 A 
ATOM     42  C   UNL     1       0.402   6.080  11.108  1.00  0.00     0.029 A 
ATOM     43  N   UNL     1      -1.475   5.415  10.119  1.00  0.00    -0.354 N 
ATOM     44  N   UNL     1      -4.311   5.559   9.449  1.00  0.00    -0.248 NA
ATOM     45  C   UNL     1      -6.406   6.565   9.681  1.00  0.00     0.031 C 
ATOM     46  C   UNL     1      -0.631   6.937  11.503  1.00  0.00     0.029 A 
ATOM     47  C   UNL     1      -1.795   6.533  10.871  1.00  0.00     0.049 A 
ATOM     48  H   UNL     1      -2.111   4.900   9.572  1.00  0.00     0.167 HD
ATOM     49  C   UNL     1      -4.199   6.658  10.290  1.00  0.00     0.074 A 
ATOM     50  C   UNL     1      -5.515   7.257  10.378  1.00  0.00     0.031 C 
ATOM     51  C   UNL     1      -3.106   7.122  10.942  1.00  0.00     0.037 A 
BRANCH  38  52
ATOM     52  C   UNL     1       2.021   3.884   9.821  1.00  0.00     0.057 A 
ATOM     53  C   UNL     1       2.983   4.256   8.875  1.00  0.00     0.134 A 
ATOM     54  C   UNL     1       2.477   3.370  11.042  1.00  0.00     0.134 A 
ATOM     55  F   UNL     1       2.611   4.740   7.681  1.00  0.00    -0.206 F 
ATOM     56  C   UNL     1       4.348   4.106   9.129  1.00  0.00     0.040 A 
ATOM     57  C   UNL     1       3.838   3.235  11.315  1.00  0.00     0.040 A 
ATOM     58  F   UNL     1       1.605   2.999  11.992  1.00  0.00    -0.206 F 
ATOM     59  C   UNL     1       4.779   3.600  10.354  1.00  0.00     0.006 A 
ENDBRANCH  38  52
BRANCH  39  60
ATOM     60  C   UNL     1      -7.715   4.635   7.928  1.00  0.00     0.057 A 
ATOM     61  C   UNL     1      -8.201   5.647   7.093  1.00  0.00     0.134 A 
ATOM     62  C   UNL     1      -8.646   3.748   8.481  1.00  0.00     0.134 A 
ATOM     63  F   UNL     1      -7.358   6.542   6.556  1.00  0.00    -0.206 F 
ATOM     64  C   UNL     1      -9.563   5.776   6.820  1.00  0.00     0.040 A 
ATOM     65  C   UNL     1     -10.008   3.852   8.198  1.00  0.00     0.040 A 
ATOM     66  F   UNL     1      -8.241   2.759   9.290  1.00  0.00    -0.206 F 
ATOM     67  C   UNL     1     -10.471   4.871   7.368  1.00  0.00     0.006 A 
ENDBRANCH  39  60
BRANCH  51  68
ATOM     68  C   UNL     1      -3.282   8.347  11.786  1.00  0.00     0.057 A 
ATOM     69  C   UNL     1      -3.887   8.286  13.047  1.00  0.00     0.134 A 
ATOM     70  C   UNL     1      -2.818   9.591  11.345  1.00  0.00     0.134 A 
ATOM     71  F   UNL     1      -4.362   7.123  13.518  1.00  0.00    -0.206 F 
ATOM     72  C   UNL     1      -4.040   9.428  13.835  1.00  0.00     0.040 A 
ATOM     73  C   UNL     1      -2.951  10.737  12.131  1.00  0.00     0.040 A 
ATOM     74  F   UNL     1      -2.226   9.713  10.147  1.00  0.00    -0.206 F 
ATOM     75  C   UNL     1      -3.567  10.657  13.378  1.00  0.00     0.006 A 
ENDBRANCH  51  68
ENDBRANCH  25  26
ENDBRANCH  18  20
ENDBRANCH  17  18
ENDBRANCH  16  17
ENDBRANCH   1  16
TORSDOF 15
