REMARK SMILES NS(=O)(=O)c1ccc(N2N=C(C(=O)OCCOC(=O)c3ccc(-c4c5nc(c(-c6c(F)cccc6F)c6ccc([nH]6)c(-c6c(F)cccc6F)c6nc(c(-c7c(F)cccc7F)c7ccc4[nH]7)C=C6)C=C5)cc3)C[C@H]2c2cccs2)cc1
REMARK SMILES IDX 15 1 14 2 12 3 13 4 11 5 9 6 10 7 75 8 74 9 8 10 5 11 6 12
REMARK SMILES IDX 82 13 7 14 81 15 2 16 3 17 4 18 1 19 76 22 77 23 80 24 78 25
REMARK SMILES IDX 79 26 16 27 17 28 18 29 19 30 20 31 21 32 73 33 22 34 72 35
REMARK SMILES IDX 23 36 24 37 25 38 66 39 26 40 71 41 65 42 67 43 27 44 70 45
REMARK SMILES IDX 64 46 63 47 28 49 54 50 37 51 53 52 38 53 41 54 52 55 68 56
REMARK SMILES IDX 39 57 40 58 51 60 69 61 42 62 29 63 30 64 35 65 31 66 32 67
REMARK SMILES IDX 34 68 36 69 33 70 55 71 56 72 61 73 57 74 58 75 60 76 62 77
REMARK SMILES IDX 59 78 43 79 44 80 49 81 45 82 46 83 48 84 50 85 47 86
REMARK H PARENT 1 20 1 21 67 48 41 59
REMARK Flexibility Score: inf
ROOT
ATOM      1  C   UNL     1       4.309   7.350   8.883  1.00  0.00     0.275 C 
ENDROOT
BRANCH   1   2
ATOM      2  O   UNL     1       3.231   7.122   7.954  1.00  0.00    -0.458 OA
BRANCH   2   3
ATOM      3  C   UNL     1       3.563   7.223   6.653  1.00  0.00     0.354 C 
ATOM      4  O   UNL     1       4.625   7.589   6.185  1.00  0.00    -0.245 OA
BRANCH   3   5
ATOM      5  C   UNL     1       2.453   6.698   5.776  1.00  0.00     0.148 C 
ATOM      6  N   UNL     1       1.486   5.722   4.169  1.00  0.00    -0.256 N 
ATOM      7  N   UNL     1       2.680   5.895   4.779  1.00  0.00    -0.169 NA
ATOM      8  C   UNL     1       0.483   6.696   4.616  1.00  0.00     0.154 C 
ATOM      9  C   UNL     1       1.020   7.035   6.021  1.00  0.00     0.099 C 
BRANCH   6  10
ATOM     10  C   UNL     1       1.354   4.804   3.143  1.00  0.00     0.060 A 
ATOM     11  C   UNL     1       0.963   2.909   1.094  1.00  0.00     0.082 A 
ATOM     12  C   UNL     1       1.198   2.477   2.400  1.00  0.00     0.024 A 
ATOM     13  C   UNL     1       0.984   4.270   0.791  1.00  0.00     0.024 A 
ATOM     14  C   UNL     1       1.404   3.426   3.411  1.00  0.00     0.029 A 
ATOM     15  C   UNL     1       1.181   5.204   1.813  1.00  0.00     0.029 A 
BRANCH  11  16
ATOM     16  S   UNL     1       0.640   1.763  -0.213  1.00  0.00     0.238 S 
ATOM     17  O   UNL     1       1.315   2.214  -1.405  1.00  0.00    -0.207 OA
ATOM     18  O   UNL     1      -0.772   1.449  -0.190  1.00  0.00    -0.207 OA
BRANCH  16  19
ATOM     19  N   UNL     1       1.434   0.359   0.248  1.00  0.00    -0.225 NA
ATOM     20  H   UNL     1       1.294  -0.359  -0.463  1.00  0.00     0.137 HD
ATOM     21  H   UNL     1       1.060   0.033   1.139  1.00  0.00     0.137 HD
ENDBRANCH  16  19
ENDBRANCH  11  16
ENDBRANCH   6  10
BRANCH   8  22
ATOM     22  C   UNL     1       0.324   7.908   3.708  1.00  0.00     0.030 A 
ATOM     23  C   UNL     1      -0.544   8.028   2.635  1.00  0.00     0.017 A 
ATOM     24  S   UNL     1       1.308   9.311   3.850  1.00  0.00    -0.147 S 
ATOM     25  C   UNL     1      -0.369   9.246   1.918  1.00  0.00     0.012 A 
ATOM     26  C   UNL     1       0.590  10.047   2.491  1.00  0.00     0.065 A 
ENDBRANCH   8  22
ENDBRANCH   3   5
ENDBRANCH   2   3
ENDBRANCH   1   2
BRANCH   1  27
ATOM     27  C   UNL     1       4.735   6.038   9.547  1.00  0.00     0.275 C 
BRANCH  27  28
ATOM     28  O   UNL     1       5.305   5.130   8.585  1.00  0.00    -0.458 OA
BRANCH  28  29
ATOM     29  C   UNL     1       4.438   4.234   8.058  1.00  0.00     0.338 C 
ATOM     30  O   UNL     1       3.255   4.104   8.322  1.00  0.00    -0.246 OA
BRANCH  29  31
ATOM     31  C   UNL     1       5.106   3.479   6.990  1.00  0.00     0.060 A 
ATOM     32  C   UNL     1       4.971   3.946   5.688  1.00  0.00     0.016 A 
ATOM     33  C   UNL     1       5.766   2.280   7.238  1.00  0.00     0.016 A 
ATOM     34  C   UNL     1       5.416   3.196   4.612  1.00  0.00     0.010 A 
ATOM     35  C   UNL     1       6.307   1.567   6.160  1.00  0.00     0.010 A 
ATOM     36  C   UNL     1       6.127   2.016   4.838  1.00  0.00    -0.014 A 
BRANCH  36  37
ATOM     37  C   UNL     1       6.719   1.294   3.687  1.00  0.00     0.031 A 
ATOM     38  C   UNL     1       6.267  -0.093   3.345  1.00  0.00     0.074 A 
ATOM     39  C   UNL     1       7.670   1.902   2.949  1.00  0.00     0.049 A 
ATOM     40  N   UNL     1       6.769  -0.935   2.479  1.00  0.00    -0.248 NA
ATOM     41  C   UNL     1       5.097  -0.605   4.075  1.00  0.00     0.031 C 
ATOM     42  C   UNL     1       8.148   3.273   3.148  1.00  0.00     0.029 A 
ATOM     43  N   UNL     1       8.409   1.445   1.887  1.00  0.00    -0.354 N 
ATOM     44  C   UNL     1       6.004  -2.088   2.584  1.00  0.00     0.074 A 
ATOM     45  C   UNL     1       5.006  -1.841   3.604  1.00  0.00     0.031 C 
ATOM     46  C   UNL     1       9.090   3.548   2.236  1.00  0.00     0.029 A 
ATOM     47  C   UNL     1       9.342   2.351   1.444  1.00  0.00     0.049 A 
ATOM     48  H   UNL     1       8.283   0.557   1.483  1.00  0.00     0.167 HD
ATOM     49  C   UNL     1       6.133  -3.244   1.892  1.00  0.00     0.037 A 
ATOM     50  C   UNL     1      10.330   2.217   0.540  1.00  0.00     0.037 A 
ATOM     51  C   UNL     1       7.121  -3.465   0.867  1.00  0.00     0.049 A 
ATOM     52  C   UNL     1      10.504   0.896  -0.150  1.00  0.00     0.074 A 
ATOM     53  C   UNL     1       7.317  -4.591   0.087  1.00  0.00     0.029 A 
ATOM     54  N   UNL     1       8.083  -2.541   0.484  1.00  0.00    -0.354 N 
ATOM     55  N   UNL     1       9.785  -0.194  -0.037  1.00  0.00    -0.248 NA
ATOM     56  C   UNL     1      11.636   0.779  -1.078  1.00  0.00     0.031 C 
ATOM     57  C   UNL     1       8.432  -4.369  -0.729  1.00  0.00     0.029 A 
ATOM     58  C   UNL     1       8.899  -3.085  -0.495  1.00  0.00     0.049 A 
ATOM     59  H   UNL     1       8.172  -1.633   0.853  1.00  0.00     0.167 HD
ATOM     60  C   UNL     1      10.370  -1.124  -0.885  1.00  0.00     0.074 A 
ATOM     61  C   UNL     1      11.490  -0.462  -1.522  1.00  0.00     0.031 C 
ATOM     62  C   UNL     1      10.014  -2.412  -1.111  1.00  0.00     0.037 A 
BRANCH  49  63
ATOM     63  C   UNL     1       5.213  -4.375   2.249  1.00  0.00     0.057 A 
ATOM     64  C   UNL     1       3.852  -4.365   1.921  1.00  0.00     0.134 A 
ATOM     65  C   UNL     1       5.711  -5.510   2.904  1.00  0.00     0.134 A 
ATOM     66  F   UNL     1       3.308  -3.304   1.304  1.00  0.00    -0.206 F 
ATOM     67  C   UNL     1       3.015  -5.434   2.249  1.00  0.00     0.040 A 
ATOM     68  C   UNL     1       4.890  -6.595   3.214  1.00  0.00     0.040 A 
ATOM     69  F   UNL     1       7.007  -5.588   3.243  1.00  0.00    -0.206 F 
ATOM     70  C   UNL     1       3.535  -6.556   2.891  1.00  0.00     0.006 A 
ENDBRANCH  49  63
BRANCH  50  71
ATOM     71  C   UNL     1      11.260   3.346   0.287  1.00  0.00     0.057 A 
ATOM     72  C   UNL     1      11.270   4.018  -0.939  1.00  0.00     0.134 A 
ATOM     73  C   UNL     1      12.156   3.786   1.271  1.00  0.00     0.134 A 
ATOM     74  F   UNL     1      10.452   3.630  -1.928  1.00  0.00    -0.206 F 
ATOM     75  C   UNL     1      12.142   5.081  -1.183  1.00  0.00     0.040 A 
ATOM     76  C   UNL     1      13.014   4.865   1.051  1.00  0.00     0.040 A 
ATOM     77  F   UNL     1      12.197   3.185   2.470  1.00  0.00    -0.206 F 
ATOM     78  C   UNL     1      13.012   5.512  -0.182  1.00  0.00     0.006 A 
ENDBRANCH  50  71
BRANCH  62  79
ATOM     79  C   UNL     1      10.841  -3.183  -2.096  1.00  0.00     0.057 A 
ATOM     80  C   UNL     1      12.132  -3.626  -1.785  1.00  0.00     0.134 A 
ATOM     81  C   UNL     1      10.325  -3.519  -3.354  1.00  0.00     0.134 A 
ATOM     82  F   UNL     1      12.689  -3.321  -0.603  1.00  0.00    -0.206 F 
ATOM     83  C   UNL     1      12.887  -4.365  -2.696  1.00  0.00     0.040 A 
ATOM     84  C   UNL     1      11.060  -4.280  -4.263  1.00  0.00     0.040 A 
ATOM     85  F   UNL     1       9.091  -3.130  -3.711  1.00  0.00    -0.206 F 
ATOM     86  C   UNL     1      12.347  -4.701  -3.936  1.00  0.00     0.006 A 
ENDBRANCH  62  79
ENDBRANCH  36  37
ENDBRANCH  29  31
ENDBRANCH  28  29
ENDBRANCH  27  28
ENDBRANCH   1  27
TORSDOF 15
