REMARK SMILES Cc1ccccc1OCc1nc2cc(C(=O)OCCOC(=O)c3ccc(-c4c5nc(c(-c6c(F)cccc6F)c6ccc([nH]6)c(-c6c(F)cccc6F)c6nc(c(-c7c(F)cccc7F)c7ccc4[nH]7)C=C6)C=C5)cc3)ccc2n1C[C@H](C)O
REMARK SMILES IDX 18 1 17 2 15 3 16 4 14 5 10 6 11 7 80 8 12 9 79 10 13 11
REMARK SMILES IDX 78 12 77 13 9 14 8 15 7 16 1 17 2 18 3 19 4 20 6 21 5 22
REMARK SMILES IDX 81 23 82 24 83 25 84 26 19 28 20 29 21 30 22 31 23 32 24 33
REMARK SMILES IDX 76 34 25 35 75 36 26 37 27 38 28 39 69 40 29 41 74 42 68 43
REMARK SMILES IDX 70 44 30 45 73 46 67 47 66 48 31 50 57 51 40 52 56 53 41 54
REMARK SMILES IDX 44 55 55 56 71 57 42 58 43 59 54 61 72 62 45 63 32 64 33 65
REMARK SMILES IDX 38 66 34 67 35 68 37 69 39 70 36 71 58 72 59 73 64 74 60 75
REMARK SMILES IDX 61 76 63 77 65 78 62 79 46 80 47 81 52 82 48 83 49 84 51 85
REMARK SMILES IDX 53 86 50 87
REMARK H PARENT 84 27 70 49 44 60
REMARK Flexibility Score: inf
ROOT
ATOM      1  C   UNL     1      -3.907   4.108  -2.149  1.00  0.00     0.275 C 
ENDROOT
BRANCH   1   2
ATOM      2  O   UNL     1      -4.075   2.691  -2.068  1.00  0.00    -0.458 OA
BRANCH   2   3
ATOM      3  C   UNL     1      -3.007   2.064  -1.554  1.00  0.00     0.338 C 
ATOM      4  O   UNL     1      -1.920   2.587  -1.269  1.00  0.00    -0.246 OA
BRANCH   3   5
ATOM      5  C   UNL     1      -3.298   0.620  -1.322  1.00  0.00     0.062 A 
ATOM      6  C   UNL     1       0.228  -1.676  -2.603  1.00  0.00     0.148 A 
ATOM      7  N   UNL     1      -0.909  -1.455  -3.255  1.00  0.00    -0.229 NA
ATOM      8  N   UNL     1       0.356  -0.700  -1.647  1.00  0.00    -0.322 N 
ATOM      9  C   UNL     1      -1.647  -0.707  -2.365  1.00  0.00     0.090 A 
ATOM     10  C   UNL     1      -0.922  -0.526  -1.189  1.00  0.00     0.068 A 
ATOM     11  C   UNL     1      -2.909  -0.118  -2.450  1.00  0.00     0.046 A 
ATOM     12  C   UNL     1      -1.483  -0.168   0.029  1.00  0.00     0.029 A 
ATOM     13  C   UNL     1      -2.801   0.248  -0.065  1.00  0.00     0.018 A 
BRANCH   6  14
ATOM     14  C   UNL     1       0.934  -2.986  -2.409  1.00  0.00     0.304 C 
BRANCH  14  15
ATOM     15  O   UNL     1       0.767  -3.281  -1.003  1.00  0.00    -0.485 OA
BRANCH  15  16
ATOM     16  C   UNL     1       1.881  -3.722  -0.348  1.00  0.00     0.122 A 
ATOM     17  C   UNL     1       1.676  -1.826   1.373  1.00  0.00     0.048 C 
ATOM     18  C   UNL     1       2.336  -3.043   0.798  1.00  0.00    -0.009 A 
ATOM     19  C   UNL     1       3.429  -3.561   1.506  1.00  0.00     0.007 A 
ATOM     20  C   UNL     1       4.021  -4.758   1.115  1.00  0.00     0.001 A 
ATOM     21  C   UNL     1       2.468  -4.927  -0.730  1.00  0.00     0.047 A 
ATOM     22  C   UNL     1       3.532  -5.447   0.007  1.00  0.00     0.004 A 
ENDBRANCH  15  16
ENDBRANCH  14  15
ENDBRANCH   6  14
BRANCH   8  23
ATOM     23  C   UNL     1       1.430   0.269  -1.474  1.00  0.00     0.155 C 
BRANCH  23  24
ATOM     24  C   UNL     1       2.831  -0.224  -1.855  1.00  0.00     0.131 C 
ATOM     25  C   UNL     1       3.915   0.459  -1.039  1.00  0.00     0.040 C 
BRANCH  24  26
ATOM     26  O   UNL     1       3.068   0.036  -3.239  1.00  0.00    -0.392 OA
ATOM     27  H   UNL     1       3.030   0.992  -3.399  1.00  0.00     0.211 HD
ENDBRANCH  24  26
ENDBRANCH  23  24
ENDBRANCH   8  23
ENDBRANCH   3   5
ENDBRANCH   2   3
ENDBRANCH   1   2
BRANCH   1  28
ATOM     28  C   UNL     1      -5.108   4.811  -1.523  1.00  0.00     0.275 C 
BRANCH  28  29
ATOM     29  O   UNL     1      -5.784   4.136  -0.417  1.00  0.00    -0.458 OA
BRANCH  29  30
ATOM     30  C   UNL     1      -5.337   3.489   0.682  1.00  0.00     0.338 C 
ATOM     31  O   UNL     1      -6.080   2.730   1.307  1.00  0.00    -0.246 OA
BRANCH  30  32
ATOM     32  C   UNL     1      -3.964   3.689   1.187  1.00  0.00     0.060 A 
ATOM     33  C   UNL     1      -3.403   2.764   2.093  1.00  0.00     0.016 A 
ATOM     34  C   UNL     1      -3.229   4.804   0.821  1.00  0.00     0.016 A 
ATOM     35  C   UNL     1      -2.099   2.928   2.561  1.00  0.00     0.010 A 
ATOM     36  C   UNL     1      -1.901   4.893   1.148  1.00  0.00     0.010 A 
ATOM     37  C   UNL     1      -1.357   4.001   2.068  1.00  0.00    -0.014 A 
BRANCH  37  38
ATOM     38  C   UNL     1      -0.138   4.501   2.679  1.00  0.00     0.031 A 
ATOM     39  C   UNL     1       1.162   3.886   2.427  1.00  0.00     0.074 A 
ATOM     40  C   UNL     1      -0.280   5.633   3.404  1.00  0.00     0.049 A 
ATOM     41  N   UNL     1       2.023   3.611   3.343  1.00  0.00    -0.248 NA
ATOM     42  C   UNL     1       1.607   3.566   1.074  1.00  0.00     0.031 C 
ATOM     43  C   UNL     1       0.729   6.451   4.047  1.00  0.00     0.029 A 
ATOM     44  N   UNL     1      -1.486   6.204   3.822  1.00  0.00    -0.354 N 
ATOM     45  C   UNL     1       3.223   3.414   2.695  1.00  0.00     0.074 A 
ATOM     46  C   UNL     1       2.893   3.266   1.293  1.00  0.00     0.031 C 
ATOM     47  C   UNL     1       0.124   7.169   5.016  1.00  0.00     0.029 A 
ATOM     48  C   UNL     1      -1.275   6.759   5.083  1.00  0.00     0.049 A 
ATOM     49  H   UNL     1      -2.332   6.212   3.317  1.00  0.00     0.167 HD
ATOM     50  C   UNL     1       4.403   3.637   3.343  1.00  0.00     0.037 A 
ATOM     51  C   UNL     1      -1.938   6.263   6.171  1.00  0.00     0.037 A 
ATOM     52  C   UNL     1       4.158   4.244   4.648  1.00  0.00     0.049 A 
ATOM     53  C   UNL     1      -1.010   5.460   7.058  1.00  0.00     0.074 A 
ATOM     54  C   UNL     1       4.122   5.578   5.026  1.00  0.00     0.029 A 
ATOM     55  N   UNL     1       3.483   3.541   5.642  1.00  0.00    -0.354 N 
ATOM     56  N   UNL     1       0.225   5.176   6.745  1.00  0.00    -0.248 NA
ATOM     57  C   UNL     1      -1.400   4.887   8.342  1.00  0.00     0.031 C 
ATOM     58  C   UNL     1       3.310   5.686   6.183  1.00  0.00     0.029 A 
ATOM     59  C   UNL     1       2.886   4.419   6.536  1.00  0.00     0.049 A 
ATOM     60  H   UNL     1       3.437   2.560   5.703  1.00  0.00     0.167 HD
ATOM     61  C   UNL     1       0.785   4.399   7.719  1.00  0.00     0.074 A 
ATOM     62  C   UNL     1      -0.264   4.270   8.715  1.00  0.00     0.031 C 
ATOM     63  C   UNL     1       2.061   3.918   7.627  1.00  0.00     0.037 A 
BRANCH  50  64
ATOM     64  C   UNL     1       5.721   3.665   2.609  1.00  0.00     0.057 A 
ATOM     65  C   UNL     1       6.710   4.629   2.870  1.00  0.00     0.134 A 
ATOM     66  C   UNL     1       6.052   2.741   1.601  1.00  0.00     0.134 A 
ATOM     67  F   UNL     1       6.577   5.525   3.856  1.00  0.00    -0.206 F 
ATOM     68  C   UNL     1       7.890   4.730   2.120  1.00  0.00     0.040 A 
ATOM     69  C   UNL     1       7.211   2.849   0.817  1.00  0.00     0.040 A 
ATOM     70  F   UNL     1       5.254   1.694   1.346  1.00  0.00    -0.206 F 
ATOM     71  C   UNL     1       8.132   3.857   1.069  1.00  0.00     0.006 A 
ENDBRANCH  50  64
BRANCH  51  72
ATOM     72  C   UNL     1      -3.372   5.949   5.881  1.00  0.00     0.057 A 
ATOM     73  C   UNL     1      -4.199   7.035   5.533  1.00  0.00     0.134 A 
ATOM     74  C   UNL     1      -3.795   4.678   5.477  1.00  0.00     0.134 A 
ATOM     75  F   UNL     1      -3.891   8.273   5.948  1.00  0.00    -0.206 F 
ATOM     76  C   UNL     1      -5.268   6.893   4.644  1.00  0.00     0.040 A 
ATOM     77  C   UNL     1      -4.887   4.523   4.611  1.00  0.00     0.040 A 
ATOM     78  F   UNL     1      -3.071   3.590   5.776  1.00  0.00    -0.206 F 
ATOM     79  C   UNL     1      -5.581   5.637   4.138  1.00  0.00     0.006 A 
ENDBRANCH  51  72
BRANCH  63  80
ATOM     80  C   UNL     1       2.690   3.004   8.633  1.00  0.00     0.057 A 
ATOM     81  C   UNL     1       2.010   1.971   9.288  1.00  0.00     0.134 A 
ATOM     82  C   UNL     1       4.075   3.088   8.888  1.00  0.00     0.134 A 
ATOM     83  F   UNL     1       0.719   1.716   9.034  1.00  0.00    -0.206 F 
ATOM     84  C   UNL     1       2.649   1.129  10.204  1.00  0.00     0.040 A 
ATOM     85  C   UNL     1       4.734   2.217   9.753  1.00  0.00     0.040 A 
ATOM     86  F   UNL     1       4.843   4.013   8.292  1.00  0.00    -0.206 F 
ATOM     87  C   UNL     1       4.016   1.248  10.435  1.00  0.00     0.006 A 
ENDBRANCH  63  80
ENDBRANCH  37  38
ENDBRANCH  30  32
ENDBRANCH  29  30
ENDBRANCH  28  29
ENDBRANCH   1  28
TORSDOF 17
