REMARK SMILES C[NH2+]CCC(=O)N1CC[C@@H](C(=O)OCCOC(=O)c2ccc(-c3c4nc(c(-c5c(F)cccc5F)c5ccc([nH]5)c(-c5c(F)cccc5F)c5nc(c(-c6c(F)cccc6F)c6ccc3[nH]6)C=C5)C=C4)cc2)[C@@H]1C
REMARK SMILES IDX 14 1 13 2 11 3 12 4 10 5 7 6 8 7 73 8 9 9 74 10 5 11 6 12
REMARK SMILES IDX 4 13 3 14 2 15 1 16 15 19 16 20 17 21 18 22 19 23 20 24
REMARK SMILES IDX 72 25 21 26 71 27 22 28 23 29 24 30 65 31 25 32 70 33 64 34
REMARK SMILES IDX 66 35 26 36 69 37 63 38 62 39 27 41 53 42 36 43 52 44 37 45
REMARK SMILES IDX 40 46 51 47 67 48 38 49 39 50 50 52 68 53 41 54 28 55 29 56
REMARK SMILES IDX 34 57 30 58 31 59 33 60 35 61 32 62 54 63 55 64 60 65 56 66
REMARK SMILES IDX 57 67 59 68 61 69 58 70 42 71 43 72 48 73 44 74 45 75 47 76
REMARK SMILES IDX 49 77 46 78
REMARK H PARENT 2 17 2 18 66 40 40 51
REMARK Flexibility Score: inf
ROOT
ATOM      1  C   UNL     1       4.238   0.993   0.553  1.00  0.00     0.274 C 
ENDROOT
BRANCH   1   2
ATOM      2  O   UNL     1       3.258   1.202  -0.486  1.00  0.00    -0.462 OA
BRANCH   2   3
ATOM      3  C   UNL     1       3.708   1.678  -1.674  1.00  0.00     0.311 C 
ATOM      4  O   UNL     1       4.869   2.003  -1.897  1.00  0.00    -0.252 OA
BRANCH   3   5
ATOM      5  C   UNL     1       2.631   1.789  -2.736  1.00  0.00     0.123 C 
ATOM      6  N   UNL     1       0.257   1.765  -2.762  1.00  0.00    -0.339 N 
ATOM      7  C   UNL     1       0.679   2.984  -3.417  1.00  0.00     0.121 C 
ATOM      8  C   UNL     1       1.398   0.885  -2.538  1.00  0.00     0.096 C 
ATOM      9  C   UNL     1       2.064   3.207  -2.830  1.00  0.00     0.039 C 
ATOM     10  C   UNL     1       1.372  -0.243  -3.578  1.00  0.00     0.032 C 
BRANCH   6  11
ATOM     11  C   UNL     1      -1.065   1.535  -2.459  1.00  0.00     0.228 C 
ATOM     12  O   UNL     1      -1.968   2.099  -3.082  1.00  0.00    -0.275 OA
BRANCH  11  13
ATOM     13  C   UNL     1      -1.384   0.750  -1.195  1.00  0.00     0.161 C 
BRANCH  13  14
ATOM     14  C   UNL     1      -1.266  -0.775  -1.214  1.00  0.00     0.270 C 
BRANCH  14  15
ATOM     15  N   UNL     1      -0.133  -1.420  -0.538  1.00  0.00    -0.348 N 
ATOM     16  C   UNL     1       0.234  -0.859   0.751  1.00  0.00     0.330 C 
ATOM     17  H   UNL     1      -0.370  -2.402  -0.397  1.00  0.00     0.346 HD
ATOM     18  H   UNL     1       0.673  -1.273  -1.146  1.00  0.00     0.346 HD
ENDBRANCH  14  15
ENDBRANCH  13  14
ENDBRANCH  11  13
ENDBRANCH   6  11
ENDBRANCH   3   5
ENDBRANCH   2   3
ENDBRANCH   1   2
BRANCH   1  19
ATOM     19  C   UNL     1       4.558  -0.494   0.736  1.00  0.00     0.275 C 
BRANCH  19  20
ATOM     20  O   UNL     1       5.243  -1.033  -0.409  1.00  0.00    -0.458 OA
BRANCH  20  21
ATOM     21  C   UNL     1       4.438  -1.585  -1.346  1.00  0.00     0.338 C 
ATOM     22  O   UNL     1       3.225  -1.697  -1.304  1.00  0.00    -0.246 OA
BRANCH  21  23
ATOM     23  C   UNL     1       5.231  -1.893  -2.545  1.00  0.00     0.060 A 
ATOM     24  C   UNL     1       5.028  -1.104  -3.679  1.00  0.00     0.016 A 
ATOM     25  C   UNL     1       6.109  -2.976  -2.585  1.00  0.00     0.016 A 
ATOM     26  C   UNL     1       5.678  -1.401  -4.869  1.00  0.00     0.010 A 
ATOM     27  C   UNL     1       6.787  -3.259  -3.776  1.00  0.00     0.010 A 
ATOM     28  C   UNL     1       6.570  -2.477  -4.925  1.00  0.00    -0.014 A 
BRANCH  28  29
ATOM     29  C   UNL     1       7.271  -2.770  -6.195  1.00  0.00     0.031 A 
ATOM     30  C   UNL     1       6.889  -3.972  -7.005  1.00  0.00     0.074 A 
ATOM     31  C   UNL     1       8.232  -1.933  -6.627  1.00  0.00     0.049 A 
ATOM     32  N   UNL     1       7.447  -4.448  -8.088  1.00  0.00    -0.248 NA
ATOM     33  C   UNL     1       5.725  -4.739  -6.537  1.00  0.00     0.031 C 
ATOM     34  C   UNL     1       8.646  -0.702  -5.950  1.00  0.00     0.029 A 
ATOM     35  N   UNL     1       9.034  -1.991  -7.737  1.00  0.00    -0.354 N 
ATOM     36  C   UNL     1       6.720  -5.583  -8.419  1.00  0.00     0.074 A 
ATOM     37  C   UNL     1       5.685  -5.730  -7.418  1.00  0.00     0.031 C 
ATOM     38  C   UNL     1       9.626  -0.121  -6.660  1.00  0.00     0.029 A 
ATOM     39  C   UNL     1       9.944  -0.965  -7.808  1.00  0.00     0.049 A 
ATOM     40  H   UNL     1       8.965  -2.699  -8.417  1.00  0.00     0.167 HD
ATOM     41  C   UNL     1       6.905  -6.424  -9.464  1.00  0.00     0.037 A 
ATOM     42  C   UNL     1      10.947  -0.750  -8.679  1.00  0.00     0.037 A 
ATOM     43  C   UNL     1       7.928  -6.260 -10.464  1.00  0.00     0.049 A 
ATOM     44  C   UNL     1      11.173  -1.735  -9.789  1.00  0.00     0.074 A 
ATOM     45  C   UNL     1       8.190  -7.051 -11.569  1.00  0.00     0.029 A 
ATOM     46  N   UNL     1       8.858  -5.231 -10.479  1.00  0.00    -0.354 N 
ATOM     47  N   UNL     1      10.493  -2.817 -10.083  1.00  0.00    -0.248 NA
ATOM     48  C   UNL     1      12.314  -1.480 -10.680  1.00  0.00     0.031 C 
ATOM     49  C   UNL     1       9.304  -6.522 -12.231  1.00  0.00     0.029 A 
ATOM     50  C   UNL     1       9.710  -5.380 -11.560  1.00  0.00     0.049 A 
ATOM     51  H   UNL     1       8.905  -4.503  -9.818  1.00  0.00     0.167 HD
ATOM     52  C   UNL     1      11.114  -3.364 -11.197  1.00  0.00     0.074 A 
ATOM     53  C   UNL     1      12.215  -2.486 -11.537  1.00  0.00     0.031 C 
ATOM     54  C   UNL     1      10.801  -4.494 -11.877  1.00  0.00     0.037 A 
BRANCH  41  55
ATOM     55  C   UNL     1       6.002  -7.616  -9.558  1.00  0.00     0.057 A 
ATOM     56  C   UNL     1       4.666  -7.506  -9.962  1.00  0.00     0.134 A 
ATOM     57  C   UNL     1       6.486  -8.898  -9.264  1.00  0.00     0.134 A 
ATOM     58  F   UNL     1       4.137  -6.305 -10.242  1.00  0.00    -0.206 F 
ATOM     59  C   UNL     1       3.838  -8.627 -10.054  1.00  0.00     0.040 A 
ATOM     60  C   UNL     1       5.674 -10.027  -9.373  1.00  0.00     0.040 A 
ATOM     61  F   UNL     1       7.757  -9.072  -8.873  1.00  0.00    -0.206 F 
ATOM     62  C   UNL     1       4.344  -9.893  -9.764  1.00  0.00     0.006 A 
ENDBRANCH  41  55
BRANCH  42  63
ATOM     63  C   UNL     1      11.834   0.427  -8.509  1.00  0.00     0.057 A 
ATOM     64  C   UNL     1      11.797   1.498  -9.408  1.00  0.00     0.134 A 
ATOM     65  C   UNL     1      12.736   0.509  -7.441  1.00  0.00     0.134 A 
ATOM     66  F   UNL     1      10.970   1.466 -10.462  1.00  0.00    -0.206 F 
ATOM     67  C   UNL     1      12.632   2.607  -9.255  1.00  0.00     0.040 A 
ATOM     68  C   UNL     1      13.559   1.621  -7.263  1.00  0.00     0.040 A 
ATOM     69  F   UNL     1      12.817  -0.485  -6.545  1.00  0.00    -0.206 F 
ATOM     70  C   UNL     1      13.512   2.673  -8.176  1.00  0.00     0.006 A 
ENDBRANCH  42  63
BRANCH  54  71
ATOM     71  C   UNL     1      11.652  -4.830 -13.064  1.00  0.00     0.057 A 
ATOM     72  C   UNL     1      12.941  -5.357 -12.918  1.00  0.00     0.134 A 
ATOM     73  C   UNL     1      11.162  -4.660 -14.365  1.00  0.00     0.134 A 
ATOM     74  F   UNL     1      13.470  -5.529 -11.697  1.00  0.00    -0.206 F 
ATOM     75  C   UNL     1      13.720  -5.689 -14.027  1.00  0.00     0.040 A 
ATOM     76  C   UNL     1      11.924  -5.009 -15.480  1.00  0.00     0.040 A 
ATOM     77  F   UNL     1       9.932  -4.165 -14.570  1.00  0.00    -0.206 F 
ATOM     78  C   UNL     1      13.209  -5.521 -15.312  1.00  0.00     0.006 A 
ENDBRANCH  54  71
ENDBRANCH  28  29
ENDBRANCH  21  23
ENDBRANCH  20  21
ENDBRANCH  19  20
ENDBRANCH   1  19
TORSDOF 15
