REMARK SMILES O=C(OCCOC(=O)c1nnn(-c2cccc(OC(F)(F)F)c2)c1-c1ccncc1)c1ccc(-c2c3nc(c(-c4c(F)cccc4F)c4ccc([nH]4)c(-c4c(F)cccc4F)c4nc(c(-c5c(F)cccc5F)c5ccc2[nH]5)C=C4)C=C3)cc1
REMARK SMILES IDX 5 1 4 2 3 3 2 4 1 5 31 6 32 7 84 8 33 9 83 10 34 11 35 12
REMARK SMILES IDX 36 13 77 14 37 15 82 16 76 17 78 18 38 19 81 20 75 21 74 22
REMARK SMILES IDX 39 24 65 25 48 26 64 27 49 28 52 29 63 30 79 31 50 32 51 33
REMARK SMILES IDX 62 35 80 36 53 37 40 38 41 39 46 40 42 41 43 42 45 43 47 44
REMARK SMILES IDX 44 45 66 46 67 47 72 48 68 49 69 50 71 51 73 52 70 53 54 54
REMARK SMILES IDX 55 55 60 56 56 57 57 58 59 59 61 60 58 61 6 62 7 63 8 64
REMARK SMILES IDX 9 65 10 66 24 67 11 68 12 69 25 70 26 71 30 72 27 73 29 74
REMARK SMILES IDX 28 75 13 76 14 77 23 78 15 79 17 80 16 81 18 82 19 83 20 84
REMARK SMILES IDX 21 85 22 86
REMARK H PARENT 78 23 52 34
REMARK Flexibility Score: inf
ROOT
ATOM      1  C   UNL     1       4.428  -0.472   1.443  1.00  0.00     0.275 C 
ENDROOT
BRANCH   1   2
ATOM      2  C   UNL     1       4.617   0.907   0.816  1.00  0.00     0.275 C 
BRANCH   2   3
ATOM      3  O   UNL     1       3.442   1.584   0.319  1.00  0.00    -0.458 OA
BRANCH   3   4
ATOM      4  C   UNL     1       2.369   0.873  -0.093  1.00  0.00     0.338 C 
ATOM      5  O   UNL     1       1.401   0.641   0.612  1.00  0.00    -0.246 OA
BRANCH   4   6
ATOM      6  C   UNL     1       2.378   0.610  -1.554  1.00  0.00     0.060 A 
ATOM      7  C   UNL     1       3.559   0.563  -2.303  1.00  0.00     0.016 A 
ATOM      8  C   UNL     1       1.143   0.419  -2.186  1.00  0.00     0.016 A 
ATOM      9  C   UNL     1       3.501   0.435  -3.681  1.00  0.00     0.010 A 
ATOM     10  C   UNL     1       1.082   0.285  -3.566  1.00  0.00     0.010 A 
ATOM     11  C   UNL     1       2.259   0.347  -4.312  1.00  0.00    -0.014 A 
BRANCH  11  12
ATOM     12  C   UNL     1       2.243   0.251  -5.767  1.00  0.00     0.031 A 
ATOM     13  C   UNL     1       2.853  -0.988  -6.333  1.00  0.00     0.074 A 
ATOM     14  C   UNL     1       1.615   1.159  -6.541  1.00  0.00     0.049 A 
ATOM     15  N   UNL     1       3.826  -1.095  -7.180  1.00  0.00    -0.248 NA
ATOM     16  C   UNL     1       2.361  -2.279  -5.824  1.00  0.00     0.031 C 
ATOM     17  C   UNL     1       0.743   2.260  -6.121  1.00  0.00     0.029 A 
ATOM     18  N   UNL     1       1.553   1.226  -7.899  1.00  0.00    -0.354 N 
ATOM     19  C   UNL     1       3.959  -2.458  -7.447  1.00  0.00     0.074 A 
ATOM     20  C   UNL     1       3.113  -3.144  -6.506  1.00  0.00     0.031 C 
ATOM     21  C   UNL     1       0.071   2.734  -7.195  1.00  0.00     0.029 A 
ATOM     22  C   UNL     1       0.567   2.071  -8.389  1.00  0.00     0.049 A 
ATOM     23  H   UNL     1       2.158   0.717  -8.486  1.00  0.00     0.167 HD
ATOM     24  C   UNL     1       4.616  -2.920  -8.547  1.00  0.00     0.037 A 
ATOM     25  C   UNL     1       0.152   2.172  -9.676  1.00  0.00     0.037 A 
ATOM     26  C   UNL     1       5.519  -1.936  -9.080  1.00  0.00     0.049 A 
ATOM     27  C   UNL     1       1.210   1.590 -10.537  1.00  0.00     0.074 A 
ATOM     28  C   UNL     1       6.634  -1.283  -8.592  1.00  0.00     0.029 A 
ATOM     29  N   UNL     1       5.130  -1.219 -10.184  1.00  0.00    -0.354 N 
ATOM     30  N   UNL     1       2.384   2.128 -10.711  1.00  0.00    -0.248 NA
ATOM     31  C   UNL     1       1.117   0.173 -10.851  1.00  0.00     0.031 C 
ATOM     32  C   UNL     1       6.532   0.045  -9.100  1.00  0.00     0.029 A 
ATOM     33  C   UNL     1       5.401   0.099  -9.914  1.00  0.00     0.049 A 
ATOM     34  H   UNL     1       4.734  -1.581 -11.009  1.00  0.00     0.167 HD
ATOM     35  C   UNL     1       3.263   1.055 -10.736  1.00  0.00     0.074 A 
ATOM     36  C   UNL     1       2.418  -0.126 -10.901  1.00  0.00     0.031 C 
ATOM     37  C   UNL     1       4.562   1.194 -10.339  1.00  0.00     0.037 A 
BRANCH  24  38
ATOM     38  C   UNL     1       4.209  -4.149  -9.319  1.00  0.00     0.057 A 
ATOM     39  C   UNL     1       5.047  -4.656 -10.329  1.00  0.00     0.134 A 
ATOM     40  C   UNL     1       2.904  -4.682  -9.302  1.00  0.00     0.134 A 
ATOM     41  F   UNL     1       6.306  -4.214 -10.466  1.00  0.00    -0.206 F 
ATOM     42  C   UNL     1       4.599  -5.579 -11.284  1.00  0.00     0.040 A 
ATOM     43  C   UNL     1       2.461  -5.638 -10.221  1.00  0.00     0.040 A 
ATOM     44  F   UNL     1       1.963  -4.238  -8.459  1.00  0.00    -0.206 F 
ATOM     45  C   UNL     1       3.300  -6.068 -11.235  1.00  0.00     0.006 A 
ENDBRANCH  24  38
BRANCH  25  46
ATOM     46  C   UNL     1      -1.215   2.433 -10.181  1.00  0.00     0.057 A 
ATOM     47  C   UNL     1      -1.441   2.827 -11.507  1.00  0.00     0.134 A 
ATOM     48  C   UNL     1      -2.351   2.031  -9.455  1.00  0.00     0.134 A 
ATOM     49  F   UNL     1      -0.416   3.183 -12.295  1.00  0.00    -0.206 F 
ATOM     50  C   UNL     1      -2.719   2.804 -12.084  1.00  0.00     0.040 A 
ATOM     51  C   UNL     1      -3.631   2.010 -10.016  1.00  0.00     0.040 A 
ATOM     52  F   UNL     1      -2.241   1.559  -8.205  1.00  0.00    -0.206 F 
ATOM     53  C   UNL     1      -3.818   2.384 -11.341  1.00  0.00     0.006 A 
ENDBRANCH  25  46
BRANCH  37  54
ATOM     54  C   UNL     1       5.073   2.586 -10.078  1.00  0.00     0.057 A 
ATOM     55  C   UNL     1       4.569   3.431  -9.076  1.00  0.00     0.134 A 
ATOM     56  C   UNL     1       6.212   3.029 -10.758  1.00  0.00     0.134 A 
ATOM     57  F   UNL     1       3.549   3.052  -8.298  1.00  0.00    -0.206 F 
ATOM     58  C   UNL     1       5.141   4.676  -8.800  1.00  0.00     0.040 A 
ATOM     59  C   UNL     1       6.816   4.255 -10.467  1.00  0.00     0.040 A 
ATOM     60  F   UNL     1       6.791   2.251 -11.686  1.00  0.00    -0.206 F 
ATOM     61  C   UNL     1       6.274   5.089  -9.492  1.00  0.00     0.006 A 
ENDBRANCH  37  54
ENDBRANCH  11  12
ENDBRANCH   4   6
ENDBRANCH   3   4
ENDBRANCH   2   3
ENDBRANCH   1   2
BRANCH   1  62
ATOM     62  O   UNL     1       3.956  -1.398   0.454  1.00  0.00    -0.457 OA
BRANCH  62  63
ATOM     63  C   UNL     1       2.807  -2.074   0.749  1.00  0.00     0.361 C 
ATOM     64  O   UNL     1       2.203  -2.018   1.812  1.00  0.00    -0.244 OA
BRANCH  63  65
ATOM     65  C   UNL     1       2.460  -2.986  -0.314  1.00  0.00     0.198 A 
ATOM     66  N   UNL     1       1.439  -2.808  -1.212  1.00  0.00    -0.122 NA
ATOM     67  C   UNL     1       3.158  -4.136  -0.628  1.00  0.00     0.109 A 
ATOM     68  N   UNL     1       1.473  -3.816  -2.079  1.00  0.00    -0.061 NA
ATOM     69  N   UNL     1       2.381  -4.706  -1.622  1.00  0.00    -0.212 N 
BRANCH  67  70
ATOM     70  C   UNL     1       4.411  -4.670  -0.102  1.00  0.00     0.006 A 
ATOM     71  C   UNL     1       4.609  -4.808   1.271  1.00  0.00     0.030 A 
ATOM     72  C   UNL     1       5.443  -5.029  -0.974  1.00  0.00     0.030 A 
ATOM     73  C   UNL     1       5.823  -5.308   1.712  1.00  0.00     0.111 A 
ATOM     74  C   UNL     1       6.619  -5.521  -0.436  1.00  0.00     0.111 A 
ATOM     75  N   UNL     1       6.830  -5.666   0.888  1.00  0.00    -0.265 NA
ENDBRANCH  67  70
BRANCH  69  76
ATOM     76  C   UNL     1       2.398  -6.051  -2.036  1.00  0.00     0.071 A 
ATOM     77  C   UNL     1       2.324  -6.386  -3.385  1.00  0.00     0.029 A 
ATOM     78  C   UNL     1       2.538  -7.040  -1.048  1.00  0.00     0.075 A 
ATOM     79  C   UNL     1       2.496  -7.723  -3.744  1.00  0.00     0.006 A 
ATOM     80  C   UNL     1       2.663  -8.376  -1.403  1.00  0.00     0.131 A 
ATOM     81  C   UNL     1       2.673  -8.706  -2.760  1.00  0.00     0.047 A 
BRANCH  80  82
ATOM     82  O   UNL     1       2.793  -9.419  -0.532  1.00  0.00    -0.406 OA
BRANCH  82  83
ATOM     83  C   UNL     1       2.607  -9.142   0.851  1.00  0.00     0.573 C 
ATOM     84  F   UNL     1       3.561  -8.303   1.313  1.00  0.00    -0.132 F 
ATOM     85  F   UNL     1       1.391  -8.600   1.081  1.00  0.00    -0.132 F 
ATOM     86  F   UNL     1       2.691 -10.296   1.547  1.00  0.00    -0.132 F 
ENDBRANCH  82  83
ENDBRANCH  80  82
ENDBRANCH  69  76
ENDBRANCH  63  65
ENDBRANCH  62  63
ENDBRANCH   1  62
TORSDOF 15
