REMARK SMILES O=C(OCCOC(=O)c1ccc2c(=O)n(CCC[NH+]3CCOCC3)c(=O)[nH]c2c1)c1ccc(-c2c3nc(c(-c4c(F)cccc4F)c4ccc([nH]4)c(-c4c(F)cccc4F)c4nc(c(-c5c(F)cccc5F)c5ccc2[nH]5)C=C4)C=C3)cc1
REMARK SMILES IDX 5 1 4 2 3 3 2 4 1 5 30 6 31 7 83 8 32 9 82 10 33 11 34 12
REMARK SMILES IDX 35 13 76 14 36 15 81 16 75 17 77 18 37 19 80 20 74 21 73 22
REMARK SMILES IDX 38 24 64 25 47 26 63 27 48 28 51 29 62 30 78 31 49 32 50 33
REMARK SMILES IDX 61 35 79 36 52 37 39 38 40 39 45 40 41 41 42 42 44 43 46 44
REMARK SMILES IDX 43 45 65 46 66 47 71 48 67 49 68 50 70 51 72 52 69 53 53 54
REMARK SMILES IDX 54 55 59 56 55 57 56 58 58 59 60 60 57 61 6 62 7 63 8 64
REMARK SMILES IDX 9 65 10 66 29 67 11 68 28 69 12 70 27 71 13 72 25 73 14 75
REMARK SMILES IDX 15 76 26 77 16 78 17 79 18 80 19 81 20 82 24 83 21 85 23 86
REMARK SMILES IDX 22 87
REMARK H PARENT 77 23 51 34 27 74 19 84
REMARK Flexibility Score: inf
ROOT
ATOM      1  C   UNL     1       3.790  -1.832  -0.894  1.00  0.00     0.275 C 
ENDROOT
BRANCH   1   2
ATOM      2  C   UNL     1       4.279  -1.359   0.479  1.00  0.00     0.275 C 
BRANCH   2   3
ATOM      3  O   UNL     1       3.381  -0.479   1.173  1.00  0.00    -0.458 OA
BRANCH   3   4
ATOM      4  C   UNL     1       3.284   0.870   1.121  1.00  0.00     0.338 C 
ATOM      5  O   UNL     1       2.568   1.440   1.943  1.00  0.00    -0.246 OA
BRANCH   4   6
ATOM      6  C   UNL     1       3.848   1.697   0.007  1.00  0.00     0.060 A 
ATOM      7  C   UNL     1       3.124   2.856  -0.308  1.00  0.00     0.016 A 
ATOM      8  C   UNL     1       4.993   1.429  -0.748  1.00  0.00     0.016 A 
ATOM      9  C   UNL     1       3.440   3.622  -1.430  1.00  0.00     0.010 A 
ATOM     10  C   UNL     1       5.330   2.214  -1.862  1.00  0.00     0.010 A 
ATOM     11  C   UNL     1       4.533   3.295  -2.240  1.00  0.00    -0.014 A 
BRANCH  11  12
ATOM     12  C   UNL     1       4.921   4.182  -3.367  1.00  0.00     0.031 A 
ATOM     13  C   UNL     1       4.926   3.705  -4.803  1.00  0.00     0.074 A 
ATOM     14  C   UNL     1       5.304   5.433  -3.043  1.00  0.00     0.049 A 
ATOM     15  N   UNL     1       5.178   4.374  -5.901  1.00  0.00    -0.248 NA
ATOM     16  C   UNL     1       4.604   2.290  -5.049  1.00  0.00     0.031 C 
ATOM     17  C   UNL     1       5.390   5.959  -1.673  1.00  0.00     0.029 A 
ATOM     18  N   UNL     1       5.731   6.477  -3.818  1.00  0.00    -0.354 N 
ATOM     19  C   UNL     1       4.951   3.492  -6.960  1.00  0.00     0.074 A 
ATOM     20  C   UNL     1       4.608   2.218  -6.376  1.00  0.00     0.031 C 
ATOM     21  C   UNL     1       5.873   7.207  -1.704  1.00  0.00     0.029 A 
ATOM     22  C   UNL     1       6.182   7.546  -3.083  1.00  0.00     0.049 A 
ATOM     23  H   UNL     1       5.716   6.463  -4.803  1.00  0.00     0.167 HD
ATOM     24  C   UNL     1       5.014   3.743  -8.292  1.00  0.00     0.037 A 
ATOM     25  C   UNL     1       6.837   8.653  -3.473  1.00  0.00     0.037 A 
ATOM     26  C   UNL     1       5.455   5.021  -8.814  1.00  0.00     0.049 A 
ATOM     27  C   UNL     1       7.063   8.844  -4.940  1.00  0.00     0.074 A 
ATOM     28  C   UNL     1       5.488   5.464 -10.125  1.00  0.00     0.029 A 
ATOM     29  N   UNL     1       5.966   6.054  -8.035  1.00  0.00    -0.354 N 
ATOM     30  N   UNL     1       6.704   8.066  -5.934  1.00  0.00    -0.248 NA
ATOM     31  C   UNL     1       7.769  10.062  -5.347  1.00  0.00     0.031 C 
ATOM     32  C   UNL     1       6.080   6.733 -10.145  1.00  0.00     0.029 A 
ATOM     33  C   UNL     1       6.359   7.111  -8.841  1.00  0.00     0.049 A 
ATOM     34  H   UNL     1       6.039   6.037  -7.054  1.00  0.00     0.167 HD
ATOM     35  C   UNL     1       7.106   8.718  -7.088  1.00  0.00     0.074 A 
ATOM     36  C   UNL     1       7.734   9.957  -6.667  1.00  0.00     0.031 C 
ATOM     37  C   UNL     1       6.963   8.336  -8.380  1.00  0.00     0.037 A 
BRANCH  24  38
ATOM     38  C   UNL     1       4.606   2.674  -9.290  1.00  0.00     0.057 A 
ATOM     39  C   UNL     1       5.526   2.171 -10.219  1.00  0.00     0.134 A 
ATOM     40  C   UNL     1       3.280   2.245  -9.449  1.00  0.00     0.134 A 
ATOM     41  F   UNL     1       6.827   2.479 -10.118  1.00  0.00    -0.206 F 
ATOM     42  C   UNL     1       5.133   1.352 -11.288  1.00  0.00     0.040 A 
ATOM     43  C   UNL     1       2.865   1.455 -10.528  1.00  0.00     0.040 A 
ATOM     44  F   UNL     1       2.355   2.529  -8.529  1.00  0.00    -0.206 F 
ATOM     45  C   UNL     1       3.793   1.016 -11.462  1.00  0.00     0.006 A 
ENDBRANCH  24  38
BRANCH  25  46
ATOM     46  C   UNL     1       7.383   9.595  -2.462  1.00  0.00     0.057 A 
ATOM     47  C   UNL     1       8.406   9.196  -1.589  1.00  0.00     0.134 A 
ATOM     48  C   UNL     1       6.919  10.908  -2.347  1.00  0.00     0.134 A 
ATOM     49  F   UNL     1       8.888   7.945  -1.636  1.00  0.00    -0.206 F 
ATOM     50  C   UNL     1       8.946  10.066  -0.643  1.00  0.00     0.040 A 
ATOM     51  C   UNL     1       7.473  11.800  -1.426  1.00  0.00     0.040 A 
ATOM     52  F   UNL     1       5.948  11.355  -3.157  1.00  0.00    -0.206 F 
ATOM     53  C   UNL     1       8.488  11.379  -0.569  1.00  0.00     0.006 A 
ENDBRANCH  25  46
BRANCH  37  54
ATOM     54  C   UNL     1       7.437   9.314  -9.410  1.00  0.00     0.057 A 
ATOM     55  C   UNL     1       6.515  10.069 -10.146  1.00  0.00     0.134 A 
ATOM     56  C   UNL     1       8.798   9.506  -9.672  1.00  0.00     0.134 A 
ATOM     57  F   UNL     1       5.197   9.931  -9.933  1.00  0.00    -0.206 F 
ATOM     58  C   UNL     1       6.933  10.977 -11.117  1.00  0.00     0.040 A 
ATOM     59  C   UNL     1       9.228  10.431 -10.623  1.00  0.00     0.040 A 
ATOM     60  F   UNL     1       9.726   8.835  -8.974  1.00  0.00    -0.206 F 
ATOM     61  C   UNL     1       8.293  11.163 -11.354  1.00  0.00     0.006 A 
ENDBRANCH  37  54
ENDBRANCH  11  12
ENDBRANCH   4   6
ENDBRANCH   3   4
ENDBRANCH   2   3
ENDBRANCH   1   2
BRANCH   1  62
ATOM     62  O   UNL     1       3.132  -0.814  -1.664  1.00  0.00    -0.458 OA
BRANCH  62  63
ATOM     63  C   UNL     1       1.774  -0.782  -1.571  1.00  0.00     0.338 C 
ATOM     64  O   UNL     1       1.059  -1.524  -0.924  1.00  0.00    -0.246 OA
BRANCH  63  65
ATOM     65  C   UNL     1       1.297   0.417  -2.291  1.00  0.00     0.062 A 
ATOM     66  C   UNL     1       1.681   0.634  -3.618  1.00  0.00     0.016 A 
ATOM     67  C   UNL     1       0.566   1.388  -1.587  1.00  0.00     0.042 A 
ATOM     68  C   UNL     1       1.430   1.873  -4.205  1.00  0.00     0.017 A 
ATOM     69  C   UNL     1       0.372   2.644  -2.168  1.00  0.00     0.056 A 
ATOM     70  C   UNL     1       0.845   2.892  -3.446  1.00  0.00     0.064 A 
ATOM     71  N   UNL     1      -0.178   3.700  -1.444  1.00  0.00    -0.307 N 
ATOM     72  C   UNL     1       0.870   4.284  -3.917  1.00  0.00     0.264 A 
ATOM     73  C   UNL     1      -0.324   4.978  -1.928  1.00  0.00     0.328 A 
ATOM     74  H   UNL     1      -0.483   3.518  -0.526  1.00  0.00     0.171 HD
ATOM     75  O   UNL     1       1.617   4.529  -4.854  1.00  0.00    -0.268 OA
ATOM     76  N   UNL     1       0.138   5.225  -3.214  1.00  0.00    -0.260 N 
ATOM     77  O   UNL     1      -0.835   5.824  -1.196  1.00  0.00    -0.248 OA
BRANCH  76  78
ATOM     78  C   UNL     1      -0.185   6.520  -3.844  1.00  0.00     0.137 C 
BRANCH  78  79
ATOM     79  C   UNL     1       0.953   7.488  -4.213  1.00  0.00     0.083 C 
BRANCH  79  80
ATOM     80  C   UNL     1       1.620   7.440  -5.612  1.00  0.00     0.264 C 
BRANCH  80  81
ATOM     81  N   UNL     1       0.708   7.334  -6.773  1.00  0.00    -0.331 N 
ATOM     82  C   UNL     1       0.425   5.921  -7.121  1.00  0.00     0.291 C 
ATOM     83  C   UNL     1       1.310   7.924  -8.007  1.00  0.00     0.291 C 
ATOM     84  H   UNL     1      -0.138   7.831  -6.492  1.00  0.00     0.348 HD
ATOM     85  C   UNL     1       1.637   5.166  -7.673  1.00  0.00     0.221 C 
ATOM     86  C   UNL     1       2.468   7.117  -8.632  1.00  0.00     0.221 C 
ATOM     87  O   UNL     1       2.070   5.764  -8.896  1.00  0.00    -0.370 OA
ENDBRANCH  80  81
ENDBRANCH  79  80
ENDBRANCH  78  79
ENDBRANCH  76  78
ENDBRANCH  63  65
ENDBRANCH  62  63
ENDBRANCH   1  62
TORSDOF 15
