REMARK SMILES Cc1cc(=O)cc(C)n1C[C@H]1CCCC[C@@H]1C(=O)OCCOC(=O)c1ccc(-c2c3nc(c(-c4c(F)cccc4F)c4ccc([nH]4)c(-c4c(F)cccc4F)c4nc(c(-c5c(F)cccc5F)c5ccc2[nH]5)C=C4)C=C3)cc1
REMARK SMILES IDX 20 1 19 2 17 3 18 4 16 5 11 6 12 7 13 8 15 9 14 10 10 11
REMARK SMILES IDX 9 12 1 13 2 14 3 15 4 16 7 17 5 18 6 19 8 20 21 21 22 22
REMARK SMILES IDX 23 23 24 24 25 25 26 26 78 27 27 28 77 29 28 30 29 31 30 32
REMARK SMILES IDX 71 33 31 34 76 35 70 36 72 37 32 38 75 39 69 40 68 41 33 43
REMARK SMILES IDX 59 44 42 45 58 46 43 47 46 48 57 49 73 50 44 51 45 52 56 54
REMARK SMILES IDX 74 55 47 56 34 57 35 58 40 59 36 60 37 61 39 62 41 63 38 64
REMARK SMILES IDX 60 65 61 66 66 67 62 68 63 69 65 70 67 71 64 72 48 73 49 74
REMARK SMILES IDX 54 75 50 76 51 77 53 78 55 79 52 80
REMARK H PARENT 72 42 46 53
REMARK Flexibility Score: inf
ROOT
ATOM      1  C   UNL     1      -1.220   1.061  -1.743  1.00  0.00     0.274 C 
ENDROOT
BRANCH   1   2
ATOM      2  O   UNL     1       0.179   1.099  -2.116  1.00  0.00    -0.462 OA
BRANCH   2   3
ATOM      3  C   UNL     1       0.522   2.145  -2.918  1.00  0.00     0.309 C 
ATOM      4  O   UNL     1      -0.256   3.034  -3.242  1.00  0.00    -0.252 OA
BRANCH   3   5
ATOM      5  C   UNL     1       1.981   2.060  -3.400  1.00  0.00     0.104 C 
ATOM      6  C   UNL     1       2.937   2.981  -2.587  1.00  0.00     0.023 C 
ATOM      7  C   UNL     1       2.514   4.428  -2.854  1.00  0.00     0.006 C 
ATOM      8  C   UNL     1       2.567   4.837  -4.321  1.00  0.00     0.000 C 
ATOM      9  C   UNL     1       2.033   2.397  -4.905  1.00  0.00     0.016 C 
ATOM     10  C   UNL     1       1.796   3.879  -5.224  1.00  0.00     0.001 C 
BRANCH   6  11
ATOM     11  C   UNL     1       4.437   2.746  -2.949  1.00  0.00     0.126 C 
BRANCH  11  12
ATOM     12  N   UNL     1       5.402   3.166  -1.881  1.00  0.00    -0.349 N 
ATOM     13  C   UNL     1       5.902   0.725  -1.357  1.00  0.00     0.064 C 
ATOM     14  C   UNL     1       5.985   2.194  -1.020  1.00  0.00     0.018 A 
ATOM     15  C   UNL     1       6.696   2.527   0.073  1.00  0.00     0.073 A 
ATOM     16  C   UNL     1       6.902   3.944   0.403  1.00  0.00     0.182 A 
ATOM     17  C   UNL     1       5.828   4.516  -1.711  1.00  0.00     0.018 A 
ATOM     18  O   UNL     1       7.417   4.283   1.462  1.00  0.00    -0.290 OA
ATOM     19  C   UNL     1       6.521   4.921  -0.628  1.00  0.00     0.073 A 
ATOM     20  C   UNL     1       5.648   5.560  -2.787  1.00  0.00     0.064 C 
ENDBRANCH  11  12
ENDBRANCH   6  11
ENDBRANCH   3   5
ENDBRANCH   2   3
ENDBRANCH   1   2
BRANCH   1  21
ATOM     21  C   UNL     1      -1.444   1.591  -0.326  1.00  0.00     0.275 C 
BRANCH  21  22
ATOM     22  O   UNL     1      -0.961   2.941  -0.215  1.00  0.00    -0.458 OA
BRANCH  22  23
ATOM     23  C   UNL     1      -0.328   3.255   0.944  1.00  0.00     0.338 C 
ATOM     24  O   UNL     1      -0.205   2.526   1.914  1.00  0.00    -0.246 OA
BRANCH  23  25
ATOM     25  C   UNL     1       0.288   4.610   0.867  1.00  0.00     0.060 A 
ATOM     26  C   UNL     1       0.392   5.297  -0.336  1.00  0.00     0.016 A 
ATOM     27  C   UNL     1       0.886   5.163   2.002  1.00  0.00     0.016 A 
ATOM     28  C   UNL     1       1.237   6.412  -0.441  1.00  0.00     0.010 A 
ATOM     29  C   UNL     1       1.628   6.355   1.912  1.00  0.00     0.010 A 
ATOM     30  C   UNL     1       1.887   6.967   0.672  1.00  0.00    -0.014 A 
BRANCH  30  31
ATOM     31  C   UNL     1       2.886   8.092   0.545  1.00  0.00     0.031 A 
ATOM     32  C   UNL     1       4.203   8.039   1.303  1.00  0.00     0.074 A 
ATOM     33  C   UNL     1       2.707   9.157  -0.270  1.00  0.00     0.049 A 
ATOM     34  N   UNL     1       5.037   9.012   1.586  1.00  0.00    -0.248 NA
ATOM     35  C   UNL     1       4.633   6.728   1.811  1.00  0.00     0.031 C 
ATOM     36  C   UNL     1       1.569   9.385  -1.159  1.00  0.00     0.029 A 
ATOM     37  N   UNL     1       3.514  10.253  -0.502  1.00  0.00    -0.354 N 
ATOM     38  C   UNL     1       6.024   8.450   2.391  1.00  0.00     0.074 A 
ATOM     39  C   UNL     1       5.710   7.044   2.518  1.00  0.00     0.031 C 
ATOM     40  C   UNL     1       1.797  10.474  -1.908  1.00  0.00     0.029 A 
ATOM     41  C   UNL     1       3.021  11.120  -1.449  1.00  0.00     0.049 A 
ATOM     42  H   UNL     1       4.367  10.401  -0.031  1.00  0.00     0.167 HD
ATOM     43  C   UNL     1       7.089   9.048   2.978  1.00  0.00     0.037 A 
ATOM     44  C   UNL     1       3.446  12.330  -1.866  1.00  0.00     0.037 A 
ATOM     45  C   UNL     1       7.489  10.414   2.766  1.00  0.00     0.049 A 
ATOM     46  C   UNL     1       4.612  12.993  -1.192  1.00  0.00     0.074 A 
ATOM     47  C   UNL     1       8.534  11.109   3.356  1.00  0.00     0.029 A 
ATOM     48  N   UNL     1       6.906  11.271   1.852  1.00  0.00    -0.354 N 
ATOM     49  N   UNL     1       5.407  12.523  -0.264  1.00  0.00    -0.248 NA
ATOM     50  C   UNL     1       4.902  14.384  -1.581  1.00  0.00     0.031 C 
ATOM     51  C   UNL     1       8.582  12.389   2.796  1.00  0.00     0.029 A 
ATOM     52  C   UNL     1       7.580  12.481   1.846  1.00  0.00     0.049 A 
ATOM     53  H   UNL     1       6.128  11.055   1.290  1.00  0.00     0.167 HD
ATOM     54  C   UNL     1       6.276  13.559   0.051  1.00  0.00     0.074 A 
ATOM     55  C   UNL     1       5.939  14.674  -0.807  1.00  0.00     0.031 C 
ATOM     56  C   UNL     1       7.251  13.587   0.990  1.00  0.00     0.037 A 
BRANCH  43  57
ATOM     57  C   UNL     1       7.904   8.242   3.943  1.00  0.00     0.057 A 
ATOM     58  C   UNL     1       8.883   7.341   3.515  1.00  0.00     0.134 A 
ATOM     59  C   UNL     1       7.773   8.457   5.322  1.00  0.00     0.134 A 
ATOM     60  F   UNL     1       9.067   7.109   2.207  1.00  0.00    -0.206 F 
ATOM     61  C   UNL     1       9.699   6.670   4.429  1.00  0.00     0.040 A 
ATOM     62  C   UNL     1       8.599   7.812   6.243  1.00  0.00     0.040 A 
ATOM     63  F   UNL     1       6.866   9.327   5.792  1.00  0.00    -0.206 F 
ATOM     64  C   UNL     1       9.565   6.913   5.796  1.00  0.00     0.006 A 
ENDBRANCH  43  57
BRANCH  44  65
ATOM     65  C   UNL     1       2.705  13.048  -2.937  1.00  0.00     0.057 A 
ATOM     66  C   UNL     1       3.283  13.254  -4.195  1.00  0.00     0.134 A 
ATOM     67  C   UNL     1       1.414  13.547  -2.730  1.00  0.00     0.134 A 
ATOM     68  F   UNL     1       4.532  12.832  -4.443  1.00  0.00    -0.206 F 
ATOM     69  C   UNL     1       2.599  13.924  -5.211  1.00  0.00     0.040 A 
ATOM     70  C   UNL     1       0.707  14.191  -3.745  1.00  0.00     0.040 A 
ATOM     71  F   UNL     1       0.811  13.393  -1.542  1.00  0.00    -0.206 F 
ATOM     72  C   UNL     1       1.302  14.384  -4.990  1.00  0.00     0.006 A 
ENDBRANCH  44  65
BRANCH  56  73
ATOM     73  C   UNL     1       8.036  14.853   1.139  1.00  0.00     0.057 A 
ATOM     74  C   UNL     1       7.509  15.962   1.812  1.00  0.00     0.134 A 
ATOM     75  C   UNL     1       9.345  14.949   0.652  1.00  0.00     0.134 A 
ATOM     76  F   UNL     1       6.257  15.934   2.291  1.00  0.00    -0.206 F 
ATOM     77  C   UNL     1       8.255  17.128   1.987  1.00  0.00     0.040 A 
ATOM     78  C   UNL     1      10.107  16.104   0.835  1.00  0.00     0.040 A 
ATOM     79  F   UNL     1       9.908  13.918   0.004  1.00  0.00    -0.206 F 
ATOM     80  C   UNL     1       9.561  17.199   1.503  1.00  0.00     0.006 A 
ENDBRANCH  56  73
ENDBRANCH  30  31
ENDBRANCH  23  25
ENDBRANCH  22  23
ENDBRANCH  21  22
ENDBRANCH   1  21
TORSDOF 13
