REMARK SMILES O=C(CCCN1C(=O)C(=O)/C(=C(/[O-])c2ccccc2)[C@@H]1/C=C/c1ccccc1)OCCOC(=O)c1ccc(-c2c3nc(c(-c4c(F)cccc4F)c4ccc([nH]4)c(-c4c(F)cccc4F)c4nc(c(-c5c(F)cccc5F)c5ccc2[nH]5)C=C4)C=C3)cc1
REMARK SMILES IDX 29 1 2 2 1 3 3 4 4 5 5 6 6 7 7 8 20 9 8 10 9 11 11 12 10 13
REMARK SMILES IDX 12 14 13 15 21 16 22 17 23 18 24 19 28 20 25 21 27 22 26 23
REMARK SMILES IDX 14 24 15 25 19 26 16 27 18 28 17 29 30 30 31 31 32 32 33 33
REMARK SMILES IDX 34 34 35 35 36 36 88 37 37 38 87 39 38 40 39 41 40 42 81 43
REMARK SMILES IDX 41 44 86 45 80 46 82 47 42 48 85 49 79 50 78 51 43 53 69 54
REMARK SMILES IDX 52 55 68 56 53 57 56 58 67 59 83 60 54 61 55 62 66 64 84 65
REMARK SMILES IDX 57 66 44 67 45 68 50 69 46 70 47 71 49 72 51 73 48 74 70 75
REMARK SMILES IDX 71 76 76 77 72 78 73 79 75 80 77 81 74 82 58 83 59 84 64 85
REMARK SMILES IDX 60 86 61 87 63 88 65 89 62 90
REMARK H PARENT 82 52 56 63
REMARK Flexibility Score: inf
ROOT
ATOM      1  O   UNL     1       3.535   2.882   0.321  1.00  0.00    -0.462 OA
ENDROOT
BRANCH   1   2
ATOM      2  C   UNL     1       2.885   2.831  -0.869  1.00  0.00     0.305 C 
ATOM      3  O   UNL     1       1.666   2.888  -0.989  1.00  0.00    -0.252 OA
BRANCH   2   4
ATOM      4  C   UNL     1       3.832   2.475  -1.990  1.00  0.00     0.124 C 
BRANCH   4   5
ATOM      5  C   UNL     1       5.295   2.123  -1.630  1.00  0.00     0.033 C 
BRANCH   5   6
ATOM      6  C   UNL     1       5.780   0.997  -0.608  1.00  0.00     0.121 C 
BRANCH   6   7
ATOM      7  N   UNL     1       5.654  -0.461  -0.948  1.00  0.00    -0.325 N 
ATOM      8  C   UNL     1       6.398  -0.765  -2.097  1.00  0.00     0.295 C 
ATOM      9  C   UNL     1       5.618  -1.681   0.029  1.00  0.00     0.143 C 
ATOM     10  O   UNL     1       6.872  -0.024  -2.920  1.00  0.00    -0.265 OA
ATOM     11  C   UNL     1       6.696  -2.236  -2.097  1.00  0.00     0.248 C 
ATOM     12  C   UNL     1       6.403  -2.757  -0.735  1.00  0.00     0.024 C 
ATOM     13  O   UNL     1       7.016  -2.821  -3.095  1.00  0.00    -0.283 OA
ATOM     14  C   UNL     1       6.829  -3.986  -0.384  1.00  0.00    -0.092 C 
ATOM     15  O   UNL     1       6.495  -4.610   0.797  1.00  0.00    -0.872 OA
BRANCH   9  16
ATOM     16  C   UNL     1       4.197  -2.245   0.435  1.00  0.00     0.003 C 
ATOM     17  C   UNL     1       3.550  -2.329   1.648  1.00  0.00     0.006 C 
BRANCH  17  18
ATOM     18  C   UNL     1       2.042  -2.586   1.859  1.00  0.00    -0.026 A 
ATOM     19  C   UNL     1       1.221  -1.550   2.382  1.00  0.00     0.008 A 
ATOM     20  C   UNL     1       1.349  -3.701   1.371  1.00  0.00     0.008 A 
ATOM     21  C   UNL     1      -0.155  -1.454   2.082  1.00  0.00     0.001 A 
ATOM     22  C   UNL     1      -0.062  -3.675   1.214  1.00  0.00     0.001 A 
ATOM     23  C   UNL     1      -0.799  -2.520   1.480  1.00  0.00     0.000 A 
ENDBRANCH  17  18
ENDBRANCH   9  16
BRANCH  14  24
ATOM     24  C   UNL     1       7.768  -4.779  -1.211  1.00  0.00    -0.033 A 
ATOM     25  C   UNL     1       7.325  -5.861  -1.982  1.00  0.00     0.007 A 
ATOM     26  C   UNL     1       9.117  -4.395  -1.298  1.00  0.00     0.007 A 
ATOM     27  C   UNL     1       8.209  -6.532  -2.836  1.00  0.00     0.001 A 
ATOM     28  C   UNL     1       9.997  -5.065  -2.154  1.00  0.00     0.001 A 
ATOM     29  C   UNL     1       9.542  -6.132  -2.924  1.00  0.00     0.000 A 
ENDBRANCH  14  24
ENDBRANCH   6   7
ENDBRANCH   5   6
ENDBRANCH   4   5
ENDBRANCH   2   4
ENDBRANCH   1   2
BRANCH   1  30
ATOM     30  C   UNL     1       2.921   1.987   1.235  1.00  0.00     0.274 C 
BRANCH  30  31
ATOM     31  C   UNL     1       3.047   0.546   0.746  1.00  0.00     0.275 C 
BRANCH  31  32
ATOM     32  O   UNL     1       2.933   0.315  -0.676  1.00  0.00    -0.458 OA
BRANCH  32  33
ATOM     33  C   UNL     1       2.142  -0.660  -1.158  1.00  0.00     0.338 C 
ATOM     34  O   UNL     1       1.459  -1.460  -0.554  1.00  0.00    -0.246 OA
BRANCH  33  35
ATOM     35  C   UNL     1       2.027  -0.662  -2.604  1.00  0.00     0.060 A 
ATOM     36  C   UNL     1       0.799  -0.192  -3.058  1.00  0.00     0.016 A 
ATOM     37  C   UNL     1       2.937  -1.296  -3.458  1.00  0.00     0.016 A 
ATOM     38  C   UNL     1       0.472  -0.340  -4.390  1.00  0.00     0.010 A 
ATOM     39  C   UNL     1       2.624  -1.398  -4.816  1.00  0.00     0.010 A 
ATOM     40  C   UNL     1       1.390  -0.917  -5.281  1.00  0.00    -0.014 A 
BRANCH  40  41
ATOM     41  C   UNL     1       1.042  -0.888  -6.713  1.00  0.00     0.031 A 
ATOM     42  C   UNL     1       0.529  -2.101  -7.418  1.00  0.00     0.074 A 
ATOM     43  C   UNL     1       1.088   0.308  -7.328  1.00  0.00     0.049 A 
ATOM     44  N   UNL     1       0.043  -2.198  -8.629  1.00  0.00    -0.248 NA
ATOM     45  C   UNL     1       0.553  -3.366  -6.671  1.00  0.00     0.031 C 
ATOM     46  C   UNL     1       1.547   1.552  -6.703  1.00  0.00     0.029 A 
ATOM     47  N   UNL     1       0.715   0.681  -8.589  1.00  0.00    -0.354 N 
ATOM     48  C   UNL     1      -0.308  -3.530  -8.790  1.00  0.00     0.074 A 
ATOM     49  C   UNL     1       0.053  -4.212  -7.564  1.00  0.00     0.031 C 
ATOM     50  C   UNL     1       1.396   2.559  -7.575  1.00  0.00     0.029 A 
ATOM     51  C   UNL     1       0.873   2.023  -8.826  1.00  0.00     0.049 A 
ATOM     52  H   UNL     1       0.366   0.050  -9.259  1.00  0.00     0.167 HD
ATOM     53  C   UNL     1      -0.888  -4.119  -9.864  1.00  0.00     0.037 A 
ATOM     54  C   UNL     1       0.631   2.740  -9.937  1.00  0.00     0.037 A 
ATOM     55  C   UNL     1      -1.221  -3.424 -11.084  1.00  0.00     0.049 A 
ATOM     56  C   UNL     1       0.058   2.043 -11.135  1.00  0.00     0.074 A 
ATOM     57  C   UNL     1      -1.813  -3.928 -12.230  1.00  0.00     0.029 A 
ATOM     58  N   UNL     1      -0.979  -2.078 -11.322  1.00  0.00    -0.354 N 
ATOM     59  N   UNL     1      -0.304   0.790 -11.267  1.00  0.00    -0.248 NA
ATOM     60  C   UNL     1      -0.142   2.859 -12.338  1.00  0.00     0.031 C 
ATOM     61  C   UNL     1      -1.879  -2.902 -13.178  1.00  0.00     0.029 A 
ATOM     62  C   UNL     1      -1.383  -1.742 -12.604  1.00  0.00     0.049 A 
ATOM     63  H   UNL     1      -0.579  -1.454 -10.674  1.00  0.00     0.167 HD
ATOM     64  C   UNL     1      -0.798   0.671 -12.559  1.00  0.00     0.074 A 
ATOM     65  C   UNL     1      -0.705   1.986 -13.161  1.00  0.00     0.031 C 
ATOM     66  C   UNL     1      -1.284  -0.426 -13.188  1.00  0.00     0.037 A 
BRANCH  53  67
ATOM     67  C   UNL     1      -1.175  -5.590  -9.779  1.00  0.00     0.057 A 
ATOM     68  C   UNL     1      -2.189  -6.100  -8.958  1.00  0.00     0.134 A 
ATOM     69  C   UNL     1      -0.459  -6.505 -10.562  1.00  0.00     0.134 A 
ATOM     70  F   UNL     1      -2.909  -5.280  -8.177  1.00  0.00    -0.206 F 
ATOM     71  C   UNL     1      -2.465  -7.468  -8.902  1.00  0.00     0.040 A 
ATOM     72  C   UNL     1      -0.742  -7.871 -10.533  1.00  0.00     0.040 A 
ATOM     73  F   UNL     1       0.519  -6.084 -11.378  1.00  0.00    -0.206 F 
ATOM     74  C   UNL     1      -1.744  -8.357  -9.697  1.00  0.00     0.006 A 
ENDBRANCH  53  67
BRANCH  54  75
ATOM     75  C   UNL     1       0.937   4.191  -9.960  1.00  0.00     0.057 A 
ATOM     76  C   UNL     1      -0.079   5.148 -10.046  1.00  0.00     0.134 A 
ATOM     77  C   UNL     1       2.258   4.653  -9.894  1.00  0.00     0.134 A 
ATOM     78  F   UNL     1      -1.362   4.766 -10.123  1.00  0.00    -0.206 F 
ATOM     79  C   UNL     1       0.208   6.513 -10.087  1.00  0.00     0.040 A 
ATOM     80  C   UNL     1       2.557   6.015  -9.905  1.00  0.00     0.040 A 
ATOM     81  F   UNL     1       3.276   3.785  -9.799  1.00  0.00    -0.206 F 
ATOM     82  C   UNL     1       1.530   6.949 -10.012  1.00  0.00     0.006 A 
ENDBRANCH  54  75
BRANCH  66  83
ATOM     83  C   UNL     1      -1.782  -0.240 -14.592  1.00  0.00     0.057 A 
ATOM     84  C   UNL     1      -0.911  -0.009 -15.664  1.00  0.00     0.134 A 
ATOM     85  C   UNL     1      -3.152  -0.320 -14.878  1.00  0.00     0.134 A 
ATOM     86  F   UNL     1       0.411   0.095 -15.456  1.00  0.00    -0.206 F 
ATOM     87  C   UNL     1      -1.385   0.160 -16.966  1.00  0.00     0.040 A 
ATOM     88  C   UNL     1      -3.635  -0.182 -16.179  1.00  0.00     0.040 A 
ATOM     89  F   UNL     1      -4.040  -0.545 -13.898  1.00  0.00    -0.206 F 
ATOM     90  C   UNL     1      -2.751   0.066 -17.227  1.00  0.00     0.006 A 
ENDBRANCH  66  83
ENDBRANCH  40  41
ENDBRANCH  33  35
ENDBRANCH  32  33
ENDBRANCH  31  32
ENDBRANCH  30  31
ENDBRANCH   1  30
TORSDOF 17
