REMARK SMILES Cc1cc(S[C@@H](C)c2ccc(C(=O)OCCOC(=O)c3ccc(-c4c5nc(c(-c6c(F)cccc6F)c6ccc([nH]6)c(-c6c(F)cccc6F)c6nc(c(-c7c(F)cccc7F)c7ccc4[nH]7)C=C6)C=C5)cc3)o2)n(C)n1
REMARK SMILES IDX 15 1 14 2 12 3 13 4 11 5 8 6 9 7 74 8 10 9 6 10 7 11 5 12
REMARK SMILES IDX 4 13 1 14 2 15 3 16 77 17 75 18 76 19 16 20 17 21 18 22
REMARK SMILES IDX 19 23 20 24 21 25 73 26 22 27 72 28 23 29 24 30 25 31 66 32
REMARK SMILES IDX 26 33 71 34 65 35 67 36 27 37 70 38 64 39 63 40 28 42 54 43
REMARK SMILES IDX 37 44 53 45 38 46 41 47 52 48 68 49 39 50 40 51 51 53 69 54
REMARK SMILES IDX 42 55 29 56 30 57 35 58 31 59 32 60 34 61 36 62 33 63 55 64
REMARK SMILES IDX 56 65 61 66 57 67 58 68 60 69 62 70 59 71 43 72 44 73 49 74
REMARK SMILES IDX 45 75 46 76 48 77 50 78 47 79
REMARK H PARENT 67 41 41 52
REMARK Flexibility Score: inf
ROOT
ATOM      1  C   UNL     1      -3.061  -2.500  -5.871  1.00  0.00     0.275 C 
ENDROOT
BRANCH   1   2
ATOM      2  O   UNL     1      -2.538  -3.443  -4.915  1.00  0.00    -0.456 OA
BRANCH   2   3
ATOM      3  C   UNL     1      -1.360  -3.112  -4.309  1.00  0.00     0.374 C 
ATOM      4  O   UNL     1      -0.742  -2.075  -4.530  1.00  0.00    -0.242 OA
BRANCH   3   5
ATOM      5  C   UNL     1      -0.972  -4.149  -3.378  1.00  0.00     0.211 A 
ATOM      6  C   UNL     1       0.154  -4.953  -1.638  1.00  0.00     0.118 A 
ATOM      7  C   UNL     1      -0.688  -5.960  -2.068  1.00  0.00     0.048 A 
ATOM      8  O   UNL     1       0.017  -3.875  -2.471  1.00  0.00    -0.453 OA
ATOM      9  C   UNL     1      -1.413  -5.444  -3.172  1.00  0.00     0.058 A 
BRANCH   6  10
ATOM     10  C   UNL     1       1.107  -4.853  -0.472  1.00  0.00     0.116 C 
ATOM     11  C   UNL     1       0.416  -5.177   0.865  1.00  0.00     0.028 C 
BRANCH  10  12
ATOM     12  S   UNL     1       2.045  -3.263  -0.403  1.00  0.00    -0.096 SA
BRANCH  12  13
ATOM     13  C   UNL     1       0.846  -2.154   0.176  1.00  0.00     0.095 A 
ATOM     14  C   UNL     1      -2.384  -0.946   1.302  1.00  0.00     0.069 C 
ATOM     15  C   UNL     1      -0.972  -1.197   0.964  1.00  0.00     0.061 A 
ATOM     16  C   UNL     1      -0.521  -2.207   0.110  1.00  0.00     0.060 A 
ATOM     17  N   UNL     1       0.038  -0.448   1.422  1.00  0.00    -0.178 NA
ATOM     18  N   UNL     1       1.137  -0.990   0.841  1.00  0.00    -0.262 N 
ATOM     19  C   UNL     1       2.371  -0.237   0.833  1.00  0.00     0.175 C 
ENDBRANCH  12  13
ENDBRANCH  10  12
ENDBRANCH   6  10
ENDBRANCH   3   5
ENDBRANCH   2   3
ENDBRANCH   1   2
BRANCH   1  20
ATOM     20  C   UNL     1      -4.152  -1.613  -5.266  1.00  0.00     0.275 C 
BRANCH  20  21
ATOM     21  O   UNL     1      -3.596  -0.516  -4.513  1.00  0.00    -0.458 OA
BRANCH  21  22
ATOM     22  C   UNL     1      -3.507  -0.725  -3.182  1.00  0.00     0.338 C 
ATOM     23  O   UNL     1      -3.842  -1.727  -2.571  1.00  0.00    -0.246 OA
BRANCH  22  24
ATOM     24  C   UNL     1      -2.857   0.415  -2.514  1.00  0.00     0.060 A 
ATOM     25  C   UNL     1      -1.514   0.283  -2.203  1.00  0.00     0.016 A 
ATOM     26  C   UNL     1      -3.592   1.476  -1.978  1.00  0.00     0.016 A 
ATOM     27  C   UNL     1      -0.955   1.123  -1.240  1.00  0.00     0.010 A 
ATOM     28  C   UNL     1      -2.990   2.357  -1.053  1.00  0.00     0.010 A 
ATOM     29  C   UNL     1      -1.688   2.132  -0.580  1.00  0.00    -0.014 A 
BRANCH  29  30
ATOM     30  C   UNL     1      -1.101   2.771   0.668  1.00  0.00     0.031 A 
ATOM     31  C   UNL     1      -1.827   2.742   2.016  1.00  0.00     0.074 A 
ATOM     32  C   UNL     1       0.187   3.190   0.676  1.00  0.00     0.049 A 
ATOM     33  N   UNL     1      -1.360   2.999   3.221  1.00  0.00    -0.248 NA
ATOM     34  C   UNL     1      -3.246   2.349   2.028  1.00  0.00     0.031 C 
ATOM     35  C   UNL     1       1.060   3.254  -0.497  1.00  0.00     0.029 A 
ATOM     36  N   UNL     1       1.014   3.569   1.714  1.00  0.00    -0.354 N 
ATOM     37  C   UNL     1      -2.396   2.730   4.114  1.00  0.00     0.074 A 
ATOM     38  C   UNL     1      -3.529   2.314   3.322  1.00  0.00     0.031 C 
ATOM     39  C   UNL     1       2.314   3.516  -0.102  1.00  0.00     0.029 A 
ATOM     40  C   UNL     1       2.324   3.767   1.336  1.00  0.00     0.049 A 
ATOM     41  H   UNL     1       0.697   3.688   2.638  1.00  0.00     0.167 HD
ATOM     42  C   UNL     1      -2.434   2.830   5.466  1.00  0.00     0.037 A 
ATOM     43  C   UNL     1       3.415   4.131   2.042  1.00  0.00     0.037 A 
ATOM     44  C   UNL     1      -1.373   3.353   6.286  1.00  0.00     0.049 A 
ATOM     45  C   UNL     1       3.288   4.429   3.511  1.00  0.00     0.074 A 
ATOM     46  C   UNL     1      -1.393   3.639   7.642  1.00  0.00     0.029 A 
ATOM     47  N   UNL     1      -0.117   3.705   5.824  1.00  0.00    -0.354 N 
ATOM     48  N   UNL     1       2.280   4.217   4.318  1.00  0.00    -0.248 NA
ATOM     49  C   UNL     1       4.449   5.061   4.158  1.00  0.00     0.031 C 
ATOM     50  C   UNL     1      -0.182   4.252   7.979  1.00  0.00     0.029 A 
ATOM     51  C   UNL     1       0.624   4.265   6.854  1.00  0.00     0.049 A 
ATOM     52  H   UNL     1       0.203   3.576   4.902  1.00  0.00     0.167 HD
ATOM     53  C   UNL     1       2.680   4.691   5.562  1.00  0.00     0.074 A 
ATOM     54  C   UNL     1       4.042   5.158   5.415  1.00  0.00     0.031 C 
ATOM     55  C   UNL     1       1.972   4.750   6.716  1.00  0.00     0.037 A 
BRANCH  42  56
ATOM     56  C   UNL     1      -3.727   2.479   6.150  1.00  0.00     0.057 A 
ATOM     57  C   UNL     1      -4.118   1.156   6.389  1.00  0.00     0.134 A 
ATOM     58  C   UNL     1      -4.574   3.496   6.611  1.00  0.00     0.134 A 
ATOM     59  F   UNL     1      -3.362   0.133   5.962  1.00  0.00    -0.206 F 
ATOM     60  C   UNL     1      -5.311   0.858   7.054  1.00  0.00     0.040 A 
ATOM     61  C   UNL     1      -5.757   3.211   7.294  1.00  0.00     0.040 A 
ATOM     62  F   UNL     1      -4.255   4.785   6.418  1.00  0.00    -0.206 F 
ATOM     63  C   UNL     1      -6.131   1.888   7.514  1.00  0.00     0.006 A 
ENDBRANCH  42  56
BRANCH  43  64
ATOM     64  C   UNL     1       4.727   4.319   1.357  1.00  0.00     0.057 A 
ATOM     65  C   UNL     1       5.857   3.574   1.715  1.00  0.00     0.134 A 
ATOM     66  C   UNL     1       4.892   5.285   0.354  1.00  0.00     0.134 A 
ATOM     67  F   UNL     1       5.784   2.661   2.695  1.00  0.00    -0.206 F 
ATOM     68  C   UNL     1       7.098   3.785   1.107  1.00  0.00     0.040 A 
ATOM     69  C   UNL     1       6.112   5.474  -0.294  1.00  0.00     0.040 A 
ATOM     70  F   UNL     1       3.859   6.053  -0.025  1.00  0.00    -0.206 F 
ATOM     71  C   UNL     1       7.223   4.729   0.090  1.00  0.00     0.006 A 
ENDBRANCH  43  64
BRANCH  55  72
ATOM     72  C   UNL     1       2.654   5.337   7.920  1.00  0.00     0.057 A 
ATOM     73  C   UNL     1       2.987   6.697   7.995  1.00  0.00     0.134 A 
ATOM     74  C   UNL     1       2.972   4.538   9.026  1.00  0.00     0.134 A 
ATOM     75  F   UNL     1       2.717   7.521   6.971  1.00  0.00    -0.206 F 
ATOM     76  C   UNL     1       3.649   7.229   9.104  1.00  0.00     0.040 A 
ATOM     77  C   UNL     1       3.604   5.065  10.154  1.00  0.00     0.040 A 
ATOM     78  F   UNL     1       2.670   3.231   9.033  1.00  0.00    -0.206 F 
ATOM     79  C   UNL     1       3.955   6.413  10.190  1.00  0.00     0.006 A 
ENDBRANCH  55  72
ENDBRANCH  29  30
ENDBRANCH  22  24
ENDBRANCH  21  22
ENDBRANCH  20  21
ENDBRANCH   1  20
TORSDOF 14
