REMARK SMILES COC(=O)C1=C(C)N(c2cccc(OC)c2)C(=O)/C1=C\c1ccc(C(=O)OCCOC(=O)c2ccc(-c3c4nc(c(-c5c(F)cccc5F)c5ccc([nH]5)c(-c5c(F)cccc5F)c5nc(c(-c6c(F)cccc6F)c6ccc3[nH]6)C=C5)C=C4)cc2)cc1
REMARK SMILES IDX 28 1 27 2 25 3 26 4 24 5 21 6 22 7 88 8 23 9 87 10 20 11
REMARK SMILES IDX 5 12 6 13 19 14 7 15 8 16 17 17 18 18 3 19 4 20 2 21 1 22
REMARK SMILES IDX 9 23 10 24 16 25 11 26 13 27 12 28 14 29 15 30 29 31 30 32
REMARK SMILES IDX 31 33 32 34 33 35 34 36 86 37 35 38 85 39 36 40 37 41 38 42
REMARK SMILES IDX 79 43 39 44 84 45 78 46 80 47 40 48 83 49 77 50 76 51 41 53
REMARK SMILES IDX 67 54 50 55 66 56 51 57 54 58 65 59 81 60 52 61 53 62 64 64
REMARK SMILES IDX 82 65 55 66 42 67 43 68 48 69 44 70 45 71 47 72 49 73 46 74
REMARK SMILES IDX 68 75 69 76 74 77 70 78 71 79 73 80 75 81 72 82 56 83 57 84
REMARK SMILES IDX 62 85 58 86 59 87 61 88 63 89 60 90
REMARK H PARENT 80 52 54 63
REMARK Flexibility Score: inf
ROOT
ATOM      1  C   UNL     1       5.506 -11.794  -3.155  1.00  0.00     0.275 C 
ENDROOT
BRANCH   1   2
ATOM      2  O   UNL     1       4.933 -10.474  -3.054  1.00  0.00    -0.458 OA
BRANCH   2   3
ATOM      3  C   UNL     1       4.468 -10.126  -1.829  1.00  0.00     0.338 C 
ATOM      4  O   UNL     1       4.476 -10.822  -0.826  1.00  0.00    -0.246 OA
BRANCH   3   5
ATOM      5  C   UNL     1       4.010  -8.717  -1.822  1.00  0.00     0.060 A 
ATOM      6  C   UNL     1       2.994  -6.117  -1.646  1.00  0.00    -0.025 A 
ATOM      7  C   UNL     1       3.756  -6.632  -0.599  1.00  0.00     0.009 A 
ATOM      8  C   UNL     1       2.777  -6.885  -2.798  1.00  0.00     0.009 A 
ATOM      9  C   UNL     1       4.231  -7.938  -0.678  1.00  0.00     0.016 A 
ATOM     10  C   UNL     1       3.294  -8.181  -2.894  1.00  0.00     0.016 A 
BRANCH   6  11
ATOM     11  C   UNL     1       2.316  -4.835  -1.469  1.00  0.00     0.023 C 
ATOM     12  C   UNL     1       0.288  -3.516  -0.791  1.00  0.00     0.092 C 
ATOM     13  C   UNL     1      -0.935  -3.859  -0.327  1.00  0.00     0.039 C 
ATOM     14  C   UNL     1       1.055  -4.728  -1.018  1.00  0.00     0.057 C 
ATOM     15  C   UNL     1      -2.001  -2.899   0.090  1.00  0.00     0.066 C 
ATOM     16  N   UNL     1      -1.026  -5.246  -0.182  1.00  0.00    -0.280 N 
ATOM     17  C   UNL     1       0.171  -5.871  -0.600  1.00  0.00     0.263 C 
ATOM     18  O   UNL     1       0.445  -7.055  -0.630  1.00  0.00    -0.268 OA
BRANCH  12  19
ATOM     19  C   UNL     1       0.827  -2.155  -0.970  1.00  0.00     0.340 C 
ATOM     20  O   UNL     1       1.562  -1.827  -1.888  1.00  0.00    -0.246 OA
BRANCH  19  21
ATOM     21  O   UNL     1       0.458  -1.365   0.069  1.00  0.00    -0.465 OA
ATOM     22  C   UNL     1       1.005  -0.046   0.026  1.00  0.00     0.282 C 
ENDBRANCH  19  21
ENDBRANCH  12  19
BRANCH  16  23
ATOM     23  C   UNL     1      -2.068  -6.015   0.404  1.00  0.00     0.053 A 
ATOM     24  C   UNL     1      -3.413  -5.814   0.080  1.00  0.00     0.027 A 
ATOM     25  C   UNL     1      -1.740  -6.988   1.364  1.00  0.00     0.073 A 
ATOM     26  C   UNL     1      -4.411  -6.537   0.737  1.00  0.00     0.006 A 
ATOM     27  C   UNL     1      -2.732  -7.693   2.044  1.00  0.00     0.120 A 
ATOM     28  C   UNL     1      -4.070  -7.462   1.724  1.00  0.00     0.046 A 
BRANCH  27  29
ATOM     29  O   UNL     1      -2.521  -8.607   3.041  1.00  0.00    -0.497 OA
ATOM     30  C   UNL     1      -1.173  -8.792   3.462  1.00  0.00     0.278 C 
ENDBRANCH  27  29
ENDBRANCH  16  23
ENDBRANCH   6  11
ENDBRANCH   3   5
ENDBRANCH   2   3
ENDBRANCH   1   2
BRANCH   1  31
ATOM     31  C   UNL     1       7.034 -11.739  -3.149  1.00  0.00     0.275 C 
BRANCH  31  32
ATOM     32  O   UNL     1       7.522 -11.323  -1.861  1.00  0.00    -0.458 OA
BRANCH  32  33
ATOM     33  C   UNL     1       7.970 -10.049  -1.798  1.00  0.00     0.338 C 
ATOM     34  O   UNL     1       8.052  -9.238  -2.704  1.00  0.00    -0.246 OA
BRANCH  33  35
ATOM     35  C   UNL     1       8.309  -9.711  -0.409  1.00  0.00     0.060 A 
ATOM     36  C   UNL     1       7.270  -9.445   0.474  1.00  0.00     0.016 A 
ATOM     37  C   UNL     1       9.627  -9.498  -0.020  1.00  0.00     0.016 A 
ATOM     38  C   UNL     1       7.524  -8.852   1.703  1.00  0.00     0.010 A 
ATOM     39  C   UNL     1       9.891  -9.035   1.275  1.00  0.00     0.010 A 
ATOM     40  C   UNL     1       8.841  -8.679   2.143  1.00  0.00    -0.014 A 
BRANCH  40  41
ATOM     41  C   UNL     1       9.113  -8.156   3.512  1.00  0.00     0.031 A 
ATOM     42  C   UNL     1       9.983  -6.944   3.709  1.00  0.00     0.074 A 
ATOM     43  C   UNL     1       8.583  -8.777   4.586  1.00  0.00     0.049 A 
ATOM     44  N   UNL     1      10.501  -6.466   4.812  1.00  0.00    -0.248 NA
ATOM     45  C   UNL     1      10.328  -6.175   2.503  1.00  0.00     0.031 C 
ATOM     46  C   UNL     1       7.673  -9.926   4.543  1.00  0.00     0.029 A 
ATOM     47  N   UNL     1       8.733  -8.533   5.929  1.00  0.00    -0.354 N 
ATOM     48  C   UNL     1      11.271  -5.373   4.429  1.00  0.00     0.074 A 
ATOM     49  C   UNL     1      11.163  -5.268   2.990  1.00  0.00     0.031 C 
ATOM     50  C   UNL     1       7.316 -10.257   5.791  1.00  0.00     0.029 A 
ATOM     51  C   UNL     1       8.059  -9.427   6.727  1.00  0.00     0.049 A 
ATOM     52  H   UNL     1       9.271  -7.789   6.286  1.00  0.00     0.167 HD
ATOM     53  C   UNL     1      11.999  -4.538   5.210  1.00  0.00     0.037 A 
ATOM     54  C   UNL     1       8.080  -9.606   8.061  1.00  0.00     0.037 A 
ATOM     55  C   UNL     1      12.076  -4.640   6.646  1.00  0.00     0.049 A 
ATOM     56  C   UNL     1       8.974  -8.736   8.894  1.00  0.00     0.074 A 
ATOM     57  C   UNL     1      12.778  -3.842   7.533  1.00  0.00     0.029 A 
ATOM     58  N   UNL     1      11.423  -5.601   7.407  1.00  0.00    -0.354 N 
ATOM     59  N   UNL     1       9.731  -7.734   8.521  1.00  0.00    -0.248 NA
ATOM     60  C   UNL     1       9.037  -9.040  10.329  1.00  0.00     0.031 C 
ATOM     61  C   UNL     1      12.595  -4.353   8.822  1.00  0.00     0.029 A 
ATOM     62  C   UNL     1      11.731  -5.434   8.748  1.00  0.00     0.049 A 
ATOM     63  H   UNL     1      10.829  -6.298   7.046  1.00  0.00     0.167 HD
ATOM     64  C   UNL     1      10.345  -7.272   9.676  1.00  0.00     0.074 A 
ATOM     65  C   UNL     1       9.858  -8.095  10.765  1.00  0.00     0.031 C 
ATOM     66  C   UNL     1      11.233  -6.258   9.820  1.00  0.00     0.037 A 
BRANCH  53  67
ATOM     67  C   UNL     1      12.807  -3.472   4.523  1.00  0.00     0.057 A 
ATOM     68  C   UNL     1      12.212  -2.377   3.882  1.00  0.00     0.134 A 
ATOM     69  C   UNL     1      14.207  -3.536   4.517  1.00  0.00     0.134 A 
ATOM     70  F   UNL     1      10.877  -2.256   3.841  1.00  0.00    -0.206 F 
ATOM     71  C   UNL     1      12.977  -1.407   3.230  1.00  0.00     0.040 A 
ATOM     72  C   UNL     1      14.984  -2.556   3.895  1.00  0.00     0.040 A 
ATOM     73  F   UNL     1      14.847  -4.549   5.120  1.00  0.00    -0.206 F 
ATOM     74  C   UNL     1      14.368  -1.492   3.240  1.00  0.00     0.006 A 
ENDBRANCH  53  67
BRANCH  54  75
ATOM     75  C   UNL     1       7.265 -10.684   8.678  1.00  0.00     0.057 A 
ATOM     76  C   UNL     1       6.184 -10.380   9.512  1.00  0.00     0.134 A 
ATOM     77  C   UNL     1       7.535 -12.039   8.441  1.00  0.00     0.134 A 
ATOM     78  F   UNL     1       5.888  -9.103   9.795  1.00  0.00    -0.206 F 
ATOM     79  C   UNL     1       5.405 -11.382  10.094  1.00  0.00     0.040 A 
ATOM     80  C   UNL     1       6.745 -13.050   8.991  1.00  0.00     0.040 A 
ATOM     81  F   UNL     1       8.555 -12.399   7.649  1.00  0.00    -0.206 F 
ATOM     82  C   UNL     1       5.680 -12.722   9.826  1.00  0.00     0.006 A 
ENDBRANCH  54  75
BRANCH  66  83
ATOM     83  C   UNL     1      11.704  -5.958  11.213  1.00  0.00     0.057 A 
ATOM     84  C   UNL     1      12.591  -6.802  11.892  1.00  0.00     0.134 A 
ATOM     85  C   UNL     1      11.292  -4.789  11.865  1.00  0.00     0.134 A 
ATOM     86  F   UNL     1      13.008  -7.946  11.330  1.00  0.00    -0.206 F 
ATOM     87  C   UNL     1      13.039  -6.502  13.180  1.00  0.00     0.040 A 
ATOM     88  C   UNL     1      11.755  -4.464  13.140  1.00  0.00     0.040 A 
ATOM     89  F   UNL     1      10.446  -3.937  11.268  1.00  0.00    -0.206 F 
ATOM     90  C   UNL     1      12.627  -5.325  13.803  1.00  0.00     0.006 A 
ENDBRANCH  66  83
ENDBRANCH  40  41
ENDBRANCH  33  35
ENDBRANCH  32  33
ENDBRANCH  31  32
ENDBRANCH   1  31
TORSDOF 16
