REMARK SMILES Cc1cc(C(=O)OCCOC(=O)c2ccc(-c3c4nc(c(-c5c(F)cccc5F)c5ccc([nH]5)c(-c5c(F)cccc5F)c5nc(c(-c6c(F)cccc6F)c6ccc3[nH]6)C=C5)C=C4)cc2)c([N+](=O)[O-])cc1[N+](=O)[O-]
REMARK SMILES IDX 9 1 8 2 7 3 5 4 6 5 4 6 1 7 2 8 3 9 72 10 71 11 67 12 73 13
REMARK SMILES IDX 74 14 75 15 68 16 69 17 70 18 10 19 11 20 12 21 13 22 14 23
REMARK SMILES IDX 66 24 15 25 65 26 16 27 17 28 18 29 59 30 19 31 64 32 58 33
REMARK SMILES IDX 60 34 20 35 63 36 57 37 56 38 21 40 47 41 30 42 46 43 31 44
REMARK SMILES IDX 34 45 45 46 61 47 32 48 33 49 44 51 62 52 35 53 22 54 23 55
REMARK SMILES IDX 28 56 24 57 25 58 27 59 29 60 26 61 48 62 49 63 54 64 50 65
REMARK SMILES IDX 51 66 53 67 55 68 52 69 36 70 37 71 42 72 38 73 39 74 41 75
REMARK SMILES IDX 43 76 40 77
REMARK H PARENT 60 39 34 50
REMARK Flexibility Score: inf
ROOT
ATOM      1  C   UNL     1      -3.715  -4.044  -2.834  1.00  0.00     0.275 C 
ENDROOT
BRANCH   1   2
ATOM      2  C   UNL     1      -3.946  -2.709  -2.114  1.00  0.00     0.275 C 
BRANCH   2   3
ATOM      3  O   UNL     1      -2.809  -1.826  -2.113  1.00  0.00    -0.458 OA
BRANCH   3   4
ATOM      4  C   UNL     1      -2.803  -1.022  -1.023  1.00  0.00     0.345 C 
ATOM      5  O   UNL     1      -3.584  -1.072  -0.085  1.00  0.00    -0.246 OA
BRANCH   4   6
ATOM      6  C   UNL     1      -1.782   0.036  -1.031  1.00  0.00     0.138 A 
ATOM      7  C   UNL     1       1.985   0.188  -0.553  1.00  0.00     0.052 C 
ATOM      8  C   UNL     1       0.567   0.691  -0.688  1.00  0.00     0.028 A 
ATOM      9  C   UNL     1      -0.413  -0.267  -1.060  1.00  0.00     0.033 A 
ATOM     10  C   UNL     1       0.135   1.996  -0.344  1.00  0.00     0.279 A 
ATOM     11  C   UNL     1      -1.236   2.318  -0.376  1.00  0.00     0.172 A 
ATOM     12  C   UNL     1      -2.175   1.333  -0.698  1.00  0.00     0.290 A 
BRANCH  10  13
ATOM     13  N   UNL     1       1.054   3.079   0.079  1.00  0.00     0.063 N 
ATOM     14  O   UNL     1       0.586   4.225   0.133  1.00  0.00    -0.258 OA
ATOM     15  O   UNL     1       2.221   2.795   0.366  1.00  0.00    -0.258 OA
ENDBRANCH  10  13
BRANCH  12  16
ATOM     16  N   UNL     1      -3.588   1.689  -0.669  1.00  0.00     0.063 N 
ATOM     17  O   UNL     1      -4.289   1.302  -1.614  1.00  0.00    -0.258 OA
ATOM     18  O   UNL     1      -3.970   2.399   0.270  1.00  0.00    -0.258 OA
ENDBRANCH  12  16
ENDBRANCH   4   6
ENDBRANCH   3   4
ENDBRANCH   2   3
ENDBRANCH   1   2
BRANCH   1  19
ATOM     19  O   UNL     1      -2.367  -4.590  -2.917  1.00  0.00    -0.458 OA
BRANCH  19  20
ATOM     20  C   UNL     1      -1.354  -4.510  -2.026  1.00  0.00     0.338 C 
ATOM     21  O   UNL     1      -0.175  -4.595  -2.365  1.00  0.00    -0.246 OA
BRANCH  20  22
ATOM     22  C   UNL     1      -1.691  -4.269  -0.621  1.00  0.00     0.060 A 
ATOM     23  C   UNL     1      -0.840  -3.462   0.154  1.00  0.00     0.016 A 
ATOM     24  C   UNL     1      -2.879  -4.771  -0.106  1.00  0.00     0.016 A 
ATOM     25  C   UNL     1      -1.227  -3.066   1.423  1.00  0.00     0.010 A 
ATOM     26  C   UNL     1      -3.340  -4.263   1.077  1.00  0.00     0.010 A 
ATOM     27  C   UNL     1      -2.483  -3.473   1.860  1.00  0.00    -0.014 A 
BRANCH  27  28
ATOM     28  C   UNL     1      -2.853  -3.488   3.260  1.00  0.00     0.031 A 
ATOM     29  C   UNL     1      -3.448  -2.309   3.895  1.00  0.00     0.074 A 
ATOM     30  C   UNL     1      -2.719  -4.739   3.757  1.00  0.00     0.049 A 
ATOM     31  N   UNL     1      -3.419  -2.073   5.157  1.00  0.00    -0.248 NA
ATOM     32  C   UNL     1      -4.074  -1.224   3.146  1.00  0.00     0.031 C 
ATOM     33  C   UNL     1      -3.224  -5.381   4.950  1.00  0.00     0.029 A 
ATOM     34  N   UNL     1      -1.881  -5.717   3.185  1.00  0.00    -0.354 N 
ATOM     35  C   UNL     1      -4.337  -1.066   5.401  1.00  0.00     0.074 A 
ATOM     36  C   UNL     1      -4.544  -0.442   4.123  1.00  0.00     0.031 C 
ATOM     37  C   UNL     1      -2.462  -6.469   5.197  1.00  0.00     0.029 A 
ATOM     38  C   UNL     1      -1.363  -6.470   4.232  1.00  0.00     0.049 A 
ATOM     39  H   UNL     1      -1.697  -5.843   2.226  1.00  0.00     0.167 HD
ATOM     40  C   UNL     1      -4.972  -1.056   6.611  1.00  0.00     0.037 A 
ATOM     41  C   UNL     1      -0.039  -6.293   4.518  1.00  0.00     0.037 A 
ATOM     42  C   UNL     1      -4.432  -2.150   7.422  1.00  0.00     0.049 A 
ATOM     43  C   UNL     1       0.085  -5.585   5.844  1.00  0.00     0.074 A 
ATOM     44  C   UNL     1      -4.871  -3.452   7.603  1.00  0.00     0.029 A 
ATOM     45  N   UNL     1      -3.094  -2.124   7.795  1.00  0.00    -0.354 N 
ATOM     46  N   UNL     1      -0.742  -4.665   6.273  1.00  0.00    -0.248 NA
ATOM     47  C   UNL     1       1.069  -5.987   6.841  1.00  0.00     0.031 C 
ATOM     48  C   UNL     1      -3.745  -4.234   7.981  1.00  0.00     0.029 A 
ATOM     49  C   UNL     1      -2.632  -3.407   8.026  1.00  0.00     0.049 A 
ATOM     50  H   UNL     1      -2.551  -1.308   7.884  1.00  0.00     0.167 HD
ATOM     51  C   UNL     1      -0.486  -4.431   7.599  1.00  0.00     0.074 A 
ATOM     52  C   UNL     1       0.671  -5.260   7.897  1.00  0.00     0.031 C 
ATOM     53  C   UNL     1      -1.247  -3.632   8.405  1.00  0.00     0.037 A 
BRANCH  40  54
ATOM     54  C   UNL     1      -6.262  -0.334   6.969  1.00  0.00     0.057 A 
ATOM     55  C   UNL     1      -6.994  -0.729   8.112  1.00  0.00     0.134 A 
ATOM     56  C   UNL     1      -6.870   0.708   6.244  1.00  0.00     0.134 A 
ATOM     57  F   UNL     1      -6.531  -1.660   8.957  1.00  0.00    -0.206 F 
ATOM     58  C   UNL     1      -8.242  -0.190   8.459  1.00  0.00     0.040 A 
ATOM     59  C   UNL     1      -8.127   1.247   6.572  1.00  0.00     0.040 A 
ATOM     60  F   UNL     1      -6.276   1.295   5.203  1.00  0.00    -0.206 F 
ATOM     61  C   UNL     1      -8.824   0.794   7.678  1.00  0.00     0.006 A 
ENDBRANCH  40  54
BRANCH  41  62
ATOM     62  C   UNL     1       0.834  -6.095   3.307  1.00  0.00     0.057 A 
ATOM     63  C   UNL     1       0.761  -7.044   2.259  1.00  0.00     0.134 A 
ATOM     64  C   UNL     1       1.527  -4.917   3.012  1.00  0.00     0.134 A 
ATOM     65  F   UNL     1       0.134  -8.216   2.455  1.00  0.00    -0.206 F 
ATOM     66  C   UNL     1       1.240  -6.790   0.968  1.00  0.00     0.040 A 
ATOM     67  C   UNL     1       2.040  -4.663   1.724  1.00  0.00     0.040 A 
ATOM     68  F   UNL     1       1.661  -3.951   3.930  1.00  0.00    -0.206 F 
ATOM     69  C   UNL     1       1.866  -5.583   0.690  1.00  0.00     0.006 A 
ENDBRANCH  41  62
BRANCH  53  70
ATOM     70  C   UNL     1      -0.760  -3.050   9.706  1.00  0.00     0.057 A 
ATOM     71  C   UNL     1       0.593  -2.805   9.978  1.00  0.00     0.134 A 
ATOM     72  C   UNL     1      -1.669  -2.536  10.658  1.00  0.00     0.134 A 
ATOM     73  F   UNL     1       1.556  -3.111   9.097  1.00  0.00    -0.206 F 
ATOM     74  C   UNL     1       1.019  -2.175  11.149  1.00  0.00     0.040 A 
ATOM     75  C   UNL     1      -1.258  -1.835  11.791  1.00  0.00     0.040 A 
ATOM     76  F   UNL     1      -2.997  -2.656  10.513  1.00  0.00    -0.206 F 
ATOM     77  C   UNL     1       0.092  -1.674  12.053  1.00  0.00     0.006 A 
ENDBRANCH  53  70
ENDBRANCH  27  28
ENDBRANCH  20  22
ENDBRANCH  19  20
ENDBRANCH   1  19
TORSDOF 13
