REMARK SMILES O=C(CSc1nnc(-c2ccncc2)s1)Nc1cccc(C(=O)OCCOC(=O)c2ccc(-c3c4nc(c(-c5c(F)cccc5F)c5ccc([nH]5)c(-c5c(F)cccc5F)c5nc(c(-c6c(F)cccc6F)c6ccc3[nH]6)C=C5)C=C4)cc2)c1
REMARK SMILES IDX 24 1 22 2 23 3 21 4 17 5 18 6 84 7 19 8 20 9 16 10 1 11 2 12
REMARK SMILES IDX 3 14 4 15 5 16 6 17 15 18 7 19 8 20 9 21 10 22 14 23 11 24
REMARK SMILES IDX 13 25 12 26 25 27 26 28 27 29 28 30 29 31 30 32 31 33 83 34
REMARK SMILES IDX 32 35 82 36 33 37 34 38 35 39 76 40 36 41 81 42 75 43 77 44
REMARK SMILES IDX 37 45 80 46 74 47 73 48 38 50 64 51 47 52 63 53 48 54 51 55
REMARK SMILES IDX 62 56 78 57 49 58 50 59 61 61 79 62 52 63 39 64 40 65 45 66
REMARK SMILES IDX 41 67 42 68 44 69 46 70 43 71 65 72 66 73 71 74 67 75 68 76
REMARK SMILES IDX 70 77 72 78 69 79 53 80 54 81 59 82 55 83 56 84 58 85 60 86
REMARK SMILES IDX 57 87
REMARK H PARENT 16 13 77 49 51 60
REMARK Flexibility Score: inf
ROOT
ATOM      1  O   UNL     1      -0.763  -3.752  -1.071  1.00  0.00    -0.458 OA
ENDROOT
BRANCH   1   2
ATOM      2  C   UNL     1      -0.816  -3.908   0.278  1.00  0.00     0.338 C 
ATOM      3  O   UNL     1      -1.674  -4.493   0.907  1.00  0.00    -0.246 OA
BRANCH   2   4
ATOM      4  C   UNL     1       0.418  -3.364   0.905  1.00  0.00     0.062 A 
ATOM      5  C   UNL     1       2.297  -1.839   0.955  1.00  0.00     0.042 A 
ATOM      6  C   UNL     1       2.819  -2.533   2.054  1.00  0.00     0.026 A 
ATOM      7  C   UNL     1       1.122  -2.291   0.349  1.00  0.00     0.041 A 
ATOM      8  C   UNL     1       2.102  -3.578   2.633  1.00  0.00     0.003 A 
ATOM      9  C   UNL     1       0.879  -3.958   2.087  1.00  0.00     0.016 A 
BRANCH   5  10
ATOM     10  N   UNL     1       2.980  -0.677   0.552  1.00  0.00    -0.325 N 
ATOM     11  O   UNL     1       1.303   0.423  -0.626  1.00  0.00    -0.274 OA
ATOM     12  C   UNL     1       2.441   0.378  -0.162  1.00  0.00     0.234 C 
ATOM     13  H   UNL     1       3.930  -0.607   0.802  1.00  0.00     0.169 HD
BRANCH  12  14
ATOM     14  C   UNL     1       3.397   1.531  -0.413  1.00  0.00     0.177 C 
BRANCH  14  15
ATOM     15  S   UNL     1       4.486   1.914   0.983  1.00  0.00    -0.084 SA
BRANCH  15  16
ATOM     16  C   UNL     1       3.324   2.392   2.197  1.00  0.00     0.175 A 
ATOM     17  N   UNL     1       2.829   1.522   3.047  1.00  0.00    -0.131 NA
ATOM     18  S   UNL     1       2.838   4.010   2.468  1.00  0.00    -0.086 S 
ATOM     19  N   UNL     1       2.057   2.133   4.018  1.00  0.00    -0.137 NA
ATOM     20  C   UNL     1       1.979   3.440   3.850  1.00  0.00     0.148 A 
BRANCH  20  21
ATOM     21  C   UNL     1       1.341   4.372   4.781  1.00  0.00     0.015 A 
ATOM     22  C   UNL     1       0.483   5.387   4.349  1.00  0.00     0.031 A 
ATOM     23  C   UNL     1       1.595   4.251   6.151  1.00  0.00     0.031 A 
ATOM     24  C   UNL     1      -0.060   6.240   5.297  1.00  0.00     0.111 A 
ATOM     25  C   UNL     1       1.012   5.158   7.019  1.00  0.00     0.111 A 
ATOM     26  N   UNL     1       0.193   6.153   6.619  1.00  0.00    -0.265 NA
ENDBRANCH  20  21
ENDBRANCH  15  16
ENDBRANCH  14  15
ENDBRANCH  12  14
ENDBRANCH   5  10
ENDBRANCH   2   4
ENDBRANCH   1   2
BRANCH   1  27
ATOM     27  C   UNL     1      -1.861  -4.305  -1.823  1.00  0.00     0.275 C 
BRANCH  27  28
ATOM     28  C   UNL     1      -1.456  -5.603  -2.523  1.00  0.00     0.275 C 
BRANCH  28  29
ATOM     29  O   UNL     1      -1.235  -6.644  -1.552  1.00  0.00    -0.458 OA
BRANCH  29  30
ATOM     30  C   UNL     1       0.033  -7.100  -1.457  1.00  0.00     0.338 C 
ATOM     31  O   UNL     1       0.994  -6.800  -2.144  1.00  0.00    -0.246 OA
BRANCH  30  32
ATOM     32  C   UNL     1       0.146  -7.961  -0.271  1.00  0.00     0.060 A 
ATOM     33  C   UNL     1       0.506  -7.349   0.925  1.00  0.00     0.016 A 
ATOM     34  C   UNL     1       0.034  -9.347  -0.345  1.00  0.00     0.016 A 
ATOM     35  C   UNL     1       0.782  -8.110   2.056  1.00  0.00     0.010 A 
ATOM     36  C   UNL     1       0.284 -10.117   0.802  1.00  0.00     0.010 A 
ATOM     37  C   UNL     1       0.685  -9.507   2.006  1.00  0.00    -0.014 A 
BRANCH  37  38
ATOM     38  C   UNL     1       1.099 -10.303   3.196  1.00  0.00     0.031 A 
ATOM     39  C   UNL     1       2.336 -11.160   3.137  1.00  0.00     0.074 A 
ATOM     40  C   UNL     1       0.422 -10.196   4.356  1.00  0.00     0.049 A 
ATOM     41  N   UNL     1       2.841 -11.952   4.050  1.00  0.00    -0.248 NA
ATOM     42  C   UNL     1       3.106 -11.124   1.884  1.00  0.00     0.031 C 
ATOM     43  C   UNL     1      -0.763  -9.366   4.572  1.00  0.00     0.029 A 
ATOM     44  N   UNL     1       0.650 -10.774   5.582  1.00  0.00    -0.354 N 
ATOM     45  C   UNL     1       3.963 -12.533   3.471  1.00  0.00     0.074 A 
ATOM     46  C   UNL     1       4.058 -12.014   2.123  1.00  0.00     0.031 C 
ATOM     47  C   UNL     1      -1.134  -9.456   5.859  1.00  0.00     0.029 A 
ATOM     48  C   UNL     1      -0.251 -10.393   6.547  1.00  0.00     0.049 A 
ATOM     49  H   UNL     1       1.390 -11.401   5.753  1.00  0.00     0.167 HD
ATOM     50  C   UNL     1       4.840 -13.413   4.014  1.00  0.00     0.037 A 
ATOM     51  C   UNL     1      -0.363 -10.767   7.836  1.00  0.00     0.037 A 
ATOM     52  C   UNL     1       4.777 -13.901   5.367  1.00  0.00     0.049 A 
ATOM     53  C   UNL     1       0.611 -11.761   8.406  1.00  0.00     0.074 A 
ATOM     54  C   UNL     1       5.617 -14.801   6.001  1.00  0.00     0.029 A 
ATOM     55  N   UNL     1       3.828 -13.516   6.302  1.00  0.00    -0.354 N 
ATOM     56  N   UNL     1       1.640 -12.335   7.833  1.00  0.00    -0.248 NA
ATOM     57  C   UNL     1       0.401 -12.164   9.805  1.00  0.00     0.031 C 
ATOM     58  C   UNL     1       5.160 -14.981   7.312  1.00  0.00     0.029 A 
ATOM     59  C   UNL     1       4.060 -14.163   7.506  1.00  0.00     0.049 A 
ATOM     60  H   UNL     1       3.097 -12.878   6.135  1.00  0.00     0.167 HD
ATOM     61  C   UNL     1       2.208 -13.152   8.802  1.00  0.00     0.074 A 
ATOM     62  C   UNL     1       1.425 -12.979  10.007  1.00  0.00     0.031 C 
ATOM     63  C   UNL     1       3.277 -13.978   8.700  1.00  0.00     0.037 A 
BRANCH  50  64
ATOM     64  C   UNL     1       5.937 -13.927   3.128  1.00  0.00     0.057 A 
ATOM     65  C   UNL     1       7.031 -13.133   2.761  1.00  0.00     0.134 A 
ATOM     66  C   UNL     1       5.912 -15.248   2.660  1.00  0.00     0.134 A 
ATOM     67  F   UNL     1       7.108 -11.855   3.163  1.00  0.00    -0.206 F 
ATOM     68  C   UNL     1       8.050 -13.628   1.945  1.00  0.00     0.040 A 
ATOM     69  C   UNL     1       6.937 -15.761   1.864  1.00  0.00     0.040 A 
ATOM     70  F   UNL     1       4.895 -16.064   2.979  1.00  0.00    -0.206 F 
ATOM     71  C   UNL     1       8.007 -14.948   1.499  1.00  0.00     0.006 A 
ENDBRANCH  50  64
BRANCH  51  72
ATOM     72  C   UNL     1      -1.452 -10.214   8.682  1.00  0.00     0.057 A 
ATOM     73  C   UNL     1      -1.175  -9.354   9.751  1.00  0.00     0.134 A 
ATOM     74  C   UNL     1      -2.791 -10.558   8.462  1.00  0.00     0.134 A 
ATOM     75  F   UNL     1       0.091  -9.010  10.030  1.00  0.00    -0.206 F 
ATOM     76  C   UNL     1      -2.188  -8.868  10.580  1.00  0.00     0.040 A 
ATOM     77  C   UNL     1      -3.816 -10.058   9.265  1.00  0.00     0.040 A 
ATOM     78  F   UNL     1      -3.122 -11.382   7.456  1.00  0.00    -0.206 F 
ATOM     79  C   UNL     1      -3.514  -9.216  10.334  1.00  0.00     0.006 A 
ENDBRANCH  51  72
BRANCH  63  80
ATOM     80  C   UNL     1       3.677 -14.728   9.937  1.00  0.00     0.057 A 
ATOM     81  C   UNL     1       2.918 -15.796  10.432  1.00  0.00     0.134 A 
ATOM     82  C   UNL     1       4.835 -14.376  10.641  1.00  0.00     0.134 A 
ATOM     83  F   UNL     1       1.790 -16.173   9.811  1.00  0.00    -0.206 F 
ATOM     84  C   UNL     1       3.278 -16.465  11.603  1.00  0.00     0.040 A 
ATOM     85  C   UNL     1       5.219 -15.053  11.799  1.00  0.00     0.040 A 
ATOM     86  F   UNL     1       5.612 -13.368  10.216  1.00  0.00    -0.206 F 
ATOM     87  C   UNL     1       4.434 -16.095  12.289  1.00  0.00     0.006 A 
ENDBRANCH  63  80
ENDBRANCH  37  38
ENDBRANCH  30  32
ENDBRANCH  29  30
ENDBRANCH  28  29
ENDBRANCH  27  28
ENDBRANCH   1  27
TORSDOF 16
