REMARK SMILES C[C@H](NC(=O)c1ccc(NC(N)=O)cc1)C(=O)OCCOC(=O)c1ccc(-c2c3nc(c(-c4c(F)cccc4F)c4ccc([nH]4)c(-c4c(F)cccc4F)c4nc(c(-c5c(F)cccc5F)c5ccc2[nH]5)C=C4)C=C3)cc1
REMARK SMILES IDX 19 1 18 2 16 3 17 4 2 5 1 6 3 7 4 8 5 10 6 11 7 12 15 13
REMARK SMILES IDX 8 14 14 15 9 16 10 17 11 18 12 20 13 21 20 24 21 25 22 26
REMARK SMILES IDX 23 27 24 28 25 29 77 30 26 31 76 32 27 33 28 34 29 35 70 36
REMARK SMILES IDX 30 37 75 38 69 39 71 40 31 41 74 42 68 43 67 44 32 46 58 47
REMARK SMILES IDX 41 48 57 49 42 50 45 51 56 52 72 53 43 54 44 55 55 57 73 58
REMARK SMILES IDX 46 59 33 60 34 61 39 62 35 63 36 64 38 65 40 66 37 67 59 68
REMARK SMILES IDX 60 69 65 70 61 71 62 72 64 73 66 74 63 75 47 76 48 77 53 78
REMARK SMILES IDX 49 79 50 80 52 81 54 82 51 83
REMARK H PARENT 3 9 10 19 12 22 12 23 71 45 45 56
REMARK Flexibility Score: inf
ROOT
ATOM      1  C   UNL     1      -2.734  -0.605   1.141  1.00  0.00     0.274 C 
ENDROOT
BRANCH   1   2
ATOM      2  O   UNL     1      -1.318  -0.509   0.882  1.00  0.00    -0.461 OA
BRANCH   2   3
ATOM      3  C   UNL     1      -0.652  -1.691   0.776  1.00  0.00     0.328 C 
ATOM      4  O   UNL     1      -1.172  -2.796   0.899  1.00  0.00    -0.250 OA
BRANCH   3   5
ATOM      5  C   UNL     1       0.858  -1.516   0.539  1.00  0.00     0.189 C 
ATOM      6  C   UNL     1       1.598  -2.010   1.776  1.00  0.00     0.043 C 
BRANCH   5   7
ATOM      7  N   UNL     1       1.287  -0.151   0.227  1.00  0.00    -0.339 N 
ATOM      8  C   UNL     1       1.866   0.337  -0.918  1.00  0.00     0.251 C 
ATOM      9  H   UNL     1       1.139   0.511   0.940  1.00  0.00     0.164 HD
ATOM     10  O   UNL     1       2.119   1.531  -1.034  1.00  0.00    -0.269 OA
BRANCH   8  11
ATOM     11  C   UNL     1       2.156  -0.579  -2.038  1.00  0.00     0.039 A 
ATOM     12  C   UNL     1       3.185  -1.517  -1.958  1.00  0.00     0.016 A 
ATOM     13  C   UNL     1       1.380  -0.486  -3.193  1.00  0.00     0.016 A 
ATOM     14  C   UNL     1       3.387  -2.418  -3.013  1.00  0.00     0.027 A 
ATOM     15  C   UNL     1       1.588  -1.387  -4.243  1.00  0.00     0.027 A 
ATOM     16  C   UNL     1       2.573  -2.381  -4.150  1.00  0.00     0.042 A 
BRANCH  16  17
ATOM     17  N   UNL     1       2.639  -3.333  -5.188  1.00  0.00    -0.308 N 
ATOM     18  C   UNL     1       3.548  -4.346  -5.340  1.00  0.00     0.316 C 
ATOM     19  H   UNL     1       1.948  -3.262  -5.886  1.00  0.00     0.171 HD
ATOM     20  N   UNL     1       3.194  -5.224  -6.317  1.00  0.00    -0.351 N 
ATOM     21  O   UNL     1       4.582  -4.518  -4.710  1.00  0.00    -0.249 OA
ATOM     22  H   UNL     1       2.362  -5.087  -6.825  1.00  0.00     0.161 HD
ATOM     23  H   UNL     1       3.771  -5.997  -6.517  1.00  0.00     0.161 HD
ENDBRANCH  16  17
ENDBRANCH   8  11
ENDBRANCH   5   7
ENDBRANCH   3   5
ENDBRANCH   2   3
ENDBRANCH   1   2
BRANCH   1  24
ATOM     24  C   UNL     1      -3.552  -0.331  -0.121  1.00  0.00     0.275 C 
BRANCH  24  25
ATOM     25  O   UNL     1      -3.286  -1.321  -1.131  1.00  0.00    -0.458 OA
BRANCH  25  26
ATOM     26  C   UNL     1      -2.454  -0.921  -2.118  1.00  0.00     0.338 C 
ATOM     27  O   UNL     1      -1.938   0.171  -2.269  1.00  0.00    -0.246 OA
BRANCH  26  28
ATOM     28  C   UNL     1      -2.175  -2.050  -3.011  1.00  0.00     0.060 A 
ATOM     29  C   UNL     1      -1.094  -2.877  -2.717  1.00  0.00     0.016 A 
ATOM     30  C   UNL     1      -2.884  -2.203  -4.204  1.00  0.00     0.016 A 
ATOM     31  C   UNL     1      -0.684  -3.832  -3.642  1.00  0.00     0.010 A 
ATOM     32  C   UNL     1      -2.502  -3.201  -5.109  1.00  0.00     0.010 A 
ATOM     33  C   UNL     1      -1.383  -4.007  -4.846  1.00  0.00    -0.014 A 
BRANCH  33  34
ATOM     34  C   UNL     1      -0.933  -5.062  -5.788  1.00  0.00     0.031 A 
ATOM     35  C   UNL     1      -0.298  -4.718  -7.104  1.00  0.00     0.074 A 
ATOM     36  C   UNL     1      -1.011  -6.351  -5.401  1.00  0.00     0.049 A 
ATOM     37  N   UNL     1       0.302  -5.521  -7.948  1.00  0.00    -0.248 NA
ATOM     38  C   UNL     1      -0.249  -3.301  -7.498  1.00  0.00     0.031 C 
ATOM     39  C   UNL     1      -1.552  -6.812  -4.120  1.00  0.00     0.029 A 
ATOM     40  N   UNL     1      -0.631  -7.506  -6.037  1.00  0.00    -0.354 N 
ATOM     41  C   UNL     1       0.821  -4.713  -8.950  1.00  0.00     0.074 A 
ATOM     42  C   UNL     1       0.461  -3.352  -8.620  1.00  0.00     0.031 C 
ATOM     43  C   UNL     1      -1.467  -8.149  -4.064  1.00  0.00     0.029 A 
ATOM     44  C   UNL     1      -0.931  -8.644  -5.326  1.00  0.00     0.049 A 
ATOM     45  H   UNL     1      -0.187  -7.519  -6.916  1.00  0.00     0.167 HD
ATOM     46  C   UNL     1       1.566  -5.082 -10.019  1.00  0.00     0.037 A 
ATOM     47  C   UNL     1      -0.838  -9.942  -5.670  1.00  0.00     0.037 A 
ATOM     48  C   UNL     1       1.853  -6.442 -10.390  1.00  0.00     0.049 A 
ATOM     49  C   UNL     1      -0.280 -10.306  -7.013  1.00  0.00     0.074 A 
ATOM     50  C   UNL     1       2.649  -6.905 -11.425  1.00  0.00     0.029 A 
ATOM     51  N   UNL     1       1.307  -7.558  -9.779  1.00  0.00    -0.354 N 
ATOM     52  N   UNL     1       0.290  -9.530  -7.901  1.00  0.00    -0.248 NA
ATOM     53  C   UNL     1      -0.376 -11.716  -7.415  1.00  0.00     0.031 C 
ATOM     54  C   UNL     1       2.532  -8.300 -11.479  1.00  0.00     0.029 A 
ATOM     55  C   UNL     1       1.691  -8.704 -10.457  1.00  0.00     0.049 A 
ATOM     56  H   UNL     1       0.731  -7.540  -8.981  1.00  0.00     0.167 HD
ATOM     57  C   UNL     1       0.623 -10.356  -8.965  1.00  0.00     0.074 A 
ATOM     58  C   UNL     1       0.205 -11.695  -8.607  1.00  0.00     0.031 C 
ATOM     59  C   UNL     1       1.227 -10.026 -10.132  1.00  0.00     0.037 A 
BRANCH  46  60
ATOM     60  C   UNL     1       2.160  -4.000 -10.863  1.00  0.00     0.057 A 
ATOM     61  C   UNL     1       3.373  -3.403 -10.498  1.00  0.00     0.134 A 
ATOM     62  C   UNL     1       1.601  -3.645 -12.094  1.00  0.00     0.134 A 
ATOM     63  F   UNL     1       3.952  -3.710  -9.328  1.00  0.00    -0.206 F 
ATOM     64  C   UNL     1       4.018  -2.494 -11.337  1.00  0.00     0.040 A 
ATOM     65  C   UNL     1       2.238  -2.739 -12.944  1.00  0.00     0.040 A 
ATOM     66  F   UNL     1       0.443  -4.188 -12.496  1.00  0.00    -0.206 F 
ATOM     67  C   UNL     1       3.453  -2.167 -12.569  1.00  0.00     0.006 A 
ENDBRANCH  46  60
BRANCH  47  68
ATOM     68  C   UNL     1      -1.386 -10.982  -4.765  1.00  0.00     0.057 A 
ATOM     69  C   UNL     1      -0.565 -11.924  -4.142  1.00  0.00     0.134 A 
ATOM     70  C   UNL     1      -2.764 -11.055  -4.514  1.00  0.00     0.134 A 
ATOM     71  F   UNL     1       0.757 -11.924  -4.367  1.00  0.00    -0.206 F 
ATOM     72  C   UNL     1      -1.094 -12.904  -3.299  1.00  0.00     0.040 A 
ATOM     73  C   UNL     1      -3.302 -12.011  -3.655  1.00  0.00     0.040 A 
ATOM     74  F   UNL     1      -3.605 -10.185  -5.093  1.00  0.00    -0.206 F 
ATOM     75  C   UNL     1      -2.465 -12.943  -3.047  1.00  0.00     0.006 A 
ENDBRANCH  47  68
BRANCH  59  76
ATOM     76  C   UNL     1       1.436 -11.126 -11.126  1.00  0.00     0.057 A 
ATOM     77  C   UNL     1       0.369 -11.631 -11.880  1.00  0.00     0.134 A 
ATOM     78  C   UNL     1       2.704 -11.678 -11.344  1.00  0.00     0.134 A 
ATOM     79  F   UNL     1      -0.873 -11.156 -11.702  1.00  0.00    -0.206 F 
ATOM     80  C   UNL     1       0.554 -12.658 -12.807  1.00  0.00     0.040 A 
ATOM     81  C   UNL     1       2.905 -12.691 -12.283  1.00  0.00     0.040 A 
ATOM     82  F   UNL     1       3.766 -11.237 -10.655  1.00  0.00    -0.206 F 
ATOM     83  C   UNL     1       1.826 -13.187 -13.014  1.00  0.00     0.006 A 
ENDBRANCH  59  76
ENDBRANCH  33  34
ENDBRANCH  26  28
ENDBRANCH  25  26
ENDBRANCH  24  25
ENDBRANCH   1  24
TORSDOF 14
