REMARK SMILES CSC[C@H](C(=O)OCCOC(=O)c1ccc(-c2c3nc(c(-c4c(F)cccc4F)c4ccc([nH]4)c(-c4c(F)cccc4F)c4nc(c(-c5c(F)cccc5F)c5ccc2[nH]5)C=C4)C=C3)cc1)c1ccccc1
REMARK SMILES IDX 8 1 7 2 5 3 6 4 4 5 3 6 2 7 1 8 67 9 68 10 72 11 69 12 71 13
REMARK SMILES IDX 70 14 9 15 10 16 11 17 12 18 13 19 14 20 66 21 15 22 65 23
REMARK SMILES IDX 16 24 17 25 18 26 59 27 19 28 64 29 58 30 60 31 20 32 63 33
REMARK SMILES IDX 57 34 56 35 21 37 47 38 30 39 46 40 31 41 34 42 45 43 61 44
REMARK SMILES IDX 32 45 33 46 44 48 62 49 35 50 22 51 23 52 28 53 24 54 25 55
REMARK SMILES IDX 27 56 29 57 26 58 48 59 49 60 54 61 50 62 51 63 53 64 55 65
REMARK SMILES IDX 52 66 36 67 37 68 42 69 38 70 39 71 41 72 43 73 40 74
REMARK H PARENT 60 36 34 47
REMARK Flexibility Score: inf
ROOT
ATOM      1  C   UNL     1       0.128   3.128  -0.850  1.00  0.00     0.274 C 
ENDROOT
BRANCH   1   2
ATOM      2  O   UNL     1      -0.285   2.596   0.431  1.00  0.00    -0.462 OA
BRANCH   2   3
ATOM      3  C   UNL     1       0.755   2.429   1.296  1.00  0.00     0.314 C 
ATOM      4  O   UNL     1       1.880   2.807   1.051  1.00  0.00    -0.252 OA
BRANCH   3   5
ATOM      5  C   UNL     1       0.381   1.655   2.551  1.00  0.00     0.139 C 
BRANCH   5   6
ATOM      6  C   UNL     1       1.243   0.359   2.501  1.00  0.00     0.089 C 
BRANCH   6   7
ATOM      7  S   UNL     1       3.060   0.480   2.853  1.00  0.00    -0.164 SA
ATOM      8  C   UNL     1       3.773   0.548   1.183  1.00  0.00     0.085 C 
ENDBRANCH   6   7
ENDBRANCH   5   6
BRANCH   5   9
ATOM      9  C   UNL     1       0.425   2.509   3.823  1.00  0.00    -0.033 A 
ATOM     10  C   UNL     1       1.002   2.058   5.022  1.00  0.00     0.004 A 
ATOM     11  C   UNL     1      -0.144   3.797   3.831  1.00  0.00     0.004 A 
ATOM     12  C   UNL     1       1.121   2.897   6.136  1.00  0.00     0.000 A 
ATOM     13  C   UNL     1      -0.028   4.637   4.947  1.00  0.00     0.000 A 
ATOM     14  C   UNL     1       0.625   4.194   6.092  1.00  0.00     0.000 A 
ENDBRANCH   5   9
ENDBRANCH   3   5
ENDBRANCH   2   3
ENDBRANCH   1   2
BRANCH   1  15
ATOM     15  C   UNL     1       0.280   4.656  -0.855  1.00  0.00     0.275 C 
BRANCH  15  16
ATOM     16  O   UNL     1       1.392   5.090  -0.040  1.00  0.00    -0.458 OA
BRANCH  16  17
ATOM     17  C   UNL     1       1.120   6.038   0.883  1.00  0.00     0.338 C 
ATOM     18  O   UNL     1       0.064   6.643   1.010  1.00  0.00    -0.246 OA
BRANCH  17  19
ATOM     19  C   UNL     1       2.253   6.279   1.807  1.00  0.00     0.060 A 
ATOM     20  C   UNL     1       2.657   5.286   2.697  1.00  0.00     0.016 A 
ATOM     21  C   UNL     1       2.721   7.581   1.987  1.00  0.00     0.016 A 
ATOM     22  C   UNL     1       3.404   5.600   3.830  1.00  0.00     0.010 A 
ATOM     23  C   UNL     1       3.536   7.887   3.087  1.00  0.00     0.010 A 
ATOM     24  C   UNL     1       3.824   6.911   4.060  1.00  0.00    -0.014 A 
BRANCH  24  25
ATOM     25  C   UNL     1       4.397   7.280   5.385  1.00  0.00     0.031 A 
ATOM     26  C   UNL     1       3.650   8.248   6.268  1.00  0.00     0.074 A 
ATOM     27  C   UNL     1       5.518   6.699   5.854  1.00  0.00     0.049 A 
ATOM     28  N   UNL     1       4.037   8.839   7.371  1.00  0.00    -0.248 NA
ATOM     29  C   UNL     1       2.285   8.604   5.847  1.00  0.00     0.031 C 
ATOM     30  C   UNL     1       6.290   5.663   5.168  1.00  0.00     0.029 A 
ATOM     31  N   UNL     1       6.195   6.890   7.034  1.00  0.00    -0.354 N 
ATOM     32  C   UNL     1       2.995   9.685   7.733  1.00  0.00     0.074 A 
ATOM     33  C   UNL     1       1.955   9.525   6.740  1.00  0.00     0.031 C 
ATOM     34  C   UNL     1       7.316   5.290   5.949  1.00  0.00     0.029 A 
ATOM     35  C   UNL     1       7.322   6.115   7.154  1.00  0.00     0.049 A 
ATOM     36  H   UNL     1       5.899   7.522   7.729  1.00  0.00     0.167 HD
ATOM     37  C   UNL     1       2.915  10.522   8.795  1.00  0.00     0.037 A 
ATOM     38  C   UNL     1       8.276   6.097   8.104  1.00  0.00     0.037 A 
ATOM     39  C   UNL     1       3.918  10.626   9.823  1.00  0.00     0.049 A 
ATOM     40  C   UNL     1       8.180   7.050   9.264  1.00  0.00     0.074 A 
ATOM     41  C   UNL     1       3.943  11.462  10.926  1.00  0.00     0.029 A 
ATOM     42  N   UNL     1       5.061   9.843   9.889  1.00  0.00    -0.354 N 
ATOM     43  N   UNL     1       7.247   7.929   9.538  1.00  0.00    -0.248 NA
ATOM     44  C   UNL     1       9.280   7.019  10.238  1.00  0.00     0.031 C 
ATOM     45  C   UNL     1       5.112  11.198  11.649  1.00  0.00     0.029 A 
ATOM     46  C   UNL     1       5.794  10.172  11.017  1.00  0.00     0.049 A 
ATOM     47  H   UNL     1       5.313   9.156   9.231  1.00  0.00     0.167 HD
ATOM     48  C   UNL     1       7.636   8.541  10.722  1.00  0.00     0.074 A 
ATOM     49  C   UNL     1       8.882   7.920  11.124  1.00  0.00     0.031 C 
ATOM     50  C   UNL     1       7.022   9.533  11.411  1.00  0.00     0.037 A 
BRANCH  37  51
ATOM     51  C   UNL     1       1.721  11.427   8.874  1.00  0.00     0.057 A 
ATOM     52  C   UNL     1       0.448  10.963   9.224  1.00  0.00     0.134 A 
ATOM     53  C   UNL     1       1.860  12.797   8.612  1.00  0.00     0.134 A 
ATOM     54  F   UNL     1       0.244   9.660   9.469  1.00  0.00    -0.206 F 
ATOM     55  C   UNL     1      -0.649  11.825   9.291  1.00  0.00     0.040 A 
ATOM     56  C   UNL     1       0.776  13.672   8.700  1.00  0.00     0.040 A 
ATOM     57  F   UNL     1       3.053  13.309   8.274  1.00  0.00    -0.206 F 
ATOM     58  C   UNL     1      -0.485  13.185   9.035  1.00  0.00     0.006 A 
ENDBRANCH  37  51
BRANCH  38  59
ATOM     59  C   UNL     1       9.435   5.176   7.979  1.00  0.00     0.057 A 
ATOM     60  C   UNL     1       9.614   4.108   8.865  1.00  0.00     0.134 A 
ATOM     61  C   UNL     1      10.401   5.356   6.981  1.00  0.00     0.134 A 
ATOM     62  F   UNL     1       8.740   3.901   9.860  1.00  0.00    -0.206 F 
ATOM     63  C   UNL     1      10.719   3.259   8.771  1.00  0.00     0.040 A 
ATOM     64  C   UNL     1      11.494   4.498   6.858  1.00  0.00     0.040 A 
ATOM     65  F   UNL     1      10.289   6.364   6.103  1.00  0.00    -0.206 F 
ATOM     66  C   UNL     1      11.659   3.450   7.760  1.00  0.00     0.006 A 
ENDBRANCH  38  59
BRANCH  50  67
ATOM     67  C   UNL     1       7.664   9.969  12.694  1.00  0.00     0.057 A 
ATOM     68  C   UNL     1       8.834  10.738  12.714  1.00  0.00     0.134 A 
ATOM     69  C   UNL     1       7.093   9.625  13.926  1.00  0.00     0.134 A 
ATOM     70  F   UNL     1       9.437  11.089  11.568  1.00  0.00    -0.206 F 
ATOM     71  C   UNL     1       9.431  11.125  13.915  1.00  0.00     0.040 A 
ATOM     72  C   UNL     1       7.668  10.025  15.133  1.00  0.00     0.040 A 
ATOM     73  F   UNL     1       5.968   8.896  13.976  1.00  0.00    -0.206 F 
ATOM     74  C   UNL     1       8.845  10.771  15.129  1.00  0.00     0.006 A 
ENDBRANCH  50  67
ENDBRANCH  24  25
ENDBRANCH  17  19
ENDBRANCH  16  17
ENDBRANCH  15  16
ENDBRANCH   1  15
TORSDOF 14
