REMARK SMILES Cc1c(C[C@@H](C)O)c(=O)oc2cc(OCC(=O)OCCOC(=O)c3ccc(-c4c5nc(c(-c6c(F)cccc6F)c6ccc([nH]6)c(-c6c(F)cccc6F)c6nc(c(-c7c(F)cccc7F)c7ccc4[nH]7)C=C6)C=C5)cc3)ccc12
REMARK SMILES IDX 18 1 16 2 17 3 15 4 14 5 13 6 1 7 2 8 3 9 80 10 8 11 11 12
REMARK SMILES IDX 79 13 9 14 10 15 12 16 78 17 4 18 5 19 6 20 7 21 19 23 20 24
REMARK SMILES IDX 21 25 22 26 23 27 24 28 25 29 77 30 26 31 76 32 27 33 28 34
REMARK SMILES IDX 29 35 70 36 30 37 75 38 69 39 71 40 31 41 74 42 68 43 67 44
REMARK SMILES IDX 32 46 58 47 41 48 57 49 42 50 45 51 56 52 72 53 43 54 44 55
REMARK SMILES IDX 55 57 73 58 46 59 33 60 34 61 39 62 35 63 36 64 38 65 40 66
REMARK SMILES IDX 37 67 59 68 60 69 65 70 61 71 62 72 64 73 66 74 63 75 47 76
REMARK SMILES IDX 48 77 53 78 49 79 50 80 52 81 54 82 51 83
REMARK H PARENT 7 22 71 45 45 56
REMARK Flexibility Score: inf
ROOT
ATOM      1  O   UNL     1       3.416   3.158  -2.359  1.00  0.00    -0.460 OA
ENDROOT
BRANCH   1   2
ATOM      2  C   UNL     1       3.634   3.833  -1.199  1.00  0.00     0.344 C 
ATOM      3  O   UNL     1       3.444   5.035  -1.040  1.00  0.00    -0.248 OA
BRANCH   2   4
ATOM      4  C   UNL     1       4.176   2.943  -0.082  1.00  0.00     0.351 C 
BRANCH   4   5
ATOM      5  O   UNL     1       4.267   1.546  -0.297  1.00  0.00    -0.482 OA
BRANCH   5   6
ATOM      6  C   UNL     1       3.171   0.767  -0.063  1.00  0.00     0.123 A 
ATOM      7  C   UNL     1       0.168  -3.457   0.516  1.00  0.00     0.046 C 
ATOM      8  C   UNL     1      -0.119  -1.986   0.368  1.00  0.00    -0.030 A 
ATOM      9  C   UNL     1      -1.358  -1.451   0.290  1.00  0.00     0.044 A 
ATOM     10  C   UNL     1       1.044  -1.086   0.252  1.00  0.00     0.021 A 
ATOM     11  C   UNL     1      -1.557   0.029   0.301  1.00  0.00     0.339 A 
ATOM     12  C   UNL     1       0.846   0.284   0.356  1.00  0.00     0.142 A 
ATOM     13  C   UNL     1       2.346  -1.524  -0.014  1.00  0.00     0.016 A 
ATOM     14  O   UNL     1      -2.673   0.531   0.219  1.00  0.00    -0.246 OA
ATOM     15  O   UNL     1      -0.440   0.815   0.526  1.00  0.00    -0.422 OA
ATOM     16  C   UNL     1       1.891   1.208   0.237  1.00  0.00     0.094 A 
ATOM     17  C   UNL     1       3.391  -0.605  -0.185  1.00  0.00     0.047 A 
BRANCH   9  18
ATOM     18  C   UNL     1      -2.649  -2.241   0.219  1.00  0.00     0.075 C 
BRANCH  18  19
ATOM     19  C   UNL     1      -3.107  -2.550  -1.220  1.00  0.00     0.116 C 
ATOM     20  C   UNL     1      -2.175  -3.495  -1.974  1.00  0.00     0.038 C 
BRANCH  19  21
ATOM     21  O   UNL     1      -4.402  -3.156  -1.175  1.00  0.00    -0.393 OA
ATOM     22  H   UNL     1      -4.349  -3.997  -0.693  1.00  0.00     0.210 HD
ENDBRANCH  19  21
ENDBRANCH  18  19
ENDBRANCH   9  18
ENDBRANCH   5   6
ENDBRANCH   4   5
ENDBRANCH   2   4
ENDBRANCH   1   2
BRANCH   1  23
ATOM     23  C   UNL     1       2.899   3.939  -3.456  1.00  0.00     0.274 C 
BRANCH  23  24
ATOM     24  C   UNL     1       1.386   3.774  -3.567  1.00  0.00     0.275 C 
BRANCH  24  25
ATOM     25  O   UNL     1       0.767   4.204  -2.342  1.00  0.00    -0.458 OA
BRANCH  25  26
ATOM     26  C   UNL     1      -0.269   3.450  -1.919  1.00  0.00     0.338 C 
ATOM     27  O   UNL     1      -0.763   2.494  -2.509  1.00  0.00    -0.246 OA
BRANCH  26  28
ATOM     28  C   UNL     1      -0.741   3.913  -0.596  1.00  0.00     0.060 A 
ATOM     29  C   UNL     1       0.145   4.420   0.361  1.00  0.00     0.016 A 
ATOM     30  C   UNL     1      -2.083   3.720  -0.262  1.00  0.00     0.016 A 
ATOM     31  C   UNL     1      -0.290   4.637   1.670  1.00  0.00     0.010 A 
ATOM     32  C   UNL     1      -2.535   4.022   1.024  1.00  0.00     0.010 A 
ATOM     33  C   UNL     1      -1.638   4.454   2.013  1.00  0.00    -0.014 A 
BRANCH  33  34
ATOM     34  C   UNL     1      -2.126   4.728   3.391  1.00  0.00     0.031 A 
ATOM     35  C   UNL     1      -2.751   3.637   4.220  1.00  0.00     0.074 A 
ATOM     36  C   UNL     1      -2.048   5.978   3.886  1.00  0.00     0.049 A 
ATOM     37  N   UNL     1      -3.374   3.728   5.369  1.00  0.00    -0.248 NA
ATOM     38  C   UNL     1      -2.672   2.268   3.687  1.00  0.00     0.031 C 
ATOM     39  C   UNL     1      -1.457   7.127   3.197  1.00  0.00     0.029 A 
ATOM     40  N   UNL     1      -2.484   6.495   5.080  1.00  0.00    -0.354 N 
ATOM     41  C   UNL     1      -3.792   2.439   5.679  1.00  0.00     0.074 A 
ATOM     42  C   UNL     1      -3.353   1.583   4.596  1.00  0.00     0.031 C 
ATOM     43  C   UNL     1      -1.557   8.209   3.982  1.00  0.00     0.029 A 
ATOM     44  C   UNL     1      -2.279   7.848   5.197  1.00  0.00     0.049 A 
ATOM     45  H   UNL     1      -2.904   5.949   5.784  1.00  0.00     0.167 HD
ATOM     46  C   UNL     1      -4.482   2.011   6.764  1.00  0.00     0.037 A 
ATOM     47  C   UNL     1      -2.665   8.715   6.150  1.00  0.00     0.037 A 
ATOM     48  C   UNL     1      -4.902   2.856   7.852  1.00  0.00     0.049 A 
ATOM     49  C   UNL     1      -3.461   8.224   7.321  1.00  0.00     0.074 A 
ATOM     50  C   UNL     1      -5.577   2.502   9.009  1.00  0.00     0.029 A 
ATOM     51  N   UNL     1      -4.689   4.224   7.918  1.00  0.00    -0.354 N 
ATOM     52  N   UNL     1      -3.860   7.007   7.593  1.00  0.00    -0.248 NA
ATOM     53  C   UNL     1      -3.873   9.231   8.308  1.00  0.00     0.031 C 
ATOM     54  C   UNL     1      -5.799   3.662   9.761  1.00  0.00     0.029 A 
ATOM     55  C   UNL     1      -5.233   4.732   9.088  1.00  0.00     0.049 A 
ATOM     56  H   UNL     1      -4.221   4.756   7.235  1.00  0.00     0.167 HD
ATOM     57  C   UNL     1      -4.566   7.098   8.784  1.00  0.00     0.074 A 
ATOM     58  C   UNL     1      -4.524   8.487   9.192  1.00  0.00     0.031 C 
ATOM     59  C   UNL     1      -5.194   6.117   9.475  1.00  0.00     0.037 A 
BRANCH  46  60
ATOM     60  C   UNL     1      -4.849   0.559   6.825  1.00  0.00     0.057 A 
ATOM     61  C   UNL     1      -3.912  -0.426   7.160  1.00  0.00     0.134 A 
ATOM     62  C   UNL     1      -6.170   0.149   6.607  1.00  0.00     0.134 A 
ATOM     63  F   UNL     1      -2.628  -0.100   7.373  1.00  0.00    -0.206 F 
ATOM     64  C   UNL     1      -4.276  -1.770   7.268  1.00  0.00     0.040 A 
ATOM     65  C   UNL     1      -6.549  -1.188   6.728  1.00  0.00     0.040 A 
ATOM     66  F   UNL     1      -7.117   1.046   6.291  1.00  0.00    -0.206 F 
ATOM     67  C   UNL     1      -5.600  -2.153   7.058  1.00  0.00     0.006 A 
ENDBRANCH  46  60
BRANCH  47  68
ATOM     68  C   UNL     1      -2.327  10.150   6.007  1.00  0.00     0.057 A 
ATOM     69  C   UNL     1      -1.337  10.739   6.799  1.00  0.00     0.134 A 
ATOM     70  C   UNL     1      -2.965  10.956   5.056  1.00  0.00     0.134 A 
ATOM     71  F   UNL     1      -0.708  10.020   7.739  1.00  0.00    -0.206 F 
ATOM     72  C   UNL     1      -0.991  12.083   6.651  1.00  0.00     0.040 A 
ATOM     73  C   UNL     1      -2.614  12.295   4.883  1.00  0.00     0.040 A 
ATOM     74  F   UNL     1      -3.919  10.444   4.266  1.00  0.00    -0.206 F 
ATOM     75  C   UNL     1      -1.625  12.862   5.684  1.00  0.00     0.006 A 
ENDBRANCH  47  68
BRANCH  59  76
ATOM     76  C   UNL     1      -5.872   6.517  10.749  1.00  0.00     0.057 A 
ATOM     77  C   UNL     1      -7.099   7.192  10.746  1.00  0.00     0.134 A 
ATOM     78  C   UNL     1      -5.296   6.220  11.990  1.00  0.00     0.134 A 
ATOM     79  F   UNL     1      -7.691   7.519   9.587  1.00  0.00    -0.206 F 
ATOM     80  C   UNL     1      -7.721   7.576  11.934  1.00  0.00     0.040 A 
ATOM     81  C   UNL     1      -5.917   6.583  13.186  1.00  0.00     0.040 A 
ATOM     82  F   UNL     1      -4.123   5.573  12.059  1.00  0.00    -0.206 F 
ATOM     83  C   UNL     1      -7.131   7.268  13.159  1.00  0.00     0.006 A 
ENDBRANCH  59  76
ENDBRANCH  33  34
ENDBRANCH  26  28
ENDBRANCH  25  26
ENDBRANCH  24  25
ENDBRANCH  23  24
ENDBRANCH   1  23
TORSDOF 16
