REMARK SMILES O=C(CCCCc1nc(C[C@H]2CCCO2)no1)OCCOC(=O)c1ccc(-c2c3nc(c(-c4c(F)cccc4F)c4ccc([nH]4)c(-c4c(F)cccc4F)c4nc(c(-c5c(F)cccc5F)c5ccc2[nH]5)C=C4)C=C3)cc1
REMARK SMILES IDX 1 1 2 2 3 3 4 4 5 5 6 6 7 7 8 8 17 9 9 10 16 11 10 12 11 13
REMARK SMILES IDX 12 14 15 15 13 16 14 17 18 18 19 19 20 20 21 21 22 22 23 23
REMARK SMILES IDX 24 24 25 25 77 26 26 27 76 28 27 29 28 30 29 31 70 32 30 33
REMARK SMILES IDX 75 34 69 35 71 36 31 37 74 38 68 39 67 40 32 42 58 43 41 44
REMARK SMILES IDX 57 45 42 46 45 47 56 48 72 49 43 50 44 51 55 53 73 54 46 55
REMARK SMILES IDX 33 56 34 57 39 58 35 59 36 60 38 61 40 62 37 63 59 64 60 65
REMARK SMILES IDX 65 66 61 67 62 68 64 69 66 70 63 71 47 72 48 73 53 74 49 75
REMARK SMILES IDX 50 76 52 77 54 78 51 79
REMARK H PARENT 71 41 45 52
REMARK Flexibility Score: inf
ROOT
ATOM      1  O   UNL     1      15.148   9.022   0.285  1.00  0.00    -0.252 OA
ATOM      2  C   UNL     1      14.744   7.905  -0.022  1.00  0.00     0.305 C 
ENDROOT
BRANCH   2   3
ATOM      3  C   UNL     1      13.382   7.695  -0.653  1.00  0.00     0.123 C 
BRANCH   3   4
ATOM      4  C   UNL     1      13.130   8.540  -1.899  1.00  0.00     0.012 C 
BRANCH   4   5
ATOM      5  C   UNL     1      13.783   8.021  -3.186  1.00  0.00     0.010 C 
BRANCH   5   6
ATOM      6  C   UNL     1      13.436   6.595  -3.620  1.00  0.00     0.100 C 
BRANCH   6   7
ATOM      7  C   UNL     1      12.021   6.309  -3.949  1.00  0.00     0.226 A 
ATOM      8  N   UNL     1      11.452   5.130  -4.066  1.00  0.00    -0.196 NA
ATOM      9  O   UNL     1      11.193   7.344  -4.262  1.00  0.00    -0.339 OA
ATOM     10  C   UNL     1      10.201   5.457  -4.517  1.00  0.00     0.174 A 
ATOM     11  N   UNL     1       9.975   6.773  -4.636  1.00  0.00    -0.062 NA
BRANCH  10  12
ATOM     12  C   UNL     1       9.225   4.434  -4.955  1.00  0.00     0.113 C 
BRANCH  12  13
ATOM     13  C   UNL     1       8.257   3.967  -3.864  1.00  0.00     0.126 C 
ATOM     14  C   UNL     1       7.330   5.038  -3.308  1.00  0.00     0.035 C 
ATOM     15  O   UNL     1       7.370   2.992  -4.460  1.00  0.00    -0.378 OA
ATOM     16  C   UNL     1       6.230   5.079  -4.338  1.00  0.00     0.031 C 
ATOM     17  C   UNL     1       6.101   3.619  -4.721  1.00  0.00     0.160 C 
ENDBRANCH  12  13
ENDBRANCH  10  12
ENDBRANCH   6   7
ENDBRANCH   5   6
ENDBRANCH   4   5
ENDBRANCH   3   4
ENDBRANCH   2   3
BRANCH   2  18
ATOM     18  O   UNL     1      15.435   6.791   0.335  1.00  0.00    -0.462 OA
BRANCH  18  19
ATOM     19  C   UNL     1      15.634   5.731  -0.616  1.00  0.00     0.274 C 
BRANCH  19  20
ATOM     20  C   UNL     1      14.969   4.414  -0.200  1.00  0.00     0.275 C 
BRANCH  20  21
ATOM     21  O   UNL     1      13.601   4.612   0.190  1.00  0.00    -0.458 OA
BRANCH  21  22
ATOM     22  C   UNL     1      13.424   4.825   1.521  1.00  0.00     0.338 C 
ATOM     23  O   UNL     1      14.264   4.714   2.393  1.00  0.00    -0.246 OA
BRANCH  22  24
ATOM     24  C   UNL     1      12.079   5.393   1.763  1.00  0.00     0.060 A 
ATOM     25  C   UNL     1      11.977   6.430   2.698  1.00  0.00     0.016 A 
ATOM     26  C   UNL     1      10.938   4.931   1.099  1.00  0.00     0.016 A 
ATOM     27  C   UNL     1      10.734   6.991   2.991  1.00  0.00     0.010 A 
ATOM     28  C   UNL     1       9.689   5.488   1.402  1.00  0.00     0.010 A 
ATOM     29  C   UNL     1       9.579   6.508   2.363  1.00  0.00    -0.014 A 
BRANCH  29  30
ATOM     30  C   UNL     1       8.250   7.016   2.780  1.00  0.00     0.031 A 
ATOM     31  C   UNL     1       7.466   6.269   3.823  1.00  0.00     0.074 A 
ATOM     32  C   UNL     1       7.750   8.145   2.248  1.00  0.00     0.049 A 
ATOM     33  N   UNL     1       6.297   6.551   4.339  1.00  0.00    -0.248 NA
ATOM     34  C   UNL     1       8.081   5.043   4.356  1.00  0.00     0.031 C 
ATOM     35  C   UNL     1       8.413   8.973   1.242  1.00  0.00     0.029 A 
ATOM     36  N   UNL     1       6.557   8.785   2.479  1.00  0.00    -0.354 N 
ATOM     37  C   UNL     1       6.041   5.548   5.264  1.00  0.00     0.074 A 
ATOM     38  C   UNL     1       7.161   4.632   5.217  1.00  0.00     0.031 C 
ATOM     39  C   UNL     1       7.610  10.006   0.931  1.00  0.00     0.029 A 
ATOM     40  C   UNL     1       6.372   9.902   1.703  1.00  0.00     0.049 A 
ATOM     41  H   UNL     1       5.897   8.473   3.140  1.00  0.00     0.167 HD
ATOM     42  C   UNL     1       4.976   5.410   6.088  1.00  0.00     0.037 A 
ATOM     43  C   UNL     1       5.318  10.736   1.614  1.00  0.00     0.037 A 
ATOM     44  C   UNL     1       3.858   6.314   6.141  1.00  0.00     0.049 A 
ATOM     45  C   UNL     1       4.111  10.511   2.486  1.00  0.00     0.074 A 
ATOM     46  C   UNL     1       2.760   6.277   6.983  1.00  0.00     0.029 A 
ATOM     47  N   UNL     1       3.687   7.407   5.308  1.00  0.00    -0.354 N 
ATOM     48  N   UNL     1       3.911   9.599   3.404  1.00  0.00    -0.248 NA
ATOM     49  C   UNL     1       2.980  11.436   2.305  1.00  0.00     0.031 C 
ATOM     50  C   UNL     1       1.900   7.322   6.628  1.00  0.00     0.029 A 
ATOM     51  C   UNL     1       2.482   8.030   5.589  1.00  0.00     0.049 A 
ATOM     52  H   UNL     1       4.327   7.698   4.618  1.00  0.00     0.167 HD
ATOM     53  C   UNL     1       2.647   9.851   3.924  1.00  0.00     0.074 A 
ATOM     54  C   UNL     1       2.130  11.011   3.229  1.00  0.00     0.031 C 
ATOM     55  C   UNL     1       1.975   9.181   4.891  1.00  0.00     0.037 A 
BRANCH  42  56
ATOM     56  C   UNL     1       4.960   4.226   7.005  1.00  0.00     0.057 A 
ATOM     57  C   UNL     1       5.742   4.188   8.165  1.00  0.00     0.134 A 
ATOM     58  C   UNL     1       4.106   3.145   6.759  1.00  0.00     0.134 A 
ATOM     59  F   UNL     1       6.587   5.191   8.449  1.00  0.00    -0.206 F 
ATOM     60  C   UNL     1       5.682   3.108   9.047  1.00  0.00     0.040 A 
ATOM     61  C   UNL     1       4.024   2.068   7.642  1.00  0.00     0.040 A 
ATOM     62  F   UNL     1       3.328   3.126   5.666  1.00  0.00    -0.206 F 
ATOM     63  C   UNL     1       4.814   2.048   8.790  1.00  0.00     0.006 A 
ENDBRANCH  42  56
BRANCH  43  64
ATOM     64  C   UNL     1       5.333  11.858   0.644  1.00  0.00     0.057 A 
ATOM     65  C   UNL     1       5.407  13.188   1.072  1.00  0.00     0.134 A 
ATOM     66  C   UNL     1       5.216  11.626  -0.732  1.00  0.00     0.134 A 
ATOM     67  F   UNL     1       5.490  13.472   2.380  1.00  0.00    -0.206 F 
ATOM     68  C   UNL     1       5.342  14.250   0.169  1.00  0.00     0.040 A 
ATOM     69  C   UNL     1       5.173  12.677  -1.648  1.00  0.00     0.040 A 
ATOM     70  F   UNL     1       5.135  10.373  -1.203  1.00  0.00    -0.206 F 
ATOM     71  C   UNL     1       5.227  13.995  -1.197  1.00  0.00     0.006 A 
ENDBRANCH  43  64
BRANCH  55  72
ATOM     72  C   UNL     1       0.615   9.690   5.265  1.00  0.00     0.057 A 
ATOM     73  C   UNL     1      -0.496   9.491   4.436  1.00  0.00     0.134 A 
ATOM     74  C   UNL     1       0.404  10.346   6.484  1.00  0.00     0.134 A 
ATOM     75  F   UNL     1      -0.357   8.881   3.249  1.00  0.00    -0.206 F 
ATOM     76  C   UNL     1      -1.766   9.941   4.799  1.00  0.00     0.040 A 
ATOM     77  C   UNL     1      -0.865  10.781   6.868  1.00  0.00     0.040 A 
ATOM     78  F   UNL     1       1.425  10.561   7.328  1.00  0.00    -0.206 F 
ATOM     79  C   UNL     1      -1.954  10.582   6.022  1.00  0.00     0.006 A 
ENDBRANCH  55  72
ENDBRANCH  29  30
ENDBRANCH  22  24
ENDBRANCH  21  22
ENDBRANCH  20  21
ENDBRANCH  19  20
ENDBRANCH  18  19
ENDBRANCH   2  18
TORSDOF 17
