REMARK SMILES C/C(=C(\C#N)C(=O)OCCOC(=O)c1ccc(-c2c3nc(c(-c4c(F)cccc4F)c4ccc([nH]4)c(-c4c(F)cccc4F)c4nc(c(-c5c(F)cccc5F)c5ccc2[nH]5)C=C4)C=C3)cc1)c1cccc2ccccc12
REMARK SMILES IDX 10 1 9 2 8 3 6 4 7 5 3 6 1 7 2 8 68 9 69 10 77 11 70 12
REMARK SMILES IDX 72 13 76 14 71 15 73 16 75 17 74 18 4 19 5 20 11 21 12 22
REMARK SMILES IDX 13 23 14 24 15 25 67 26 16 27 66 28 17 29 18 30 19 31 60 32
REMARK SMILES IDX 20 33 65 34 59 35 61 36 21 37 64 38 58 39 57 40 22 42 48 43
REMARK SMILES IDX 31 44 47 45 32 46 35 47 46 48 62 49 33 50 34 51 45 53 63 54
REMARK SMILES IDX 36 55 23 56 24 57 29 58 25 59 26 60 28 61 30 62 27 63 49 64
REMARK SMILES IDX 50 65 55 66 51 67 52 68 54 69 56 70 53 71 37 72 38 73 43 74
REMARK SMILES IDX 39 75 40 76 42 77 44 78 41 79
REMARK H PARENT 61 41 35 52
REMARK Flexibility Score: inf
ROOT
ATOM      1  C   UNL     1      -3.301   5.053  -0.546  1.00  0.00     0.275 C 
ENDROOT
BRANCH   1   2
ATOM      2  C   UNL     1      -2.336   4.641  -1.663  1.00  0.00     0.275 C 
BRANCH   2   3
ATOM      3  O   UNL     1      -1.891   3.298  -1.409  1.00  0.00    -0.458 OA
BRANCH   3   4
ATOM      4  C   UNL     1      -0.638   3.016  -1.837  1.00  0.00     0.349 C 
ATOM      5  O   UNL     1       0.042   3.693  -2.591  1.00  0.00    -0.245 OA
BRANCH   4   6
ATOM      6  C   UNL     1      -0.201   1.734  -1.203  1.00  0.00     0.140 C 
ATOM      7  C   UNL     1       1.374   0.393   0.171  1.00  0.00     0.047 C 
ATOM      8  C   UNL     1       0.870   1.712  -0.360  1.00  0.00    -0.018 C 
BRANCH   8   9
ATOM      9  C   UNL     1       1.574   2.992   0.122  1.00  0.00    -0.013 A 
ATOM     10  C   UNL     1       0.758   4.101   0.425  1.00  0.00     0.009 A 
ATOM     11  C   UNL     1       2.989   3.191   0.306  1.00  0.00    -0.011 A 
ATOM     12  C   UNL     1       1.227   5.330   0.875  1.00  0.00     0.001 A 
ATOM     13  C   UNL     1       3.450   4.429   0.862  1.00  0.00    -0.018 A 
ATOM     14  C   UNL     1       4.018   2.286  -0.052  1.00  0.00     0.009 A 
ATOM     15  C   UNL     1       2.573   5.484   1.107  1.00  0.00     0.009 A 
ATOM     16  C   UNL     1       4.801   4.642   1.170  1.00  0.00     0.009 A 
ATOM     17  C   UNL     1       5.369   2.513   0.253  1.00  0.00     0.001 A 
ATOM     18  C   UNL     1       5.756   3.675   0.899  1.00  0.00     0.001 A 
ENDBRANCH   8   9
BRANCH   6  19
ATOM     19  C   UNL     1      -0.568   0.661  -2.215  1.00  0.00     0.107 C 
ATOM     20  N   UNL     1      -0.872  -0.229  -3.055  1.00  0.00    -0.192 NA
ENDBRANCH   6  19
ENDBRANCH   4   6
ENDBRANCH   3   4
ENDBRANCH   2   3
ENDBRANCH   1   2
BRANCH   1  21
ATOM     21  O   UNL     1      -2.648   5.002   0.745  1.00  0.00    -0.458 OA
BRANCH  21  22
ATOM     22  C   UNL     1      -2.742   3.814   1.409  1.00  0.00     0.338 C 
ATOM     23  O   UNL     1      -3.384   2.842   1.071  1.00  0.00    -0.246 OA
BRANCH  22  24
ATOM     24  C   UNL     1      -1.752   3.785   2.520  1.00  0.00     0.060 A 
ATOM     25  C   UNL     1      -0.998   2.615   2.680  1.00  0.00     0.016 A 
ATOM     26  C   UNL     1      -1.490   4.897   3.327  1.00  0.00     0.016 A 
ATOM     27  C   UNL     1       0.041   2.571   3.612  1.00  0.00     0.010 A 
ATOM     28  C   UNL     1      -0.483   4.831   4.304  1.00  0.00     0.010 A 
ATOM     29  C   UNL     1       0.289   3.669   4.453  1.00  0.00    -0.014 A 
BRANCH  29  30
ATOM     30  C   UNL     1       1.240   3.490   5.583  1.00  0.00     0.031 A 
ATOM     31  C   UNL     1       0.785   2.688   6.764  1.00  0.00     0.074 A 
ATOM     32  C   UNL     1       2.497   3.970   5.554  1.00  0.00     0.049 A 
ATOM     33  N   UNL     1       1.461   2.294   7.810  1.00  0.00    -0.248 NA
ATOM     34  C   UNL     1      -0.634   2.300   6.774  1.00  0.00     0.031 C 
ATOM     35  C   UNL     1       3.039   4.809   4.500  1.00  0.00     0.029 A 
ATOM     36  N   UNL     1       3.558   3.789   6.410  1.00  0.00    -0.354 N 
ATOM     37  C   UNL     1       0.542   1.651   8.624  1.00  0.00     0.074 A 
ATOM     38  C   UNL     1      -0.729   1.669   7.933  1.00  0.00     0.031 C 
ATOM     39  C   UNL     1       4.355   4.983   4.703  1.00  0.00     0.029 A 
ATOM     40  C   UNL     1       4.747   4.289   5.924  1.00  0.00     0.049 A 
ATOM     41  H   UNL     1       3.477   3.344   7.285  1.00  0.00     0.167 HD
ATOM     42  C   UNL     1       0.729   1.138   9.862  1.00  0.00     0.037 A 
ATOM     43  C   UNL     1       6.005   4.175   6.397  1.00  0.00     0.037 A 
ATOM     44  C   UNL     1       1.979   1.171  10.572  1.00  0.00     0.049 A 
ATOM     45  C   UNL     1       6.210   3.501   7.729  1.00  0.00     0.074 A 
ATOM     46  C   UNL     1       2.254   0.752  11.861  1.00  0.00     0.029 A 
ATOM     47  N   UNL     1       3.166   1.665  10.049  1.00  0.00    -0.354 N 
ATOM     48  N   UNL     1       5.332   2.902   8.496  1.00  0.00    -0.248 NA
ATOM     49  C   UNL     1       7.572   3.530   8.285  1.00  0.00     0.031 C 
ATOM     50  C   UNL     1       3.600   1.026  12.131  1.00  0.00     0.029 A 
ATOM     51  C   UNL     1       4.175   1.570  10.994  1.00  0.00     0.049 A 
ATOM     52  H   UNL     1       3.275   2.030   9.141  1.00  0.00     0.167 HD
ATOM     53  C   UNL     1       6.022   2.520   9.638  1.00  0.00     0.074 A 
ATOM     54  C   UNL     1       7.409   2.884   9.431  1.00  0.00     0.031 C 
ATOM     55  C   UNL     1       5.544   1.960  10.776  1.00  0.00     0.037 A 
BRANCH  42  56
ATOM     56  C   UNL     1      -0.490   0.605  10.549  1.00  0.00     0.057 A 
ATOM     57  C   UNL     1      -1.088  -0.604  10.174  1.00  0.00     0.134 A 
ATOM     58  C   UNL     1      -1.110   1.352  11.559  1.00  0.00     0.134 A 
ATOM     59  F   UNL     1      -0.563  -1.346   9.187  1.00  0.00    -0.206 F 
ATOM     60  C   UNL     1      -2.279  -1.038  10.761  1.00  0.00     0.040 A 
ATOM     61  C   UNL     1      -2.286   0.917  12.168  1.00  0.00     0.040 A 
ATOM     62  F   UNL     1      -0.593   2.526  11.952  1.00  0.00    -0.206 F 
ATOM     63  C   UNL     1      -2.879  -0.277  11.763  1.00  0.00     0.006 A 
ENDBRANCH  42  56
BRANCH  43  64
ATOM     64  C   UNL     1       7.176   4.674   5.621  1.00  0.00     0.057 A 
ATOM     65  C   UNL     1       8.151   3.781   5.152  1.00  0.00     0.134 A 
ATOM     66  C   UNL     1       7.381   6.032   5.356  1.00  0.00     0.134 A 
ATOM     67  F   UNL     1       8.037   2.467   5.397  1.00  0.00    -0.206 F 
ATOM     68  C   UNL     1       9.287   4.219   4.467  1.00  0.00     0.040 A 
ATOM     69  C   UNL     1       8.496   6.482   4.642  1.00  0.00     0.040 A 
ATOM     70  F   UNL     1       6.498   6.948   5.779  1.00  0.00    -0.206 F 
ATOM     71  C   UNL     1       9.458   5.575   4.203  1.00  0.00     0.006 A 
ENDBRANCH  43  64
BRANCH  55  72
ATOM     72  C   UNL     1       6.524   1.752  11.892  1.00  0.00     0.057 A 
ATOM     73  C   UNL     1       7.032   2.832  12.628  1.00  0.00     0.134 A 
ATOM     74  C   UNL     1       6.942   0.467  12.255  1.00  0.00     0.134 A 
ATOM     75  F   UNL     1       6.677   4.089  12.323  1.00  0.00    -0.206 F 
ATOM     76  C   UNL     1       7.943   2.642  13.667  1.00  0.00     0.040 A 
ATOM     77  C   UNL     1       7.835   0.263  13.308  1.00  0.00     0.040 A 
ATOM     78  F   UNL     1       6.487  -0.609  11.596  1.00  0.00    -0.206 F 
ATOM     79  C   UNL     1       8.343   1.353  14.012  1.00  0.00     0.006 A 
ENDBRANCH  55  72
ENDBRANCH  29  30
ENDBRANCH  22  24
ENDBRANCH  21  22
ENDBRANCH   1  21
TORSDOF 13
