REMARK SMILES NS(=O)(=O)c1ccc(/N=C/c2ccc(O)c(C(=O)OCCOC(=O)c3ccc(-c4c5nc(c(-c6c(F)cccc6F)c6ccc([nH]6)c(-c6c(F)cccc6F)c6nc(c(-c7c(F)cccc7F)c7ccc4[nH]7)C=C6)C=C5)cc3)c2)cc1
REMARK SMILES IDX 20 1 19 2 17 3 18 4 16 5 11 6 12 7 79 8 13 9 14 10 10 11
REMARK SMILES IDX 9 12 8 13 5 14 6 15 81 16 7 17 80 18 2 19 3 20 4 21 1 22
REMARK SMILES IDX 15 25 21 27 22 28 23 29 24 30 25 31 26 32 78 33 27 34 77 35
REMARK SMILES IDX 28 36 29 37 30 38 71 39 31 40 76 41 70 42 72 43 32 44 75 45
REMARK SMILES IDX 69 46 68 47 33 49 59 50 42 51 58 52 43 53 46 54 57 55 73 56
REMARK SMILES IDX 44 57 45 58 56 60 74 61 47 62 34 63 35 64 40 65 36 66 37 67
REMARK SMILES IDX 39 68 41 69 38 70 60 71 61 72 66 73 62 74 63 75 65 76 67 77
REMARK SMILES IDX 64 78 48 79 49 80 54 81 50 82 51 83 53 84 55 85 52 86
REMARK H PARENT 1 23 1 24 15 26 72 48 46 59
REMARK Flexibility Score: inf
ROOT
ATOM      1  C   UNL     1       5.533  -6.745   8.577  1.00  0.00     0.275 C 
ENDROOT
BRANCH   1   2
ATOM      2  O   UNL     1       4.704  -5.564   8.601  1.00  0.00    -0.458 OA
BRANCH   2   3
ATOM      3  C   UNL     1       3.605  -5.612   9.390  1.00  0.00     0.342 C 
ATOM      4  O   UNL     1       3.239  -6.547  10.088  1.00  0.00    -0.246 OA
BRANCH   3   5
ATOM      5  C   UNL     1       2.922  -4.299   9.440  1.00  0.00     0.102 A 
ATOM      6  C   UNL     1       2.257  -2.205   8.445  1.00  0.00    -0.006 A 
ATOM      7  C   UNL     1       1.722  -1.775   9.664  1.00  0.00     0.013 A 
ATOM      8  C   UNL     1       2.911  -3.439   8.339  1.00  0.00     0.029 A 
ATOM      9  C   UNL     1       1.710  -2.644  10.749  1.00  0.00     0.048 A 
ATOM     10  C   UNL     1       2.239  -3.923  10.609  1.00  0.00     0.130 A 
BRANCH   6  11
ATOM     11  C   UNL     1       1.955  -1.398   7.249  1.00  0.00     0.119 C 
ATOM     12  N   UNL     1       2.117  -1.880   6.061  1.00  0.00    -0.256 NA
BRANCH  12  13
ATOM     13  C   UNL     1       1.658  -1.155   4.950  1.00  0.00     0.063 A 
ATOM     14  C   UNL     1       0.761   0.131   2.625  1.00  0.00     0.082 A 
ATOM     15  C   UNL     1       0.698  -1.260   2.712  1.00  0.00     0.024 A 
ATOM     16  C   UNL     1       1.252   0.887   3.691  1.00  0.00     0.024 A 
ATOM     17  C   UNL     1       1.147  -1.893   3.873  1.00  0.00     0.030 A 
ATOM     18  C   UNL     1       1.707   0.241   4.844  1.00  0.00     0.030 A 
BRANCH  14  19
ATOM     19  S   UNL     1       0.281   0.939   1.129  1.00  0.00     0.238 S 
ATOM     20  O   UNL     1       0.854   2.264   1.101  1.00  0.00    -0.207 OA
ATOM     21  O   UNL     1      -1.121   0.686   0.897  1.00  0.00    -0.207 OA
BRANCH  19  22
ATOM     22  N   UNL     1       1.121   0.074  -0.042  1.00  0.00    -0.225 NA
ATOM     23  H   UNL     1       0.915   0.460  -0.963  1.00  0.00     0.137 HD
ATOM     24  H   UNL     1       0.835  -0.905  -0.012  1.00  0.00     0.137 HD
ENDBRANCH  19  22
ENDBRANCH  14  19
ENDBRANCH  12  13
ENDBRANCH   6  11
BRANCH  10  25
ATOM     25  O   UNL     1       2.009  -4.779  11.654  1.00  0.00    -0.507 OA
ATOM     26  H   UNL     1       1.548  -4.478  12.412  1.00  0.00     0.293 HD
ENDBRANCH  10  25
ENDBRANCH   3   5
ENDBRANCH   2   3
ENDBRANCH   1   2
BRANCH   1  27
ATOM     27  C   UNL     1       6.825  -6.527   9.367  1.00  0.00     0.275 C 
BRANCH  27  28
ATOM     28  O   UNL     1       6.529  -6.409  10.771  1.00  0.00    -0.458 OA
BRANCH  28  29
ATOM     29  C   UNL     1       6.822  -5.216  11.335  1.00  0.00     0.338 C 
ATOM     30  O   UNL     1       7.347  -4.249  10.810  1.00  0.00    -0.246 OA
BRANCH  29  31
ATOM     31  C   UNL     1       6.329  -5.192  12.720  1.00  0.00     0.060 A 
ATOM     32  C   UNL     1       4.961  -5.058  12.918  1.00  0.00     0.016 A 
ATOM     33  C   UNL     1       7.200  -5.122  13.802  1.00  0.00     0.016 A 
ATOM     34  C   UNL     1       4.451  -4.765  14.179  1.00  0.00     0.010 A 
ATOM     35  C   UNL     1       6.681  -4.911  15.088  1.00  0.00     0.010 A 
ATOM     36  C   UNL     1       5.304  -4.683  15.287  1.00  0.00    -0.014 A 
BRANCH  36  37
ATOM     37  C   UNL     1       4.774  -4.268  16.621  1.00  0.00     0.031 A 
ATOM     38  C   UNL     1       5.328  -3.041  17.301  1.00  0.00     0.074 A 
ATOM     39  C   UNL     1       3.776  -4.950  17.220  1.00  0.00     0.049 A 
ATOM     40  N   UNL     1       5.150  -2.615  18.527  1.00  0.00    -0.248 NA
ATOM     41  C   UNL     1       6.216  -2.188  16.497  1.00  0.00     0.031 C 
ATOM     42  C   UNL     1       3.089  -6.115  16.663  1.00  0.00     0.029 A 
ATOM     43  N   UNL     1       3.159  -4.753  18.433  1.00  0.00    -0.354 N 
ATOM     44  C   UNL     1       5.957  -1.491  18.661  1.00  0.00     0.074 A 
ATOM     45  C   UNL     1       6.626  -1.301  17.392  1.00  0.00     0.031 C 
ATOM     46  C   UNL     1       2.123  -6.504  17.509  1.00  0.00     0.029 A 
ATOM     47  C   UNL     1       2.181  -5.677  18.710  1.00  0.00     0.049 A 
ATOM     48  H   UNL     1       3.396  -4.019  19.045  1.00  0.00     0.167 HD
ATOM     49  C   UNL     1       6.126  -0.691  19.743  1.00  0.00     0.037 A 
ATOM     50  C   UNL     1       1.442  -5.872  19.820  1.00  0.00     0.037 A 
ATOM     51  C   UNL     1       5.406  -0.838  20.982  1.00  0.00     0.049 A 
ATOM     52  C   UNL     1       1.657  -4.986  21.015  1.00  0.00     0.074 A 
ATOM     53  C   UNL     1       5.500  -0.072  22.132  1.00  0.00     0.029 A 
ATOM     54  N   UNL     1       4.441  -1.804  21.225  1.00  0.00    -0.354 N 
ATOM     55  N   UNL     1       2.478  -3.975  21.156  1.00  0.00    -0.248 NA
ATOM     56  C   UNL     1       0.857  -5.283  22.211  1.00  0.00     0.031 C 
ATOM     57  C   UNL     1       4.616  -0.597  23.082  1.00  0.00     0.029 A 
ATOM     58  C   UNL     1       3.938  -1.659  22.508  1.00  0.00     0.049 A 
ATOM     59  H   UNL     1       4.156  -2.492  20.581  1.00  0.00     0.167 HD
ATOM     60  C   UNL     1       2.283  -3.503  22.448  1.00  0.00     0.074 A 
ATOM     61  C   UNL     1       1.252  -4.329  23.043  1.00  0.00     0.031 C 
ATOM     62  C   UNL     1       2.905  -2.481  23.085  1.00  0.00     0.037 A 
BRANCH  49  63
ATOM     63  C   UNL     1       7.166   0.390  19.648  1.00  0.00     0.057 A 
ATOM     64  C   UNL     1       6.996   1.530  18.852  1.00  0.00     0.134 A 
ATOM     65  C   UNL     1       8.356   0.288  20.381  1.00  0.00     0.134 A 
ATOM     66  F   UNL     1       5.887   1.685  18.114  1.00  0.00    -0.206 F 
ATOM     67  C   UNL     1       7.986   2.512  18.763  1.00  0.00     0.040 A 
ATOM     68  C   UNL     1       9.340   1.277  20.323  1.00  0.00     0.040 A 
ATOM     69  F   UNL     1       8.581  -0.772  21.171  1.00  0.00    -0.206 F 
ATOM     70  C   UNL     1       9.160   2.389  19.504  1.00  0.00     0.006 A 
ENDBRANCH  49  63
BRANCH  50  71
ATOM     71  C   UNL     1       0.454  -6.981  19.865  1.00  0.00     0.057 A 
ATOM     72  C   UNL     1      -0.921  -6.728  19.904  1.00  0.00     0.134 A 
ATOM     73  C   UNL     1       0.863  -8.321  19.861  1.00  0.00     0.134 A 
ATOM     74  F   UNL     1      -1.375  -5.466  19.937  1.00  0.00    -0.206 F 
ATOM     75  C   UNL     1      -1.855  -7.766  19.942  1.00  0.00     0.040 A 
ATOM     76  C   UNL     1      -0.060  -9.368  19.869  1.00  0.00     0.040 A 
ATOM     77  F   UNL     1       2.167  -8.632  19.827  1.00  0.00    -0.206 F 
ATOM     78  C   UNL     1      -1.424  -9.091  19.915  1.00  0.00     0.006 A 
ENDBRANCH  50  71
BRANCH  62  79
ATOM     79  C   UNL     1       2.454  -2.170  24.482  1.00  0.00     0.057 A 
ATOM     80  C   UNL     1       2.776  -2.995  25.566  1.00  0.00     0.134 A 
ATOM     81  C   UNL     1       1.708  -1.014  24.746  1.00  0.00     0.134 A 
ATOM     82  F   UNL     1       3.476  -4.124  25.378  1.00  0.00    -0.206 F 
ATOM     83  C   UNL     1       2.351  -2.694  26.862  1.00  0.00     0.040 A 
ATOM     84  C   UNL     1       1.299  -0.690  26.040  1.00  0.00     0.040 A 
ATOM     85  F   UNL     1       1.373  -0.178  23.753  1.00  0.00    -0.206 F 
ATOM     86  C   UNL     1       1.615  -1.535  27.102  1.00  0.00     0.006 A 
ENDBRANCH  62  79
ENDBRANCH  36  37
ENDBRANCH  29  31
ENDBRANCH  28  29
ENDBRANCH  27  28
ENDBRANCH   1  27
TORSDOF 16
