REMARK SMILES CCc1ccc2c(CC(=O)OCCOC(=O)c3ccc(-c4c5nc(c(-c6c(F)cccc6F)c6ccc([nH]6)c(-c6c(F)cccc6F)c6nc(c(-c7c(F)cccc7F)c7ccc4[nH]7)C=C6)C=C5)cc3)c(C(=O)c3cc(C)ccn3)[nH]c2c1
REMARK SMILES IDX 12 1 11 2 9 3 10 4 8 5 7 6 3 7 4 8 83 9 5 10 82 11 6 12
REMARK SMILES IDX 81 13 71 14 2 16 1 17 72 18 73 19 74 20 75 21 80 22 76 23
REMARK SMILES IDX 79 24 77 25 78 26 13 27 14 28 15 29 16 30 17 31 18 32 70 33
REMARK SMILES IDX 19 34 69 35 20 36 21 37 22 38 63 39 23 40 68 41 62 42 64 43
REMARK SMILES IDX 24 44 67 45 61 46 60 47 25 49 51 50 34 51 50 52 35 53 38 54
REMARK SMILES IDX 49 55 65 56 36 57 37 58 48 60 66 61 39 62 26 63 27 64 32 65
REMARK SMILES IDX 28 66 29 67 31 68 33 69 30 70 52 71 53 72 58 73 54 74 55 75
REMARK SMILES IDX 57 76 59 77 56 78 40 79 41 80 46 81 42 82 43 83 45 84 47 85
REMARK SMILES IDX 44 86
REMARK H PARENT 81 15 64 48 38 59
REMARK Flexibility Score: inf
ROOT
ATOM      1  C   UNL     1       5.096   6.593  -4.933  1.00  0.00     0.274 C 
ENDROOT
BRANCH   1   2
ATOM      2  O   UNL     1       3.940   5.760  -4.710  1.00  0.00    -0.462 OA
BRANCH   2   3
ATOM      3  C   UNL     1       2.737   6.383  -4.825  1.00  0.00     0.310 C 
ATOM      4  O   UNL     1       2.602   7.587  -5.039  1.00  0.00    -0.252 OA
BRANCH   3   5
ATOM      5  C   UNL     1       1.534   5.473  -4.716  1.00  0.00     0.161 C 
BRANCH   5   6
ATOM      6  C   UNL     1       1.786   4.056  -4.300  1.00  0.00     0.000 A 
ATOM      7  C   UNL     1       1.153   1.950  -0.703  1.00  0.00    -0.046 A 
ATOM      8  C   UNL     1       1.021   3.345  -0.633  1.00  0.00     0.004 A 
ATOM      9  C   UNL     1       1.617   1.361  -1.890  1.00  0.00     0.030 A 
ATOM     10  C   UNL     1       1.283   4.164  -1.738  1.00  0.00     0.011 A 
ATOM     11  C   UNL     1       1.841   2.194  -2.994  1.00  0.00     0.046 A 
ATOM     12  C   UNL     1       1.649   3.568  -2.959  1.00  0.00     0.004 A 
ATOM     13  N   UNL     1       2.232   1.880  -4.272  1.00  0.00    -0.352 N 
ATOM     14  C   UNL     1       1.984   2.941  -5.117  1.00  0.00     0.093 A 
ATOM     15  H   UNL     1       2.631   1.022  -4.546  1.00  0.00     0.167 HD
BRANCH   7  16
ATOM     16  C   UNL     1       0.706   1.141   0.495  1.00  0.00     0.032 C 
ATOM     17  C   UNL     1       1.055  -0.341   0.490  1.00  0.00     0.009 C 
ENDBRANCH   7  16
BRANCH  14  18
ATOM     18  C   UNL     1       1.856   2.811  -6.561  1.00  0.00     0.227 C 
ATOM     19  O   UNL     1       1.194   3.581  -7.252  1.00  0.00    -0.285 OA
BRANCH  18  20
ATOM     20  C   UNL     1       2.419   1.606  -7.219  1.00  0.00     0.113 A 
ATOM     21  C   UNL     1       1.564   0.584  -7.617  1.00  0.00     0.036 A 
ATOM     22  N   UNL     1       3.762   1.575  -7.371  1.00  0.00    -0.253 NA
ATOM     23  C   UNL     1       2.123  -0.543  -8.224  1.00  0.00    -0.047 A 
ATOM     24  C   UNL     1       4.268   0.513  -8.028  1.00  0.00     0.112 A 
ATOM     25  C   UNL     1       1.279  -1.716  -8.622  1.00  0.00     0.044 C 
ATOM     26  C   UNL     1       3.501  -0.559  -8.461  1.00  0.00     0.023 A 
ENDBRANCH  18  20
ENDBRANCH  14  18
ENDBRANCH   5   6
ENDBRANCH   3   5
ENDBRANCH   2   3
ENDBRANCH   1   2
BRANCH   1  27
ATOM     27  C   UNL     1       5.648   6.380  -6.340  1.00  0.00     0.275 C 
BRANCH  27  28
ATOM     28  O   UNL     1       4.589   6.527  -7.301  1.00  0.00    -0.458 OA
BRANCH  28  29
ATOM     29  C   UNL     1       4.377   5.450  -8.091  1.00  0.00     0.338 C 
ATOM     30  O   UNL     1       5.062   4.438  -8.151  1.00  0.00    -0.246 OA
BRANCH  29  31
ATOM     31  C   UNL     1       3.209   5.673  -8.963  1.00  0.00     0.060 A 
ATOM     32  C   UNL     1       2.021   6.214  -8.472  1.00  0.00     0.016 A 
ATOM     33  C   UNL     1       3.284   5.241 -10.289  1.00  0.00     0.016 A 
ATOM     34  C   UNL     1       0.883   6.243  -9.280  1.00  0.00     0.010 A 
ATOM     35  C   UNL     1       2.174   5.366 -11.125  1.00  0.00     0.010 A 
ATOM     36  C   UNL     1       0.953   5.844 -10.623  1.00  0.00    -0.014 A 
BRANCH  36  37
ATOM     37  C   UNL     1      -0.231   5.948 -11.517  1.00  0.00     0.031 A 
ATOM     38  C   UNL     1      -0.788   4.728 -12.200  1.00  0.00     0.074 A 
ATOM     39  C   UNL     1      -0.784   7.153 -11.753  1.00  0.00     0.049 A 
ATOM     40  N   UNL     1      -1.669   4.653 -13.167  1.00  0.00    -0.248 NA
ATOM     41  C   UNL     1      -0.278   3.424 -11.750  1.00  0.00     0.031 C 
ATOM     42  C   UNL     1      -0.361   8.414 -11.141  1.00  0.00     0.029 A 
ATOM     43  N   UNL     1      -1.817   7.517 -12.580  1.00  0.00    -0.354 N 
ATOM     44  C   UNL     1      -1.784   3.303 -13.473  1.00  0.00     0.074 A 
ATOM     45  C   UNL     1      -0.882   2.593 -12.589  1.00  0.00     0.031 C 
ATOM     46  C   UNL     1      -1.140   9.407 -11.594  1.00  0.00     0.029 A 
ATOM     47  C   UNL     1      -2.063   8.868 -12.585  1.00  0.00     0.049 A 
ATOM     48  H   UNL     1      -2.332   6.872 -13.118  1.00  0.00     0.167 HD
ATOM     49  C   UNL     1      -2.570   2.713 -14.406  1.00  0.00     0.037 A 
ATOM     50  C   UNL     1      -2.904   9.604 -13.334  1.00  0.00     0.037 A 
ATOM     51  C   UNL     1      -3.502   3.416 -15.251  1.00  0.00     0.049 A 
ATOM     52  C   UNL     1      -3.748   8.931 -14.373  1.00  0.00     0.074 A 
ATOM     53  C   UNL     1      -4.360   2.899 -16.208  1.00  0.00     0.029 A 
ATOM     54  N   UNL     1      -3.711   4.787 -15.228  1.00  0.00    -0.354 N 
ATOM     55  N   UNL     1      -3.814   7.660 -14.685  1.00  0.00    -0.248 NA
ATOM     56  C   UNL     1      -4.620   9.797 -15.178  1.00  0.00     0.031 C 
ATOM     57  C   UNL     1      -5.068   3.961 -16.783  1.00  0.00     0.029 A 
ATOM     58  C   UNL     1      -4.675   5.134 -16.162  1.00  0.00     0.049 A 
ATOM     59  H   UNL     1      -3.243   5.420 -14.637  1.00  0.00     0.167 HD
ATOM     60  C   UNL     1      -4.735   7.572 -15.718  1.00  0.00     0.074 A 
ATOM     61  C   UNL     1      -5.218   8.915 -15.968  1.00  0.00     0.031 C 
ATOM     62  C   UNL     1      -5.140   6.475 -16.402  1.00  0.00     0.037 A 
BRANCH  49  63
ATOM     63  C   UNL     1      -2.444   1.230 -14.586  1.00  0.00     0.057 A 
ATOM     64  C   UNL     1      -3.004   0.322 -13.680  1.00  0.00     0.134 A 
ATOM     65  C   UNL     1      -1.804   0.705 -15.717  1.00  0.00     0.134 A 
ATOM     66  F   UNL     1      -3.621   0.760 -12.572  1.00  0.00    -0.206 F 
ATOM     67  C   UNL     1      -2.921  -1.057 -13.885  1.00  0.00     0.040 A 
ATOM     68  C   UNL     1      -1.732  -0.671 -15.942  1.00  0.00     0.040 A 
ATOM     69  F   UNL     1      -1.254   1.521 -16.628  1.00  0.00    -0.206 F 
ATOM     70  C   UNL     1      -2.290  -1.556 -15.023  1.00  0.00     0.006 A 
ENDBRANCH  49  63
BRANCH  50  71
ATOM     71  C   UNL     1      -2.954  11.073 -13.144  1.00  0.00     0.057 A 
ATOM     72  C   UNL     1      -4.048  11.683 -12.524  1.00  0.00     0.134 A 
ATOM     73  C   UNL     1      -1.896  11.895 -13.552  1.00  0.00     0.134 A 
ATOM     74  F   UNL     1      -5.099  10.947 -12.133  1.00  0.00    -0.206 F 
ATOM     75  C   UNL     1      -4.091  13.062 -12.315  1.00  0.00     0.040 A 
ATOM     76  C   UNL     1      -1.915  13.272 -13.329  1.00  0.00     0.040 A 
ATOM     77  F   UNL     1      -0.818  11.366 -14.149  1.00  0.00    -0.206 F 
ATOM     78  C   UNL     1      -3.018  13.859 -12.711  1.00  0.00     0.006 A 
ENDBRANCH  50  71
BRANCH  62  79
ATOM     79  C   UNL     1      -6.165   6.687 -17.473  1.00  0.00     0.057 A 
ATOM     80  C   UNL     1      -5.824   7.235 -18.715  1.00  0.00     0.134 A 
ATOM     81  C   UNL     1      -7.502   6.330 -17.263  1.00  0.00     0.134 A 
ATOM     82  F   UNL     1      -4.562   7.613 -18.969  1.00  0.00    -0.206 F 
ATOM     83  C   UNL     1      -6.784   7.437 -19.708  1.00  0.00     0.040 A 
ATOM     84  C   UNL     1      -8.467   6.511 -18.255  1.00  0.00     0.040 A 
ATOM     85  F   UNL     1      -7.890   5.797 -16.095  1.00  0.00    -0.206 F 
ATOM     86  C   UNL     1      -8.109   7.071 -19.480  1.00  0.00     0.006 A 
ENDBRANCH  62  79
ENDBRANCH  36  37
ENDBRANCH  29  31
ENDBRANCH  28  29
ENDBRANCH  27  28
ENDBRANCH   1  27
TORSDOF 15
