REMARK SMILES CC[C@@](C)(NC(=O)N(C)[C@@H](C)C(C)C)C(=O)OCCOC(=O)c1ccc(-c2c3nc(c(-c4c(F)cccc4F)c4ccc([nH]4)c(-c4c(F)cccc4F)c4nc(c(-c5c(F)cccc5F)c5ccc2[nH]5)C=C4)C=C3)cc1
REMARK SMILES IDX 18 1 17 2 15 3 16 4 3 5 4 6 2 7 1 8 5 9 6 10 7 12 8 13 9 14
REMARK SMILES IDX 10 15 11 16 12 17 13 18 14 19 19 20 20 21 21 22 22 23 23 24
REMARK SMILES IDX 24 25 76 26 25 27 75 28 26 29 27 30 28 31 69 32 29 33 74 34
REMARK SMILES IDX 68 35 70 36 30 37 73 38 67 39 66 40 31 42 57 43 40 44 56 45
REMARK SMILES IDX 41 46 44 47 55 48 71 49 42 50 43 51 54 53 72 54 45 55 32 56
REMARK SMILES IDX 33 57 38 58 34 59 35 60 37 61 39 62 36 63 58 64 59 65 64 66
REMARK SMILES IDX 60 67 61 68 63 69 65 70 62 71 46 72 47 73 52 74 48 75 49 76
REMARK SMILES IDX 51 77 53 78 50 79
REMARK H PARENT 5 11 70 41 44 52
REMARK Flexibility Score: inf
ROOT
ATOM      1  C   UNL     1       4.953   2.085  -0.703  1.00  0.00     0.274 C 
ENDROOT
BRANCH   1   2
ATOM      2  O   UNL     1       3.671   2.637  -0.318  1.00  0.00    -0.460 OA
BRANCH   2   3
ATOM      3  C   UNL     1       2.556   1.923  -0.591  1.00  0.00     0.331 C 
ATOM      4  O   UNL     1       2.606   0.852  -1.189  1.00  0.00    -0.249 OA
BRANCH   3   5
ATOM      5  C   UNL     1       1.212   2.673  -0.273  1.00  0.00     0.136 C 
ATOM      6  C   UNL     1       0.715   3.284  -1.597  1.00  0.00     0.047 C 
BRANCH   5   7
ATOM      7  C   UNL     1       0.124   1.602   0.169  1.00  0.00     0.037 C 
ATOM      8  C   UNL     1      -0.086   0.334  -0.653  1.00  0.00     0.007 C 
ENDBRANCH   5   7
BRANCH   5   9
ATOM      9  N   UNL     1       1.126   3.697   0.844  1.00  0.00    -0.322 N 
ATOM     10  C   UNL     1       1.628   4.787   1.436  1.00  0.00     0.318 C 
ATOM     11  H   UNL     1       0.340   3.442   1.378  1.00  0.00     0.166 HD
ATOM     12  O   UNL     1       0.897   5.233   2.329  1.00  0.00    -0.249 OA
BRANCH  10  13
ATOM     13  N   UNL     1       2.842   5.332   1.181  1.00  0.00    -0.325 N 
ATOM     14  C   UNL     1       3.440   5.358  -0.139  1.00  0.00     0.149 C 
BRANCH  13  15
ATOM     15  C   UNL     1       3.498   6.240   2.175  1.00  0.00     0.086 C 
ATOM     16  C   UNL     1       3.100   7.702   1.898  1.00  0.00     0.031 C 
BRANCH  15  17
ATOM     17  C   UNL     1       3.333   5.950   3.716  1.00  0.00     0.005 C 
ATOM     18  C   UNL     1       3.504   4.495   4.141  1.00  0.00     0.009 C 
ATOM     19  C   UNL     1       4.349   6.765   4.541  1.00  0.00     0.009 C 
ENDBRANCH  15  17
ENDBRANCH  13  15
ENDBRANCH  10  13
ENDBRANCH   5   9
ENDBRANCH   3   5
ENDBRANCH   2   3
ENDBRANCH   1   2
BRANCH   1  20
ATOM     20  C   UNL     1       5.882   1.975   0.510  1.00  0.00     0.275 C 
BRANCH  20  21
ATOM     21  O   UNL     1       5.451   0.919   1.392  1.00  0.00    -0.458 OA
BRANCH  21  22
ATOM     22  C   UNL     1       4.457   1.307   2.215  1.00  0.00     0.338 C 
ATOM     23  O   UNL     1       3.987   2.428   2.308  1.00  0.00    -0.246 OA
BRANCH  22  24
ATOM     24  C   UNL     1       3.818   0.184   2.885  1.00  0.00     0.060 A 
ATOM     25  C   UNL     1       2.543  -0.154   2.437  1.00  0.00     0.016 A 
ATOM     26  C   UNL     1       4.355  -0.393   4.032  1.00  0.00     0.016 A 
ATOM     27  C   UNL     1       1.770  -1.051   3.152  1.00  0.00     0.010 A 
ATOM     28  C   UNL     1       3.599  -1.343   4.722  1.00  0.00     0.010 A 
ATOM     29  C   UNL     1       2.300  -1.670   4.289  1.00  0.00    -0.014 A 
BRANCH  29  30
ATOM     30  C   UNL     1       1.478  -2.674   4.998  1.00  0.00     0.031 A 
ATOM     31  C   UNL     1       0.930  -2.385   6.362  1.00  0.00     0.074 A 
ATOM     32  C   UNL     1       1.184  -3.828   4.370  1.00  0.00     0.049 A 
ATOM     33  N   UNL     1       0.270  -3.175   7.168  1.00  0.00    -0.248 NA
ATOM     34  C   UNL     1       1.152  -1.030   6.890  1.00  0.00     0.031 C 
ATOM     35  C   UNL     1       1.609  -4.181   3.013  1.00  0.00     0.029 A 
ATOM     36  N   UNL     1       0.442  -4.904   4.777  1.00  0.00    -0.354 N 
ATOM     37  C   UNL     1       0.036  -2.432   8.317  1.00  0.00     0.074 A 
ATOM     38  C   UNL     1       0.616  -1.123   8.099  1.00  0.00     0.031 C 
ATOM     39  C   UNL     1       1.085  -5.370   2.685  1.00  0.00     0.029 A 
ATOM     40  C   UNL     1       0.355  -5.896   3.832  1.00  0.00     0.049 A 
ATOM     41  H   UNL     1       0.014  -4.962   5.662  1.00  0.00     0.167 HD
ATOM     42  C   UNL     1      -0.594  -2.819   9.451  1.00  0.00     0.037 A 
ATOM     43  C   UNL     1      -0.227  -7.106   3.894  1.00  0.00     0.037 A 
ATOM     44  C   UNL     1      -1.192  -4.116   9.639  1.00  0.00     0.049 A 
ATOM     45  C   UNL     1      -0.901  -7.517   5.170  1.00  0.00     0.074 A 
ATOM     46  C   UNL     1      -1.829  -4.623  10.758  1.00  0.00     0.029 A 
ATOM     47  N   UNL     1      -1.236  -5.108   8.670  1.00  0.00    -0.354 N 
ATOM     48  N   UNL     1      -1.054  -6.834   6.278  1.00  0.00    -0.248 NA
ATOM     49  C   UNL     1      -1.466  -8.871   5.211  1.00  0.00     0.031 C 
ATOM     50  C   UNL     1      -2.237  -5.932  10.473  1.00  0.00     0.029 A 
ATOM     51  C   UNL     1      -1.887  -6.226   9.165  1.00  0.00     0.049 A 
ATOM     52  H   UNL     1      -0.861  -5.029   7.763  1.00  0.00     0.167 HD
ATOM     53  C   UNL     1      -1.744  -7.667   7.145  1.00  0.00     0.074 A 
ATOM     54  C   UNL     1      -1.995  -8.901   6.426  1.00  0.00     0.031 C 
ATOM     55  C   UNL     1      -2.131  -7.437   8.423  1.00  0.00     0.037 A 
BRANCH  42  56
ATOM     56  C   UNL     1      -0.616  -1.844  10.590  1.00  0.00     0.057 A 
ATOM     57  C   UNL     1      -1.447  -0.718  10.594  1.00  0.00     0.134 A 
ATOM     58  C   UNL     1       0.211  -2.041  11.703  1.00  0.00     0.134 A 
ATOM     59  F   UNL     1      -2.251  -0.462   9.551  1.00  0.00    -0.206 F 
ATOM     60  C   UNL     1      -1.438   0.190  11.656  1.00  0.00     0.040 A 
ATOM     61  C   UNL     1       0.214  -1.153  12.779  1.00  0.00     0.040 A 
ATOM     62  F   UNL     1       1.032  -3.102  11.763  1.00  0.00    -0.206 F 
ATOM     63  C   UNL     1      -0.608  -0.028  12.754  1.00  0.00     0.006 A 
ENDBRANCH  42  56
BRANCH  43  64
ATOM     64  C   UNL     1      -0.176  -8.014   2.723  1.00  0.00     0.057 A 
ATOM     65  C   UNL     1      -1.328  -8.307   1.986  1.00  0.00     0.134 A 
ATOM     66  C   UNL     1       1.026  -8.595   2.301  1.00  0.00     0.134 A 
ATOM     67  F   UNL     1      -2.512  -7.795   2.352  1.00  0.00    -0.206 F 
ATOM     68  C   UNL     1      -1.289  -9.153   0.876  1.00  0.00     0.040 A 
ATOM     69  C   UNL     1       1.085  -9.422   1.179  1.00  0.00     0.040 A 
ATOM     70  F   UNL     1       2.167  -8.348   2.962  1.00  0.00    -0.206 F 
ATOM     71  C   UNL     1      -0.078  -9.707   0.466  1.00  0.00     0.006 A 
ENDBRANCH  43  64
BRANCH  55  72
ATOM     72  C   UNL     1      -2.897  -8.531   9.100  1.00  0.00     0.057 A 
ATOM     73  C   UNL     1      -2.268  -9.692   9.566  1.00  0.00     0.134 A 
ATOM     74  C   UNL     1      -4.279  -8.416   9.293  1.00  0.00     0.134 A 
ATOM     75  F   UNL     1      -0.949  -9.866   9.394  1.00  0.00    -0.206 F 
ATOM     76  C   UNL     1      -2.992 -10.712  10.183  1.00  0.00     0.040 A 
ATOM     77  C   UNL     1      -5.010  -9.421   9.926  1.00  0.00     0.040 A 
ATOM     78  F   UNL     1      -4.938  -7.327   8.870  1.00  0.00    -0.206 F 
ATOM     79  C   UNL     1      -4.367 -10.576  10.368  1.00  0.00     0.006 A 
ENDBRANCH  55  72
ENDBRANCH  29  30
ENDBRANCH  22  24
ENDBRANCH  21  22
ENDBRANCH  20  21
ENDBRANCH   1  20
TORSDOF 16
