REMARK SMILES Cc1ccc(S(=O)(=O)n2cc(C(=O)C(=O)N[C@@H](Cc3c[nH]c4ccccc34)C(=O)OCCOC(=O)c3ccc(-c4c5nc(c(-c6c(F)cccc6F)c6ccc([nH]6)c(-c6c(F)cccc6F)c6nc(c(-c7c(F)cccc7F)c7ccc4[nH]7)C=C6)C=C5)cc3)c3ccccc32)cc1
REMARK SMILES IDX 30 1 28 2 29 3 17 4 16 5 14 6 15 7 12 9 13 10 11 11 9 12
REMARK SMILES IDX 10 13 95 14 90 15 94 16 91 17 93 18 92 19 6 20 7 21 8 22
REMARK SMILES IDX 5 23 1 24 2 25 3 26 97 27 4 28 96 29 18 30 19 31 20 32 27 33
REMARK SMILES IDX 21 34 22 35 26 36 23 38 25 39 24 40 31 41 32 42 33 43 34 44
REMARK SMILES IDX 35 45 36 46 37 47 89 48 38 49 88 50 39 51 40 52 41 53 82 54
REMARK SMILES IDX 42 55 87 56 81 57 83 58 43 59 86 60 80 61 79 62 44 64 70 65
REMARK SMILES IDX 53 66 69 67 54 68 57 69 68 70 84 71 55 72 56 73 67 75 85 76
REMARK SMILES IDX 58 77 45 78 46 79 51 80 47 81 48 82 50 83 52 84 49 85 71 86
REMARK SMILES IDX 72 87 77 88 73 89 74 90 76 91 78 92 75 93 59 94 60 95 65 96
REMARK SMILES IDX 61 97 62 98 64 99 66 100 63 101
REMARK H PARENT 16 8 21 37 83 63 57 74
REMARK Flexibility Score: inf
ROOT
ATOM      1  O   UNL     1     -11.124   3.796  -2.129  1.00  0.00    -0.461 OA
ENDROOT
BRANCH   1   2
ATOM      2  C   UNL     1     -11.726   3.274  -1.022  1.00  0.00     0.329 C 
ATOM      3  O   UNL     1     -12.933   3.051  -0.951  1.00  0.00    -0.250 OA
BRANCH   2   4
ATOM      4  C   UNL     1     -10.713   2.846   0.054  1.00  0.00     0.197 C 
BRANCH   4   5
ATOM      5  N   UNL     1      -9.375   3.483  -0.116  1.00  0.00    -0.335 N 
ATOM      6  C   UNL     1      -8.088   2.948  -0.184  1.00  0.00     0.293 C 
ATOM      7  O   UNL     1      -7.126   3.690  -0.363  1.00  0.00    -0.265 OA
ATOM      8  H   UNL     1      -9.405   4.464  -0.194  1.00  0.00     0.164 HD
BRANCH   6   9
ATOM      9  C   UNL     1      -7.853   1.442  -0.012  1.00  0.00     0.252 C 
ATOM     10  O   UNL     1      -8.860   0.774   0.237  1.00  0.00    -0.283 OA
BRANCH   9  11
ATOM     11  C   UNL     1      -6.559   0.728   0.000  1.00  0.00     0.054 A 
ATOM     12  N   UNL     1      -4.546  -0.102   0.573  1.00  0.00    -0.240 N 
ATOM     13  C   UNL     1      -5.210   1.073   0.190  1.00  0.00     0.117 A 
ATOM     14  C   UNL     1      -5.502  -1.129   0.637  1.00  0.00     0.065 A 
ATOM     15  C   UNL     1      -6.546  -0.691  -0.155  1.00  0.00     0.012 A 
ATOM     16  C   UNL     1      -5.404  -2.474   1.045  1.00  0.00     0.028 A 
ATOM     17  C   UNL     1      -7.386  -1.648  -0.762  1.00  0.00     0.011 A 
ATOM     18  C   UNL     1      -6.193  -3.409   0.380  1.00  0.00     0.002 A 
ATOM     19  C   UNL     1      -7.136  -3.006  -0.556  1.00  0.00     0.001 A 
BRANCH  12  20
ATOM     20  S   UNL     1      -3.014  -0.748   0.105  1.00  0.00     0.268 S 
ATOM     21  O   UNL     1      -3.285  -1.271  -1.226  1.00  0.00    -0.201 OA
ATOM     22  O   UNL     1      -2.750  -1.647   1.225  1.00  0.00    -0.201 OA
BRANCH  20  23
ATOM     23  C   UNL     1      -1.438  -0.008  -0.051  1.00  0.00     0.088 A 
ATOM     24  C   UNL     1       2.821   0.691  -0.048  1.00  0.00     0.044 C 
ATOM     25  C   UNL     1       1.333   0.500  -0.114  1.00  0.00    -0.051 A 
ATOM     26  C   UNL     1       0.879  -0.794  -0.312  1.00  0.00     0.005 A 
ATOM     27  C   UNL     1       0.390   1.539   0.070  1.00  0.00     0.005 A 
ATOM     28  C   UNL     1      -0.479  -1.030  -0.296  1.00  0.00     0.022 A 
ATOM     29  C   UNL     1      -1.009   1.294   0.110  1.00  0.00     0.022 A 
ENDBRANCH  20  23
ENDBRANCH  12  20
ENDBRANCH   9  11
ENDBRANCH   6   9
ENDBRANCH   4   5
BRANCH   4  30
ATOM     30  C   UNL     1     -11.328   3.007   1.470  1.00  0.00     0.074 C 
BRANCH  30  31
ATOM     31  C   UNL     1     -12.121   4.273   1.607  1.00  0.00    -0.020 A 
ATOM     32  C   UNL     1     -13.491   4.407   1.486  1.00  0.00     0.087 A 
ATOM     33  C   UNL     1     -11.590   5.590   1.640  1.00  0.00     0.003 A 
ATOM     34  N   UNL     1     -13.795   5.731   1.340  1.00  0.00    -0.361 N 
ATOM     35  C   UNL     1     -12.637   6.468   1.357  1.00  0.00     0.046 A 
ATOM     36  C   UNL     1     -10.285   6.095   1.759  1.00  0.00     0.010 A 
ATOM     37  H   UNL     1     -14.702   6.099   1.239  1.00  0.00     0.166 HD
ATOM     38  C   UNL     1     -12.432   7.825   1.109  1.00  0.00     0.026 A 
ATOM     39  C   UNL     1     -10.061   7.448   1.514  1.00  0.00     0.001 A 
ATOM     40  C   UNL     1     -11.117   8.293   1.174  1.00  0.00     0.002 A 
ENDBRANCH  30  31
ENDBRANCH   4  30
ENDBRANCH   2   4
ENDBRANCH   1   2
BRANCH   1  41
ATOM     41  C   UNL     1     -12.018   4.034  -3.219  1.00  0.00     0.274 C 
BRANCH  41  42
ATOM     42  C   UNL     1     -11.417   3.590  -4.556  1.00  0.00     0.275 C 
BRANCH  42  43
ATOM     43  O   UNL     1     -10.587   2.387  -4.643  1.00  0.00    -0.458 OA
BRANCH  43  44
ATOM     44  C   UNL     1     -10.450   1.341  -3.791  1.00  0.00     0.338 C 
ATOM     45  O   UNL     1      -9.361   0.827  -3.575  1.00  0.00    -0.246 OA
BRANCH  44  46
ATOM     46  C   UNL     1     -11.663   0.805  -3.141  1.00  0.00     0.060 A 
ATOM     47  C   UNL     1     -11.569   0.118  -1.912  1.00  0.00     0.016 A 
ATOM     48  C   UNL     1     -12.900   1.091  -3.684  1.00  0.00     0.016 A 
ATOM     49  C   UNL     1     -12.715  -0.114  -1.135  1.00  0.00     0.010 A 
ATOM     50  C   UNL     1     -14.000   0.986  -2.868  1.00  0.00     0.010 A 
ATOM     51  C   UNL     1     -13.934   0.379  -1.594  1.00  0.00    -0.014 A 
BRANCH  51  52
ATOM     52  C   UNL     1     -15.263   0.215  -0.993  1.00  0.00     0.031 A 
ATOM     53  C   UNL     1     -15.778   1.002   0.156  1.00  0.00     0.074 A 
ATOM     54  C   UNL     1     -16.071  -0.510  -1.795  1.00  0.00     0.049 A 
ATOM     55  N   UNL     1     -16.925   1.611   0.167  1.00  0.00    -0.248 NA
ATOM     56  C   UNL     1     -15.036   1.141   1.415  1.00  0.00     0.031 C 
ATOM     57  C   UNL     1     -17.511  -0.633  -1.840  1.00  0.00     0.029 A 
ATOM     58  N   UNL     1     -15.627  -1.437  -2.748  1.00  0.00    -0.354 N 
ATOM     59  C   UNL     1     -17.140   2.104   1.444  1.00  0.00     0.074 A 
ATOM     60  C   UNL     1     -15.898   1.844   2.166  1.00  0.00     0.031 C 
ATOM     61  C   UNL     1     -17.822  -1.765  -2.502  1.00  0.00     0.029 A 
ATOM     62  C   UNL     1     -16.569  -2.463  -2.776  1.00  0.00     0.049 A 
ATOM     63  H   UNL     1     -14.809  -1.375  -3.292  1.00  0.00     0.167 HD
ATOM     64  C   UNL     1     -18.346   1.935   2.063  1.00  0.00     0.037 A 
ATOM     65  C   UNL     1     -16.188  -3.666  -2.252  1.00  0.00     0.037 A 
ATOM     66  C   UNL     1     -19.034   0.770   1.573  1.00  0.00     0.049 A 
ATOM     67  C   UNL     1     -16.983  -3.939  -1.006  1.00  0.00     0.074 A 
ATOM     68  C   UNL     1     -19.915   0.542   0.536  1.00  0.00     0.029 A 
ATOM     69  N   UNL     1     -18.639  -0.461   2.062  1.00  0.00    -0.354 N 
ATOM     70  N   UNL     1     -17.328  -3.027  -0.134  1.00  0.00    -0.248 NA
ATOM     71  C   UNL     1     -17.574  -5.245  -0.746  1.00  0.00     0.031 C 
ATOM     72  C   UNL     1     -19.991  -0.863   0.354  1.00  0.00     0.029 A 
ATOM     73  C   UNL     1     -19.180  -1.470   1.302  1.00  0.00     0.049 A 
ATOM     74  H   UNL     1     -18.054  -0.595   2.843  1.00  0.00     0.167 HD
ATOM     75  C   UNL     1     -18.249  -3.579   0.719  1.00  0.00     0.074 A 
ATOM     76  C   UNL     1     -18.341  -4.972   0.321  1.00  0.00     0.031 C 
ATOM     77  C   UNL     1     -18.951  -2.862   1.641  1.00  0.00     0.037 A 
BRANCH  64  78
ATOM     78  C   UNL     1     -19.004   3.061   2.823  1.00  0.00     0.057 A 
ATOM     79  C   UNL     1     -20.406   3.102   2.975  1.00  0.00     0.134 A 
ATOM     80  C   UNL     1     -18.317   4.167   3.353  1.00  0.00     0.134 A 
ATOM     81  F   UNL     1     -21.189   2.102   2.546  1.00  0.00    -0.206 F 
ATOM     82  C   UNL     1     -21.080   4.186   3.553  1.00  0.00     0.040 A 
ATOM     83  C   UNL     1     -18.981   5.252   3.951  1.00  0.00     0.040 A 
ATOM     84  F   UNL     1     -16.980   4.246   3.302  1.00  0.00    -0.206 F 
ATOM     85  C   UNL     1     -20.368   5.273   4.036  1.00  0.00     0.006 A 
ENDBRANCH  64  78
BRANCH  65  86
ATOM     86  C   UNL     1     -14.725  -3.942  -2.456  1.00  0.00     0.057 A 
ATOM     87  C   UNL     1     -14.239  -3.959  -3.783  1.00  0.00     0.134 A 
ATOM     88  C   UNL     1     -13.767  -3.790  -1.447  1.00  0.00     0.134 A 
ATOM     89  F   UNL     1     -15.096  -4.098  -4.809  1.00  0.00    -0.206 F 
ATOM     90  C   UNL     1     -12.902  -3.696  -4.097  1.00  0.00     0.040 A 
ATOM     91  C   UNL     1     -12.415  -3.555  -1.751  1.00  0.00     0.040 A 
ATOM     92  F   UNL     1     -14.128  -3.763  -0.157  1.00  0.00    -0.206 F 
ATOM     93  C   UNL     1     -11.989  -3.462  -3.076  1.00  0.00     0.006 A 
ENDBRANCH  65  86
BRANCH  77  94
ATOM     94  C   UNL     1     -19.608  -3.451   2.864  1.00  0.00     0.057 A 
ATOM     95  C   UNL     1     -19.242  -4.690   3.412  1.00  0.00     0.134 A 
ATOM     96  C   UNL     1     -20.524  -2.705   3.641  1.00  0.00     0.134 A 
ATOM     97  F   UNL     1     -18.269  -5.438   2.876  1.00  0.00    -0.206 F 
ATOM     98  C   UNL     1     -19.816  -5.198   4.581  1.00  0.00     0.040 A 
ATOM     99  C   UNL     1     -21.057  -3.176   4.844  1.00  0.00     0.040 A 
ATOM    100  F   UNL     1     -20.909  -1.468   3.295  1.00  0.00    -0.206 F 
ATOM    101  C   UNL     1     -20.723  -4.439   5.306  1.00  0.00     0.006 A 
ENDBRANCH  77  94
ENDBRANCH  51  52
ENDBRANCH  44  46
ENDBRANCH  43  44
ENDBRANCH  42  43
ENDBRANCH  41  42
ENDBRANCH   1  41
TORSDOF 18
