REMARK SMILES C=CCCC[C@@]1(C(=O)OCCOC(=O)c2ccc(-c3c4nc(c(-c5c(F)cccc5F)c5ccc([nH]5)c(-c5c(F)cccc5F)c5nc(c(-c6c(F)cccc6F)c6ccc3[nH]6)C=C5)C=C4)cc2)CCCN(C(=O)OC(C)(C)C)C1
REMARK SMILES IDX 10 1 9 2 7 3 8 4 6 5 69 6 80 7 70 8 72 9 71 10 5 11 4 12
REMARK SMILES IDX 3 13 2 14 1 15 73 16 74 17 75 18 76 19 77 20 78 21 79 22
REMARK SMILES IDX 11 23 12 24 13 25 14 26 15 27 16 28 68 29 17 30 67 31 18 32
REMARK SMILES IDX 19 33 20 34 61 35 21 36 66 37 60 38 62 39 22 40 65 41 59 42
REMARK SMILES IDX 58 43 23 45 49 46 32 47 48 48 33 49 36 50 47 51 63 52 34 53
REMARK SMILES IDX 35 54 46 56 64 57 37 58 24 59 25 60 30 61 26 62 27 63 29 64
REMARK SMILES IDX 31 65 28 66 50 67 51 68 56 69 52 70 53 71 55 72 57 73 54 74
REMARK SMILES IDX 38 75 39 76 44 77 40 78 41 79 43 80 45 81 42 82
REMARK H PARENT 62 44 36 55
REMARK Flexibility Score: inf
ROOT
ATOM      1  C   UNL     1       0.457  -2.920  -1.399  1.00  0.00     0.274 C 
ENDROOT
BRANCH   1   2
ATOM      2  O   UNL     1       0.149  -3.562  -0.139  1.00  0.00    -0.462 OA
BRANCH   2   3
ATOM      3  C   UNL     1      -1.053  -3.237   0.401  1.00  0.00     0.314 C 
ATOM      4  O   UNL     1      -1.857  -2.523  -0.197  1.00  0.00    -0.252 OA
BRANCH   3   5
ATOM      5  C   UNL     1      -1.307  -3.772   1.845  1.00  0.00     0.086 C 
ATOM      6  C   UNL     1      -0.046  -3.584   2.715  1.00  0.00     0.022 C 
ATOM      7  C   UNL     1      -1.741  -5.254   1.871  1.00  0.00     0.141 C 
ATOM      8  C   UNL     1       1.044  -4.642   2.477  1.00  0.00     0.023 C 
ATOM      9  N   UNL     1      -0.677  -6.223   1.659  1.00  0.00    -0.307 N 
ATOM     10  C   UNL     1       0.510  -6.070   2.487  1.00  0.00     0.123 C 
BRANCH   5  11
ATOM     11  C   UNL     1      -2.501  -2.862   2.348  1.00  0.00     0.021 C 
BRANCH  11  12
ATOM     12  C   UNL     1      -3.298  -3.180   3.622  1.00  0.00     0.005 C 
BRANCH  12  13
ATOM     13  C   UNL     1      -2.718  -2.714   4.956  1.00  0.00     0.027 C 
BRANCH  13  14
ATOM     14  C   UNL     1      -2.518  -1.227   5.032  1.00  0.00    -0.035 C 
ATOM     15  C   UNL     1      -3.198  -0.422   5.859  1.00  0.00     0.004 C 
ENDBRANCH  13  14
ENDBRANCH  12  13
ENDBRANCH  11  12
ENDBRANCH   5  11
BRANCH   9  16
ATOM     16  C   UNL     1      -0.947  -7.374   0.916  1.00  0.00     0.410 C 
ATOM     17  O   UNL     1      -2.060  -7.637   0.471  1.00  0.00    -0.224 OA
BRANCH  16  18
ATOM     18  O   UNL     1       0.146  -8.162   0.739  1.00  0.00    -0.444 OA
BRANCH  18  19
ATOM     19  C   UNL     1       0.159  -9.252  -0.228  1.00  0.00     0.106 C 
ATOM     20  C   UNL     1      -0.971 -10.268  -0.028  1.00  0.00     0.056 C 
ATOM     21  C   UNL     1       0.151  -8.722  -1.665  1.00  0.00     0.056 C 
ATOM     22  C   UNL     1       1.504  -9.955   0.000  1.00  0.00     0.056 C 
ENDBRANCH  18  19
ENDBRANCH  16  18
ENDBRANCH   9  16
ENDBRANCH   3   5
ENDBRANCH   2   3
ENDBRANCH   1   2
BRANCH   1  23
ATOM     23  C   UNL     1       0.134  -3.775  -2.630  1.00  0.00     0.275 C 
BRANCH  23  24
ATOM     24  O   UNL     1      -1.259  -4.138  -2.700  1.00  0.00    -0.458 OA
BRANCH  24  25
ATOM     25  C   UNL     1      -1.507  -5.310  -2.076  1.00  0.00     0.338 C 
ATOM     26  O   UNL     1      -0.665  -5.999  -1.531  1.00  0.00    -0.246 OA
BRANCH  25  27
ATOM     27  C   UNL     1      -2.932  -5.667  -2.049  1.00  0.00     0.060 A 
ATOM     28  C   UNL     1      -3.747  -5.079  -1.085  1.00  0.00     0.016 A 
ATOM     29  C   UNL     1      -3.396  -6.757  -2.785  1.00  0.00     0.016 A 
ATOM     30  C   UNL     1      -4.985  -5.632  -0.783  1.00  0.00     0.010 A 
ATOM     31  C   UNL     1      -4.691  -7.241  -2.562  1.00  0.00     0.010 A 
ATOM     32  C   UNL     1      -5.491  -6.693  -1.545  1.00  0.00    -0.014 A 
BRANCH  32  33
ATOM     33  C   UNL     1      -6.881  -7.163  -1.318  1.00  0.00     0.031 A 
ATOM     34  C   UNL     1      -7.172  -8.576  -0.905  1.00  0.00     0.074 A 
ATOM     35  C   UNL     1      -7.895  -6.294  -1.506  1.00  0.00     0.049 A 
ATOM     36  N   UNL     1      -8.324  -9.198  -0.856  1.00  0.00    -0.248 NA
ATOM     37  C   UNL     1      -6.025  -9.401  -0.496  1.00  0.00     0.031 C 
ATOM     38  C   UNL     1      -7.741  -4.880  -1.861  1.00  0.00     0.029 A 
ATOM     39  N   UNL     1      -9.253  -6.469  -1.432  1.00  0.00    -0.354 N 
ATOM     40  C   UNL     1      -8.040 -10.497  -0.457  1.00  0.00     0.074 A 
ATOM     41  C   UNL     1      -6.605 -10.574  -0.268  1.00  0.00     0.031 C 
ATOM     42  C   UNL     1      -8.950  -4.314  -1.957  1.00  0.00     0.029 A 
ATOM     43  C   UNL     1      -9.964  -5.343  -1.767  1.00  0.00     0.049 A 
ATOM     44  H   UNL     1      -9.676  -7.317  -1.166  1.00  0.00     0.167 HD
ATOM     45  C   UNL     1      -8.903 -11.527  -0.274  1.00  0.00     0.037 A 
ATOM     46  C   UNL     1     -11.282  -5.162  -1.965  1.00  0.00     0.037 A 
ATOM     47  C   UNL     1     -10.334 -11.426  -0.430  1.00  0.00     0.049 A 
ATOM     48  C   UNL     1     -12.207  -6.329  -1.813  1.00  0.00     0.074 A 
ATOM     49  C   UNL     1     -11.294 -12.407  -0.247  1.00  0.00     0.029 A 
ATOM     50  N   UNL     1     -11.010 -10.273  -0.802  1.00  0.00    -0.354 N 
ATOM     51  N   UNL     1     -11.924  -7.565  -1.481  1.00  0.00    -0.248 NA
ATOM     52  C   UNL     1     -13.629  -6.084  -2.083  1.00  0.00     0.031 C 
ATOM     53  C   UNL     1     -12.546 -11.858  -0.545  1.00  0.00     0.029 A 
ATOM     54  C   UNL     1     -12.371 -10.524  -0.874  1.00  0.00     0.049 A 
ATOM     55  H   UNL     1     -10.585  -9.405  -0.988  1.00  0.00     0.167 HD
ATOM     56  C   UNL     1     -13.132  -8.245  -1.491  1.00  0.00     0.074 A 
ATOM     57  C   UNL     1     -14.153  -7.279  -1.846  1.00  0.00     0.031 C 
ATOM     58  C   UNL     1     -13.373  -9.553  -1.233  1.00  0.00     0.037 A 
BRANCH  45  59
ATOM     59  C   UNL     1      -8.327 -12.868   0.078  1.00  0.00     0.057 A 
ATOM     60  C   UNL     1      -7.832 -13.157   1.354  1.00  0.00     0.134 A 
ATOM     61  C   UNL     1      -8.325 -13.905  -0.865  1.00  0.00     0.134 A 
ATOM     62  F   UNL     1      -7.801 -12.209   2.303  1.00  0.00    -0.206 F 
ATOM     63  C   UNL     1      -7.339 -14.424   1.676  1.00  0.00     0.040 A 
ATOM     64  C   UNL     1      -7.856 -15.181  -0.550  1.00  0.00     0.040 A 
ATOM     65  F   UNL     1      -8.796 -13.700  -2.105  1.00  0.00    -0.206 F 
ATOM     66  C   UNL     1      -7.356 -15.443   0.724  1.00  0.00     0.006 A 
ENDBRANCH  45  59
BRANCH  46  67
ATOM     67  C   UNL     1     -11.780  -3.830  -2.386  1.00  0.00     0.057 A 
ATOM     68  C   UNL     1     -12.521  -3.027  -1.516  1.00  0.00     0.134 A 
ATOM     69  C   UNL     1     -11.489  -3.315  -3.656  1.00  0.00     0.134 A 
ATOM     70  F   UNL     1     -12.845  -3.475  -0.294  1.00  0.00    -0.206 F 
ATOM     71  C   UNL     1     -12.959  -1.756  -1.893  1.00  0.00     0.040 A 
ATOM     72  C   UNL     1     -11.897  -2.037  -4.037  1.00  0.00     0.040 A 
ATOM     73  F   UNL     1     -10.775  -4.036  -4.533  1.00  0.00    -0.206 F 
ATOM     74  C   UNL     1     -12.638  -1.255  -3.154  1.00  0.00     0.006 A 
ENDBRANCH  46  67
BRANCH  58  75
ATOM     75  C   UNL     1     -14.800 -10.001  -1.302  1.00  0.00     0.057 A 
ATOM     76  C   UNL     1     -15.457 -10.181  -2.526  1.00  0.00     0.134 A 
ATOM     77  C   UNL     1     -15.520 -10.271  -0.132  1.00  0.00     0.134 A 
ATOM     78  F   UNL     1     -14.826  -9.920  -3.680  1.00  0.00    -0.206 F 
ATOM     79  C   UNL     1     -16.788 -10.596  -2.582  1.00  0.00     0.040 A 
ATOM     80  C   UNL     1     -16.845 -10.706  -0.176  1.00  0.00     0.040 A 
ATOM     81  F   UNL     1     -14.947 -10.119   1.071  1.00  0.00    -0.206 F 
ATOM     82  C   UNL     1     -17.484 -10.865  -1.405  1.00  0.00     0.006 A 
ENDBRANCH  58  75
ENDBRANCH  32  33
ENDBRANCH  25  27
ENDBRANCH  24  25
ENDBRANCH  23  24
ENDBRANCH   1  23
TORSDOF 18
