REMARK SMILES Cc1cccc(-n2ncc(C(=O)Nc3cccc(C(=O)OCCOC(=O)c4ccc(-c5c6nc(c(-c7c(F)cccc7F)c7ccc([nH]7)c(-c7c(F)cccc7F)c7nc(c(-c8c(F)cccc8F)c8ccc5[nH]8)C=C7)C=C6)cc4)c3C)c2C)c1
REMARK SMILES IDX 22 1 21 2 19 3 20 4 18 5 14 6 15 7 81 8 16 9 82 10 17 11
REMARK SMILES IDX 13 12 11 13 12 14 10 16 7 17 8 18 83 19 9 20 84 21 6 22 1 23
REMARK SMILES IDX 2 24 3 25 85 26 4 27 5 28 23 29 24 30 25 31 26 32 27 33
REMARK SMILES IDX 28 34 80 35 29 36 79 37 30 38 31 39 32 40 73 41 33 42 78 43
REMARK SMILES IDX 72 44 74 45 34 46 77 47 71 48 70 49 35 51 61 52 44 53 60 54
REMARK SMILES IDX 45 55 48 56 59 57 75 58 46 59 47 60 58 62 76 63 49 64 36 65
REMARK SMILES IDX 37 66 42 67 38 68 39 69 41 70 43 71 40 72 62 73 63 74 68 75
REMARK SMILES IDX 64 76 65 77 67 78 69 79 66 80 50 81 51 82 56 83 52 84 53 85
REMARK SMILES IDX 55 86 57 87 54 88
REMARK H PARENT 13 15 74 50 48 61
REMARK Flexibility Score: inf
ROOT
ATOM      1  C   UNL     1      -2.928  11.064  -4.188  1.00  0.00     0.275 C 
ENDROOT
BRANCH   1   2
ATOM      2  O   UNL     1      -3.101   9.885  -3.389  1.00  0.00    -0.458 OA
BRANCH   2   3
ATOM      3  C   UNL     1      -4.334   9.522  -2.978  1.00  0.00     0.338 C 
ATOM      4  O   UNL     1      -5.354  10.189  -3.040  1.00  0.00    -0.246 OA
BRANCH   3   5
ATOM      5  C   UNL     1      -4.275   8.105  -2.534  1.00  0.00     0.065 A 
ATOM      6  C   UNL     1      -4.571   6.259  -0.982  1.00  0.00     0.045 A 
ATOM      7  C   UNL     1      -4.245   5.367  -2.011  1.00  0.00     0.026 A 
ATOM      8  C   UNL     1      -4.684   7.644  -1.260  1.00  0.00    -0.013 A 
ATOM      9  C   UNL     1      -3.851   5.832  -3.261  1.00  0.00     0.003 A 
ATOM     10  C   UNL     1      -5.184   8.572  -0.182  1.00  0.00     0.047 C 
ATOM     11  C   UNL     1      -3.830   7.197  -3.509  1.00  0.00     0.016 A 
BRANCH   6  12
ATOM     12  N   UNL     1      -4.806   5.794   0.328  1.00  0.00    -0.322 N 
ATOM     13  C   UNL     1      -4.329   4.698   1.020  1.00  0.00     0.259 C 
ATOM     14  O   UNL     1      -4.905   4.405   2.071  1.00  0.00    -0.269 OA
ATOM     15  H   UNL     1      -5.427   6.355   0.846  1.00  0.00     0.170 HD
BRANCH  13  16
ATOM     16  C   UNL     1      -3.141   3.973   0.582  1.00  0.00     0.081 A 
ATOM     17  N   UNL     1      -1.626   2.370   0.264  1.00  0.00    -0.237 N 
ATOM     18  N   UNL     1      -1.120   3.457  -0.368  1.00  0.00    -0.175 NA
ATOM     19  C   UNL     1      -2.750   2.703   1.004  1.00  0.00     0.054 A 
ATOM     20  C   UNL     1      -2.039   4.401  -0.189  1.00  0.00     0.149 A 
ATOM     21  C   UNL     1      -3.284   1.890   2.134  1.00  0.00     0.068 C 
BRANCH  17  22
ATOM     22  C   UNL     1      -0.973   1.117   0.134  1.00  0.00     0.065 A 
ATOM     23  C   UNL     1       2.604  -0.147  -0.131  1.00  0.00     0.044 C 
ATOM     24  C   UNL     1       1.106  -0.122  -0.075  1.00  0.00    -0.049 A 
ATOM     25  C   UNL     1       0.379  -1.318  -0.029  1.00  0.00     0.003 A 
ATOM     26  C   UNL     1       0.418   1.096  -0.033  1.00  0.00     0.031 A 
ATOM     27  C   UNL     1      -1.013  -1.299   0.074  1.00  0.00     0.002 A 
ATOM     28  C   UNL     1      -1.692  -0.083   0.167  1.00  0.00     0.028 A 
ENDBRANCH  17  22
ENDBRANCH  13  16
ENDBRANCH   6  12
ENDBRANCH   3   5
ENDBRANCH   2   3
ENDBRANCH   1   2
BRANCH   1  29
ATOM     29  C   UNL     1      -3.420  12.449  -3.708  1.00  0.00     0.275 C 
BRANCH  29  30
ATOM     30  O   UNL     1      -4.048  12.644  -2.411  1.00  0.00    -0.458 OA
BRANCH  30  31
ATOM     31  C   UNL     1      -3.643  12.247  -1.183  1.00  0.00     0.338 C 
ATOM     32  O   UNL     1      -4.327  12.354  -0.175  1.00  0.00    -0.246 OA
BRANCH  31  33
ATOM     33  C   UNL     1      -2.349  11.578  -1.123  1.00  0.00     0.060 A 
ATOM     34  C   UNL     1      -2.264  10.336  -0.475  1.00  0.00     0.016 A 
ATOM     35  C   UNL     1      -1.283  12.120  -1.826  1.00  0.00     0.016 A 
ATOM     36  C   UNL     1      -1.122   9.576  -0.590  1.00  0.00     0.010 A 
ATOM     37  C   UNL     1      -0.219  11.311  -2.093  1.00  0.00     0.010 A 
ATOM     38  C   UNL     1      -0.115  10.101  -1.388  1.00  0.00    -0.014 A 
BRANCH  38  39
ATOM     39  C   UNL     1       1.261   9.715  -1.197  1.00  0.00     0.031 A 
ATOM     40  C   UNL     1       1.772   8.554  -1.912  1.00  0.00     0.074 A 
ATOM     41  C   UNL     1       1.899  10.641  -0.446  1.00  0.00     0.049 A 
ATOM     42  N   UNL     1       2.714   7.800  -1.480  1.00  0.00    -0.248 NA
ATOM     43  C   UNL     1       1.179   8.069  -3.160  1.00  0.00     0.031 C 
ATOM     44  C   UNL     1       3.291  10.955  -0.222  1.00  0.00     0.029 A 
ATOM     45  N   UNL     1       1.225  11.517   0.427  1.00  0.00    -0.354 N 
ATOM     46  C   UNL     1       3.148   7.086  -2.576  1.00  0.00     0.074 A 
ATOM     47  C   UNL     1       2.034   7.093  -3.492  1.00  0.00     0.031 C 
ATOM     48  C   UNL     1       3.378  11.690   0.910  1.00  0.00     0.029 A 
ATOM     49  C   UNL     1       2.050  11.754   1.520  1.00  0.00     0.049 A 
ATOM     50  H   UNL     1       0.327  11.896   0.288  1.00  0.00     0.167 HD
ATOM     51  C   UNL     1       4.488   6.848  -2.690  1.00  0.00     0.037 A 
ATOM     52  C   UNL     1       1.647  11.157   2.684  1.00  0.00     0.037 A 
ATOM     53  C   UNL     1       5.182   7.439  -1.533  1.00  0.00     0.049 A 
ATOM     54  C   UNL     1       2.470   9.915   2.977  1.00  0.00     0.074 A 
ATOM     55  C   UNL     1       5.845   8.641  -1.337  1.00  0.00     0.029 A 
ATOM     56  N   UNL     1       4.869   6.979  -0.266  1.00  0.00    -0.354 N 
ATOM     57  N   UNL     1       3.313   9.372   2.138  1.00  0.00    -0.248 NA
ATOM     58  C   UNL     1       2.354   9.156   4.217  1.00  0.00     0.031 C 
ATOM     59  C   UNL     1       5.886   8.904   0.070  1.00  0.00     0.029 A 
ATOM     60  C   UNL     1       5.241   7.870   0.725  1.00  0.00     0.049 A 
ATOM     61  H   UNL     1       4.431   6.115  -0.089  1.00  0.00     0.167 HD
ATOM     62  C   UNL     1       3.882   8.269   2.699  1.00  0.00     0.074 A 
ATOM     63  C   UNL     1       3.197   8.139   3.978  1.00  0.00     0.031 C 
ATOM     64  C   UNL     1       4.877   7.548   2.099  1.00  0.00     0.037 A 
BRANCH  51  65
ATOM     65  C   UNL     1       5.197   6.418  -3.959  1.00  0.00     0.057 A 
ATOM     66  C   UNL     1       6.572   6.677  -4.125  1.00  0.00     0.134 A 
ATOM     67  C   UNL     1       4.604   5.758  -5.053  1.00  0.00     0.134 A 
ATOM     68  F   UNL     1       7.311   7.212  -3.144  1.00  0.00    -0.206 F 
ATOM     69  C   UNL     1       7.274   6.392  -5.304  1.00  0.00     0.040 A 
ATOM     70  C   UNL     1       5.286   5.497  -6.254  1.00  0.00     0.040 A 
ATOM     71  F   UNL     1       3.357   5.280  -5.002  1.00  0.00    -0.206 F 
ATOM     72  C   UNL     1       6.626   5.822  -6.387  1.00  0.00     0.006 A 
ENDBRANCH  51  65
BRANCH  52  73
ATOM     73  C   UNL     1       0.163  11.288   2.942  1.00  0.00     0.057 A 
ATOM     74  C   UNL     1      -0.441  12.564   2.863  1.00  0.00     0.134 A 
ATOM     75  C   UNL     1      -0.716  10.200   2.989  1.00  0.00     0.134 A 
ATOM     76  F   UNL     1       0.319  13.671   2.824  1.00  0.00    -0.206 F 
ATOM     77  C   UNL     1      -1.823  12.738   2.720  1.00  0.00     0.040 A 
ATOM     78  C   UNL     1      -2.107  10.365   2.889  1.00  0.00     0.040 A 
ATOM     79  F   UNL     1      -0.257   8.943   3.043  1.00  0.00    -0.206 F 
ATOM     80  C   UNL     1      -2.661  11.631   2.714  1.00  0.00     0.006 A 
ENDBRANCH  52  73
BRANCH  64  81
ATOM     81  C   UNL     1       5.579   6.422   2.804  1.00  0.00     0.057 A 
ATOM     82  C   UNL     1       5.885   6.476   4.170  1.00  0.00     0.134 A 
ATOM     83  C   UNL     1       6.059   5.284   2.125  1.00  0.00     0.134 A 
ATOM     84  F   UNL     1       5.639   7.576   4.897  1.00  0.00    -0.206 F 
ATOM     85  C   UNL     1       6.482   5.408   4.843  1.00  0.00     0.040 A 
ATOM     86  C   UNL     1       6.715   4.241   2.773  1.00  0.00     0.040 A 
ATOM     87  F   UNL     1       5.910   5.113   0.805  1.00  0.00    -0.206 F 
ATOM     88  C   UNL     1       6.894   4.282   4.145  1.00  0.00     0.006 A 
ENDBRANCH  64  81
ENDBRANCH  38  39
ENDBRANCH  31  33
ENDBRANCH  30  31
ENDBRANCH  29  30
ENDBRANCH   1  29
TORSDOF 14
