REMARK SMILES C[NH2+]C[C@@H](C)C(=O)Nc1ccc(Cl)cc1C(=O)OCCOC(=O)c1ccc(-c2c3nc(c(-c4c(F)cccc4F)c4ccc([nH]4)c(-c4c(F)cccc4F)c4nc(c(-c5c(F)cccc5F)c5ccc2[nH]5)C=C4)C=C3)cc1
REMARK SMILES IDX 19 1 18 2 16 3 17 4 15 5 9 6 10 7 11 8 14 9 12 10 13 11 8 12
REMARK SMILES IDX 6 13 7 14 4 16 5 17 3 18 2 19 1 20 20 23 21 24 22 25 23 26
REMARK SMILES IDX 24 27 25 28 77 29 26 30 76 31 27 32 28 33 29 34 70 35 30 36
REMARK SMILES IDX 75 37 69 38 71 39 31 40 74 41 68 42 67 43 32 45 58 46 41 47
REMARK SMILES IDX 57 48 42 49 45 50 56 51 72 52 43 53 44 54 55 56 73 57 46 58
REMARK SMILES IDX 33 59 34 60 39 61 35 62 36 63 38 64 40 65 37 66 59 67 60 68
REMARK SMILES IDX 65 69 61 70 62 71 64 72 66 73 63 74 47 75 48 76 53 77 49 78
REMARK SMILES IDX 50 79 52 80 54 81 51 82
REMARK H PARENT 8 15 2 21 2 22 71 44 45 55
REMARK Flexibility Score: inf
ROOT
ATOM      1  C   UNL     1      -6.124   2.903   3.542  1.00  0.00     0.275 C 
ENDROOT
BRANCH   1   2
ATOM      2  O   UNL     1      -4.918   2.993   2.747  1.00  0.00    -0.458 OA
BRANCH   2   3
ATOM      3  C   UNL     1      -4.746   4.159   2.084  1.00  0.00     0.340 C 
ATOM      4  O   UNL     1      -5.507   5.117   2.112  1.00  0.00    -0.246 OA
BRANCH   3   5
ATOM      5  C   UNL     1      -3.514   4.203   1.262  1.00  0.00     0.085 A 
ATOM      6  C   UNL     1      -3.121   3.178   0.403  1.00  0.00     0.055 A 
ATOM      7  C   UNL     1      -2.240   3.484  -0.639  1.00  0.00     0.028 A 
ATOM      8  C   UNL     1      -1.524   4.682  -0.651  1.00  0.00     0.023 A 
ATOM      9  C   UNL     1      -2.771   5.395   1.264  1.00  0.00     0.038 A 
ATOM     10  C   UNL     1      -1.743   5.605   0.354  1.00  0.00     0.042 A 
ATOM     11  Cl  UNL     1      -0.780   7.023   0.462  1.00  0.00    -0.084 Cl
BRANCH   6  12
ATOM     12  N   UNL     1      -3.589   1.868   0.544  1.00  0.00    -0.325 N 
ATOM     13  C   UNL     1      -2.867   0.724   0.773  1.00  0.00     0.232 C 
ATOM     14  O   UNL     1      -3.514  -0.329   0.847  1.00  0.00    -0.274 OA
ATOM     15  H   UNL     1      -4.564   1.751   0.469  1.00  0.00     0.169 HD
BRANCH  13  16
ATOM     16  C   UNL     1      -1.354   0.697   1.097  1.00  0.00     0.130 C 
ATOM     17  C   UNL     1      -1.052   1.444   2.398  1.00  0.00     0.024 C 
BRANCH  16  18
ATOM     18  C   UNL     1      -0.423   1.097  -0.055  1.00  0.00     0.273 C 
BRANCH  18  19
ATOM     19  N   UNL     1       1.008   0.815   0.081  1.00  0.00    -0.348 N 
ATOM     20  C   UNL     1       1.333  -0.595   0.007  1.00  0.00     0.330 C 
ATOM     21  H   UNL     1       1.504   1.300  -0.668  1.00  0.00     0.346 HD
ATOM     22  H   UNL     1       1.289   1.139   1.006  1.00  0.00     0.346 HD
ENDBRANCH  18  19
ENDBRANCH  16  18
ENDBRANCH  13  16
ENDBRANCH   6  12
ENDBRANCH   3   5
ENDBRANCH   2   3
ENDBRANCH   1   2
BRANCH   1  23
ATOM     23  C   UNL     1      -5.858   3.140   5.030  1.00  0.00     0.275 C 
BRANCH  23  24
ATOM     24  O   UNL     1      -5.519   4.515   5.293  1.00  0.00    -0.458 OA
BRANCH  24  25
ATOM     25  C   UNL     1      -4.193   4.758   5.377  1.00  0.00     0.338 C 
ATOM     26  O   UNL     1      -3.282   3.954   5.267  1.00  0.00    -0.246 OA
BRANCH  25  27
ATOM     27  C   UNL     1      -3.934   6.199   5.499  1.00  0.00     0.060 A 
ATOM     28  C   UNL     1      -3.856   6.927   4.322  1.00  0.00     0.016 A 
ATOM     29  C   UNL     1      -3.517   6.768   6.696  1.00  0.00     0.016 A 
ATOM     30  C   UNL     1      -3.184   8.140   4.289  1.00  0.00     0.010 A 
ATOM     31  C   UNL     1      -2.999   8.071   6.689  1.00  0.00     0.010 A 
ATOM     32  C   UNL     1      -2.773   8.753   5.476  1.00  0.00    -0.014 A 
BRANCH  32  33
ATOM     33  C   UNL     1      -2.096  10.083   5.431  1.00  0.00     0.031 A 
ATOM     34  C   UNL     1      -0.761  10.284   6.102  1.00  0.00     0.074 A 
ATOM     35  C   UNL     1      -2.663  11.112   4.767  1.00  0.00     0.049 A 
ATOM     36  N   UNL     1      -0.113  11.397   6.342  1.00  0.00    -0.248 NA
ATOM     37  C   UNL     1      -0.071   9.077   6.585  1.00  0.00     0.031 C 
ATOM     38  C   UNL     1      -3.922  11.055   4.019  1.00  0.00     0.029 A 
ATOM     39  N   UNL     1      -2.249  12.412   4.603  1.00  0.00    -0.354 N 
ATOM     40  C   UNL     1       1.023  11.031   7.057  1.00  0.00     0.074 A 
ATOM     41  C   UNL     1       0.969   9.595   7.223  1.00  0.00     0.031 C 
ATOM     42  C   UNL     1      -4.147  12.238   3.434  1.00  0.00     0.029 A 
ATOM     43  C   UNL     1      -3.121  13.176   3.864  1.00  0.00     0.049 A 
ATOM     44  H   UNL     1      -1.409  12.762   4.979  1.00  0.00     0.167 HD
ATOM     45  C   UNL     1       2.016  11.822   7.530  1.00  0.00     0.037 A 
ATOM     46  C   UNL     1      -3.135  14.496   3.605  1.00  0.00     0.037 A 
ATOM     47  C   UNL     1       2.087  13.246   7.313  1.00  0.00     0.049 A 
ATOM     48  C   UNL     1      -2.060  15.361   4.191  1.00  0.00     0.074 A 
ATOM     49  C   UNL     1       3.056  14.137   7.739  1.00  0.00     0.029 A 
ATOM     50  N   UNL     1       1.155  13.983   6.597  1.00  0.00    -0.354 N 
ATOM     51  N   UNL     1      -1.026  15.015   4.918  1.00  0.00    -0.248 NA
ATOM     52  C   UNL     1      -2.165  16.804   3.941  1.00  0.00     0.031 C 
ATOM     53  C   UNL     1       2.685  15.421   7.323  1.00  0.00     0.029 A 
ATOM     54  C   UNL     1       1.515  15.322   6.587  1.00  0.00     0.049 A 
ATOM     55  H   UNL     1       0.355  13.611   6.160  1.00  0.00     0.167 HD
ATOM     56  C   UNL     1      -0.345  16.192   5.195  1.00  0.00     0.074 A 
ATOM     57  C   UNL     1      -1.075  17.259   4.542  1.00  0.00     0.031 C 
ATOM     58  C   UNL     1       0.781  16.372   5.927  1.00  0.00     0.037 A 
BRANCH  45  59
ATOM     59  C   UNL     1       3.084  11.174   8.367  1.00  0.00     0.057 A 
ATOM     60  C   UNL     1       4.034  10.296   7.829  1.00  0.00     0.134 A 
ATOM     61  C   UNL     1       3.174  11.452   9.739  1.00  0.00     0.134 A 
ATOM     62  F   UNL     1       4.002   9.975   6.527  1.00  0.00    -0.206 F 
ATOM     63  C   UNL     1       5.009   9.693   8.628  1.00  0.00     0.040 A 
ATOM     64  C   UNL     1       4.163  10.880  10.541  1.00  0.00     0.040 A 
ATOM     65  F   UNL     1       2.304  12.291  10.322  1.00  0.00    -0.206 F 
ATOM     66  C   UNL     1       5.079   9.990   9.987  1.00  0.00     0.006 A 
ENDBRANCH  45  59
BRANCH  46  67
ATOM     67  C   UNL     1      -4.234  15.082   2.794  1.00  0.00     0.057 A 
ATOM     68  C   UNL     1      -3.988  15.623   1.527  1.00  0.00     0.134 A 
ATOM     69  C   UNL     1      -5.556  15.103   3.257  1.00  0.00     0.134 A 
ATOM     70  F   UNL     1      -2.741  15.652   1.036  1.00  0.00    -0.206 F 
ATOM     71  C   UNL     1      -5.014  16.172   0.755  1.00  0.00     0.040 A 
ATOM     72  C   UNL     1      -6.596  15.618   2.483  1.00  0.00     0.040 A 
ATOM     73  F   UNL     1      -5.862  14.596   4.461  1.00  0.00    -0.206 F 
ATOM     74  C   UNL     1      -6.325  16.161   1.230  1.00  0.00     0.006 A 
ENDBRANCH  46  67
BRANCH  58  75
ATOM     75  C   UNL     1       1.316  17.770   6.018  1.00  0.00     0.057 A 
ATOM     76  C   UNL     1       0.678  18.763   6.772  1.00  0.00     0.134 A 
ATOM     77  C   UNL     1       2.501  18.121   5.356  1.00  0.00     0.134 A 
ATOM     78  F   UNL     1      -0.469  18.496   7.415  1.00  0.00    -0.206 F 
ATOM     79  C   UNL     1       1.184  20.061   6.845  1.00  0.00     0.040 A 
ATOM     80  C   UNL     1       3.033  19.407   5.446  1.00  0.00     0.040 A 
ATOM     81  F   UNL     1       3.165  17.216   4.622  1.00  0.00    -0.206 F 
ATOM     82  C   UNL     1       2.369  20.384   6.186  1.00  0.00     0.006 A 
ENDBRANCH  58  75
ENDBRANCH  32  33
ENDBRANCH  25  27
ENDBRANCH  24  25
ENDBRANCH  23  24
ENDBRANCH   1  23
TORSDOF 15
