REMARK SMILES Cn1ncc(C(=O)OCCOC(=O)c2ccc(-c3c4nc(c(-c5c(F)cccc5F)c5ccc([nH]5)c(-c5c(F)cccc5F)c5nc(c(-c6c(F)cccc6F)c6ccc3[nH]6)C=C5)C=C4)cc2)c1C(=O)Nc1nccc(-c2ccc(OC(F)F)cc2)n1
REMARK SMILES IDX 8 1 6 2 7 3 5 4 1 5 2 6 3 7 68 8 4 9 69 10 70 11 71 12 72 14
REMARK SMILES IDX 73 15 87 16 74 17 76 18 75 19 77 20 78 21 86 22 79 23 85 24
REMARK SMILES IDX 80 25 81 26 82 27 83 28 84 29 9 30 10 31 11 32 12 33 13 34
REMARK SMILES IDX 14 35 15 36 67 37 16 38 66 39 17 40 18 41 19 42 60 43 20 44
REMARK SMILES IDX 65 45 59 46 61 47 21 48 64 49 58 50 57 51 22 53 48 54 31 55
REMARK SMILES IDX 47 56 32 57 35 58 46 59 62 60 33 61 34 62 45 64 63 65 36 66
REMARK SMILES IDX 23 67 24 68 29 69 25 70 26 71 28 72 30 73 27 74 49 75 50 76
REMARK SMILES IDX 55 77 51 78 52 79 54 80 56 81 53 82 37 83 38 84 43 85 39 86
REMARK SMILES IDX 40 87 42 88 44 89 41 90
REMARK H PARENT 71 13 61 52 35 63
REMARK Flexibility Score: inf
ROOT
ATOM      1  O   UNL     1       2.463  -2.772  -0.308  1.00  0.00    -0.458 OA
ENDROOT
BRANCH   1   2
ATOM      2  C   UNL     1       2.382  -1.732   0.564  1.00  0.00     0.342 C 
ATOM      3  O   UNL     1       3.270  -1.430   1.357  1.00  0.00    -0.246 OA
BRANCH   2   4
ATOM      4  C   UNL     1       1.202  -0.894   0.427  1.00  0.00     0.111 A 
ATOM      5  C   UNL     1      -1.901   0.210   1.518  1.00  0.00     0.174 C 
ATOM      6  N   UNL     1      -0.782  -0.028   0.634  1.00  0.00    -0.262 N 
ATOM      7  N   UNL     1       0.007   1.045   0.456  1.00  0.00    -0.180 NA
ATOM      8  C   UNL     1      -0.158  -1.232   0.336  1.00  0.00     0.140 A 
ATOM      9  C   UNL     1       1.218   0.515   0.514  1.00  0.00     0.151 A 
BRANCH   8  10
ATOM     10  C   UNL     1      -0.726  -2.568   0.258  1.00  0.00     0.277 C 
ATOM     11  O   UNL     1      -0.028  -3.567   0.458  1.00  0.00    -0.267 OA
ATOM     12  N   UNL     1      -2.059  -2.828   0.105  1.00  0.00    -0.289 N 
ATOM     13  H   UNL     1      -2.299  -3.769   0.266  1.00  0.00     0.173 HD
BRANCH  12  14
ATOM     14  C   UNL     1      -3.133  -2.034  -0.230  1.00  0.00     0.230 A 
ATOM     15  N   UNL     1      -4.249  -2.341   0.447  1.00  0.00    -0.221 NA
ATOM     16  N   UNL     1      -3.000  -0.970  -1.022  1.00  0.00    -0.213 NA
ATOM     17  C   UNL     1      -5.246  -1.441   0.406  1.00  0.00     0.117 A 
ATOM     18  C   UNL     1      -4.049  -0.116  -1.094  1.00  0.00     0.076 A 
ATOM     19  C   UNL     1      -5.197  -0.296  -0.348  1.00  0.00     0.049 A 
BRANCH  18  20
ATOM     20  C   UNL     1      -3.820   1.092  -1.893  1.00  0.00     0.001 A 
ATOM     21  C   UNL     1      -3.573   1.017  -3.269  1.00  0.00     0.014 A 
ATOM     22  C   UNL     1      -3.787   2.358  -1.287  1.00  0.00     0.014 A 
ATOM     23  C   UNL     1      -3.298   2.172  -4.010  1.00  0.00     0.047 A 
ATOM     24  C   UNL     1      -3.492   3.510  -2.024  1.00  0.00     0.047 A 
ATOM     25  C   UNL     1      -3.248   3.425  -3.392  1.00  0.00     0.126 A 
BRANCH  25  26
ATOM     26  O   UNL     1      -2.944   4.465  -4.223  1.00  0.00    -0.435 OA
BRANCH  26  27
ATOM     27  C   UNL     1      -2.903   5.775  -3.671  1.00  0.00     0.542 C 
ATOM     28  F   UNL     1      -4.102   6.080  -3.114  1.00  0.00    -0.167 F 
ATOM     29  F   UNL     1      -1.956   5.846  -2.705  1.00  0.00    -0.167 F 
ENDBRANCH  26  27
ENDBRANCH  25  26
ENDBRANCH  18  20
ENDBRANCH  12  14
ENDBRANCH   8  10
ENDBRANCH   2   4
ENDBRANCH   1   2
BRANCH   1  30
ATOM     30  C   UNL     1       3.671  -3.557  -0.231  1.00  0.00     0.275 C 
BRANCH  30  31
ATOM     31  C   UNL     1       4.593  -3.253  -1.412  1.00  0.00     0.275 C 
BRANCH  31  32
ATOM     32  O   UNL     1       5.065  -1.893  -1.351  1.00  0.00    -0.458 OA
BRANCH  32  33
ATOM     33  C   UNL     1       4.462  -1.042  -2.213  1.00  0.00     0.338 C 
ATOM     34  O   UNL     1       3.614  -1.303  -3.046  1.00  0.00    -0.246 OA
BRANCH  33  35
ATOM     35  C   UNL     1       4.906   0.336  -1.959  1.00  0.00     0.060 A 
ATOM     36  C   UNL     1       4.340   1.010  -0.887  1.00  0.00     0.016 A 
ATOM     37  C   UNL     1       5.694   1.026  -2.873  1.00  0.00     0.016 A 
ATOM     38  C   UNL     1       4.424   2.396  -0.799  1.00  0.00     0.010 A 
ATOM     39  C   UNL     1       5.903   2.402  -2.698  1.00  0.00     0.010 A 
ATOM     40  C   UNL     1       5.232   3.116  -1.686  1.00  0.00    -0.014 A 
BRANCH  40  41
ATOM     41  C   UNL     1       5.353   4.601  -1.562  1.00  0.00     0.031 A 
ATOM     42  C   UNL     1       5.068   5.494  -2.745  1.00  0.00     0.074 A 
ATOM     43  C   UNL     1       5.710   5.165  -0.388  1.00  0.00     0.049 A 
ATOM     44  N   UNL     1       5.308   6.773  -2.897  1.00  0.00    -0.248 NA
ATOM     45  C   UNL     1       4.447   4.862  -3.920  1.00  0.00     0.031 C 
ATOM     46  C   UNL     1       5.966   4.443   0.861  1.00  0.00     0.029 A 
ATOM     47  N   UNL     1       5.921   6.481  -0.050  1.00  0.00    -0.354 N 
ATOM     48  C   UNL     1       4.923   7.083  -4.197  1.00  0.00     0.074 A 
ATOM     49  C   UNL     1       4.447   5.855  -4.797  1.00  0.00     0.031 C 
ATOM     50  C   UNL     1       6.257   5.321   1.831  1.00  0.00     0.029 A 
ATOM     51  C   UNL     1       6.321   6.657   1.254  1.00  0.00     0.049 A 
ATOM     52  H   UNL     1       5.798   7.226  -0.681  1.00  0.00     0.167 HD
ATOM     53  C   UNL     1       4.963   8.281  -4.831  1.00  0.00     0.037 A 
ATOM     54  C   UNL     1       6.750   7.753   1.907  1.00  0.00     0.037 A 
ATOM     55  C   UNL     1       5.389   9.512  -4.213  1.00  0.00     0.049 A 
ATOM     56  C   UNL     1       6.846   9.055   1.166  1.00  0.00     0.074 A 
ATOM     57  C   UNL     1       5.444  10.780  -4.766  1.00  0.00     0.029 A 
ATOM     58  N   UNL     1       5.821   9.631  -2.901  1.00  0.00    -0.354 N 
ATOM     59  N   UNL     1       6.522   9.326  -0.075  1.00  0.00    -0.248 NA
ATOM     60  C   UNL     1       7.386  10.201   1.910  1.00  0.00     0.031 C 
ATOM     61  C   UNL     1       5.960  11.656  -3.806  1.00  0.00     0.029 A 
ATOM     62  C   UNL     1       6.170  10.946  -2.635  1.00  0.00     0.049 A 
ATOM     63  H   UNL     1       5.872   8.891  -2.253  1.00  0.00     0.167 HD
ATOM     64  C   UNL     1       6.798  10.674  -0.254  1.00  0.00     0.074 A 
ATOM     65  C   UNL     1       7.296  11.171   1.012  1.00  0.00     0.031 C 
ATOM     66  C   UNL     1       6.657  11.431  -1.369  1.00  0.00     0.037 A 
BRANCH  53  67
ATOM     67  C   UNL     1       4.571   8.319  -6.282  1.00  0.00     0.057 A 
ATOM     68  C   UNL     1       3.247   8.153  -6.708  1.00  0.00     0.134 A 
ATOM     69  C   UNL     1       5.536   8.571  -7.268  1.00  0.00     0.134 A 
ATOM     70  F   UNL     1       2.273   7.901  -5.821  1.00  0.00    -0.206 F 
ATOM     71  C   UNL     1       2.902   8.207  -8.061  1.00  0.00     0.040 A 
ATOM     72  C   UNL     1       5.199   8.658  -8.620  1.00  0.00     0.040 A 
ATOM     73  F   UNL     1       6.822   8.752  -6.933  1.00  0.00    -0.206 F 
ATOM     74  C   UNL     1       3.878   8.468  -9.021  1.00  0.00     0.006 A 
ENDBRANCH  53  67
BRANCH  54  75
ATOM     75  C   UNL     1       7.180   7.655   3.328  1.00  0.00     0.057 A 
ATOM     76  C   UNL     1       6.472   8.303   4.346  1.00  0.00     0.134 A 
ATOM     77  C   UNL     1       8.314   6.921   3.700  1.00  0.00     0.134 A 
ATOM     78  F   UNL     1       5.393   9.043   4.053  1.00  0.00    -0.206 F 
ATOM     79  C   UNL     1       6.885   8.240   5.679  1.00  0.00     0.040 A 
ATOM     80  C   UNL     1       8.718   6.820   5.032  1.00  0.00     0.040 A 
ATOM     81  F   UNL     1       9.038   6.274   2.775  1.00  0.00    -0.206 F 
ATOM     82  C   UNL     1       8.007   7.489   6.025  1.00  0.00     0.006 A 
ENDBRANCH  54  75
BRANCH  66  83
ATOM     83  C   UNL     1       7.005  12.887  -1.256  1.00  0.00     0.057 A 
ATOM     84  C   UNL     1       8.330  13.325  -1.130  1.00  0.00     0.134 A 
ATOM     85  C   UNL     1       6.003  13.864  -1.300  1.00  0.00     0.134 A 
ATOM     86  F   UNL     1       9.336  12.440  -1.065  1.00  0.00    -0.206 F 
ATOM     87  C   UNL     1       8.642  14.682  -1.026  1.00  0.00     0.040 A 
ATOM     88  C   UNL     1       6.305  15.224  -1.228  1.00  0.00     0.040 A 
ATOM     89  F   UNL     1       4.714  13.513  -1.427  1.00  0.00    -0.206 F 
ATOM     90  C   UNL     1       7.628  15.636  -1.083  1.00  0.00     0.006 A 
ENDBRANCH  66  83
ENDBRANCH  40  41
ENDBRANCH  33  35
ENDBRANCH  32  33
ENDBRANCH  31  32
ENDBRANCH  30  31
ENDBRANCH   1  30
TORSDOF 16
