REMARK SMILES CCCCCCNC(=O)Oc1cccc(-c2ccc([C@@H](C)C(=O)OCCOC(=O)c3ccc(-c4c5nc(c(-c6c(F)cccc6F)c6ccc([nH]6)c(-c6c(F)cccc6F)c6nc(c(-c7c(F)cccc7F)c7ccc4[nH]7)C=C6)C=C5)cc3)cc2O)c1
REMARK SMILES IDX 20 1 21 2 19 3 16 4 17 5 85 6 18 7 84 8 15 9 11 10 12 11
REMARK SMILES IDX 87 12 13 13 14 14 10 15 8 16 7 17 9 19 6 20 5 21 4 22 3 23
REMARK SMILES IDX 2 24 1 25 86 26 22 28 23 29 24 30 25 31 26 32 27 33 28 34
REMARK SMILES IDX 29 35 30 36 31 37 83 38 32 39 82 40 33 41 34 42 35 43 76 44
REMARK SMILES IDX 36 45 81 46 75 47 77 48 37 49 80 50 74 51 73 52 38 54 64 55
REMARK SMILES IDX 47 56 63 57 48 58 51 59 62 60 78 61 49 62 50 63 61 65 79 66
REMARK SMILES IDX 52 67 39 68 40 69 45 70 41 71 42 72 44 73 46 74 43 75 65 76
REMARK SMILES IDX 66 77 71 78 67 79 68 80 70 81 72 82 69 83 53 84 54 85 59 86
REMARK SMILES IDX 55 87 56 88 58 89 60 90 57 91
REMARK H PARENT 7 18 86 27 77 53 51 64
REMARK Flexibility Score: inf
ROOT
ATOM      1  C   UNL     1      -5.123  11.986   7.208  1.00  0.00     0.126 C 
ATOM      2  C   UNL     1      -6.453  12.503   7.750  1.00  0.00     0.025 C 
ENDROOT
BRANCH   1   3
ATOM      3  C   UNL     1      -5.118  10.476   7.030  1.00  0.00    -0.030 A 
ATOM      4  C   UNL     1      -5.136   7.651   6.630  1.00  0.00     0.024 A 
ATOM      5  C   UNL     1      -5.320   8.214   7.905  1.00  0.00     0.013 A 
ATOM      6  C   UNL     1      -4.942   8.540   5.560  1.00  0.00     0.123 A 
ATOM      7  C   UNL     1      -5.325   9.600   8.101  1.00  0.00     0.005 A 
ATOM      8  C   UNL     1      -4.920   9.924   5.755  1.00  0.00     0.051 A 
BRANCH   4   9
ATOM      9  C   UNL     1      -5.191   6.186   6.471  1.00  0.00    -0.011 A 
ATOM     10  C   UNL     1      -4.241   4.080   5.730  1.00  0.00     0.133 A 
ATOM     11  C   UNL     1      -5.385   3.392   6.132  1.00  0.00     0.047 A 
ATOM     12  C   UNL     1      -4.133   5.463   5.895  1.00  0.00     0.056 A 
ATOM     13  C   UNL     1      -6.430   4.092   6.723  1.00  0.00     0.004 A 
ATOM     14  C   UNL     1      -6.335   5.476   6.886  1.00  0.00     0.009 A 
BRANCH  10  15
ATOM     15  O   UNL     1      -3.280   3.330   5.029  1.00  0.00    -0.410 OA
BRANCH  15  16
ATOM     16  C   UNL     1      -1.944   3.420   5.386  1.00  0.00     0.412 C 
ATOM     17  N   UNL     1      -1.130   2.647   4.602  1.00  0.00    -0.321 N 
ATOM     18  H   UNL     1      -0.166   2.683   4.799  1.00  0.00     0.167 HD
ATOM     19  O   UNL     1      -1.486   4.089   6.304  1.00  0.00    -0.224 OA
BRANCH  17  20
ATOM     20  C   UNL     1      -1.538   1.782   3.513  1.00  0.00     0.119 C 
BRANCH  20  21
ATOM     21  C   UNL     1      -0.938   2.216   2.175  1.00  0.00     0.021 C 
BRANCH  21  22
ATOM     22  C   UNL     1       0.591   2.127   2.094  1.00  0.00     0.002 C 
BRANCH  22  23
ATOM     23  C   UNL     1       1.188   0.736   2.338  1.00  0.00    -0.000 C 
BRANCH  23  24
ATOM     24  C   UNL     1       0.703  -0.365   1.392  1.00  0.00    -0.003 C 
ATOM     25  C   UNL     1       1.069  -0.116  -0.063  1.00  0.00     0.004 C 
ENDBRANCH  23  24
ENDBRANCH  22  23
ENDBRANCH  21  22
ENDBRANCH  20  21
ENDBRANCH  17  20
ENDBRANCH  15  16
ENDBRANCH  10  15
ENDBRANCH   4   9
BRANCH   6  26
ATOM     26  O   UNL     1      -4.806   8.128   4.259  1.00  0.00    -0.507 OA
ATOM     27  H   UNL     1      -4.812   7.214   4.054  1.00  0.00     0.293 HD
ENDBRANCH   6  26
ENDBRANCH   1   3
BRANCH   1  28
ATOM     28  C   UNL     1      -3.970  12.571   8.014  1.00  0.00     0.313 C 
ATOM     29  O   UNL     1      -3.549  13.708   7.817  1.00  0.00    -0.252 OA
BRANCH  28  30
ATOM     30  O   UNL     1      -3.498  11.739   8.977  1.00  0.00    -0.462 OA
BRANCH  30  31
ATOM     31  C   UNL     1      -2.346  12.183   9.718  1.00  0.00     0.274 C 
BRANCH  31  32
ATOM     32  C   UNL     1      -1.065  11.553   9.170  1.00  0.00     0.275 C 
BRANCH  32  33
ATOM     33  O   UNL     1      -0.736  12.092   7.877  1.00  0.00    -0.458 OA
BRANCH  33  34
ATOM     34  C   UNL     1      -1.134  11.344   6.823  1.00  0.00     0.338 C 
ATOM     35  O   UNL     1      -1.689  10.261   6.842  1.00  0.00    -0.246 OA
BRANCH  34  36
ATOM     36  C   UNL     1      -0.865  12.085   5.585  1.00  0.00     0.060 A 
ATOM     37  C   UNL     1      -1.938  12.648   4.888  1.00  0.00     0.016 A 
ATOM     38  C   UNL     1       0.432  12.157   5.080  1.00  0.00     0.016 A 
ATOM     39  C   UNL     1      -1.718  13.289   3.672  1.00  0.00     0.010 A 
ATOM     40  C   UNL     1       0.653  12.807   3.865  1.00  0.00     0.010 A 
ATOM     41  C   UNL     1      -0.421  13.369   3.151  1.00  0.00    -0.014 A 
BRANCH  41  42
ATOM     42  C   UNL     1      -0.172  13.999   1.835  1.00  0.00     0.031 A 
ATOM     43  C   UNL     1       0.167  13.137   0.656  1.00  0.00     0.074 A 
ATOM     44  C   UNL     1      -0.215  15.338   1.710  1.00  0.00     0.049 A 
ATOM     45  N   UNL     1       0.621  13.484  -0.520  1.00  0.00    -0.248 NA
ATOM     46  C   UNL     1      -0.027  11.688   0.828  1.00  0.00     0.031 C 
ATOM     47  C   UNL     1      -0.587  16.274   2.771  1.00  0.00     0.029 A 
ATOM     48  N   UNL     1       0.085  16.142   0.640  1.00  0.00    -0.354 N 
ATOM     49  C   UNL     1       0.788  12.298  -1.222  1.00  0.00     0.074 A 
ATOM     50  C   UNL     1       0.398  11.220  -0.337  1.00  0.00     0.031 C 
ATOM     51  C   UNL     1      -0.468  17.529   2.306  1.00  0.00     0.029 A 
ATOM     52  C   UNL     1       0.040  17.482   0.937  1.00  0.00     0.049 A 
ATOM     53  H   UNL     1       0.309  15.793  -0.253  1.00  0.00     0.167 HD
ATOM     54  C   UNL     1       1.229  12.128  -2.491  1.00  0.00     0.037 A 
ATOM     55  C   UNL     1       0.416  18.548   0.205  1.00  0.00     0.037 A 
ATOM     56  C   UNL     1       1.611  13.207  -3.364  1.00  0.00     0.049 A 
ATOM     57  C   UNL     1       0.973  18.331  -1.175  1.00  0.00     0.074 A 
ATOM     58  C   UNL     1       2.089  13.141  -4.661  1.00  0.00     0.029 A 
ATOM     59  N   UNL     1       1.550  14.550  -3.026  1.00  0.00    -0.354 N 
ATOM     60  N   UNL     1       1.161  17.206  -1.822  1.00  0.00    -0.248 NA
ATOM     61  C   UNL     1       1.379  19.529  -1.923  1.00  0.00     0.031 C 
ATOM     62  C   UNL     1       2.345  14.445  -5.098  1.00  0.00     0.029 A 
ATOM     63  C   UNL     1       1.991  15.323  -4.086  1.00  0.00     0.049 A 
ATOM     64  H   UNL     1       1.240  14.902  -2.160  1.00  0.00     0.167 HD
ATOM     65  C   UNL     1       1.684  17.561  -3.058  1.00  0.00     0.074 A 
ATOM     66  C   UNL     1       1.777  19.006  -3.075  1.00  0.00     0.031 C 
ATOM     67  C   UNL     1       2.056  16.762  -4.087  1.00  0.00     0.037 A 
BRANCH  54  68
ATOM     68  C   UNL     1       1.346  10.724  -3.000  1.00  0.00     0.057 A 
ATOM     69  C   UNL     1       0.218   9.970  -3.349  1.00  0.00     0.134 A 
ATOM     70  C   UNL     1       2.602  10.130  -3.176  1.00  0.00     0.134 A 
ATOM     71  F   UNL     1      -1.014  10.477  -3.191  1.00  0.00    -0.206 F 
ATOM     72  C   UNL     1       0.336   8.669  -3.841  1.00  0.00     0.040 A 
ATOM     73  C   UNL     1       2.733   8.838  -3.687  1.00  0.00     0.040 A 
ATOM     74  F   UNL     1       3.722  10.799  -2.865  1.00  0.00    -0.206 F 
ATOM     75  C   UNL     1       1.596   8.102  -4.017  1.00  0.00     0.006 A 
ENDBRANCH  54  68
BRANCH  55  76
ATOM     76  C   UNL     1       0.323  19.912   0.781  1.00  0.00     0.057 A 
ATOM     77  C   UNL     1      -0.609  20.840   0.304  1.00  0.00     0.134 A 
ATOM     78  C   UNL     1       1.173  20.323   1.816  1.00  0.00     0.134 A 
ATOM     79  F   UNL     1      -1.433  20.512  -0.701  1.00  0.00    -0.206 F 
ATOM     80  C   UNL     1      -0.685  22.132   0.826  1.00  0.00     0.040 A 
ATOM     81  C   UNL     1       1.092  21.604   2.363  1.00  0.00     0.040 A 
ATOM     82  F   UNL     1       2.088  19.481   2.317  1.00  0.00    -0.206 F 
ATOM     83  C   UNL     1       0.164  22.516   1.863  1.00  0.00     0.006 A 
ENDBRANCH  55  76
BRANCH  67  84
ATOM     84  C   UNL     1       2.551  17.432  -5.332  1.00  0.00     0.057 A 
ATOM     85  C   UNL     1       3.839  17.973  -5.415  1.00  0.00     0.134 A 
ATOM     86  C   UNL     1       1.749  17.481  -6.479  1.00  0.00     0.134 A 
ATOM     87  F   UNL     1       4.650  17.967  -4.346  1.00  0.00    -0.206 F 
ATOM     88  C   UNL     1       4.309  18.551  -6.595  1.00  0.00     0.040 A 
ATOM     89  C   UNL     1       2.215  18.038  -7.670  1.00  0.00     0.040 A 
ATOM     90  F   UNL     1       0.507  16.973  -6.464  1.00  0.00    -0.206 F 
ATOM     91  C   UNL     1       3.498  18.577  -7.729  1.00  0.00     0.006 A 
ENDBRANCH  67  84
ENDBRANCH  41  42
ENDBRANCH  34  36
ENDBRANCH  33  34
ENDBRANCH  32  33
ENDBRANCH  31  32
ENDBRANCH  30  31
ENDBRANCH  28  30
ENDBRANCH   1  28
TORSDOF 21
