REMARK SMILES CC(C)OCCS(=O)(=O)Nc1ccc(O)c(C(=O)OCCOC(=O)c2ccc(-c3c4nc(c(-c5c(F)cccc5F)c5ccc([nH]5)c(-c5c(F)cccc5F)c5nc(c(-c6c(F)cccc6F)c6ccc3[nH]6)C=C5)C=C4)cc2)c1
REMARK SMILES IDX 17 1 18 2 16 3 11 4 12 5 79 6 13 7 14 8 10 9 7 11 8 12 9 13
REMARK SMILES IDX 6 14 5 15 4 16 2 17 1 18 3 19 15 20 19 22 20 23 21 24 22 25
REMARK SMILES IDX 23 26 24 27 25 28 26 29 78 30 27 31 77 32 28 33 29 34 30 35
REMARK SMILES IDX 71 36 31 37 76 38 70 39 72 40 32 41 75 42 69 43 68 44 33 46
REMARK SMILES IDX 59 47 42 48 58 49 43 50 46 51 57 52 73 53 44 54 45 55 56 57
REMARK SMILES IDX 74 58 47 59 34 60 35 61 40 62 36 63 37 64 39 65 41 66 38 67
REMARK SMILES IDX 60 68 61 69 66 70 62 71 63 72 65 73 67 74 64 75 48 76 49 77
REMARK SMILES IDX 54 78 50 79 51 80 53 81 55 82 52 83
REMARK H PARENT 10 10 15 21 72 45 46 56
REMARK Flexibility Score: inf
ROOT
ATOM      1  C   UNL     1      -1.077   1.148   6.965  1.00  0.00     0.342 C 
ATOM      2  O   UNL     1      -0.959   2.265   7.442  1.00  0.00    -0.246 OA
ENDROOT
BRANCH   1   3
ATOM      3  C   UNL     1      -1.105   0.842   5.511  1.00  0.00     0.103 A 
ATOM      4  C   UNL     1       0.201   1.111   3.514  1.00  0.00     0.050 A 
ATOM      5  C   UNL     1      -0.024  -0.242   3.237  1.00  0.00     0.030 A 
ATOM      6  C   UNL     1      -0.352   1.668   4.661  1.00  0.00     0.046 A 
ATOM      7  C   UNL     1      -0.973  -0.973   3.941  1.00  0.00     0.049 A 
ATOM      8  C   UNL     1      -1.550  -0.407   5.062  1.00  0.00     0.130 A 
BRANCH   4   9
ATOM      9  N   UNL     1       1.085   1.846   2.674  1.00  0.00    -0.283 N 
ATOM     10  H   UNL     1       2.028   1.570   2.618  1.00  0.00     0.180 HD
BRANCH   9  11
ATOM     11  S   UNL     1       0.574   3.168   1.774  1.00  0.00     0.235 S 
ATOM     12  O   UNL     1       1.628   3.397   0.807  1.00  0.00    -0.207 OA
ATOM     13  O   UNL     1       0.213   4.208   2.714  1.00  0.00    -0.207 OA
BRANCH  11  14
ATOM     14  C   UNL     1      -0.920   2.671   0.895  1.00  0.00     0.188 C 
BRANCH  14  15
ATOM     15  C   UNL     1      -0.730   2.177  -0.540  1.00  0.00     0.178 C 
BRANCH  15  16
ATOM     16  O   UNL     1      -1.129   0.804  -0.680  1.00  0.00    -0.378 OA
BRANCH  16  17
ATOM     17  C   UNL     1      -0.109  -0.169  -0.939  1.00  0.00     0.112 C 
ATOM     18  C   UNL     1       0.331  -0.219  -2.392  1.00  0.00     0.038 C 
ATOM     19  C   UNL     1       1.090   0.003  -0.039  1.00  0.00     0.038 C 
ENDBRANCH  16  17
ENDBRANCH  15  16
ENDBRANCH  14  15
ENDBRANCH  11  14
ENDBRANCH   9  11
ENDBRANCH   4   9
BRANCH   8  20
ATOM     20  O   UNL     1      -2.514  -1.093   5.742  1.00  0.00    -0.507 OA
ATOM     21  H   UNL     1      -2.803  -1.928   5.430  1.00  0.00     0.293 HD
ENDBRANCH   8  20
ENDBRANCH   1   3
BRANCH   1  22
ATOM     22  O   UNL     1      -0.923  -0.033   7.612  1.00  0.00    -0.458 OA
BRANCH  22  23
ATOM     23  C   UNL     1      -0.491  -0.054   8.978  1.00  0.00     0.275 C 
BRANCH  23  24
ATOM     24  C   UNL     1       0.788  -0.890   9.074  1.00  0.00     0.275 C 
BRANCH  24  25
ATOM     25  O   UNL     1       1.899  -0.185   8.480  1.00  0.00    -0.458 OA
BRANCH  25  26
ATOM     26  C   UNL     1       2.315  -0.646   7.279  1.00  0.00     0.338 C 
ATOM     27  O   UNL     1       1.889  -1.599   6.648  1.00  0.00    -0.246 OA
BRANCH  26  28
ATOM     28  C   UNL     1       3.358   0.243   6.747  1.00  0.00     0.060 A 
ATOM     29  C   UNL     1       2.973   1.218   5.834  1.00  0.00     0.016 A 
ATOM     30  C   UNL     1       4.708   0.040   7.022  1.00  0.00     0.016 A 
ATOM     31  C   UNL     1       3.926   1.947   5.127  1.00  0.00     0.010 A 
ATOM     32  C   UNL     1       5.666   0.832   6.371  1.00  0.00     0.010 A 
ATOM     33  C   UNL     1       5.290   1.775   5.393  1.00  0.00    -0.014 A 
BRANCH  33  34
ATOM     34  C   UNL     1       6.316   2.550   4.633  1.00  0.00     0.031 A 
ATOM     35  C   UNL     1       7.379   1.831   3.841  1.00  0.00     0.074 A 
ATOM     36  C   UNL     1       6.298   3.900   4.628  1.00  0.00     0.049 A 
ATOM     37  N   UNL     1       8.461   2.306   3.276  1.00  0.00    -0.248 NA
ATOM     38  C   UNL     1       7.205   0.380   3.670  1.00  0.00     0.031 C 
ATOM     39  C   UNL     1       5.297   4.740   5.289  1.00  0.00     0.029 A 
ATOM     40  N   UNL     1       7.150   4.806   4.042  1.00  0.00    -0.354 N 
ATOM     41  C   UNL     1       9.119   1.211   2.728  1.00  0.00     0.074 A 
ATOM     42  C   UNL     1       8.321   0.043   3.039  1.00  0.00     0.031 C 
ATOM     43  C   UNL     1       5.571   6.030   5.044  1.00  0.00     0.029 A 
ATOM     44  C   UNL     1       6.817   6.116   4.292  1.00  0.00     0.049 A 
ATOM     45  H   UNL     1       7.925   4.541   3.495  1.00  0.00     0.167 HD
ATOM     46  C   UNL     1      10.280   1.181   2.027  1.00  0.00     0.037 A 
ATOM     47  C   UNL     1       7.463   7.261   3.997  1.00  0.00     0.037 A 
ATOM     48  C   UNL     1      11.050   2.348   1.680  1.00  0.00     0.049 A 
ATOM     49  C   UNL     1       8.784   7.197   3.282  1.00  0.00     0.074 A 
ATOM     50  C   UNL     1      12.244   2.418   0.982  1.00  0.00     0.029 A 
ATOM     51  N   UNL     1      10.694   3.652   1.991  1.00  0.00    -0.354 N 
ATOM     52  N   UNL     1       9.430   6.151   2.828  1.00  0.00    -0.248 NA
ATOM     53  C   UNL     1       9.477   8.474   3.058  1.00  0.00     0.031 C 
ATOM     54  C   UNL     1      12.629   3.760   0.903  1.00  0.00     0.029 A 
ATOM     55  C   UNL     1      11.650   4.531   1.507  1.00  0.00     0.049 A 
ATOM     56  H   UNL     1       9.882   3.914   2.482  1.00  0.00     0.167 HD
ATOM     57  C   UNL     1      10.587   6.645   2.240  1.00  0.00     0.074 A 
ATOM     58  C   UNL     1      10.550   8.085   2.384  1.00  0.00     0.031 C 
ATOM     59  C   UNL     1      11.592   5.964   1.638  1.00  0.00     0.037 A 
BRANCH  46  60
ATOM     60  C   UNL     1      10.808  -0.163   1.611  1.00  0.00     0.057 A 
ATOM     61  C   UNL     1      10.204  -0.923   0.602  1.00  0.00     0.134 A 
ATOM     62  C   UNL     1      11.967  -0.685   2.203  1.00  0.00     0.134 A 
ATOM     63  F   UNL     1       9.085  -0.490   0.001  1.00  0.00    -0.206 F 
ATOM     64  C   UNL     1      10.718  -2.163   0.213  1.00  0.00     0.040 A 
ATOM     65  C   UNL     1      12.506  -1.909   1.804  1.00  0.00     0.040 A 
ATOM     66  F   UNL     1      12.603  -0.006   3.170  1.00  0.00    -0.206 F 
ATOM     67  C   UNL     1      11.877  -2.655   0.810  1.00  0.00     0.006 A 
ENDBRANCH  46  60
BRANCH  47  68
ATOM     68  C   UNL     1       6.897   8.569   4.420  1.00  0.00     0.057 A 
ATOM     69  C   UNL     1       6.460   9.508   3.479  1.00  0.00     0.134 A 
ATOM     70  C   UNL     1       6.803   8.922   5.772  1.00  0.00     0.134 A 
ATOM     71  F   UNL     1       6.552   9.244   2.167  1.00  0.00    -0.206 F 
ATOM     72  C   UNL     1       5.963  10.755   3.865  1.00  0.00     0.040 A 
ATOM     73  C   UNL     1       6.279  10.152   6.174  1.00  0.00     0.040 A 
ATOM     74  F   UNL     1       7.209   8.071   6.726  1.00  0.00    -0.206 F 
ATOM     75  C   UNL     1       5.865  11.076   5.218  1.00  0.00     0.006 A 
ENDBRANCH  47  68
BRANCH  59  76
ATOM     76  C   UNL     1      12.704   6.771   1.036  1.00  0.00     0.057 A 
ATOM     77  C   UNL     1      13.663   7.420   1.825  1.00  0.00     0.134 A 
ATOM     78  C   UNL     1      12.835   6.871  -0.355  1.00  0.00     0.134 A 
ATOM     79  F   UNL     1      13.586   7.375   3.163  1.00  0.00    -0.206 F 
ATOM     80  C   UNL     1      14.700   8.157   1.251  1.00  0.00     0.040 A 
ATOM     81  C   UNL     1      13.882   7.584  -0.941  1.00  0.00     0.040 A 
ATOM     82  F   UNL     1      11.955   6.268  -1.168  1.00  0.00    -0.206 F 
ATOM     83  C   UNL     1      14.815   8.235  -0.136  1.00  0.00     0.006 A 
ENDBRANCH  59  76
ENDBRANCH  33  34
ENDBRANCH  26  28
ENDBRANCH  25  26
ENDBRANCH  24  25
ENDBRANCH  23  24
ENDBRANCH  22  23
ENDBRANCH   1  22
TORSDOF 18
