REMARK SMILES CC[C@H]1SC[C@H](C(=O)OCCOC(=O)c2ccc(-c3c4nc(c(-c5c(F)cccc5F)c5ccc([nH]5)c(-c5c(F)cccc5F)c5nc(c(-c6c(F)cccc6F)c6ccc3[nH]6)C=C5)C=C4)cc2)N1C(=O)c1ccc(F)c(F)c1F
REMARK SMILES IDX 10 1 9 2 7 3 8 4 6 5 3 6 4 7 69 8 5 9 2 10 1 11 70 12 71 13
REMARK SMILES IDX 72 14 73 15 79 16 74 17 77 18 80 19 75 20 78 21 76 22 11 23
REMARK SMILES IDX 12 24 13 25 14 26 15 27 16 28 68 29 17 30 67 31 18 32 19 33
REMARK SMILES IDX 20 34 61 35 21 36 66 37 60 38 62 39 22 40 65 41 59 42 58 43
REMARK SMILES IDX 23 45 49 46 32 47 48 48 33 49 36 50 47 51 63 52 34 53 35 54
REMARK SMILES IDX 46 56 64 57 37 58 24 59 25 60 30 61 26 62 27 63 29 64 31 65
REMARK SMILES IDX 28 66 50 67 51 68 56 69 52 70 53 71 55 72 57 73 54 74 38 75
REMARK SMILES IDX 39 76 44 77 40 78 41 79 43 80 45 81 42 82
REMARK H PARENT 62 44 36 55
REMARK Flexibility Score: inf
ROOT
ATOM      1  C   UNL     1       5.584   0.802   3.780  1.00  0.00     0.274 C 
ENDROOT
BRANCH   1   2
ATOM      2  O   UNL     1       4.585   0.678   2.747  1.00  0.00    -0.461 OA
BRANCH   2   3
ATOM      3  C   UNL     1       3.855  -0.480   2.722  1.00  0.00     0.329 C 
ATOM      4  O   UNL     1       4.019  -1.433   3.472  1.00  0.00    -0.250 OA
BRANCH   3   5
ATOM      5  C   UNL     1       2.908  -0.464   1.515  1.00  0.00     0.206 C 
ATOM      6  C   UNL     1       1.108  -2.015   0.831  1.00  0.00     0.144 C 
ATOM      7  S   UNL     1       2.621  -2.753   0.159  1.00  0.00    -0.134 SA
ATOM      8  N   UNL     1       1.527  -0.959   1.743  1.00  0.00    -0.312 N 
ATOM      9  C   UNL     1       3.615  -1.278   0.430  1.00  0.00     0.109 C 
BRANCH   6  10
ATOM     10  C   UNL     1       0.189  -1.521  -0.304  1.00  0.00     0.033 C 
ATOM     11  C   UNL     1       0.587  -0.200  -0.954  1.00  0.00     0.007 C 
ENDBRANCH   6  10
BRANCH   8  12
ATOM     12  C   UNL     1       0.689  -0.187   2.545  1.00  0.00     0.258 C 
ATOM     13  O   UNL     1       1.103   0.857   3.053  1.00  0.00    -0.269 OA
BRANCH  12  14
ATOM     14  C   UNL     1      -0.748  -0.509   2.772  1.00  0.00     0.079 A 
ATOM     15  C   UNL     1      -1.660   0.565   2.762  1.00  0.00     0.020 A 
ATOM     16  C   UNL     1      -1.224  -1.781   3.093  1.00  0.00     0.174 A 
ATOM     17  C   UNL     1      -3.020   0.351   3.013  1.00  0.00     0.043 A 
ATOM     18  C   UNL     1      -2.581  -1.995   3.331  1.00  0.00     0.195 A 
ATOM     19  F   UNL     1      -0.385  -2.816   3.239  1.00  0.00    -0.203 F 
ATOM     20  C   UNL     1      -3.473  -0.935   3.283  1.00  0.00     0.161 A 
ATOM     21  F   UNL     1      -3.020  -3.229   3.617  1.00  0.00    -0.200 F 
ATOM     22  F   UNL     1      -4.776  -1.135   3.515  1.00  0.00    -0.204 F 
ENDBRANCH  12  14
ENDBRANCH   8  12
ENDBRANCH   3   5
ENDBRANCH   2   3
ENDBRANCH   1   2
BRANCH   1  23
ATOM     23  C   UNL     1       5.040   1.617   4.951  1.00  0.00     0.275 C 
BRANCH  23  24
ATOM     24  O   UNL     1       3.974   0.875   5.560  1.00  0.00    -0.458 OA
BRANCH  24  25
ATOM     25  C   UNL     1       2.884   1.580   5.936  1.00  0.00     0.338 C 
ATOM     26  O   UNL     1       2.767   2.800   5.951  1.00  0.00    -0.246 OA
BRANCH  25  27
ATOM     27  C   UNL     1       1.816   0.647   6.360  1.00  0.00     0.060 A 
ATOM     28  C   UNL     1       1.661  -0.586   5.734  1.00  0.00     0.016 A 
ATOM     29  C   UNL     1       0.897   1.033   7.334  1.00  0.00     0.016 A 
ATOM     30  C   UNL     1       0.538  -1.368   5.985  1.00  0.00     0.010 A 
ATOM     31  C   UNL     1      -0.179   0.191   7.658  1.00  0.00     0.010 A 
ATOM     32  C   UNL     1      -0.415  -0.995   6.941  1.00  0.00    -0.014 A 
BRANCH  32  33
ATOM     33  C   UNL     1      -1.677  -1.787   7.108  1.00  0.00     0.031 A 
ATOM     34  C   UNL     1      -3.028  -1.105   7.035  1.00  0.00     0.074 A 
ATOM     35  C   UNL     1      -1.654  -3.131   7.240  1.00  0.00     0.049 A 
ATOM     36  N   UNL     1      -4.221  -1.596   7.272  1.00  0.00    -0.248 NA
ATOM     37  C   UNL     1      -3.044   0.313   6.636  1.00  0.00     0.031 C 
ATOM     38  C   UNL     1      -0.453  -3.968   7.255  1.00  0.00     0.029 A 
ATOM     39  N   UNL     1      -2.682  -4.039   7.362  1.00  0.00    -0.354 N 
ATOM     40  C   UNL     1      -5.114  -0.548   7.087  1.00  0.00     0.074 A 
ATOM     41  C   UNL     1      -4.329   0.617   6.742  1.00  0.00     0.031 C 
ATOM     42  C   UNL     1      -0.812  -5.259   7.301  1.00  0.00     0.029 A 
ATOM     43  C   UNL     1      -2.260  -5.345   7.448  1.00  0.00     0.049 A 
ATOM     44  H   UNL     1      -3.631  -3.778   7.385  1.00  0.00     0.167 HD
ATOM     45  C   UNL     1      -6.466  -0.547   7.177  1.00  0.00     0.037 A 
ATOM     46  C   UNL     1      -2.938  -6.487   7.675  1.00  0.00     0.037 A 
ATOM     47  C   UNL     1      -7.274  -1.699   7.479  1.00  0.00     0.049 A 
ATOM     48  C   UNL     1      -4.419  -6.437   7.919  1.00  0.00     0.074 A 
ATOM     49  C   UNL     1      -8.651  -1.777   7.604  1.00  0.00     0.029 A 
ATOM     50  N   UNL     1      -6.783  -2.977   7.688  1.00  0.00    -0.354 N 
ATOM     51  N   UNL     1      -5.238  -5.420   7.832  1.00  0.00    -0.248 NA
ATOM     52  C   UNL     1      -5.062  -7.693   8.335  1.00  0.00     0.031 C 
ATOM     53  C   UNL     1      -8.990  -3.094   7.932  1.00  0.00     0.029 A 
ATOM     54  C   UNL     1      -7.827  -3.844   7.971  1.00  0.00     0.049 A 
ATOM     55  H   UNL     1      -5.833  -3.232   7.642  1.00  0.00     0.167 HD
ATOM     56  C   UNL     1      -6.491  -5.911   8.174  1.00  0.00     0.074 A 
ATOM     57  C   UNL     1      -6.330  -7.322   8.450  1.00  0.00     0.031 C 
ATOM     58  C   UNL     1      -7.667  -5.245   8.257  1.00  0.00     0.037 A 
BRANCH  45  59
ATOM     59  C   UNL     1      -7.171   0.760   6.967  1.00  0.00     0.057 A 
ATOM     60  C   UNL     1      -7.343   1.314   5.692  1.00  0.00     0.134 A 
ATOM     61  C   UNL     1      -7.730   1.447   8.053  1.00  0.00     0.134 A 
ATOM     62  F   UNL     1      -6.812   0.718   4.614  1.00  0.00    -0.206 F 
ATOM     63  C   UNL     1      -8.040   2.509   5.506  1.00  0.00     0.040 A 
ATOM     64  C   UNL     1      -8.444   2.633   7.877  1.00  0.00     0.040 A 
ATOM     65  F   UNL     1      -7.602   0.969   9.300  1.00  0.00    -0.206 F 
ATOM     66  C   UNL     1      -8.599   3.168   6.599  1.00  0.00     0.006 A 
ENDBRANCH  45  59
BRANCH  46  67
ATOM     67  C   UNL     1      -2.208  -7.778   7.770  1.00  0.00     0.057 A 
ATOM     68  C   UNL     1      -2.398  -8.792   6.825  1.00  0.00     0.134 A 
ATOM     69  C   UNL     1      -1.314  -8.033   8.818  1.00  0.00     0.134 A 
ATOM     70  F   UNL     1      -3.269  -8.623   5.819  1.00  0.00    -0.206 F 
ATOM     71  C   UNL     1      -1.726 -10.012   6.919  1.00  0.00     0.040 A 
ATOM     72  C   UNL     1      -0.612  -9.235   8.907  1.00  0.00     0.040 A 
ATOM     73  F   UNL     1      -1.096  -7.107   9.764  1.00  0.00    -0.206 F 
ATOM     74  C   UNL     1      -0.822 -10.231   7.957  1.00  0.00     0.006 A 
ENDBRANCH  46  67
BRANCH  58  75
ATOM     75  C   UNL     1      -8.878  -6.036   8.652  1.00  0.00     0.057 A 
ATOM     76  C   UNL     1      -9.074  -6.468   9.970  1.00  0.00     0.134 A 
ATOM     77  C   UNL     1      -9.867  -6.353   7.713  1.00  0.00     0.134 A 
ATOM     78  F   UNL     1      -8.156  -6.210  10.914  1.00  0.00    -0.206 F 
ATOM     79  C   UNL     1     -10.202  -7.205  10.336  1.00  0.00     0.040 A 
ATOM     80  C   UNL     1     -11.010  -7.069   8.072  1.00  0.00     0.040 A 
ATOM     81  F   UNL     1      -9.744  -5.964   6.435  1.00  0.00    -0.206 F 
ATOM     82  C   UNL     1     -11.177  -7.503   9.386  1.00  0.00     0.006 A 
ENDBRANCH  58  75
ENDBRANCH  32  33
ENDBRANCH  25  27
ENDBRANCH  24  25
ENDBRANCH  23  24
ENDBRANCH   1  23
TORSDOF 14
