REMARK SMILES Cc1cccc(-n2nc(Br)c(C(=O)OCCOC(=O)c3ccc(-c4c5nc(c(-c6c(F)cccc6F)c6ccc([nH]6)c(-c6c(F)cccc6F)c6nc(c(-c7c(F)cccc7F)c7ccc4[nH]7)C=C6)C=C5)cc3)n2)c1
REMARK SMILES IDX 16 1 15 2 14 3 12 4 13 5 11 6 7 7 8 8 74 9 9 10 10 11 6 12
REMARK SMILES IDX 1 13 2 14 3 15 75 16 4 17 5 18 17 19 18 20 19 21 20 22 21 23
REMARK SMILES IDX 73 24 22 25 72 26 23 27 24 28 25 29 66 30 26 31 71 32 65 33
REMARK SMILES IDX 67 34 27 35 70 36 64 37 63 38 28 40 54 41 37 42 53 43 38 44
REMARK SMILES IDX 41 45 52 46 68 47 39 48 40 49 51 51 69 52 42 53 29 54 30 55
REMARK SMILES IDX 35 56 31 57 32 58 34 59 36 60 33 61 55 62 56 63 61 64 57 65
REMARK SMILES IDX 58 66 60 67 62 68 59 69 43 70 44 71 49 72 45 73 46 74 48 75
REMARK SMILES IDX 50 76 47 77
REMARK H PARENT 67 39 41 50
REMARK Flexibility Score: inf
ROOT
ATOM      1  C   UNL     1      -3.812   5.872  -5.068  1.00  0.00     0.275 C 
ENDROOT
BRANCH   1   2
ATOM      2  C   UNL     1      -2.417   5.298  -4.705  1.00  0.00     0.275 C 
BRANCH   2   3
ATOM      3  O   UNL     1      -2.205   4.619  -3.464  1.00  0.00    -0.457 OA
BRANCH   3   4
ATOM      4  C   UNL     1      -3.117   3.696  -3.077  1.00  0.00     0.361 C 
ATOM      5  O   UNL     1      -4.114   3.409  -3.735  1.00  0.00    -0.244 OA
BRANCH   4   6
ATOM      6  C   UNL     1      -2.810   3.088  -1.795  1.00  0.00     0.205 A 
ATOM      7  N   UNL     1      -1.834   1.915  -0.355  1.00  0.00    -0.150 N 
ATOM      8  N   UNL     1      -3.102   1.953   0.124  1.00  0.00    -0.140 NA
ATOM      9  N   UNL     1      -1.559   2.785  -1.371  1.00  0.00    -0.140 NA
ATOM     10  C   UNL     1      -3.723   2.649  -0.822  1.00  0.00     0.163 A 
ATOM     11  Br  UNL     1      -5.575   2.946  -0.794  1.00  0.00    -0.024 Br
BRANCH   7  12
ATOM     12  C   UNL     1      -0.986   0.815  -0.083  1.00  0.00     0.086 A 
ATOM     13  C   UNL     1       2.698  -0.150  -0.097  1.00  0.00     0.044 C 
ATOM     14  C   UNL     1       1.200  -0.224  -0.038  1.00  0.00    -0.049 A 
ATOM     15  C   UNL     1       0.585  -1.466   0.183  1.00  0.00     0.003 A 
ATOM     16  C   UNL     1       0.404   0.917  -0.219  1.00  0.00     0.033 A 
ATOM     17  C   UNL     1      -0.799  -1.564   0.307  1.00  0.00     0.003 A 
ATOM     18  C   UNL     1      -1.583  -0.420   0.213  1.00  0.00     0.030 A 
ENDBRANCH   7  12
ENDBRANCH   4   6
ENDBRANCH   3   4
ENDBRANCH   2   3
ENDBRANCH   1   2
BRANCH   1  19
ATOM     19  O   UNL     1      -4.887   6.169  -4.114  1.00  0.00    -0.458 OA
BRANCH  19  20
ATOM     20  C   UNL     1      -4.944   6.445  -2.794  1.00  0.00     0.338 C 
ATOM     21  O   UNL     1      -5.973   6.377  -2.136  1.00  0.00    -0.246 OA
BRANCH  20  22
ATOM     22  C   UNL     1      -3.692   6.810  -2.150  1.00  0.00     0.060 A 
ATOM     23  C   UNL     1      -3.374   6.310  -0.873  1.00  0.00     0.016 A 
ATOM     24  C   UNL     1      -2.806   7.578  -2.887  1.00  0.00     0.016 A 
ATOM     25  C   UNL     1      -2.112   6.540  -0.353  1.00  0.00     0.010 A 
ATOM     26  C   UNL     1      -1.508   7.615  -2.479  1.00  0.00     0.010 A 
ATOM     27  C   UNL     1      -1.202   7.194  -1.177  1.00  0.00    -0.014 A 
BRANCH  27  28
ATOM     28  C   UNL     1      -0.014   7.857  -0.692  1.00  0.00     0.031 A 
ATOM     29  C   UNL     1       1.240   7.120  -0.569  1.00  0.00     0.074 A 
ATOM     30  C   UNL     1      -0.209   9.197  -0.657  1.00  0.00     0.049 A 
ATOM     31  N   UNL     1       2.199   7.466   0.209  1.00  0.00    -0.248 NA
ATOM     32  C   UNL     1       1.516   5.883  -1.299  1.00  0.00     0.031 C 
ATOM     33  C   UNL     1       0.698  10.324  -0.634  1.00  0.00     0.029 A 
ATOM     34  N   UNL     1      -1.478   9.799  -0.579  1.00  0.00    -0.354 N 
ATOM     35  C   UNL     1       3.318   6.779  -0.212  1.00  0.00     0.074 A 
ATOM     36  C   UNL     1       2.812   5.694  -1.018  1.00  0.00     0.031 C 
ATOM     37  C   UNL     1       0.009  11.412  -0.224  1.00  0.00     0.029 A 
ATOM     38  C   UNL     1      -1.341  10.981   0.139  1.00  0.00     0.049 A 
ATOM     39  H   UNL     1      -2.313   9.447  -0.964  1.00  0.00     0.167 HD
ATOM     40  C   UNL     1       4.538   7.361  -0.015  1.00  0.00     0.037 A 
ATOM     41  C   UNL     1      -1.894  10.984   1.388  1.00  0.00     0.037 A 
ATOM     42  C   UNL     1       4.346   8.672   0.616  1.00  0.00     0.049 A 
ATOM     43  C   UNL     1      -0.797  10.915   2.425  1.00  0.00     0.074 A 
ATOM     44  C   UNL     1       4.232   9.938   0.062  1.00  0.00     0.029 A 
ATOM     45  N   UNL     1       3.792   8.752   1.890  1.00  0.00    -0.354 N 
ATOM     46  N   UNL     1       0.377  10.376   2.218  1.00  0.00    -0.248 NA
ATOM     47  C   UNL     1      -0.910  11.538   3.736  1.00  0.00     0.031 C 
ATOM     48  C   UNL     1       3.510  10.751   0.977  1.00  0.00     0.029 A 
ATOM     49  C   UNL     1       3.183   9.982   2.081  1.00  0.00     0.049 A 
ATOM     50  H   UNL     1       3.828   8.034   2.563  1.00  0.00     0.167 HD
ATOM     51  C   UNL     1       1.188  10.635   3.286  1.00  0.00     0.074 A 
ATOM     52  C   UNL     1       0.330  11.351   4.218  1.00  0.00     0.031 C 
ATOM     53  C   UNL     1       2.507  10.282   3.336  1.00  0.00     0.037 A 
BRANCH  40  54
ATOM     54  C   UNL     1       5.828   6.944  -0.690  1.00  0.00     0.057 A 
ATOM     55  C   UNL     1       6.854   7.885  -0.924  1.00  0.00     0.134 A 
ATOM     56  C   UNL     1       6.131   5.644  -1.134  1.00  0.00     0.134 A 
ATOM     57  F   UNL     1       6.760   9.152  -0.499  1.00  0.00    -0.206 F 
ATOM     58  C   UNL     1       8.041   7.580  -1.605  1.00  0.00     0.040 A 
ATOM     59  C   UNL     1       7.302   5.331  -1.847  1.00  0.00     0.040 A 
ATOM     60  F   UNL     1       5.335   4.604  -0.856  1.00  0.00    -0.206 F 
ATOM     61  C   UNL     1       8.261   6.302  -2.090  1.00  0.00     0.006 A 
ENDBRANCH  40  54
BRANCH  41  62
ATOM     62  C   UNL     1      -3.223  10.273   1.441  1.00  0.00     0.057 A 
ATOM     63  C   UNL     1      -4.238  10.680   0.543  1.00  0.00     0.134 A 
ATOM     64  C   UNL     1      -3.429   9.045   2.079  1.00  0.00     0.134 A 
ATOM     65  F   UNL     1      -4.129  11.850  -0.109  1.00  0.00    -0.206 F 
ATOM     66  C   UNL     1      -5.324   9.863   0.203  1.00  0.00     0.040 A 
ATOM     67  C   UNL     1      -4.534   8.229   1.768  1.00  0.00     0.040 A 
ATOM     68  F   UNL     1      -2.530   8.565   2.948  1.00  0.00    -0.206 F 
ATOM     69  C   UNL     1      -5.461   8.617   0.800  1.00  0.00     0.006 A 
ENDBRANCH  41  62
BRANCH  53  70
ATOM     70  C   UNL     1       3.322  10.270   4.597  1.00  0.00     0.057 A 
ATOM     71  C   UNL     1       2.777  10.007   5.860  1.00  0.00     0.134 A 
ATOM     72  C   UNL     1       4.731  10.349   4.544  1.00  0.00     0.134 A 
ATOM     73  F   UNL     1       1.467   9.777   6.027  1.00  0.00    -0.206 F 
ATOM     74  C   UNL     1       3.569   9.910   7.006  1.00  0.00     0.040 A 
ATOM     75  C   UNL     1       5.535  10.177   5.669  1.00  0.00     0.040 A 
ATOM     76  F   UNL     1       5.388  10.560   3.394  1.00  0.00    -0.206 F 
ATOM     77  C   UNL     1       4.953   9.981   6.911  1.00  0.00     0.006 A 
ENDBRANCH  53  70
ENDBRANCH  27  28
ENDBRANCH  20  22
ENDBRANCH  19  20
ENDBRANCH   1  19
TORSDOF 12
