REMARK SMILES Cn1c(C(=O)N2CCC[C@@H](C(=O)OCCOC(=O)c3ccc(-c4c5nc(c(-c6c(F)cccc6F)c6ccc([nH]6)c(-c6c(F)cccc6F)c6nc(c(-c7c(F)cccc7F)c7ccc4[nH]7)C=C6)C=C5)cc3)C2)cc2sccc21
REMARK SMILES IDX 14 1 13 2 11 3 12 4 10 5 6 6 7 7 73 8 8 9 9 10 4 11 5 12
REMARK SMILES IDX 3 13 1 14 2 15 79 16 74 17 75 18 78 19 76 20 77 21 15 22
REMARK SMILES IDX 16 23 17 24 18 25 19 26 20 27 72 28 21 29 71 30 22 31 23 32
REMARK SMILES IDX 24 33 65 34 25 35 70 36 64 37 66 38 26 39 69 40 63 41 62 42
REMARK SMILES IDX 27 44 53 45 36 46 52 47 37 48 40 49 51 50 67 51 38 52 39 53
REMARK SMILES IDX 50 55 68 56 41 57 28 58 29 59 34 60 30 61 31 62 33 63 35 64
REMARK SMILES IDX 32 65 54 66 55 67 60 68 56 69 57 70 59 71 61 72 58 73 42 74
REMARK SMILES IDX 43 75 48 76 44 77 45 78 47 79 49 80 46 81
REMARK H PARENT 66 43 40 54
REMARK Flexibility Score: inf
ROOT
ATOM      1  C   UNL     1      -3.328   6.497  -4.187  1.00  0.00     0.274 C 
ENDROOT
BRANCH   1   2
ATOM      2  O   UNL     1      -2.107   5.979  -3.624  1.00  0.00    -0.462 OA
BRANCH   2   3
ATOM      3  C   UNL     1      -1.352   6.859  -2.910  1.00  0.00     0.310 C 
ATOM      4  O   UNL     1      -1.547   8.070  -2.886  1.00  0.00    -0.252 OA
BRANCH   3   5
ATOM      5  C   UNL     1      -0.317   6.167  -2.035  1.00  0.00     0.119 C 
ATOM      6  N   UNL     1       1.179   4.180  -1.825  1.00  0.00    -0.337 N 
ATOM      7  C   UNL     1       2.357   5.030  -1.732  1.00  0.00     0.120 C 
ATOM      8  C   UNL     1       0.019   4.748  -2.519  1.00  0.00     0.135 C 
ATOM      9  C   UNL     1       2.024   6.376  -1.117  1.00  0.00     0.022 C 
ATOM     10  C   UNL     1       0.925   7.061  -1.918  1.00  0.00     0.019 C 
BRANCH   6  11
ATOM     11  C   UNL     1       1.245   2.909  -1.253  1.00  0.00     0.270 C 
ATOM     12  O   UNL     1       1.968   2.722  -0.270  1.00  0.00    -0.267 OA
BRANCH  11  13
ATOM     13  C   UNL     1       0.556   1.792  -1.903  1.00  0.00     0.108 A 
ATOM     14  C   UNL     1       0.844   0.133  -0.001  1.00  0.00     0.150 C 
ATOM     15  N   UNL     1       0.435   0.532  -1.328  1.00  0.00    -0.339 N 
ATOM     16  C   UNL     1      -0.052  -0.353  -2.266  1.00  0.00     0.059 A 
ATOM     17  C   UNL     1       0.046   1.698  -3.195  1.00  0.00     0.053 A 
ATOM     18  C   UNL     1      -0.325   0.342  -3.401  1.00  0.00     0.053 A 
ATOM     19  C   UNL     1      -0.318  -1.747  -2.378  1.00  0.00     0.038 A 
ATOM     20  S   UNL     1      -0.959  -0.662  -4.661  1.00  0.00    -0.142 S 
ATOM     21  C   UNL     1      -0.796  -2.035  -3.638  1.00  0.00     0.068 A 
ENDBRANCH  11  13
ENDBRANCH   6  11
ENDBRANCH   3   5
ENDBRANCH   2   3
ENDBRANCH   1   2
BRANCH   1  22
ATOM     22  C   UNL     1      -4.503   6.278  -3.239  1.00  0.00     0.275 C 
BRANCH  22  23
ATOM     23  O   UNL     1      -4.346   7.033  -2.037  1.00  0.00    -0.458 OA
BRANCH  23  24
ATOM     24  C   UNL     1      -3.697   6.383  -1.044  1.00  0.00     0.338 C 
ATOM     25  O   UNL     1      -3.122   5.312  -1.117  1.00  0.00    -0.246 OA
BRANCH  24  26
ATOM     26  C   UNL     1      -3.902   7.085   0.226  1.00  0.00     0.060 A 
ATOM     27  C   UNL     1      -3.137   6.670   1.324  1.00  0.00     0.016 A 
ATOM     28  C   UNL     1      -5.031   7.898   0.370  1.00  0.00     0.016 A 
ATOM     29  C   UNL     1      -3.614   6.920   2.594  1.00  0.00     0.010 A 
ATOM     30  C   UNL     1      -5.519   8.120   1.634  1.00  0.00     0.010 A 
ATOM     31  C   UNL     1      -4.844   7.564   2.723  1.00  0.00    -0.014 A 
BRANCH  31  32
ATOM     32  C   UNL     1      -5.472   7.609   4.028  1.00  0.00     0.031 A 
ATOM     33  C   UNL     1      -5.075   8.747   4.887  1.00  0.00     0.074 A 
ATOM     34  C   UNL     1      -6.500   6.784   4.308  1.00  0.00     0.049 A 
ATOM     35  N   UNL     1      -4.606   8.724   6.091  1.00  0.00    -0.248 NA
ATOM     36  C   UNL     1      -5.136  10.092   4.291  1.00  0.00     0.031 C 
ATOM     37  C   UNL     1      -7.191   5.877   3.382  1.00  0.00     0.029 A 
ATOM     38  N   UNL     1      -7.241   6.690   5.442  1.00  0.00    -0.354 N 
ATOM     39  C   UNL     1      -4.483  10.060   6.468  1.00  0.00     0.074 A 
ATOM     40  C   UNL     1      -4.662  10.846   5.279  1.00  0.00     0.031 C 
ATOM     41  C   UNL     1      -8.373   5.512   3.925  1.00  0.00     0.029 A 
ATOM     42  C   UNL     1      -8.467   6.067   5.264  1.00  0.00     0.049 A 
ATOM     43  H   UNL     1      -6.936   7.034   6.313  1.00  0.00     0.167 HD
ATOM     44  C   UNL     1      -4.487  10.440   7.773  1.00  0.00     0.037 A 
ATOM     45  C   UNL     1      -9.516   6.099   6.121  1.00  0.00     0.037 A 
ATOM     46  C   UNL     1      -4.165   9.347   8.649  1.00  0.00     0.049 A 
ATOM     47  C   UNL     1      -9.017   6.571   7.437  1.00  0.00     0.074 A 
ATOM     48  C   UNL     1      -3.086   8.495   8.783  1.00  0.00     0.029 A 
ATOM     49  N   UNL     1      -5.182   8.776   9.372  1.00  0.00    -0.354 N 
ATOM     50  N   UNL     1      -8.237   5.882   8.224  1.00  0.00    -0.248 NA
ATOM     51  C   UNL     1      -9.054   8.003   7.699  1.00  0.00     0.031 C 
ATOM     52  C   UNL     1      -3.646   7.244   9.173  1.00  0.00     0.029 A 
ATOM     53  C   UNL     1      -5.026   7.418   9.279  1.00  0.00     0.049 A 
ATOM     54  H   UNL     1      -5.889   9.251   9.864  1.00  0.00     0.167 HD
ATOM     55  C   UNL     1      -7.388   6.820   8.794  1.00  0.00     0.074 A 
ATOM     56  C   UNL     1      -8.005   8.113   8.517  1.00  0.00     0.031 C 
ATOM     57  C   UNL     1      -6.123   6.485   9.185  1.00  0.00     0.037 A 
BRANCH  44  58
ATOM     58  C   UNL     1      -5.132  11.711   8.264  1.00  0.00     0.057 A 
ATOM     59  C   UNL     1      -4.933  12.113   9.595  1.00  0.00     0.134 A 
ATOM     60  C   UNL     1      -6.159  12.396   7.579  1.00  0.00     0.134 A 
ATOM     61  F   UNL     1      -4.003  11.522  10.361  1.00  0.00    -0.206 F 
ATOM     62  C   UNL     1      -5.739  13.075  10.216  1.00  0.00     0.040 A 
ATOM     63  C   UNL     1      -6.930  13.398   8.171  1.00  0.00     0.040 A 
ATOM     64  F   UNL     1      -6.543  12.065   6.340  1.00  0.00    -0.206 F 
ATOM     65  C   UNL     1      -6.744  13.718   9.505  1.00  0.00     0.006 A 
ENDBRANCH  44  58
BRANCH  45  66
ATOM     66  C   UNL     1     -10.958   6.033   5.797  1.00  0.00     0.057 A 
ATOM     67  C   UNL     1     -11.907   5.696   6.770  1.00  0.00     0.134 A 
ATOM     68  C   UNL     1     -11.469   6.528   4.582  1.00  0.00     0.134 A 
ATOM     69  F   UNL     1     -11.518   5.263   7.978  1.00  0.00    -0.206 F 
ATOM     70  C   UNL     1     -13.284   5.845   6.551  1.00  0.00     0.040 A 
ATOM     71  C   UNL     1     -12.840   6.668   4.345  1.00  0.00     0.040 A 
ATOM     72  F   UNL     1     -10.654   6.970   3.614  1.00  0.00    -0.206 F 
ATOM     73  C   UNL     1     -13.753   6.336   5.336  1.00  0.00     0.006 A 
ENDBRANCH  45  66
BRANCH  57  74
ATOM     74  C   UNL     1      -5.769   5.027   9.241  1.00  0.00     0.057 A 
ATOM     75  C   UNL     1      -5.719   4.198   8.110  1.00  0.00     0.134 A 
ATOM     76  C   UNL     1      -5.303   4.489  10.444  1.00  0.00     0.134 A 
ATOM     77  F   UNL     1      -6.044   4.661   6.897  1.00  0.00    -0.206 F 
ATOM     78  C   UNL     1      -5.266   2.878   8.185  1.00  0.00     0.040 A 
ATOM     79  C   UNL     1      -4.816   3.182  10.526  1.00  0.00     0.040 A 
ATOM     80  F   UNL     1      -5.263   5.245  11.553  1.00  0.00    -0.206 F 
ATOM     81  C   UNL     1      -4.806   2.369   9.395  1.00  0.00     0.006 A 
ENDBRANCH  57  74
ENDBRANCH  31  32
ENDBRANCH  24  26
ENDBRANCH  23  24
ENDBRANCH  22  23
ENDBRANCH   1  22
TORSDOF 13
