REMARK SMILES O=C(Cn1cccc1C(=O)OCCOC(=O)c1ccc(-c2c3nc(c(-c4c(F)cccc4F)c4ccc([nH]4)c(-c4c(F)cccc4F)c4nc(c(-c5c(F)cccc5F)c5ccc2[nH]5)C=C4)C=C3)cc1)NCC1CCCC1
REMARK SMILES IDX 12 1 11 2 9 3 10 4 8 5 4 6 5 7 6 8 7 9 3 10 2 11 1 12 71 13
REMARK SMILES IDX 72 15 73 16 74 17 77 18 75 19 76 20 13 21 14 22 15 23 16 24
REMARK SMILES IDX 17 25 18 26 70 27 19 28 69 29 20 30 21 31 22 32 63 33 23 34
REMARK SMILES IDX 68 35 62 36 64 37 24 38 67 39 61 40 60 41 25 43 51 44 34 45
REMARK SMILES IDX 50 46 35 47 38 48 49 49 65 50 36 51 37 52 48 54 66 55 39 56
REMARK SMILES IDX 26 57 27 58 32 59 28 60 29 61 31 62 33 63 30 64 52 65 53 66
REMARK SMILES IDX 58 67 54 68 55 69 57 70 59 71 56 72 40 73 41 74 46 75 42 76
REMARK SMILES IDX 43 77 45 78 47 79 44 80
REMARK H PARENT 71 14 64 42 38 53
REMARK Flexibility Score: inf
ROOT
ATOM      1  C   UNL     1       0.178  -2.467   0.588  1.00  0.00     0.275 C 
ENDROOT
BRANCH   1   2
ATOM      2  O   UNL     1       1.183  -1.558   1.083  1.00  0.00    -0.457 OA
BRANCH   2   3
ATOM      3  C   UNL     1       1.837  -1.962   2.205  1.00  0.00     0.355 C 
ATOM      4  O   UNL     1       1.491  -2.928   2.880  1.00  0.00    -0.244 OA
BRANCH   3   5
ATOM      5  C   UNL     1       3.077  -1.228   2.427  1.00  0.00     0.128 A 
ATOM      6  N   UNL     1       3.561  -0.049   1.870  1.00  0.00    -0.333 N 
ATOM      7  C   UNL     1       4.819   0.210   2.389  1.00  0.00     0.087 A 
ATOM      8  C   UNL     1       5.169  -0.803   3.244  1.00  0.00     0.020 A 
ATOM      9  C   UNL     1       4.086  -1.698   3.268  1.00  0.00     0.035 A 
BRANCH   6  10
ATOM     10  C   UNL     1       2.854   0.961   1.077  1.00  0.00     0.222 C 
BRANCH  10  11
ATOM     11  C   UNL     1       2.364   0.581  -0.303  1.00  0.00     0.239 C 
ATOM     12  O   UNL     1       1.250   0.951  -0.685  1.00  0.00    -0.273 OA
ATOM     13  N   UNL     1       3.226  -0.111  -1.131  1.00  0.00    -0.354 N 
ATOM     14  H   UNL     1       4.197  -0.093  -0.969  1.00  0.00     0.163 HD
BRANCH  13  15
ATOM     15  C   UNL     1       2.679  -0.863  -2.242  1.00  0.00     0.119 C 
BRANCH  15  16
ATOM     16  C   UNL     1       2.874  -0.319  -3.645  1.00  0.00     0.008 C 
ATOM     17  C   UNL     1       1.994  -1.113  -4.619  1.00  0.00     0.005 C 
ATOM     18  C   UNL     1       2.410   1.109  -3.880  1.00  0.00     0.005 C 
ATOM     19  C   UNL     1       1.898  -0.240  -5.858  1.00  0.00     0.000 C 
ATOM     20  C   UNL     1       2.200   1.183  -5.391  1.00  0.00     0.000 C 
ENDBRANCH  15  16
ENDBRANCH  13  15
ENDBRANCH  10  11
ENDBRANCH   6  10
ENDBRANCH   3   5
ENDBRANCH   2   3
ENDBRANCH   1   2
BRANCH   1  21
ATOM     21  C   UNL     1       0.686  -3.476  -0.459  1.00  0.00     0.275 C 
BRANCH  21  22
ATOM     22  O   UNL     1       1.705  -4.389  -0.023  1.00  0.00    -0.458 OA
BRANCH  22  23
ATOM     23  C   UNL     1       2.933  -3.837  -0.015  1.00  0.00     0.338 C 
ATOM     24  O   UNL     1       3.215  -2.652  -0.070  1.00  0.00    -0.246 OA
BRANCH  23  25
ATOM     25  C   UNL     1       4.027  -4.773  -0.176  1.00  0.00     0.060 A 
ATOM     26  C   UNL     1       5.236  -4.385   0.418  1.00  0.00     0.016 A 
ATOM     27  C   UNL     1       3.966  -5.692  -1.226  1.00  0.00     0.016 A 
ATOM     28  C   UNL     1       6.418  -4.857  -0.103  1.00  0.00     0.010 A 
ATOM     29  C   UNL     1       5.155  -6.162  -1.754  1.00  0.00     0.010 A 
ATOM     30  C   UNL     1       6.369  -5.719  -1.203  1.00  0.00    -0.014 A 
BRANCH  30  31
ATOM     31  C   UNL     1       7.644  -6.271  -1.674  1.00  0.00     0.031 A 
ATOM     32  C   UNL     1       8.052  -7.494  -0.853  1.00  0.00     0.074 A 
ATOM     33  C   UNL     1       8.239  -5.598  -2.700  1.00  0.00     0.049 A 
ATOM     34  N   UNL     1       9.208  -8.066  -0.719  1.00  0.00    -0.248 NA
ATOM     35  C   UNL     1       7.017  -8.156  -0.004  1.00  0.00     0.031 C 
ATOM     36  C   UNL     1       7.675  -4.395  -3.348  1.00  0.00     0.029 A 
ATOM     37  N   UNL     1       9.416  -5.760  -3.396  1.00  0.00    -0.354 N 
ATOM     38  C   UNL     1       8.994  -9.247   0.018  1.00  0.00     0.074 A 
ATOM     39  C   UNL     1       7.664  -9.185   0.537  1.00  0.00     0.031 C 
ATOM     40  C   UNL     1       8.525  -3.908  -4.274  1.00  0.00     0.029 A 
ATOM     41  C   UNL     1       9.706  -4.745  -4.344  1.00  0.00     0.049 A 
ATOM     42  H   UNL     1      10.015  -6.527  -3.246  1.00  0.00     0.167 HD
ATOM     43  C   UNL     1       9.871 -10.287   0.050  1.00  0.00     0.037 A 
ATOM     44  C   UNL     1      10.832  -4.577  -5.105  1.00  0.00     0.037 A 
ATOM     45  C   UNL     1      11.063  -9.975  -0.660  1.00  0.00     0.049 A 
ATOM     46  C   UNL     1      11.636  -5.791  -4.875  1.00  0.00     0.074 A 
ATOM     47  C   UNL     1      12.148  -9.199  -0.351  1.00  0.00     0.029 A 
ATOM     48  N   UNL     1      11.081 -10.243  -2.007  1.00  0.00    -0.354 N 
ATOM     49  N   UNL     1      11.332  -6.972  -5.325  1.00  0.00    -0.248 NA
ATOM     50  C   UNL     1      12.807  -5.717  -3.994  1.00  0.00     0.031 C 
ATOM     51  C   UNL     1      12.589  -8.697  -1.595  1.00  0.00     0.029 A 
ATOM     52  C   UNL     1      11.819  -9.256  -2.620  1.00  0.00     0.049 A 
ATOM     53  H   UNL     1      10.644 -11.005  -2.453  1.00  0.00     0.167 HD
ATOM     54  C   UNL     1      12.066  -7.808  -4.516  1.00  0.00     0.074 A 
ATOM     55  C   UNL     1      13.132  -7.006  -3.960  1.00  0.00     0.031 C 
ATOM     56  C   UNL     1      11.494  -8.922  -3.991  1.00  0.00     0.037 A 
BRANCH  43  57
ATOM     57  C   UNL     1       9.669 -11.689   0.531  1.00  0.00     0.057 A 
ATOM     58  C   UNL     1      10.789 -12.427   0.962  1.00  0.00     0.134 A 
ATOM     59  C   UNL     1       8.495 -12.421   0.312  1.00  0.00     0.134 A 
ATOM     60  F   UNL     1      11.956 -11.818   1.225  1.00  0.00    -0.206 F 
ATOM     61  C   UNL     1      10.768 -13.818   1.083  1.00  0.00     0.040 A 
ATOM     62  C   UNL     1       8.452 -13.812   0.469  1.00  0.00     0.040 A 
ATOM     63  F   UNL     1       7.380 -11.833  -0.142  1.00  0.00    -0.206 F 
ATOM     64  C   UNL     1       9.598 -14.518   0.823  1.00  0.00     0.006 A 
ENDBRANCH  43  57
BRANCH  44  65
ATOM     65  C   UNL     1      11.435  -3.513  -5.997  1.00  0.00     0.057 A 
ATOM     66  C   UNL     1      10.836  -2.305  -6.372  1.00  0.00     0.134 A 
ATOM     67  C   UNL     1      12.771  -3.649  -6.468  1.00  0.00     0.134 A 
ATOM     68  F   UNL     1       9.552  -2.045  -6.115  1.00  0.00    -0.206 F 
ATOM     69  C   UNL     1      11.532  -1.285  -7.053  1.00  0.00     0.040 A 
ATOM     70  C   UNL     1      13.486  -2.633  -7.113  1.00  0.00     0.040 A 
ATOM     71  F   UNL     1      13.463  -4.786  -6.314  1.00  0.00    -0.206 F 
ATOM     72  C   UNL     1      12.870  -1.430  -7.393  1.00  0.00     0.006 A 
ENDBRANCH  44  65
BRANCH  56  73
ATOM     73  C   UNL     1      10.279  -9.403  -4.765  1.00  0.00     0.057 A 
ATOM     74  C   UNL     1      10.409  -9.847  -6.087  1.00  0.00     0.134 A 
ATOM     75  C   UNL     1       8.963  -9.316  -4.288  1.00  0.00     0.134 A 
ATOM     76  F   UNL     1      11.626  -9.978  -6.637  1.00  0.00    -0.206 F 
ATOM     77  C   UNL     1       9.297 -10.159  -6.883  1.00  0.00     0.040 A 
ATOM     78  C   UNL     1       7.841  -9.631  -5.062  1.00  0.00     0.040 A 
ATOM     79  F   UNL     1       8.715  -8.922  -3.043  1.00  0.00    -0.206 F 
ATOM     80  C   UNL     1       8.006 -10.046  -6.374  1.00  0.00     0.006 A 
ENDBRANCH  56  73
ENDBRANCH  30  31
ENDBRANCH  23  25
ENDBRANCH  22  23
ENDBRANCH  21  22
ENDBRANCH   1  21
TORSDOF 15
