REMARK SMILES Nc1ccc(-c2cc(Cl)cc3c2O[C@H](C(F)(F)F)C(C(=O)OCCOC(=O)c2ccc(-c4c5nc(c(-c6c(F)cccc6F)c6ccc([nH]6)c(-c6c(F)cccc6F)c6nc(c(-c7c(F)cccc7F)c7ccc4[nH]7)C=C6)C=C5)cc2)=C3)cc1
REMARK SMILES IDX 23 1 22 2 20 3 21 4 19 5 6 6 7 7 12 8 8 9 11 10 13 11 9 12
REMARK SMILES IDX 10 13 82 14 14 15 5 16 2 17 3 18 84 19 4 20 83 21 1 22 15 25
REMARK SMILES IDX 16 26 17 27 18 28 24 29 25 30 26 31 27 32 28 33 29 34 81 35
REMARK SMILES IDX 30 36 80 37 31 38 32 39 33 40 74 41 34 42 79 43 73 44 75 45
REMARK SMILES IDX 35 46 78 47 72 48 71 49 36 51 62 52 45 53 61 54 46 55 49 56
REMARK SMILES IDX 60 57 76 58 47 59 48 60 59 62 77 63 50 64 37 65 38 66 43 67
REMARK SMILES IDX 39 68 40 69 42 70 44 71 41 72 63 73 64 74 69 75 65 76 66 77
REMARK SMILES IDX 68 78 70 79 67 80 51 81 52 82 57 83 53 84 54 85 56 86 58 87
REMARK SMILES IDX 55 88
REMARK H PARENT 1 23 1 24 75 50 49 61
REMARK Flexibility Score: inf
ROOT
ATOM      1  C   UNL     1      -6.118  -3.498   6.155  1.00  0.00     0.275 C 
ENDROOT
BRANCH   1   2
ATOM      2  O   UNL     1      -5.441  -2.749   5.121  1.00  0.00    -0.459 OA
BRANCH   2   3
ATOM      3  C   UNL     1      -5.858  -2.983   3.855  1.00  0.00     0.338 C 
ATOM      4  O   UNL     1      -6.738  -3.754   3.505  1.00  0.00    -0.246 OA
BRANCH   3   5
ATOM      5  C   UNL     1      -5.121  -2.123   2.908  1.00  0.00     0.087 C 
ATOM      6  C   UNL     1      -3.008   0.041  -0.001  1.00  0.00     0.026 A 
ATOM      7  C   UNL     1      -3.740   0.690  -1.014  1.00  0.00     0.033 A 
ATOM      8  C   UNL     1      -3.715  -0.641   1.011  1.00  0.00     0.135 A 
ATOM      9  C   UNL     1      -5.132   0.657  -1.019  1.00  0.00     0.042 A 
ATOM     10  C   UNL     1      -5.109  -0.703   0.972  1.00  0.00     0.019 A 
ATOM     11  O   UNL     1      -2.986  -1.194   2.033  1.00  0.00    -0.475 OA
ATOM     12  Cl  UNL     1      -6.006   1.463  -2.262  1.00  0.00    -0.084 Cl
ATOM     13  C   UNL     1      -5.820  -0.041  -0.035  1.00  0.00     0.032 A 
ATOM     14  C   UNL     1      -5.819  -1.486   1.961  1.00  0.00     0.027 C 
ATOM     15  C   UNL     1      -3.622  -2.099   2.971  1.00  0.00     0.316 C 
BRANCH   6  16
ATOM     16  C   UNL     1      -1.538   0.052  -0.042  1.00  0.00    -0.014 A 
ATOM     17  C   UNL     1       1.290   0.049  -0.061  1.00  0.00     0.031 A 
ATOM     18  C   UNL     1       0.580  -1.149  -0.120  1.00  0.00     0.026 A 
ATOM     19  C   UNL     1       0.579   1.249  -0.055  1.00  0.00     0.026 A 
ATOM     20  C   UNL     1      -0.817  -1.150  -0.103  1.00  0.00     0.011 A 
ATOM     21  C   UNL     1      -0.820   1.254  -0.033  1.00  0.00     0.011 A 
BRANCH  17  22
ATOM     22  N   UNL     1       2.673   0.048  -0.138  1.00  0.00    -0.399 N 
ATOM     23  H   UNL     1       3.166  -0.804  -0.141  1.00  0.00     0.156 HD
ATOM     24  H   UNL     1       3.163   0.901  -0.189  1.00  0.00     0.156 HD
ENDBRANCH  17  22
ENDBRANCH   6  16
BRANCH  15  25
ATOM     25  C   UNL     1      -3.037  -3.506   2.765  1.00  0.00     0.430 C 
ATOM     26  F   UNL     1      -1.684  -3.492   2.794  1.00  0.00    -0.167 F 
ATOM     27  F   UNL     1      -3.437  -4.359   3.738  1.00  0.00    -0.167 F 
ATOM     28  F   UNL     1      -3.411  -4.041   1.580  1.00  0.00    -0.167 F 
ENDBRANCH  15  25
ENDBRANCH   3   5
ENDBRANCH   2   3
ENDBRANCH   1   2
BRANCH   1  29
ATOM     29  C   UNL     1      -7.113  -2.620   6.914  1.00  0.00     0.275 C 
BRANCH  29  30
ATOM     30  O   UNL     1      -8.206  -2.255   6.053  1.00  0.00    -0.458 OA
BRANCH  30  31
ATOM     31  C   UNL     1      -8.263  -0.952   5.695  1.00  0.00     0.338 C 
ATOM     32  O   UNL     1      -7.530  -0.046   6.048  1.00  0.00    -0.246 OA
BRANCH  31  33
ATOM     33  C   UNL     1      -9.326  -0.775   4.695  1.00  0.00     0.060 A 
ATOM     34  C   UNL     1     -10.465  -0.027   4.963  1.00  0.00     0.016 A 
ATOM     35  C   UNL     1      -9.105  -1.266   3.414  1.00  0.00     0.016 A 
ATOM     36  C   UNL     1     -11.390   0.197   3.935  1.00  0.00     0.010 A 
ATOM     37  C   UNL     1      -9.944  -0.917   2.362  1.00  0.00     0.010 A 
ATOM     38  C   UNL     1     -11.127  -0.218   2.612  1.00  0.00    -0.014 A 
BRANCH  38  39
ATOM     39  C   UNL     1     -12.085   0.054   1.500  1.00  0.00     0.031 A 
ATOM     40  C   UNL     1     -12.628  -1.071   0.645  1.00  0.00     0.074 A 
ATOM     41  C   UNL     1     -12.444   1.324   1.223  1.00  0.00     0.049 A 
ATOM     42  N   UNL     1     -13.481  -1.017  -0.350  1.00  0.00    -0.248 NA
ATOM     43  C   UNL     1     -12.114  -2.426   0.905  1.00  0.00     0.031 C 
ATOM     44  C   UNL     1     -11.915   2.519   1.884  1.00  0.00     0.029 A 
ATOM     45  N   UNL     1     -13.352   1.821   0.321  1.00  0.00    -0.354 N 
ATOM     46  C   UNL     1     -13.574  -2.314  -0.844  1.00  0.00     0.074 A 
ATOM     47  C   UNL     1     -12.635  -3.117  -0.096  1.00  0.00     0.031 C 
ATOM     48  C   UNL     1     -12.564   3.601   1.424  1.00  0.00     0.029 A 
ATOM     49  C   UNL     1     -13.528   3.182   0.412  1.00  0.00     0.049 A 
ATOM     50  H   UNL     1     -13.832   1.258  -0.328  1.00  0.00     0.167 HD
ATOM     51  C   UNL     1     -14.396  -2.810  -1.801  1.00  0.00     0.037 A 
ATOM     52  C   UNL     1     -14.386   3.997  -0.229  1.00  0.00     0.037 A 
ATOM     53  C   UNL     1     -15.382  -2.031  -2.500  1.00  0.00     0.049 A 
ATOM     54  C   UNL     1     -15.344   3.416  -1.230  1.00  0.00     0.074 A 
ATOM     55  C   UNL     1     -16.330  -2.454  -3.415  1.00  0.00     0.029 A 
ATOM     56  N   UNL     1     -15.553  -0.664  -2.349  1.00  0.00    -0.354 N 
ATOM     57  N   UNL     1     -15.486   2.170  -1.613  1.00  0.00    -0.248 NA
ATOM     58  C   UNL     1     -16.267   4.356  -1.883  1.00  0.00     0.031 C 
ATOM     59  C   UNL     1     -17.060  -1.337  -3.837  1.00  0.00     0.029 A 
ATOM     60  C   UNL     1     -16.586  -0.225  -3.160  1.00  0.00     0.049 A 
ATOM     61  H   UNL     1     -15.018  -0.090  -1.754  1.00  0.00     0.167 HD
ATOM     62  C   UNL     1     -16.523   2.174  -2.537  1.00  0.00     0.074 A 
ATOM     63  C   UNL     1     -16.990   3.541  -2.637  1.00  0.00     0.031 C 
ATOM     64  C   UNL     1     -17.039   1.139  -3.244  1.00  0.00     0.037 A 
BRANCH  51  65
ATOM     65  C   UNL     1     -14.286  -4.276  -2.116  1.00  0.00     0.057 A 
ATOM     66  C   UNL     1     -13.787  -4.712  -3.350  1.00  0.00     0.134 A 
ATOM     67  C   UNL     1     -14.686  -5.260  -1.200  1.00  0.00     0.134 A 
ATOM     68  F   UNL     1     -13.396  -3.827  -4.279  1.00  0.00    -0.206 F 
ATOM     69  C   UNL     1     -13.679  -6.071  -3.655  1.00  0.00     0.040 A 
ATOM     70  C   UNL     1     -14.555  -6.620  -1.482  1.00  0.00     0.040 A 
ATOM     71  F   UNL     1     -15.164  -4.911   0.005  1.00  0.00    -0.206 F 
ATOM     72  C   UNL     1     -14.054  -7.029  -2.715  1.00  0.00     0.006 A 
ENDBRANCH  51  65
BRANCH  52  73
ATOM     73  C   UNL     1     -14.428   5.443   0.103  1.00  0.00     0.057 A 
ATOM     74  C   UNL     1     -13.407   6.317  -0.282  1.00  0.00     0.134 A 
ATOM     75  C   UNL     1     -15.508   5.983   0.813  1.00  0.00     0.134 A 
ATOM     76  F   UNL     1     -12.342   5.859  -0.956  1.00  0.00    -0.206 F 
ATOM     77  C   UNL     1     -13.456   7.678   0.027  1.00  0.00     0.040 A 
ATOM     78  C   UNL     1     -15.581   7.345   1.109  1.00  0.00     0.040 A 
ATOM     79  F   UNL     1     -16.525   5.197   1.196  1.00  0.00    -0.206 F 
ATOM     80  C   UNL     1     -14.550   8.196   0.718  1.00  0.00     0.006 A 
ENDBRANCH  52  73
BRANCH  64  81
ATOM     81  C   UNL     1     -18.177   1.448  -4.168  1.00  0.00     0.057 A 
ATOM     82  C   UNL     1     -19.480   1.040  -3.858  1.00  0.00     0.134 A 
ATOM     83  C   UNL     1     -17.979   2.130  -5.375  1.00  0.00     0.134 A 
ATOM     84  F   UNL     1     -19.734   0.376  -2.721  1.00  0.00    -0.206 F 
ATOM     85  C   UNL     1     -20.548   1.301  -4.717  1.00  0.00     0.040 A 
ATOM     86  C   UNL     1     -19.043   2.418  -6.231  1.00  0.00     0.040 A 
ATOM     87  F   UNL     1     -16.756   2.559  -5.720  1.00  0.00    -0.206 F 
ATOM     88  C   UNL     1     -20.331   1.998  -5.904  1.00  0.00     0.006 A 
ENDBRANCH  64  81
ENDBRANCH  38  39
ENDBRANCH  31  33
ENDBRANCH  30  31
ENDBRANCH  29  30
ENDBRANCH   1  29
TORSDOF 14
