REMARK SMILES O=C(OCCOC(=O)[C@@]1(CCc2ccccc2)CCC[N@@H+](Cc2cccnc2)C1)c1ccc(-c2c3nc(c(-c4c(F)cccc4F)c4ccc([nH]4)c(-c4c(F)cccc4F)c4nc(c(-c5c(F)cccc5F)c5ccc2[nH]5)C=C4)C=C3)cc1
REMARK SMILES IDX 5 1 4 2 3 3 2 4 1 5 30 6 31 7 83 8 32 9 82 10 33 11 34 12
REMARK SMILES IDX 35 13 76 14 36 15 81 16 75 17 77 18 37 19 80 20 74 21 73 22
REMARK SMILES IDX 38 24 64 25 47 26 63 27 48 28 51 29 62 30 78 31 49 32 50 33
REMARK SMILES IDX 61 35 79 36 52 37 39 38 40 39 45 40 41 41 42 42 44 43 46 44
REMARK SMILES IDX 43 45 65 46 66 47 71 48 67 49 68 50 70 51 72 52 69 53 53 54
REMARK SMILES IDX 54 55 59 56 55 57 56 58 58 59 60 60 57 61 6 62 7 63 8 64
REMARK SMILES IDX 9 65 18 66 29 67 19 68 21 69 20 70 10 72 11 73 12 74 13 75
REMARK SMILES IDX 17 76 14 77 16 78 15 79 22 80 23 81 24 82 28 83 25 84 27 85
REMARK SMILES IDX 26 86
REMARK H PARENT 77 23 51 34 21 71
REMARK Flexibility Score: inf
ROOT
ATOM      1  C   UNL     1       4.554   1.264   1.675  1.00  0.00     0.274 C 
ENDROOT
BRANCH   1   2
ATOM      2  C   UNL     1       4.178   2.039  -0.025  1.00  0.00     0.275 C 
BRANCH   2   3
ATOM      3  O   UNL     1       2.536   1.489  -1.107  1.00  0.00    -0.458 OA
BRANCH   3   4
ATOM      4  C   UNL     1       1.609   0.152  -1.117  1.00  0.00     0.338 C 
ATOM      5  O   UNL     1       0.547   0.128  -1.724  1.00  0.00    -0.246 OA
BRANCH   4   6
ATOM      6  C   UNL     1       2.261  -1.263  -0.175  1.00  0.00     0.060 A 
ATOM      7  C   UNL     1       3.989  -1.284   0.707  1.00  0.00     0.016 A 
ATOM      8  C   UNL     1       1.951  -2.567  -1.326  1.00  0.00     0.016 A 
ATOM      9  C   UNL     1       5.241  -2.470   0.281  1.00  0.00     0.010 A 
ATOM     10  C   UNL     1       3.233  -3.737  -1.643  1.00  0.00     0.010 A 
ATOM     11  C   UNL     1       4.797  -3.722  -0.829  1.00  0.00    -0.014 A 
BRANCH  11  12
ATOM     12  C   UNL     1       5.550  -5.011  -0.698  1.00  0.00     0.031 A 
ATOM     13  C   UNL     1       6.041  -5.649  -1.948  1.00  0.00     0.074 A 
ATOM     14  C   UNL     1       5.721  -5.630   0.503  1.00  0.00     0.049 A 
ATOM     15  N   UNL     1       6.668  -6.782  -2.091  1.00  0.00    -0.248 NA
ATOM     16  C   UNL     1       5.848  -4.889  -3.193  1.00  0.00     0.031 C 
ATOM     17  C   UNL     1       5.428  -5.094   1.838  1.00  0.00     0.029 A 
ATOM     18  N   UNL     1       6.169  -6.900   0.808  1.00  0.00    -0.354 N 
ATOM     19  C   UNL     1       7.003  -6.844  -3.431  1.00  0.00     0.074 A 
ATOM     20  C   UNL     1       6.415  -5.691  -4.079  1.00  0.00     0.031 C 
ATOM     21  C   UNL     1       5.565  -6.038   2.774  1.00  0.00     0.029 A 
ATOM     22  C   UNL     1       6.026  -7.242   2.140  1.00  0.00     0.049 A 
ATOM     23  H   UNL     1       6.556  -7.507   0.137  1.00  0.00     0.167 HD
ATOM     24  C   UNL     1       7.785  -7.756  -4.047  1.00  0.00     0.037 A 
ATOM     25  C   UNL     1       6.269  -8.375   2.822  1.00  0.00     0.037 A 
ATOM     26  C   UNL     1       8.309  -8.921  -3.392  1.00  0.00     0.049 A 
ATOM     27  C   UNL     1       6.969  -9.458   2.075  1.00  0.00     0.074 A 
ATOM     28  C   UNL     1       9.069  -9.942  -3.927  1.00  0.00     0.029 A 
ATOM     29  N   UNL     1       8.096  -9.233  -2.054  1.00  0.00    -0.354 N 
ATOM     30  N   UNL     1       7.338  -9.466   0.818  1.00  0.00    -0.248 NA
ATOM     31  C   UNL     1       7.353 -10.649   2.837  1.00  0.00     0.031 C 
ATOM     32  C   UNL     1       9.250 -10.909  -2.933  1.00  0.00     0.029 A 
ATOM     33  C   UNL     1       8.674 -10.454  -1.757  1.00  0.00     0.049 A 
ATOM     34  H   UNL     1       7.607  -8.668  -1.413  1.00  0.00     0.167 HD
ATOM     35  C   UNL     1       8.056 -10.634   0.650  1.00  0.00     0.074 A 
ATOM     36  C   UNL     1       8.067 -11.307   1.935  1.00  0.00     0.031 C 
ATOM     37  C   UNL     1       8.666 -11.097  -0.466  1.00  0.00     0.037 A 
BRANCH  24  38
ATOM     38  C   UNL     1       8.056  -7.515  -5.499  1.00  0.00     0.057 A 
ATOM     39  C   UNL     1       8.842  -6.435  -5.931  1.00  0.00     0.134 A 
ATOM     40  C   UNL     1       7.449  -8.309  -6.476  1.00  0.00     0.134 A 
ATOM     41  F   UNL     1       9.421  -5.615  -5.040  1.00  0.00    -0.206 F 
ATOM     42  C   UNL     1       8.973  -6.127  -7.285  1.00  0.00     0.040 A 
ATOM     43  C   UNL     1       7.597  -8.027  -7.834  1.00  0.00     0.040 A 
ATOM     44  F   UNL     1       6.676  -9.347  -6.126  1.00  0.00    -0.206 F 
ATOM     45  C   UNL     1       8.348  -6.925  -8.241  1.00  0.00     0.006 A 
ENDBRANCH  24  38
BRANCH  25  46
ATOM     46  C   UNL     1       5.942  -8.512   4.272  1.00  0.00     0.057 A 
ATOM     47  C   UNL     1       6.944  -8.598   5.248  1.00  0.00     0.134 A 
ATOM     48  C   UNL     1       4.616  -8.612   4.716  1.00  0.00     0.134 A 
ATOM     49  F   UNL     1       8.235  -8.499   4.897  1.00  0.00    -0.206 F 
ATOM     50  C   UNL     1       6.648  -8.839   6.593  1.00  0.00     0.040 A 
ATOM     51  C   UNL     1       4.303  -8.831   6.063  1.00  0.00     0.040 A 
ATOM     52  F   UNL     1       3.600  -8.506   3.847  1.00  0.00    -0.206 F 
ATOM     53  C   UNL     1       5.323  -8.964   7.003  1.00  0.00     0.006 A 
ENDBRANCH  25  46
BRANCH  37  54
ATOM     54  C   UNL     1       9.426 -12.377  -0.329  1.00  0.00     0.057 A 
ATOM     55  C   UNL     1       8.781 -13.604  -0.138  1.00  0.00     0.134 A 
ATOM     56  C   UNL     1      10.820 -12.380  -0.452  1.00  0.00     0.134 A 
ATOM     57  F   UNL     1       7.448 -13.658   0.011  1.00  0.00    -0.206 F 
ATOM     58  C   UNL     1       9.501 -14.793  -0.059  1.00  0.00     0.040 A 
ATOM     59  C   UNL     1      11.547 -13.567  -0.415  1.00  0.00     0.040 A 
ATOM     60  F   UNL     1      11.493 -11.234  -0.636  1.00  0.00    -0.206 F 
ATOM     61  C   UNL     1      10.886 -14.778  -0.214  1.00  0.00     0.006 A 
ENDBRANCH  37  54
ENDBRANCH  11  12
ENDBRANCH   4   6
ENDBRANCH   3   4
ENDBRANCH   2   3
ENDBRANCH   1   2
BRANCH   1  62
ATOM     62  O   UNL     1       3.487   0.300   2.701  1.00  0.00    -0.461 OA
BRANCH  62  63
ATOM     63  C   UNL     1       2.371  -0.676   2.696  1.00  0.00     0.317 C 
ATOM     64  O   UNL     1       1.352  -0.307   3.295  1.00  0.00    -0.251 OA
BRANCH  63  65
ATOM     65  C   UNL     1       2.406  -2.380   2.101  1.00  0.00     0.117 C 
ATOM     66  C   UNL     1       2.776  -2.878   3.583  1.00  0.00     0.030 C 
ATOM     67  C   UNL     1       1.120  -3.356   1.912  1.00  0.00     0.281 C 
ATOM     68  C   UNL     1       2.686  -4.309   4.107  1.00  0.00     0.063 C 
ATOM     69  N   UNL     1       1.617  -4.772   2.046  1.00  0.00    -0.330 N 
ATOM     70  C   UNL     1       1.704  -5.217   3.407  1.00  0.00     0.262 C 
ATOM     71  H   UNL     1       2.441  -4.469   1.526  1.00  0.00     0.348 HD
BRANCH  65  72
ATOM     72  C   UNL     1       3.153  -2.952   0.448  1.00  0.00     0.029 C 
BRANCH  72  73
ATOM     73  C   UNL     1       3.904  -1.662  -1.168  1.00  0.00     0.037 C 
BRANCH  73  74
ATOM     74  C   UNL     1       3.838   0.185  -0.834  1.00  0.00    -0.048 A 
ATOM     75  C   UNL     1       2.707   0.889   0.572  1.00  0.00     0.004 A 
ATOM     76  C   UNL     1       4.165   1.226  -2.216  1.00  0.00     0.004 A 
ATOM     77  C   UNL     1       2.126   2.570   0.506  1.00  0.00     0.000 A 
ATOM     78  C   UNL     1       3.545   2.866  -2.174  1.00  0.00     0.000 A 
ATOM     79  C   UNL     1       2.554   3.510  -0.877  1.00  0.00     0.000 A 
ENDBRANCH  73  74
ENDBRANCH  72  73
ENDBRANCH  65  72
BRANCH  69  80
ATOM     80  C   UNL     1       1.591  -5.847   1.055  1.00  0.00     0.300 C 
BRANCH  80  81
ATOM     81  C   UNL     1       0.219  -6.296   0.696  1.00  0.00     0.025 A 
ATOM     82  C   UNL     1      -0.510  -5.614  -0.277  1.00  0.00     0.013 A 
ATOM     83  C   UNL     1      -0.395  -7.347   1.364  1.00  0.00     0.120 A 
ATOM     84  C   UNL     1      -1.845  -5.926  -0.464  1.00  0.00     0.021 A 
ATOM     85  N   UNL     1      -1.688  -7.687   1.187  1.00  0.00    -0.264 NA
ATOM     86  C   UNL     1      -2.388  -6.944   0.302  1.00  0.00     0.111 A 
ENDBRANCH  80  81
ENDBRANCH  69  80
ENDBRANCH  63  65
ENDBRANCH  62  63
ENDBRANCH   1  62
TORSDOF 16
