REMARK SMILES Cc1ccc(-c2cc(OCC(=O)OCCOC(=O)c3ccc(-c4c5nc(c(-c6c(F)cccc6F)c6ccc([nH]6)c(-c6c(F)cccc6F)c6nc(c(-c7c(F)cccc7F)c7ccc4[nH]7)C=C6)C=C5)cc3)nc(NCc3ccc4c(c3)OCO4)n2)cc1
REMARK SMILES IDX 13 1 11 2 12 3 10 4 9 5 8 6 6 7 7 8 86 9 74 10 73 11 5 12
REMARK SMILES IDX 1 13 2 14 3 15 88 16 4 17 87 18 75 19 76 21 77 22 78 23
REMARK SMILES IDX 82 24 79 25 81 26 80 27 83 28 85 29 84 30 14 31 15 32 16 33
REMARK SMILES IDX 17 34 18 35 19 36 20 37 72 38 21 39 71 40 22 41 23 42 24 43
REMARK SMILES IDX 65 44 25 45 70 46 64 47 66 48 26 49 69 50 63 51 62 52 27 54
REMARK SMILES IDX 53 55 36 56 52 57 37 58 40 59 51 60 67 61 38 62 39 63 50 65
REMARK SMILES IDX 68 66 41 67 28 68 29 69 34 70 30 71 31 72 33 73 35 74 32 75
REMARK SMILES IDX 54 76 55 77 60 78 56 79 57 80 59 81 61 82 58 83 42 84 43 85
REMARK SMILES IDX 48 86 44 87 45 88 47 89 49 90 46 91
REMARK H PARENT 75 20 66 53 40 64
REMARK Flexibility Score: inf
ROOT
ATOM      1  O   UNL     1      -4.164   5.087  -1.726  1.00  0.00    -0.460 OA
ENDROOT
BRANCH   1   2
ATOM      2  C   UNL     1      -3.932   3.837  -2.433  1.00  0.00     0.344 C 
ATOM      3  O   UNL     1      -2.720   3.887  -2.788  1.00  0.00    -0.248 OA
BRANCH   2   4
ATOM      4  C   UNL     1      -5.380   2.200  -2.514  1.00  0.00     0.353 C 
BRANCH   4   5
ATOM      5  O   UNL     1      -5.431   0.641  -2.227  1.00  0.00    -0.466 OA
BRANCH   5   6
ATOM      6  C   UNL     1      -5.075   0.059  -1.001  1.00  0.00     0.219 A 
ATOM      7  C   UNL     1      -3.281  -0.721   0.276  1.00  0.00     0.080 A 
ATOM      8  C   UNL     1      -3.828  -0.537  -0.975  1.00  0.00     0.097 A 
ATOM      9  N   UNL     1      -4.030  -0.621   1.375  1.00  0.00    -0.213 NA
ATOM     10  C   UNL     1      -5.327  -0.325   1.233  1.00  0.00     0.226 A 
ATOM     11  N   UNL     1      -5.869   0.150   0.087  1.00  0.00    -0.177 NA
BRANCH   7  12
ATOM     12  C   UNL     1      -1.825  -0.773   0.487  1.00  0.00     0.000 A 
ATOM     13  C   UNL     1       2.441  -0.213   0.054  1.00  0.00     0.044 C 
ATOM     14  C   UNL     1       0.980  -0.450   0.293  1.00  0.00    -0.051 A 
ATOM     15  C   UNL     1       0.362  -1.630  -0.135  1.00  0.00     0.004 A 
ATOM     16  C   UNL     1       0.211   0.501   0.960  1.00  0.00     0.004 A 
ATOM     17  C   UNL     1      -1.030  -1.777  -0.068  1.00  0.00     0.010 A 
ATOM     18  C   UNL     1      -1.167   0.303   1.115  1.00  0.00     0.010 A 
ENDBRANCH   7  12
BRANCH  10  19
ATOM     19  N   UNL     1      -6.129  -0.560   2.330  1.00  0.00    -0.350 N 
ATOM     20  H   UNL     1      -6.978  -0.075   2.445  1.00  0.00     0.164 HD
BRANCH  19  21
ATOM     21  C   UNL     1      -5.692  -1.546   3.318  1.00  0.00     0.152 C 
BRANCH  21  22
ATOM     22  C   UNL     1      -6.037  -2.983   2.948  1.00  0.00    -0.025 A 
ATOM     23  C   UNL     1      -5.405  -4.056   3.637  1.00  0.00     0.009 A 
ATOM     24  C   UNL     1      -6.943  -3.286   1.919  1.00  0.00     0.056 A 
ATOM     25  C   UNL     1      -5.612  -5.393   3.262  1.00  0.00     0.051 A 
ATOM     26  C   UNL     1      -7.086  -4.602   1.540  1.00  0.00     0.166 A 
ATOM     27  C   UNL     1      -6.428  -5.626   2.180  1.00  0.00     0.165 A 
ATOM     28  O   UNL     1      -7.807  -5.039   0.472  1.00  0.00    -0.454 OA
ATOM     29  O   UNL     1      -6.647  -6.827   1.575  1.00  0.00    -0.454 OA
ATOM     30  C   UNL     1      -7.279  -6.375   0.358  1.00  0.00     0.468 C 
ENDBRANCH  21  22
ENDBRANCH  19  21
ENDBRANCH  10  19
ENDBRANCH   5   6
ENDBRANCH   4   5
ENDBRANCH   2   4
ENDBRANCH   1   2
BRANCH   1  31
ATOM     31  C   UNL     1      -3.082   5.643  -0.952  1.00  0.00     0.274 C 
BRANCH  31  32
ATOM     32  C   UNL     1      -2.970   4.908   0.392  1.00  0.00     0.275 C 
BRANCH  32  33
ATOM     33  O   UNL     1      -2.325   3.612   0.400  1.00  0.00    -0.458 OA
BRANCH  33  34
ATOM     34  C   UNL     1      -2.483   2.604  -0.475  1.00  0.00     0.338 C 
ATOM     35  O   UNL     1      -1.512   1.997  -0.912  1.00  0.00    -0.246 OA
BRANCH  34  36
ATOM     36  C   UNL     1      -3.791   2.313  -1.137  1.00  0.00     0.060 A 
ATOM     37  C   UNL     1      -3.371   1.839  -2.856  1.00  0.00     0.016 A 
ATOM     38  C   UNL     1      -5.225   3.373  -0.836  1.00  0.00     0.016 A 
ATOM     39  C   UNL     1      -4.137   2.677  -4.227  1.00  0.00     0.010 A 
ATOM     40  C   UNL     1      -6.024   4.187  -2.262  1.00  0.00     0.010 A 
ATOM     41  C   UNL     1      -5.373   3.910  -3.917  1.00  0.00    -0.014 A 
BRANCH  41  42
ATOM     42  C   UNL     1      -5.283   5.156  -4.702  1.00  0.00     0.031 A 
ATOM     43  C   UNL     1      -6.540   5.615  -5.272  1.00  0.00     0.074 A 
ATOM     44  C   UNL     1      -4.140   5.899  -4.758  1.00  0.00     0.049 A 
ATOM     45  N   UNL     1      -6.617   6.377  -6.297  1.00  0.00    -0.248 NA
ATOM     46  C   UNL     1      -7.837   5.123  -4.821  1.00  0.00     0.031 C 
ATOM     47  C   UNL     1      -3.964   7.331  -5.011  1.00  0.00     0.029 A 
ATOM     48  N   UNL     1      -2.827   5.503  -4.594  1.00  0.00    -0.354 N 
ATOM     49  C   UNL     1      -7.915   6.820  -6.339  1.00  0.00     0.074 A 
ATOM     50  C   UNL     1      -8.657   5.845  -5.585  1.00  0.00     0.031 C 
ATOM     51  C   UNL     1      -2.653   7.609  -5.189  1.00  0.00     0.029 A 
ATOM     52  C   UNL     1      -1.921   6.358  -5.192  1.00  0.00     0.049 A 
ATOM     53  H   UNL     1      -2.563   4.693  -4.101  1.00  0.00     0.167 HD
ATOM     54  C   UNL     1      -8.133   8.083  -6.800  1.00  0.00     0.037 A 
ATOM     55  C   UNL     1      -1.095   5.883  -6.171  1.00  0.00     0.037 A 
ATOM     56  C   UNL     1      -6.858   8.671  -7.259  1.00  0.00     0.049 A 
ATOM     57  C   UNL     1      -1.590   6.339  -7.533  1.00  0.00     0.074 A 
ATOM     58  C   UNL     1      -5.971   9.600  -6.737  1.00  0.00     0.029 A 
ATOM     59  N   UNL     1      -6.137   7.998  -8.236  1.00  0.00    -0.354 N 
ATOM     60  N   UNL     1      -2.668   7.055  -7.713  1.00  0.00    -0.248 NA
ATOM     61  C   UNL     1      -0.956   5.993  -8.798  1.00  0.00     0.031 C 
ATOM     62  C   UNL     1      -4.733   9.491  -7.449  1.00  0.00     0.029 A 
ATOM     63  C   UNL     1      -4.870   8.513  -8.418  1.00  0.00     0.049 A 
ATOM     64  H   UNL     1      -6.492   7.234  -8.744  1.00  0.00     0.167 HD
ATOM     65  C   UNL     1      -2.921   7.237  -9.044  1.00  0.00     0.074 A 
ATOM     66  C   UNL     1      -1.827   6.516  -9.683  1.00  0.00     0.031 C 
ATOM     67  C   UNL     1      -4.025   7.939  -9.470  1.00  0.00     0.037 A 
BRANCH  54  68
ATOM     68  C   UNL     1      -9.407   8.874  -6.582  1.00  0.00     0.057 A 
ATOM     69  C   UNL     1      -9.406  10.272  -6.745  1.00  0.00     0.134 A 
ATOM     70  C   UNL     1     -10.661   8.352  -6.198  1.00  0.00     0.134 A 
ATOM     71  F   UNL     1      -8.317  10.931  -7.161  1.00  0.00    -0.206 F 
ATOM     72  C   UNL     1     -10.527  11.077  -6.498  1.00  0.00     0.040 A 
ATOM     73  C   UNL     1     -11.781   9.147  -5.916  1.00  0.00     0.040 A 
ATOM     74  F   UNL     1     -10.905   7.044  -6.122  1.00  0.00    -0.206 F 
ATOM     75  C   UNL     1     -11.719  10.519  -6.066  1.00  0.00     0.006 A 
ENDBRANCH  54  68
BRANCH  55  76
ATOM     76  C   UNL     1      -0.513   4.543  -5.822  1.00  0.00     0.057 A 
ATOM     77  C   UNL     1       0.349   4.475  -4.706  1.00  0.00     0.134 A 
ATOM     78  C   UNL     1      -1.090   3.337  -6.236  1.00  0.00     0.134 A 
ATOM     79  F   UNL     1       0.968   5.582  -4.267  1.00  0.00    -0.206 F 
ATOM     80  C   UNL     1       0.496   3.310  -3.945  1.00  0.00     0.040 A 
ATOM     81  C   UNL     1      -0.924   2.154  -5.496  1.00  0.00     0.040 A 
ATOM     82  F   UNL     1      -1.941   3.307  -7.271  1.00  0.00    -0.206 F 
ATOM     83  C   UNL     1      -0.169   2.151  -4.323  1.00  0.00     0.006 A 
ENDBRANCH  55  76
BRANCH  67  84
ATOM     84  C   UNL     1      -4.477   8.107 -10.916  1.00  0.00     0.057 A 
ATOM     85  C   UNL     1      -3.627   8.021 -12.023  1.00  0.00     0.134 A 
ATOM     86  C   UNL     1      -5.822   8.412 -11.258  1.00  0.00     0.134 A 
ATOM     87  F   UNL     1      -2.297   8.000 -11.886  1.00  0.00    -0.206 F 
ATOM     88  C   UNL     1      -4.100   8.038 -13.345  1.00  0.00     0.040 A 
ATOM     89  C   UNL     1      -6.301   8.467 -12.566  1.00  0.00     0.040 A 
ATOM     90  F   UNL     1      -6.764   8.700 -10.354  1.00  0.00    -0.206 F 
ATOM     91  C   UNL     1      -5.445   8.238 -13.620  1.00  0.00     0.006 A 
ENDBRANCH  67  84
ENDBRANCH  41  42
ENDBRANCH  34  36
ENDBRANCH  33  34
ENDBRANCH  32  33
ENDBRANCH  31  32
ENDBRANCH   1  31
TORSDOF 17
