REMARK SMILES CC1CC[NH+]([C@H](c2ccc(F)cc2)c2ccc([C@@H](C)C(=O)OCCOC(=O)c3ccc(-c4c5nc(c(-c6c(F)cccc6F)c6ccc([nH]6)c(-c6c(F)cccc6F)c6nc(c(-c7c(F)cccc7F)c7ccc4[nH]7)C=C6)C=C5)cc3)cc2-c2ccc(C(F)(F)F)cc2)CC1
REMARK SMILES IDX 23 1 22 2 20 3 21 4 18 5 19 6 17 7 14 8 15 9 83 10 16 11
REMARK SMILES IDX 82 12 6 13 5 14 1 15 2 16 3 17 95 18 4 19 94 20 7 22 8 23
REMARK SMILES IDX 13 24 9 25 12 26 10 27 11 28 84 29 85 30 93 31 86 32 92 33
REMARK SMILES IDX 87 34 88 35 89 36 90 37 91 38 24 39 25 40 26 41 27 42 28 43
REMARK SMILES IDX 29 44 81 45 30 46 80 47 31 48 32 49 33 50 74 51 34 52 79 53
REMARK SMILES IDX 73 54 75 55 35 56 78 57 72 58 71 59 36 61 62 62 45 63 61 64
REMARK SMILES IDX 46 65 49 66 60 67 76 68 47 69 48 70 59 72 77 73 50 74 37 75
REMARK SMILES IDX 38 76 43 77 39 78 40 79 42 80 44 81 41 82 63 83 64 84 69 85
REMARK SMILES IDX 65 86 66 87 68 88 70 89 67 90 51 91 52 92 57 93 53 94 54 95
REMARK SMILES IDX 56 96 58 97 55 98
REMARK H PARENT 5 21 75 60 49 71
REMARK Flexibility Score: inf
ROOT
ATOM      1  C   UNL     1       2.628   7.329  -3.118  1.00  0.00     0.274 C 
ENDROOT
BRANCH   1   2
ATOM      2  O   UNL     1       3.068   6.053  -3.618  1.00  0.00    -0.462 OA
BRANCH   2   3
ATOM      3  C   UNL     1       4.388   5.901  -3.905  1.00  0.00     0.313 C 
ATOM      4  O   UNL     1       5.212   6.808  -3.862  1.00  0.00    -0.252 OA
BRANCH   3   5
ATOM      5  C   UNL     1       4.754   4.479  -4.340  1.00  0.00     0.126 C 
ATOM      6  C   UNL     1       4.711   4.379  -5.863  1.00  0.00     0.025 C 
BRANCH   5   7
ATOM      7  C   UNL     1       3.959   3.371  -3.666  1.00  0.00    -0.033 A 
ATOM      8  C   UNL     1       2.442   1.333  -2.330  1.00  0.00     0.022 A 
ATOM      9  C   UNL     1       1.852   2.289  -3.182  1.00  0.00     0.011 A 
ATOM     10  C   UNL     1       3.854   1.406  -2.162  1.00  0.00    -0.009 A 
ATOM     11  C   UNL     1       2.587   3.260  -3.855  1.00  0.00     0.005 A 
ATOM     12  C   UNL     1       4.579   2.430  -2.827  1.00  0.00     0.013 A 
BRANCH   8  13
ATOM     13  C   UNL     1       1.583   0.225  -1.654  1.00  0.00     0.247 C 
BRANCH  13  14
ATOM     14  N   UNL     1       0.147   0.089  -2.073  1.00  0.00    -0.325 N 
ATOM     15  C   UNL     1      -3.443   1.304  -4.305  1.00  0.00     0.008 C 
ATOM     16  C   UNL     1      -2.065   1.143  -3.673  1.00  0.00    -0.003 C 
ATOM     17  C   UNL     1      -1.414  -0.183  -4.063  1.00  0.00     0.065 C 
ATOM     18  C   UNL     1      -2.144   1.173  -2.151  1.00  0.00     0.065 C 
ATOM     19  C   UNL     1      -0.005  -0.307  -3.477  1.00  0.00     0.263 C 
ATOM     20  C   UNL     1      -0.749   1.112  -1.529  1.00  0.00     0.263 C 
ATOM     21  H   UNL     1      -0.230  -0.727  -1.590  1.00  0.00     0.348 HD
ENDBRANCH  13  14
BRANCH  13  22
ATOM     22  C   UNL     1       1.709   0.169  -0.122  1.00  0.00     0.014 A 
ATOM     23  C   UNL     1       1.634   1.326   0.676  1.00  0.00     0.013 A 
ATOM     24  C   UNL     1       1.882  -1.077   0.514  1.00  0.00     0.013 A 
ATOM     25  C   UNL     1       1.727   1.237   2.067  1.00  0.00     0.040 A 
ATOM     26  C   UNL     1       1.997  -1.160   1.902  1.00  0.00     0.040 A 
ATOM     27  C   UNL     1       1.913  -0.003   2.665  1.00  0.00     0.123 A 
ATOM     28  F   UNL     1       2.011  -0.085   3.999  1.00  0.00    -0.207 F 
ENDBRANCH  13  22
ENDBRANCH   8  13
BRANCH  10  29
ATOM     29  C   UNL     1       4.619   0.472  -1.311  1.00  0.00    -0.018 A 
ATOM     30  C   UNL     1       5.174   0.905  -0.095  1.00  0.00     0.009 A 
ATOM     31  C   UNL     1       4.812  -0.865  -1.687  1.00  0.00     0.009 A 
ATOM     32  C   UNL     1       5.859   0.018   0.742  1.00  0.00     0.014 A 
ATOM     33  C   UNL     1       5.489  -1.758  -0.848  1.00  0.00     0.014 A 
ATOM     34  C   UNL     1       6.005  -1.330   0.383  1.00  0.00     0.056 A 
BRANCH  34  35
ATOM     35  C   UNL     1       6.717  -2.289   1.306  1.00  0.00     0.416 C 
ATOM     36  F   UNL     1       8.065  -2.101   1.317  1.00  0.00    -0.166 F 
ATOM     37  F   UNL     1       6.312  -2.172   2.603  1.00  0.00    -0.166 F 
ATOM     38  F   UNL     1       6.526  -3.598   0.978  1.00  0.00    -0.166 F 
ENDBRANCH  34  35
ENDBRANCH  10  29
ENDBRANCH   5   7
ENDBRANCH   3   5
ENDBRANCH   2   3
ENDBRANCH   1   2
BRANCH   1  39
ATOM     39  C   UNL     1       2.446   7.279  -1.601  1.00  0.00     0.275 C 
BRANCH  39  40
ATOM     40  O   UNL     1       3.723   7.162  -0.950  1.00  0.00    -0.458 OA
BRANCH  40  41
ATOM     41  C   UNL     1       4.032   5.930  -0.485  1.00  0.00     0.338 C 
ATOM     42  O   UNL     1       3.331   4.935  -0.467  1.00  0.00    -0.246 OA
BRANCH  41  43
ATOM     43  C   UNL     1       5.444   5.928  -0.083  1.00  0.00     0.060 A 
ATOM     44  C   UNL     1       6.364   5.268  -0.900  1.00  0.00     0.016 A 
ATOM     45  C   UNL     1       5.848   6.521   1.112  1.00  0.00     0.016 A 
ATOM     46  C   UNL     1       7.699   5.188  -0.525  1.00  0.00     0.010 A 
ATOM     47  C   UNL     1       7.192   6.447   1.487  1.00  0.00     0.010 A 
ATOM     48  C   UNL     1       8.121   5.770   0.676  1.00  0.00    -0.014 A 
BRANCH  48  49
ATOM     49  C   UNL     1       9.528   5.621   1.107  1.00  0.00     0.031 A 
ATOM     50  C   UNL     1       9.870   4.665   2.209  1.00  0.00     0.074 A 
ATOM     51  C   UNL     1      10.495   6.332   0.499  1.00  0.00     0.049 A 
ATOM     52  N   UNL     1      11.024   4.446   2.784  1.00  0.00    -0.248 NA
ATOM     53  C   UNL     1       8.765   3.849   2.736  1.00  0.00     0.031 C 
ATOM     54  C   UNL     1      10.286   7.258  -0.613  1.00  0.00     0.029 A 
ATOM     55  N   UNL     1      11.844   6.384   0.735  1.00  0.00    -0.354 N 
ATOM     56  C   UNL     1      10.781   3.487   3.758  1.00  0.00     0.074 A 
ATOM     57  C   UNL     1       9.369   3.175   3.704  1.00  0.00     0.031 C 
ATOM     58  C   UNL     1      11.468   7.789  -0.964  1.00  0.00     0.029 A 
ATOM     59  C   UNL     1      12.506   7.272  -0.075  1.00  0.00     0.049 A 
ATOM     60  H   UNL     1      12.295   5.838   1.419  1.00  0.00     0.167 HD
ATOM     61  C   UNL     1      11.661   2.921   4.617  1.00  0.00     0.037 A 
ATOM     62  C   UNL     1      13.799   7.647  -0.083  1.00  0.00     0.037 A 
ATOM     63  C   UNL     1      13.068   3.220   4.649  1.00  0.00     0.049 A 
ATOM     64  C   UNL     1      14.749   7.042   0.909  1.00  0.00     0.074 A 
ATOM     65  C   UNL     1      14.047   2.669   5.456  1.00  0.00     0.029 A 
ATOM     66  N   UNL     1      13.695   4.156   3.839  1.00  0.00    -0.354 N 
ATOM     67  N   UNL     1      14.512   6.138   1.829  1.00  0.00    -0.248 NA
ATOM     68  C   UNL     1      16.141   7.513   0.872  1.00  0.00     0.031 C 
ATOM     69  C   UNL     1      15.260   3.303   5.165  1.00  0.00     0.029 A 
ATOM     70  C   UNL     1      15.044   4.219   4.147  1.00  0.00     0.049 A 
ATOM     71  H   UNL     1      13.248   4.695   3.148  1.00  0.00     0.167 HD
ATOM     72  C   UNL     1      15.722   5.925   2.476  1.00  0.00     0.074 A 
ATOM     73  C   UNL     1      16.695   6.786   1.835  1.00  0.00     0.031 C 
ATOM     74  C   UNL     1      15.998   5.091   3.508  1.00  0.00     0.037 A 
BRANCH  61  75
ATOM     75  C   UNL     1      11.117   1.944   5.615  1.00  0.00     0.057 A 
ATOM     76  C   UNL     1      11.023   2.292   6.968  1.00  0.00     0.134 A 
ATOM     77  C   UNL     1      10.707   0.656   5.247  1.00  0.00     0.134 A 
ATOM     78  F   UNL     1      11.401   3.510   7.386  1.00  0.00    -0.206 F 
ATOM     79  C   UNL     1      10.543   1.393   7.921  1.00  0.00     0.040 A 
ATOM     80  C   UNL     1      10.204  -0.244   6.188  1.00  0.00     0.040 A 
ATOM     81  F   UNL     1      10.756   0.268   3.964  1.00  0.00    -0.206 F 
ATOM     82  C   UNL     1      10.127   0.122   7.531  1.00  0.00     0.006 A 
ENDBRANCH  61  75
BRANCH  62  83
ATOM     83  C   UNL     1      14.249   8.661  -1.066  1.00  0.00     0.057 A 
ATOM     84  C   UNL     1      13.876  10.005  -0.946  1.00  0.00     0.134 A 
ATOM     85  C   UNL     1      15.004   8.296  -2.185  1.00  0.00     0.134 A 
ATOM     86  F   UNL     1      13.148  10.414   0.104  1.00  0.00    -0.206 F 
ATOM     87  C   UNL     1      14.212  10.946  -1.919  1.00  0.00     0.040 A 
ATOM     88  C   UNL     1      15.364   9.231  -3.157  1.00  0.00     0.040 A 
ATOM     89  F   UNL     1      15.405   7.027  -2.344  1.00  0.00    -0.206 F 
ATOM     90  C   UNL     1      14.957  10.559  -3.031  1.00  0.00     0.006 A 
ENDBRANCH  62  83
BRANCH  74  91
ATOM     91  C   UNL     1      17.408   5.062   4.016  1.00  0.00     0.057 A 
ATOM     92  C   UNL     1      18.238   3.963   3.762  1.00  0.00     0.134 A 
ATOM     93  C   UNL     1      17.917   6.088   4.821  1.00  0.00     0.134 A 
ATOM     94  F   UNL     1      17.805   2.944   3.004  1.00  0.00    -0.206 F 
ATOM     95  C   UNL     1      19.520   3.877   4.305  1.00  0.00     0.040 A 
ATOM     96  C   UNL     1      19.206   6.023   5.353  1.00  0.00     0.040 A 
ATOM     97  F   UNL     1      17.175   7.172   5.091  1.00  0.00    -0.206 F 
ATOM     98  C   UNL     1      20.008   4.910   5.103  1.00  0.00     0.006 A 
ENDBRANCH  74  91
ENDBRANCH  48  49
ENDBRANCH  41  43
ENDBRANCH  40  41
ENDBRANCH  39  40
ENDBRANCH   1  39
TORSDOF 17
