REMARK SMILES Cc1noc(C)c1[C@@H](C)NC(=O)N(CC(=O)OCCOC(=O)c1ccc(-c2c3nc(c(-c4c(F)cccc4F)c4ccc([nH]4)c(-c4c(F)cccc4F)c4nc(c(-c5c(F)cccc5F)c5ccc2[nH]5)C=C4)C=C3)cc1)C(C)C
REMARK SMILES IDX 18 1 17 2 15 3 16 4 14 5 13 6 11 7 10 8 12 10 8 11 9 12 7 13
REMARK SMILES IDX 1 14 2 15 3 16 4 17 5 18 6 19 77 20 78 21 79 22 19 23 20 24
REMARK SMILES IDX 21 25 22 26 23 27 24 28 76 29 25 30 75 31 26 32 27 33 28 34
REMARK SMILES IDX 69 35 29 36 74 37 68 38 70 39 30 40 73 41 67 42 66 43 31 45
REMARK SMILES IDX 57 46 40 47 56 48 41 49 44 50 55 51 71 52 42 53 43 54 54 56
REMARK SMILES IDX 72 57 45 58 32 59 33 60 38 61 34 62 35 63 37 64 39 65 36 66
REMARK SMILES IDX 58 67 59 68 64 69 60 70 61 71 63 72 65 73 62 74 46 75 47 76
REMARK SMILES IDX 52 77 48 78 49 79 51 80 53 81 50 82
REMARK H PARENT 10 9 70 44 44 55
REMARK Flexibility Score: inf
ROOT
ATOM      1  C   UNL     1       2.021   6.794  -1.175  1.00  0.00     0.274 C 
ENDROOT
BRANCH   1   2
ATOM      2  O   UNL     1       1.688   5.911  -0.087  1.00  0.00    -0.461 OA
BRANCH   2   3
ATOM      3  C   UNL     1       2.174   4.646  -0.183  1.00  0.00     0.325 C 
ATOM      4  O   UNL     1       2.763   4.193  -1.161  1.00  0.00    -0.250 OA
BRANCH   3   5
ATOM      5  C   UNL     1       2.063   3.863   1.123  1.00  0.00     0.244 C 
BRANCH   5   6
ATOM      6  N   UNL     1       1.024   4.302   2.035  1.00  0.00    -0.311 N 
BRANCH   6   7
ATOM      7  C   UNL     1      -0.258   3.832   2.032  1.00  0.00     0.318 C 
ATOM      8  N   UNL     1      -0.758   3.021   1.082  1.00  0.00    -0.331 N 
ATOM      9  H   UNL     1      -1.654   2.707   1.342  1.00  0.00     0.165 HD
ATOM     10  O   UNL     1      -1.059   4.114   2.927  1.00  0.00    -0.249 OA
BRANCH   8  11
ATOM     11  C   UNL     1      -0.384   2.461  -0.215  1.00  0.00     0.116 C 
ATOM     12  C   UNL     1      -1.314   2.989  -1.306  1.00  0.00     0.036 C 
BRANCH  11  13
ATOM     13  C   UNL     1      -0.363   0.967  -0.103  1.00  0.00     0.040 A 
ATOM     14  C   UNL     1      -2.907   0.311   0.060  1.00  0.00     0.071 C 
ATOM     15  C   UNL     1      -1.450   0.047   0.017  1.00  0.00     0.086 A 
ATOM     16  N   UNL     1      -1.021  -1.218   0.081  1.00  0.00    -0.085 NA
ATOM     17  O   UNL     1       0.350  -1.157   0.014  1.00  0.00    -0.361 OA
ATOM     18  C   UNL     1       0.746   0.135  -0.103  1.00  0.00     0.139 A 
ATOM     19  C   UNL     1       2.207   0.335  -0.193  1.00  0.00     0.091 C 
ENDBRANCH  11  13
ENDBRANCH   8  11
ENDBRANCH   6   7
BRANCH   6  20
ATOM     20  C   UNL     1       1.494   5.193   3.124  1.00  0.00     0.081 C 
ATOM     21  C   UNL     1       0.703   6.493   3.257  1.00  0.00     0.031 C 
ATOM     22  C   UNL     1       1.600   4.445   4.456  1.00  0.00     0.031 C 
ENDBRANCH   6  20
ENDBRANCH   5   6
ENDBRANCH   3   5
ENDBRANCH   2   3
ENDBRANCH   1   2
BRANCH   1  23
ATOM     23  C   UNL     1       3.246   7.631  -0.811  1.00  0.00     0.275 C 
BRANCH  23  24
ATOM     24  O   UNL     1       4.347   6.764  -0.477  1.00  0.00    -0.458 OA
BRANCH  24  25
ATOM     25  C   UNL     1       4.884   6.933   0.751  1.00  0.00     0.338 C 
ATOM     26  O   UNL     1       4.587   7.786   1.579  1.00  0.00    -0.246 OA
BRANCH  25  27
ATOM     27  C   UNL     1       5.908   5.905   1.012  1.00  0.00     0.060 A 
ATOM     28  C   UNL     1       5.643   4.557   0.771  1.00  0.00     0.016 A 
ATOM     29  C   UNL     1       7.110   6.276   1.616  1.00  0.00     0.016 A 
ATOM     30  C   UNL     1       6.523   3.575   1.218  1.00  0.00     0.010 A 
ATOM     31  C   UNL     1       8.045   5.295   1.958  1.00  0.00     0.010 A 
ATOM     32  C   UNL     1       7.750   3.931   1.790  1.00  0.00    -0.014 A 
BRANCH  32  33
ATOM     33  C   UNL     1       8.722   2.885   2.210  1.00  0.00     0.031 A 
ATOM     34  C   UNL     1       9.203   2.822   3.635  1.00  0.00     0.074 A 
ATOM     35  C   UNL     1       9.190   1.996   1.311  1.00  0.00     0.049 A 
ATOM     36  N   UNL     1      10.193   2.133   4.143  1.00  0.00    -0.248 NA
ATOM     37  C   UNL     1       8.486   3.655   4.613  1.00  0.00     0.031 C 
ATOM     38  C   UNL     1       8.789   1.916  -0.095  1.00  0.00     0.029 A 
ATOM     39  N   UNL     1      10.110   0.986   1.449  1.00  0.00    -0.354 N 
ATOM     40  C   UNL     1      10.259   2.496   5.482  1.00  0.00     0.074 A 
ATOM     41  C   UNL     1       9.204   3.460   5.712  1.00  0.00     0.031 C 
ATOM     42  C   UNL     1       9.430   0.893  -0.680  1.00  0.00     0.029 A 
ATOM     43  C   UNL     1      10.352   0.302   0.282  1.00  0.00     0.049 A 
ATOM     44  H   UNL     1      10.554   0.773   2.301  1.00  0.00     0.167 HD
ATOM     45  C   UNL     1      11.126   2.068   6.431  1.00  0.00     0.037 A 
ATOM     46  C   UNL     1      11.248  -0.661  -0.001  1.00  0.00     0.037 A 
ATOM     47  C   UNL     1      12.136   1.065   6.217  1.00  0.00     0.049 A 
ATOM     48  C   UNL     1      12.201  -1.114   1.063  1.00  0.00     0.074 A 
ATOM     49  C   UNL     1      13.050   0.552   7.122  1.00  0.00     0.029 A 
ATOM     50  N   UNL     1      12.352   0.409   5.015  1.00  0.00    -0.354 N 
ATOM     51  N   UNL     1      12.298  -0.713   2.307  1.00  0.00    -0.248 NA
ATOM     52  C   UNL     1      13.187  -2.132   0.678  1.00  0.00     0.031 C 
ATOM     53  C   UNL     1      13.833  -0.401   6.460  1.00  0.00     0.029 A 
ATOM     54  C   UNL     1      13.388  -0.501   5.153  1.00  0.00     0.049 A 
ATOM     55  H   UNL     1      11.845   0.566   4.186  1.00  0.00     0.167 HD
ATOM     56  C   UNL     1      13.353  -1.429   2.854  1.00  0.00     0.074 A 
ATOM     57  C   UNL     1      13.851  -2.305   1.813  1.00  0.00     0.031 C 
ATOM     58  C   UNL     1      13.870  -1.360   4.104  1.00  0.00     0.037 A 
BRANCH  45  59
ATOM     59  C   UNL     1      11.040   2.706   7.785  1.00  0.00     0.057 A 
ATOM     60  C   UNL     1      10.026   2.387   8.695  1.00  0.00     0.134 A 
ATOM     61  C   UNL     1      12.012   3.628   8.194  1.00  0.00     0.134 A 
ATOM     62  F   UNL     1       9.056   1.524   8.357  1.00  0.00    -0.206 F 
ATOM     63  C   UNL     1       9.972   2.975   9.961  1.00  0.00     0.040 A 
ATOM     64  C   UNL     1      11.981   4.208   9.464  1.00  0.00     0.040 A 
ATOM     65  F   UNL     1      13.012   3.974   7.370  1.00  0.00    -0.206 F 
ATOM     66  C   UNL     1      10.956   3.884  10.350  1.00  0.00     0.006 A 
ENDBRANCH  45  59
BRANCH  46  67
ATOM     67  C   UNL     1      11.310  -1.226  -1.371  1.00  0.00     0.057 A 
ATOM     68  C   UNL     1      10.862  -2.523  -1.636  1.00  0.00     0.134 A 
ATOM     69  C   UNL     1      11.798  -0.475  -2.448  1.00  0.00     0.134 A 
ATOM     70  F   UNL     1      10.405  -3.296  -0.639  1.00  0.00    -0.206 F 
ATOM     71  C   UNL     1      10.898  -3.058  -2.924  1.00  0.00     0.040 A 
ATOM     72  C   UNL     1      11.818  -0.988  -3.745  1.00  0.00     0.040 A 
ATOM     73  F   UNL     1      12.237   0.778  -2.256  1.00  0.00    -0.206 F 
ATOM     74  C   UNL     1      11.370  -2.285  -3.985  1.00  0.00     0.006 A 
ENDBRANCH  46  67
BRANCH  58  75
ATOM     75  C   UNL     1      15.022  -2.266   4.409  1.00  0.00     0.057 A 
ATOM     76  C   UNL     1      16.316  -1.983   3.956  1.00  0.00     0.134 A 
ATOM     77  C   UNL     1      14.838  -3.423   5.175  1.00  0.00     0.134 A 
ATOM     78  F   UNL     1      16.550  -0.897   3.204  1.00  0.00    -0.206 F 
ATOM     79  C   UNL     1      17.387  -2.830   4.241  1.00  0.00     0.040 A 
ATOM     80  C   UNL     1      15.904  -4.269   5.481  1.00  0.00     0.040 A 
ATOM     81  F   UNL     1      13.621  -3.746   5.640  1.00  0.00    -0.206 F 
ATOM     82  C   UNL     1      17.182  -3.975   5.010  1.00  0.00     0.006 A 
ENDBRANCH  58  75
ENDBRANCH  32  33
ENDBRANCH  25  27
ENDBRANCH  24  25
ENDBRANCH  23  24
ENDBRANCH   1  23
TORSDOF 16
