REMARK SMILES O=C(OCCOC(=O)[C@H]1C[C@H](O)CN1C(=O)CS[C@H]1CCS(=O)(=O)C1)c1ccc(-c2c3nc(c(-c4c(F)cccc4F)c4ccc([nH]4)c(-c4c(F)cccc4F)c4nc(c(-c5c(F)cccc5F)c5ccc2[nH]5)C=C4)C=C3)cc1
REMARK SMILES IDX 5 1 4 2 3 3 2 4 1 5 26 6 27 7 79 8 28 9 78 10 29 11 30 12
REMARK SMILES IDX 31 13 72 14 32 15 77 16 71 17 73 18 33 19 76 20 70 21 69 22
REMARK SMILES IDX 34 24 60 25 43 26 59 27 44 28 47 29 58 30 74 31 45 32 46 33
REMARK SMILES IDX 57 35 75 36 48 37 35 38 36 39 41 40 37 41 38 42 40 43 42 44
REMARK SMILES IDX 39 45 61 46 62 47 67 48 63 49 64 50 66 51 68 52 65 53 49 54
REMARK SMILES IDX 50 55 55 56 51 57 52 58 54 59 56 60 53 61 6 62 7 63 8 64
REMARK SMILES IDX 9 65 10 66 14 67 11 68 13 69 15 70 16 71 17 72 18 73 19 74
REMARK SMILES IDX 20 75 25 76 21 77 22 78 23 79 24 80 12 81
REMARK H PARENT 73 23 47 34 12 82
REMARK Flexibility Score: inf
ROOT
ATOM      1  C   UNL     1      11.086  -8.136   4.672  1.00  0.00     0.274 C 
ENDROOT
BRANCH   1   2
ATOM      2  C   UNL     1      11.722  -8.402   3.300  1.00  0.00     0.275 C 
BRANCH   2   3
ATOM      3  O   UNL     1      11.190  -7.610   2.235  1.00  0.00    -0.458 OA
BRANCH   3   4
ATOM      4  C   UNL     1      10.009  -7.763   1.597  1.00  0.00     0.338 C 
ATOM      5  O   UNL     1       9.738  -6.984   0.684  1.00  0.00    -0.246 OA
BRANCH   4   6
ATOM      6  C   UNL     1       8.943  -8.729   2.031  1.00  0.00     0.060 A 
ATOM      7  C   UNL     1       9.080  -9.886   2.808  1.00  0.00     0.016 A 
ATOM      8  C   UNL     1       7.649  -8.370   1.655  1.00  0.00     0.016 A 
ATOM      9  C   UNL     1       7.965 -10.589   3.298  1.00  0.00     0.010 A 
ATOM     10  C   UNL     1       6.542  -9.035   2.179  1.00  0.00     0.010 A 
ATOM     11  C   UNL     1       6.676 -10.155   3.017  1.00  0.00    -0.014 A 
BRANCH  11  12
ATOM     12  C   UNL     1       5.453 -10.865   3.509  1.00  0.00     0.031 A 
ATOM     13  C   UNL     1       4.366 -11.161   2.505  1.00  0.00     0.074 A 
ATOM     14  C   UNL     1       5.197 -11.026   4.829  1.00  0.00     0.049 A 
ATOM     15  N   UNL     1       3.101 -11.425   2.700  1.00  0.00    -0.248 NA
ATOM     16  C   UNL     1       4.735 -11.023   1.082  1.00  0.00     0.031 C 
ATOM     17  C   UNL     1       6.071 -10.614   5.934  1.00  0.00     0.029 A 
ATOM     18  N   UNL     1       4.039 -11.416   5.468  1.00  0.00    -0.354 N 
ATOM     19  C   UNL     1       2.550 -11.487   1.428  1.00  0.00     0.074 A 
ATOM     20  C   UNL     1       3.545 -10.991   0.507  1.00  0.00     0.031 C 
ATOM     21  C   UNL     1       5.384 -10.665   7.090  1.00  0.00     0.029 A 
ATOM     22  C   UNL     1       4.038 -11.151   6.823  1.00  0.00     0.049 A 
ATOM     23  H   UNL     1       3.285 -11.844   5.002  1.00  0.00     0.167 HD
ATOM     24  C   UNL     1       1.390 -12.058   1.031  1.00  0.00     0.037 A 
ATOM     25  C   UNL     1       3.054 -11.270   7.738  1.00  0.00     0.037 A 
ATOM     26  C   UNL     1       0.461 -12.662   1.940  1.00  0.00     0.049 A 
ATOM     27  C   UNL     1       1.749 -11.887   7.311  1.00  0.00     0.074 A 
ATOM     28  C   UNL     1      -0.644 -13.442   1.659  1.00  0.00     0.029 A 
ATOM     29  N   UNL     1       0.549 -12.562   3.319  1.00  0.00    -0.354 N 
ATOM     30  N   UNL     1       1.316 -12.153   6.102  1.00  0.00    -0.248 NA
ATOM     31  C   UNL     1       0.828 -12.299   8.380  1.00  0.00     0.031 C 
ATOM     32  C   UNL     1      -1.239 -13.800   2.874  1.00  0.00     0.029 A 
ATOM     33  C   UNL     1      -0.483 -13.269   3.907  1.00  0.00     0.049 A 
ATOM     34  H   UNL     1       1.243 -12.062   3.807  1.00  0.00     0.167 HD
ATOM     35  C   UNL     1       0.123 -12.843   6.270  1.00  0.00     0.074 A 
ATOM     36  C   UNL     1      -0.114 -12.929   7.695  1.00  0.00     0.031 C 
ATOM     37  C   UNL     1      -0.685 -13.385   5.327  1.00  0.00     0.037 A 
BRANCH  24  38
ATOM     38  C   UNL     1       1.165 -12.182  -0.449  1.00  0.00     0.057 A 
ATOM     39  C   UNL     1       2.025 -12.955  -1.249  1.00  0.00     0.134 A 
ATOM     40  C   UNL     1       0.104 -11.535  -1.087  1.00  0.00     0.134 A 
ATOM     41  F   UNL     1       3.067 -13.602  -0.702  1.00  0.00    -0.206 F 
ATOM     42  C   UNL     1       1.877 -13.025  -2.632  1.00  0.00     0.040 A 
ATOM     43  C   UNL     1      -0.081 -11.634  -2.468  1.00  0.00     0.040 A 
ATOM     44  F   UNL     1      -0.764 -10.791  -0.385  1.00  0.00    -0.206 F 
ATOM     45  C   UNL     1       0.816 -12.366  -3.245  1.00  0.00     0.006 A 
ENDBRANCH  24  38
BRANCH  25  46
ATOM     46  C   UNL     1       3.269 -10.922   9.169  1.00  0.00     0.057 A 
ATOM     47  C   UNL     1       3.492 -11.926  10.120  1.00  0.00     0.134 A 
ATOM     48  C   UNL     1       3.161  -9.608   9.639  1.00  0.00     0.134 A 
ATOM     49  F   UNL     1       3.571 -13.209   9.736  1.00  0.00    -0.206 F 
ATOM     50  C   UNL     1       3.558 -11.646  11.487  1.00  0.00     0.040 A 
ATOM     51  C   UNL     1       3.247  -9.310  11.004  1.00  0.00     0.040 A 
ATOM     52  F   UNL     1       2.934  -8.598   8.788  1.00  0.00    -0.206 F 
ATOM     53  C   UNL     1       3.433 -10.333  11.933  1.00  0.00     0.006 A 
ENDBRANCH  25  46
BRANCH  37  54
ATOM     54  C   UNL     1      -1.840 -14.214   5.799  1.00  0.00     0.057 A 
ATOM     55  C   UNL     1      -2.968 -13.650   6.403  1.00  0.00     0.134 A 
ATOM     56  C   UNL     1      -1.832 -15.602   5.603  1.00  0.00     0.134 A 
ATOM     57  F   UNL     1      -3.029 -12.330   6.633  1.00  0.00    -0.206 F 
ATOM     58  C   UNL     1      -4.041 -14.441   6.816  1.00  0.00     0.040 A 
ATOM     59  C   UNL     1      -2.912 -16.398   5.981  1.00  0.00     0.040 A 
ATOM     60  F   UNL     1      -0.782 -16.203   5.021  1.00  0.00    -0.206 F 
ATOM     61  C   UNL     1      -4.018 -15.817   6.596  1.00  0.00     0.006 A 
ENDBRANCH  37  54
ENDBRANCH  11  12
ENDBRANCH   4   6
ENDBRANCH   3   4
ENDBRANCH   2   3
ENDBRANCH   1   2
BRANCH   1  62
ATOM     62  O   UNL     1       9.722  -7.639   4.613  1.00  0.00    -0.461 OA
BRANCH  62  63
ATOM     63  C   UNL     1       9.578  -6.321   4.907  1.00  0.00     0.329 C 
ATOM     64  O   UNL     1      10.528  -5.607   5.227  1.00  0.00    -0.250 OA
BRANCH  63  65
ATOM     65  C   UNL     1       8.129  -5.755   4.901  1.00  0.00     0.197 C 
ATOM     66  C   UNL     1       8.148  -4.394   4.183  1.00  0.00     0.070 C 
ATOM     67  N   UNL     1       6.899  -6.392   4.368  1.00  0.00    -0.325 N 
ATOM     68  C   UNL     1       7.479  -4.660   2.844  1.00  0.00     0.136 C 
ATOM     69  C   UNL     1       6.411  -5.675   3.199  1.00  0.00     0.152 C 
BRANCH  67  70
ATOM     70  C   UNL     1       6.090  -7.191   5.172  1.00  0.00     0.233 C 
ATOM     71  O   UNL     1       6.474  -7.526   6.294  1.00  0.00    -0.274 OA
BRANCH  70  72
ATOM     72  C   UNL     1       4.707  -7.601   4.630  1.00  0.00     0.169 C 
BRANCH  72  73
ATOM     73  S   UNL     1       3.290  -7.042   5.630  1.00  0.00    -0.148 SA
BRANCH  73  74
ATOM     74  C   UNL     1       3.197  -5.354   5.027  1.00  0.00     0.063 C 
ATOM     75  C   UNL     1       1.823  -4.691   5.107  1.00  0.00     0.031 C 
ATOM     76  C   UNL     1       4.112  -4.464   5.850  1.00  0.00     0.151 C 
ATOM     77  C   UNL     1       2.073  -3.236   4.686  1.00  0.00     0.138 C 
ATOM     78  S   UNL     1       3.760  -2.864   5.185  1.00  0.00     0.151 S 
ATOM     79  O   UNL     1       4.593  -2.714   4.008  1.00  0.00    -0.229 OA
ATOM     80  O   UNL     1       3.760  -1.899   6.265  1.00  0.00    -0.229 OA
ENDBRANCH  73  74
ENDBRANCH  72  73
ENDBRANCH  70  72
ENDBRANCH  67  70
BRANCH  68  81
ATOM     81  O   UNL     1       6.914  -3.476   2.304  1.00  0.00    -0.391 OA
ATOM     82  H   UNL     1       6.282  -3.101   2.938  1.00  0.00     0.211 HD
ENDBRANCH  68  81
ENDBRANCH  63  65
ENDBRANCH  62  63
ENDBRANCH   1  62
TORSDOF 16
