REMARK SMILES O=C(OCCOC(=O)[C@H]1CSCN1C(=O)Nc1ccc(F)cc1F)c1ccc(-c2c3nc(c(-c4c(F)cccc4F)c4ccc([nH]4)c(-c4c(F)cccc4F)c4nc(c(-c5c(F)cccc5F)c5ccc2[nH]5)C=C4)C=C3)cc1
REMARK SMILES IDX 4 1 3 2 2 3 1 4 25 5 26 6 78 7 27 8 77 9 28 10 29 11 30 12
REMARK SMILES IDX 71 13 31 14 76 15 70 16 72 17 32 18 75 19 69 20 68 21 33 23
REMARK SMILES IDX 59 24 42 25 58 26 43 27 46 28 57 29 73 30 44 31 45 32 56 34
REMARK SMILES IDX 74 35 47 36 34 37 35 38 40 39 36 40 37 41 39 42 41 43 38 44
REMARK SMILES IDX 60 45 61 46 66 47 62 48 63 49 65 50 67 51 64 52 48 53 49 54
REMARK SMILES IDX 54 55 50 56 51 57 53 58 55 59 52 60 5 61 6 62 7 63 8 64 9 65
REMARK SMILES IDX 10 66 13 67 11 68 12 69 14 70 15 71 16 72 17 74 18 75 23 76
REMARK SMILES IDX 19 77 22 78 24 79 20 80 21 81
REMARK H PARENT 72 22 46 33 16 73
REMARK Flexibility Score: inf
ROOT
ATOM      1  C   UNL     1       4.122  -1.428   0.812  1.00  0.00     0.275 C 
ENDROOT
BRANCH   1   2
ATOM      2  O   UNL     1       2.760  -0.983   1.044  1.00  0.00    -0.458 OA
BRANCH   2   3
ATOM      3  C   UNL     1       2.215   0.255   0.908  1.00  0.00     0.338 C 
ATOM      4  O   UNL     1       1.148   0.534   1.446  1.00  0.00    -0.246 OA
BRANCH   3   5
ATOM      5  C   UNL     1       2.778   1.264  -0.016  1.00  0.00     0.060 A 
ATOM      6  C   UNL     1       4.285   0.946  -0.997  1.00  0.00     0.016 A 
ATOM      7  C   UNL     1       1.862   2.826  -0.312  1.00  0.00     0.016 A 
ATOM      8  C   UNL     1       4.880   2.099  -2.215  1.00  0.00     0.010 A 
ATOM      9  C   UNL     1       2.537   4.037  -1.571  1.00  0.00     0.010 A 
ATOM     10  C   UNL     1       4.072   3.644  -2.466  1.00  0.00    -0.014 A 
BRANCH  10  11
ATOM     11  C   UNL     1       4.897   4.603  -3.220  1.00  0.00     0.031 A 
ATOM     12  C   UNL     1       5.878   5.524  -2.548  1.00  0.00     0.074 A 
ATOM     13  C   UNL     1       4.884   4.508  -4.550  1.00  0.00     0.049 A 
ATOM     14  N   UNL     1       6.276   6.711  -2.922  1.00  0.00    -0.248 NA
ATOM     15  C   UNL     1       6.426   5.109  -1.249  1.00  0.00     0.031 C 
ATOM     16  C   UNL     1       4.259   3.432  -5.311  1.00  0.00     0.029 A 
ATOM     17  N   UNL     1       5.416   5.336  -5.489  1.00  0.00    -0.354 N 
ATOM     18  C   UNL     1       6.857   7.285  -1.784  1.00  0.00     0.074 A 
ATOM     19  C   UNL     1       6.893   6.256  -0.770  1.00  0.00     0.031 C 
ATOM     20  C   UNL     1       4.392   3.694  -6.617  1.00  0.00     0.029 A 
ATOM     21  C   UNL     1       5.039   4.992  -6.759  1.00  0.00     0.049 A 
ATOM     22  H   UNL     1       6.005   6.096  -5.279  1.00  0.00     0.167 HD
ATOM     23  C   UNL     1       7.191   8.592  -1.632  1.00  0.00     0.037 A 
ATOM     24  C   UNL     1       5.153   5.702  -7.891  1.00  0.00     0.037 A 
ATOM     25  C   UNL     1       7.288   9.456  -2.786  1.00  0.00     0.049 A 
ATOM     26  C   UNL     1       5.756   7.070  -7.786  1.00  0.00     0.074 A 
ATOM     27  C   UNL     1       7.756  10.752  -2.876  1.00  0.00     0.029 A 
ATOM     28  N   UNL     1       6.960   9.055  -4.079  1.00  0.00    -0.354 N 
ATOM     29  N   UNL     1       6.121   7.722  -6.704  1.00  0.00    -0.248 NA
ATOM     30  C   UNL     1       5.963   7.804  -9.034  1.00  0.00     0.031 C 
ATOM     31  C   UNL     1       7.690  11.137  -4.220  1.00  0.00     0.029 A 
ATOM     32  C   UNL     1       7.248  10.059  -4.977  1.00  0.00     0.049 A 
ATOM     33  H   UNL     1       6.578   8.179  -4.316  1.00  0.00     0.167 HD
ATOM     34  C   UNL     1       6.630   8.935  -7.138  1.00  0.00     0.074 A 
ATOM     35  C   UNL     1       6.523   8.923  -8.587  1.00  0.00     0.031 C 
ATOM     36  C   UNL     1       7.139   9.965  -6.416  1.00  0.00     0.037 A 
BRANCH  23  37
ATOM     37  C   UNL     1       7.397   9.173  -0.246  1.00  0.00     0.057 A 
ATOM     38  C   UNL     1       6.620  10.272   0.177  1.00  0.00     0.134 A 
ATOM     39  C   UNL     1       8.341   8.703   0.674  1.00  0.00     0.134 A 
ATOM     40  F   UNL     1       5.699  10.815  -0.634  1.00  0.00    -0.206 F 
ATOM     41  C   UNL     1       6.769  10.857   1.442  1.00  0.00     0.040 A 
ATOM     42  C   UNL     1       8.461   9.243   1.963  1.00  0.00     0.040 A 
ATOM     43  F   UNL     1       9.161   7.691   0.355  1.00  0.00    -0.206 F 
ATOM     44  C   UNL     1       7.678  10.327   2.349  1.00  0.00     0.006 A 
ENDBRANCH  23  37
BRANCH  24  45
ATOM     45  C   UNL     1       4.708   5.075  -9.155  1.00  0.00     0.057 A 
ATOM     46  C   UNL     1       3.358   4.788  -9.403  1.00  0.00     0.134 A 
ATOM     47  C   UNL     1       5.652   4.565 -10.049  1.00  0.00     0.134 A 
ATOM     48  F   UNL     1       2.409   5.206  -8.552  1.00  0.00    -0.206 F 
ATOM     49  C   UNL     1       2.968   3.984 -10.475  1.00  0.00     0.040 A 
ATOM     50  C   UNL     1       5.275   3.781 -11.139  1.00  0.00     0.040 A 
ATOM     51  F   UNL     1       6.959   4.792  -9.850  1.00  0.00    -0.206 F 
ATOM     52  C   UNL     1       3.930   3.475 -11.345  1.00  0.00     0.006 A 
ENDBRANCH  24  45
BRANCH  36  53
ATOM     53  C   UNL     1       7.677  11.134  -7.178  1.00  0.00     0.057 A 
ATOM     54  C   UNL     1       9.056  11.385  -7.185  1.00  0.00     0.134 A 
ATOM     55  C   UNL     1       6.831  12.084  -7.755  1.00  0.00     0.134 A 
ATOM     56  F   UNL     1       9.911  10.511  -6.631  1.00  0.00    -0.206 F 
ATOM     57  C   UNL     1       9.572  12.566  -7.710  1.00  0.00     0.040 A 
ATOM     58  C   UNL     1       7.340  13.257  -8.310  1.00  0.00     0.040 A 
ATOM     59  F   UNL     1       5.504  11.890  -7.780  1.00  0.00    -0.206 F 
ATOM     60  C   UNL     1       8.711  13.508  -8.271  1.00  0.00     0.006 A 
ENDBRANCH  36  53
ENDBRANCH  10  11
ENDBRANCH   3   5
ENDBRANCH   2   3
ENDBRANCH   1   2
BRANCH   1  61
ATOM     61  C   UNL     1       4.323  -2.208  -0.520  1.00  0.00     0.274 C 
BRANCH  61  62
ATOM     62  O   UNL     1       4.068  -1.423  -1.708  1.00  0.00    -0.461 OA
BRANCH  62  63
ATOM     63  C   UNL     1       2.762  -1.076  -1.855  1.00  0.00     0.329 C 
ATOM     64  O   UNL     1       1.875  -1.848  -1.508  1.00  0.00    -0.250 OA
BRANCH  63  65
ATOM     65  C   UNL     1       2.556   0.394  -2.488  1.00  0.00     0.207 C 
ATOM     66  C   UNL     1       1.028   0.197  -2.915  1.00  0.00     0.108 C 
ATOM     67  N   UNL     1       2.758   2.082  -1.897  1.00  0.00    -0.301 N 
ATOM     68  S   UNL     1       0.062   1.661  -2.780  1.00  0.00    -0.138 SA
ATOM     69  C   UNL     1       1.508   2.678  -2.944  1.00  0.00     0.192 C 
BRANCH  67  70
ATOM     70  C   UNL     1       3.899   2.932  -0.499  1.00  0.00     0.323 C 
ATOM     71  O   UNL     1       4.911   2.544   0.190  1.00  0.00    -0.248 OA
ATOM     72  N   UNL     1       3.773   4.343   0.184  1.00  0.00    -0.305 N 
ATOM     73  H   UNL     1       4.600   4.500   0.694  1.00  0.00     0.171 HD
BRANCH  72  74
ATOM     74  C   UNL     1       2.922   5.508   0.361  1.00  0.00     0.079 A 
ATOM     75  C   UNL     1       1.740   5.444   1.096  1.00  0.00     0.032 A 
ATOM     76  C   UNL     1       3.154   6.690  -0.377  1.00  0.00     0.149 A 
ATOM     77  C   UNL     1       0.750   6.420   0.908  1.00  0.00     0.041 A 
ATOM     78  C   UNL     1       2.185   7.666  -0.566  1.00  0.00     0.080 A 
ATOM     79  F   UNL     1       4.253   6.835  -1.099  1.00  0.00    -0.205 F 
ATOM     80  C   UNL     1       0.966   7.495   0.049  1.00  0.00     0.126 A 
ATOM     81  F   UNL     1      -0.028   8.353  -0.213  1.00  0.00    -0.207 F 
ENDBRANCH  72  74
ENDBRANCH  67  70
ENDBRANCH  63  65
ENDBRANCH  62  63
ENDBRANCH  61  62
ENDBRANCH   1  61
TORSDOF 13
