REMARK SMILES O=C(CCCC(=O)OCCOC(=O)c1ccc(-c2c3nc(c(-c4c(F)cccc4F)c4ccc([nH]4)c(-c4c(F)cccc4F)c4nc(c(-c5c(F)cccc5F)c5ccc2[nH]5)C=C4)C=C3)cc1)Nc1ccc(C(=O)N2CCOCC2)cc1
REMARK SMILES IDX 8 1 6 2 7 3 5 4 4 5 3 6 2 7 1 8 68 9 69 11 70 12 82 13 71 14
REMARK SMILES IDX 81 15 72 16 73 17 74 18 75 19 76 20 80 21 77 22 79 23 78 24
REMARK SMILES IDX 9 25 10 26 11 27 12 28 13 29 14 30 15 31 67 32 16 33 66 34
REMARK SMILES IDX 17 35 18 36 19 37 60 38 20 39 65 40 59 41 61 42 21 43 64 44
REMARK SMILES IDX 58 45 57 46 22 48 48 49 31 50 47 51 32 52 35 53 46 54 62 55
REMARK SMILES IDX 33 56 34 57 45 59 63 60 36 61 23 62 24 63 29 64 25 65 26 66
REMARK SMILES IDX 28 67 30 68 27 69 49 70 50 71 55 72 51 73 52 74 54 75 56 76
REMARK SMILES IDX 53 77 37 78 38 79 43 80 39 81 40 82 42 83 44 84 41 85
REMARK H PARENT 68 10 61 47 35 58
REMARK Flexibility Score: inf
ROOT
ATOM      1  O   UNL     1       5.215  -0.577  -0.780  1.00  0.00    -0.462 OA
ENDROOT
BRANCH   1   2
ATOM      2  C   UNL     1       5.547   0.109   0.339  1.00  0.00     0.305 C 
ATOM      3  O   UNL     1       6.556  -0.091   1.002  1.00  0.00    -0.252 OA
BRANCH   2   4
ATOM      4  C   UNL     1       4.474   1.101   0.757  1.00  0.00     0.123 C 
BRANCH   4   5
ATOM      5  C   UNL     1       3.548   1.654  -0.332  1.00  0.00     0.022 C 
BRANCH   5   6
ATOM      6  C   UNL     1       2.637   0.679  -1.086  1.00  0.00     0.101 C 
BRANCH   6   7
ATOM      7  C   UNL     1       1.704  -0.124  -0.203  1.00  0.00     0.224 C 
ATOM      8  O   UNL     1       0.501   0.119  -0.187  1.00  0.00    -0.275 OA
ATOM      9  N   UNL     1       2.354  -1.076   0.566  1.00  0.00    -0.326 N 
ATOM     10  H   UNL     1       3.317  -1.204   0.406  1.00  0.00     0.169 HD
BRANCH   9  11
ATOM     11  C   UNL     1       1.756  -1.872   1.555  1.00  0.00     0.041 A 
ATOM     12  C   UNL     1       2.540  -2.297   2.639  1.00  0.00     0.027 A 
ATOM     13  C   UNL     1       0.412  -2.221   1.496  1.00  0.00     0.027 A 
ATOM     14  C   UNL     1       1.964  -3.034   3.681  1.00  0.00     0.016 A 
ATOM     15  C   UNL     1      -0.156  -2.969   2.519  1.00  0.00     0.016 A 
ATOM     16  C   UNL     1       0.618  -3.392   3.605  1.00  0.00     0.040 A 
BRANCH  16  17
ATOM     17  C   UNL     1      -0.060  -4.066   4.738  1.00  0.00     0.254 C 
ATOM     18  O   UNL     1       0.173  -3.677   5.878  1.00  0.00    -0.269 OA
ATOM     19  N   UNL     1      -1.040  -4.992   4.428  1.00  0.00    -0.334 N 
ATOM     20  C   UNL     1      -0.986  -5.966   3.333  1.00  0.00     0.148 C 
ATOM     21  C   UNL     1      -2.257  -5.047   5.227  1.00  0.00     0.148 C 
ATOM     22  C   UNL     1      -2.269  -5.933   2.491  1.00  0.00     0.181 C 
ATOM     23  C   UNL     1      -3.458  -4.922   4.282  1.00  0.00     0.181 C 
ATOM     24  O   UNL     1      -3.450  -5.984   3.309  1.00  0.00    -0.378 OA
ENDBRANCH  16  17
ENDBRANCH   9  11
ENDBRANCH   6   7
ENDBRANCH   5   6
ENDBRANCH   4   5
ENDBRANCH   2   4
ENDBRANCH   1   2
BRANCH   1  25
ATOM     25  C   UNL     1       6.176  -1.514  -1.311  1.00  0.00     0.274 C 
BRANCH  25  26
ATOM     26  C   UNL     1       6.945  -0.917  -2.495  1.00  0.00     0.275 C 
BRANCH  26  27
ATOM     27  O   UNL     1       7.849   0.114  -2.057  1.00  0.00    -0.458 OA
BRANCH  27  28
ATOM     28  C   UNL     1       7.343   1.367  -2.101  1.00  0.00     0.338 C 
ATOM     29  O   UNL     1       6.255   1.712  -2.526  1.00  0.00    -0.246 OA
BRANCH  28  30
ATOM     30  C   UNL     1       8.235   2.281  -1.375  1.00  0.00     0.060 A 
ATOM     31  C   UNL     1       7.774   2.801  -0.165  1.00  0.00     0.016 A 
ATOM     32  C   UNL     1       9.448   2.707  -1.913  1.00  0.00     0.016 A 
ATOM     33  C   UNL     1       8.505   3.763   0.514  1.00  0.00     0.010 A 
ATOM     34  C   UNL     1      10.189   3.677  -1.229  1.00  0.00     0.010 A 
ATOM     35  C   UNL     1       9.710   4.223  -0.023  1.00  0.00    -0.014 A 
BRANCH  35  36
ATOM     36  C   UNL     1      10.390   5.361   0.633  1.00  0.00     0.031 A 
ATOM     37  C   UNL     1      10.321   6.718  -0.005  1.00  0.00     0.074 A 
ATOM     38  C   UNL     1      10.990   5.196   1.825  1.00  0.00     0.049 A 
ATOM     39  N   UNL     1      10.925   7.825   0.338  1.00  0.00    -0.248 NA
ATOM     40  C   UNL     1       9.450   6.846  -1.185  1.00  0.00     0.031 C 
ATOM     41  C   UNL     1      11.038   3.944   2.583  1.00  0.00     0.029 A 
ATOM     42  N   UNL     1      11.665   6.091   2.614  1.00  0.00    -0.354 N 
ATOM     43  C   UNL     1      10.530   8.774  -0.596  1.00  0.00     0.074 A 
ATOM     44  C   UNL     1       9.642   8.112  -1.527  1.00  0.00     0.031 C 
ATOM     45  C   UNL     1      11.707   4.152   3.729  1.00  0.00     0.029 A 
ATOM     46  C   UNL     1      12.177   5.534   3.760  1.00  0.00     0.049 A 
ATOM     47  H   UNL     1      11.771   7.041   2.382  1.00  0.00     0.167 HD
ATOM     48  C   UNL     1      10.878  10.079  -0.667  1.00  0.00     0.037 A 
ATOM     49  C   UNL     1      12.965   6.074   4.708  1.00  0.00     0.037 A 
ATOM     50  C   UNL     1      11.747  10.733   0.276  1.00  0.00     0.049 A 
ATOM     51  C   UNL     1      13.384   7.512   4.574  1.00  0.00     0.074 A 
ATOM     52  C   UNL     1      12.213  12.035   0.265  1.00  0.00     0.029 A 
ATOM     53  N   UNL     1      12.263  10.131   1.413  1.00  0.00    -0.354 N 
ATOM     54  N   UNL     1      13.070   8.382   3.644  1.00  0.00    -0.248 NA
ATOM     55  C   UNL     1      14.273   8.043   5.617  1.00  0.00     0.031 C 
ATOM     56  C   UNL     1      13.026  12.217   1.389  1.00  0.00     0.029 A 
ATOM     57  C   UNL     1      13.036  11.037   2.116  1.00  0.00     0.049 A 
ATOM     58  H   UNL     1      12.103   9.197   1.681  1.00  0.00     0.167 HD
ATOM     59  C   UNL     1      13.699   9.566   4.002  1.00  0.00     0.074 A 
ATOM     60  C   UNL     1      14.402   9.308   5.242  1.00  0.00     0.031 C 
ATOM     61  C   UNL     1      13.701  10.761   3.363  1.00  0.00     0.037 A 
BRANCH  48  62
ATOM     62  C   UNL     1      10.341  10.877  -1.816  1.00  0.00     0.057 A 
ATOM     63  C   UNL     1       9.009  11.306  -1.858  1.00  0.00     0.134 A 
ATOM     64  C   UNL     1      11.175  11.244  -2.879  1.00  0.00     0.134 A 
ATOM     65  F   UNL     1       8.155  10.968  -0.880  1.00  0.00    -0.206 F 
ATOM     66  C   UNL     1       8.522  12.065  -2.923  1.00  0.00     0.040 A 
ATOM     67  C   UNL     1      10.705  12.020  -3.940  1.00  0.00     0.040 A 
ATOM     68  F   UNL     1      12.461  10.863  -2.900  1.00  0.00    -0.206 F 
ATOM     69  C   UNL     1       9.373  12.430  -3.965  1.00  0.00     0.006 A 
ENDBRANCH  48  62
BRANCH  49  70
ATOM     70  C   UNL     1      13.445   5.248   5.845  1.00  0.00     0.057 A 
ATOM     71  C   UNL     1      13.021   5.497   7.155  1.00  0.00     0.134 A 
ATOM     72  C   UNL     1      14.369   4.213   5.651  1.00  0.00     0.134 A 
ATOM     73  F   UNL     1      12.156   6.490   7.407  1.00  0.00    -0.206 F 
ATOM     74  C   UNL     1      13.515   4.762   8.234  1.00  0.00     0.040 A 
ATOM     75  C   UNL     1      14.850   3.453   6.717  1.00  0.00     0.040 A 
ATOM     76  F   UNL     1      14.814   3.924   4.420  1.00  0.00    -0.206 F 
ATOM     77  C   UNL     1      14.430   3.734   8.016  1.00  0.00     0.006 A 
ENDBRANCH  49  70
BRANCH  61  78
ATOM     78  C   UNL     1      14.437  11.885   4.024  1.00  0.00     0.057 A 
ATOM     79  C   UNL     1      15.835  11.956   4.021  1.00  0.00     0.134 A 
ATOM     80  C   UNL     1      13.733  12.923   4.646  1.00  0.00     0.134 A 
ATOM     81  F   UNL     1      16.564  10.984   3.452  1.00  0.00    -0.206 F 
ATOM     82  C   UNL     1      16.509  13.012   4.635  1.00  0.00     0.040 A 
ATOM     83  C   UNL     1      14.395  13.995   5.244  1.00  0.00     0.040 A 
ATOM     84  F   UNL     1      12.392  12.915   4.675  1.00  0.00    -0.206 F 
ATOM     85  C   UNL     1      15.788  14.038   5.244  1.00  0.00     0.006 A 
ENDBRANCH  61  78
ENDBRANCH  35  36
ENDBRANCH  28  30
ENDBRANCH  27  28
ENDBRANCH  26  27
ENDBRANCH  25  26
ENDBRANCH   1  25
TORSDOF 16
