REMARK SMILES Cc1cc(Br)c(C)c([C@@H]2[NH2+][C@H](C(=O)OCCOC(=O)c3ccc(-c4c5nc(c(-c6c(F)cccc6F)c6ccc([nH]6)c(-c6c(F)cccc6F)c6nc(c(-c7c(F)cccc7F)c7ccc4[nH]7)C=C6)C=C5)cc3)CS2)c1O
REMARK SMILES IDX 15 1 14 2 12 3 13 4 11 5 9 6 10 7 75 8 74 11 8 12 1 13 2 14
REMARK SMILES IDX 3 15 76 16 4 17 5 18 6 19 7 20 77 21 16 23 17 24 18 25 19 26
REMARK SMILES IDX 20 27 21 28 73 29 22 30 72 31 23 32 24 33 25 34 66 35 26 36
REMARK SMILES IDX 71 37 65 38 67 39 27 40 70 41 64 42 63 43 28 45 54 46 37 47
REMARK SMILES IDX 53 48 38 49 41 50 52 51 68 52 39 53 40 54 51 56 69 57 42 58
REMARK SMILES IDX 29 59 30 60 35 61 31 62 32 63 34 64 36 65 33 66 55 67 56 68
REMARK SMILES IDX 61 69 57 70 58 71 60 72 62 73 59 74 43 75 44 76 49 77 45 78
REMARK SMILES IDX 46 79 48 80 50 81 47 82
REMARK H PARENT 10 9 10 10 77 22 67 44 41 55
REMARK Flexibility Score: inf
ROOT
ATOM      1  C   UNL     1       0.643   0.325  -2.979  1.00  0.00     0.274 C 
ENDROOT
BRANCH   1   2
ATOM      2  O   UNL     1      -0.453  -0.604  -2.884  1.00  0.00    -0.458 OA
BRANCH   2   3
ATOM      3  C   UNL     1      -1.716  -0.108  -2.818  1.00  0.00     0.365 C 
ATOM      4  O   UNL     1      -1.984   1.091  -2.853  1.00  0.00    -0.245 OA
BRANCH   3   5
ATOM      5  C   UNL     1      -2.808  -1.193  -2.783  1.00  0.00     0.304 C 
ATOM      6  C   UNL     1      -2.387  -2.995  -1.257  1.00  0.00     0.278 C 
ATOM      7  N   UNL     1      -2.312  -2.589  -2.663  1.00  0.00    -0.319 N 
ATOM      8  S   UNL     1      -3.848  -2.231  -0.535  1.00  0.00    -0.087 SA
ATOM      9  H   UNL     1      -2.891  -3.209  -3.231  1.00  0.00     0.348 HD
ATOM     10  H   UNL     1      -1.348  -2.645  -2.991  1.00  0.00     0.348 HD
ATOM     11  C   UNL     1      -3.887  -0.887  -1.744  1.00  0.00     0.153 C 
BRANCH   6  12
ATOM     12  C   UNL     1      -1.040  -2.856  -0.546  1.00  0.00     0.066 A 
ATOM     13  C   UNL     1       1.210  -0.107   0.976  1.00  0.00     0.048 C 
ATOM     14  C   UNL     1       0.702  -1.434   0.487  1.00  0.00    -0.008 A 
ATOM     15  C   UNL     1       1.554  -2.537   0.542  1.00  0.00     0.023 A 
ATOM     16  C   UNL     1      -0.597  -1.618  -0.012  1.00  0.00     0.128 A 
ATOM     17  C   UNL     1       1.143  -3.783   0.067  1.00  0.00     0.021 A 
ATOM     18  Br  UNL     1       2.401  -5.203   0.258  1.00  0.00    -0.051 Br
ATOM     19  C   UNL     1      -0.129  -3.961  -0.520  1.00  0.00    -0.023 A 
ATOM     20  C   UNL     1      -0.492  -5.328  -1.060  1.00  0.00     0.046 C 
BRANCH  16  21
ATOM     21  O   UNL     1      -1.458  -0.553  -0.025  1.00  0.00    -0.507 OA
ATOM     22  H   UNL     1      -1.187   0.274   0.323  1.00  0.00     0.293 HD
ENDBRANCH  16  21
ENDBRANCH   6  12
ENDBRANCH   3   5
ENDBRANCH   2   3
ENDBRANCH   1   2
BRANCH   1  23
ATOM     23  C   UNL     1       1.489  -0.004  -4.207  1.00  0.00     0.275 C 
BRANCH  23  24
ATOM     24  O   UNL     1       0.777   0.368  -5.398  1.00  0.00    -0.458 OA
BRANCH  24  25
ATOM     25  C   UNL     1      -0.065  -0.573  -5.879  1.00  0.00     0.338 C 
ATOM     26  O   UNL     1      -0.180  -1.737  -5.534  1.00  0.00    -0.246 OA
BRANCH  25  27
ATOM     27  C   UNL     1      -0.987   0.090  -6.805  1.00  0.00     0.060 A 
ATOM     28  C   UNL     1      -0.512   0.734  -7.946  1.00  0.00     0.016 A 
ATOM     29  C   UNL     1      -2.353   0.047  -6.519  1.00  0.00     0.016 A 
ATOM     30  C   UNL     1      -1.424   1.339  -8.807  1.00  0.00     0.010 A 
ATOM     31  C   UNL     1      -3.264   0.649  -7.375  1.00  0.00     0.010 A 
ATOM     32  C   UNL     1      -2.802   1.291  -8.529  1.00  0.00    -0.014 A 
BRANCH  32  33
ATOM     33  C   UNL     1      -3.777   1.818  -9.503  1.00  0.00     0.031 A 
ATOM     34  C   UNL     1      -4.527   3.085  -9.232  1.00  0.00     0.074 A 
ATOM     35  C   UNL     1      -3.998   1.099 -10.619  1.00  0.00     0.049 A 
ATOM     36  N   UNL     1      -5.384   3.707  -9.999  1.00  0.00    -0.248 NA
ATOM     37  C   UNL     1      -4.302   3.732  -7.929  1.00  0.00     0.031 C 
ATOM     38  C   UNL     1      -3.365  -0.186 -10.928  1.00  0.00     0.029 A 
ATOM     39  N   UNL     1      -4.809   1.340 -11.695  1.00  0.00    -0.354 N 
ATOM     40  C   UNL     1      -5.788   4.825  -9.283  1.00  0.00     0.074 A 
ATOM     41  C   UNL     1      -5.122   4.774  -8.000  1.00  0.00     0.031 C 
ATOM     42  C   UNL     1      -3.789  -0.606 -12.129  1.00  0.00     0.029 A 
ATOM     43  C   UNL     1      -4.739   0.365 -12.660  1.00  0.00     0.049 A 
ATOM     44  H   UNL     1      -5.385   2.134 -11.770  1.00  0.00     0.167 HD
ATOM     45  C   UNL     1      -6.624   5.812  -9.682  1.00  0.00     0.037 A 
ATOM     46  C   UNL     1      -5.369   0.274 -13.845  1.00  0.00     0.037 A 
ATOM     47  C   UNL     1      -7.276   5.841 -10.966  1.00  0.00     0.049 A 
ATOM     48  C   UNL     1      -6.283   1.390 -14.260  1.00  0.00     0.074 A 
ATOM     49  C   UNL     1      -8.105   6.818 -11.488  1.00  0.00     0.029 A 
ATOM     50  N   UNL     1      -7.173   4.846 -11.927  1.00  0.00    -0.354 N 
ATOM     51  N   UNL     1      -6.591   2.487 -13.611  1.00  0.00    -0.248 NA
ATOM     52  C   UNL     1      -6.925   1.267 -15.575  1.00  0.00     0.031 C 
ATOM     53  C   UNL     1      -8.537   6.395 -12.748  1.00  0.00     0.029 A 
ATOM     54  C   UNL     1      -7.938   5.179 -13.033  1.00  0.00     0.049 A 
ATOM     55  H   UNL     1      -6.637   4.026 -11.837  1.00  0.00     0.167 HD
ATOM     56  C   UNL     1      -7.444   3.195 -14.445  1.00  0.00     0.074 A 
ATOM     57  C   UNL     1      -7.587   2.413 -15.656  1.00  0.00     0.031 C 
ATOM     58  C   UNL     1      -8.058   4.384 -14.228  1.00  0.00     0.037 A 
BRANCH  45  59
ATOM     59  C   UNL     1      -6.869   6.957  -8.745  1.00  0.00     0.057 A 
ATOM     60  C   UNL     1      -5.892   7.935  -8.518  1.00  0.00     0.134 A 
ATOM     61  C   UNL     1      -8.126   7.150  -8.157  1.00  0.00     0.134 A 
ATOM     62  F   UNL     1      -4.666   7.806  -9.046  1.00  0.00    -0.206 F 
ATOM     63  C   UNL     1      -6.157   9.066  -7.743  1.00  0.00     0.040 A 
ATOM     64  C   UNL     1      -8.409   8.287  -7.397  1.00  0.00     0.040 A 
ATOM     65  F   UNL     1      -9.108   6.255  -8.339  1.00  0.00    -0.206 F 
ATOM     66  C   UNL     1      -7.423   9.250  -7.191  1.00  0.00     0.006 A 
ENDBRANCH  45  59
BRANCH  46  67
ATOM     67  C   UNL     1      -5.122  -0.894 -14.726  1.00  0.00     0.057 A 
ATOM     68  C   UNL     1      -4.416  -0.759 -15.926  1.00  0.00     0.134 A 
ATOM     69  C   UNL     1      -5.570  -2.175 -14.382  1.00  0.00     0.134 A 
ATOM     70  F   UNL     1      -3.970   0.445 -16.315  1.00  0.00    -0.206 F 
ATOM     71  C   UNL     1      -4.181  -1.850 -16.764  1.00  0.00     0.040 A 
ATOM     72  C   UNL     1      -5.319  -3.281 -15.196  1.00  0.00     0.040 A 
ATOM     73  F   UNL     1      -6.240  -2.375 -13.238  1.00  0.00    -0.206 F 
ATOM     74  C   UNL     1      -4.629  -3.118 -16.396  1.00  0.00     0.006 A 
ENDBRANCH  46  67
BRANCH  58  75
ATOM     75  C   UNL     1      -8.921   4.919 -15.331  1.00  0.00     0.057 A 
ATOM     76  C   UNL     1     -10.166   4.354 -15.630  1.00  0.00     0.134 A 
ATOM     77  C   UNL     1      -8.524   6.044 -16.064  1.00  0.00     0.134 A 
ATOM     78  F   UNL     1     -10.598   3.269 -14.970  1.00  0.00    -0.206 F 
ATOM     79  C   UNL     1     -10.980   4.879 -16.635  1.00  0.00     0.040 A 
ATOM     80  C   UNL     1      -9.340   6.594 -17.052  1.00  0.00     0.040 A 
ATOM     81  F   UNL     1      -7.346   6.638 -15.818  1.00  0.00    -0.206 F 
ATOM     82  C   UNL     1     -10.570   6.008 -17.343  1.00  0.00     0.006 A 
ENDBRANCH  58  75
ENDBRANCH  32  33
ENDBRANCH  25  27
ENDBRANCH  24  25
ENDBRANCH  23  24
ENDBRANCH   1  23
TORSDOF 13
