REMARK SMILES O=C(OCCOC(=O)c1[nH]ncc1C[N@H+]1CCC[C@@H](c2nc3ccccc3o2)C1)c1ccc(-c2c3nc(c(-c4c(F)cccc4F)c4ccc([nH]4)c(-c4c(F)cccc4F)c4nc(c(-c5c(F)cccc5F)c5ccc2[nH]5)C=C4)C=C3)cc1
REMARK SMILES IDX 5 1 4 2 3 3 2 4 1 5 30 6 31 7 83 8 32 9 82 10 33 11 34 12
REMARK SMILES IDX 35 13 76 14 36 15 81 16 75 17 77 18 37 19 80 20 74 21 73 22
REMARK SMILES IDX 38 24 64 25 47 26 63 27 48 28 51 29 62 30 78 31 49 32 50 33
REMARK SMILES IDX 61 35 79 36 52 37 39 38 40 39 45 40 41 41 42 42 44 43 46 44
REMARK SMILES IDX 43 45 65 46 66 47 71 48 67 49 68 50 70 51 72 52 69 53 53 54
REMARK SMILES IDX 54 55 59 56 55 57 56 58 58 59 60 60 57 61 6 62 7 63 8 64
REMARK SMILES IDX 9 65 10 66 13 67 11 68 12 70 14 71 15 72 16 73 29 74 17 76
REMARK SMILES IDX 19 77 18 78 20 79 21 80 28 81 22 82 27 83 23 84 26 85 24 86
REMARK SMILES IDX 25 87
REMARK H PARENT 77 23 51 34 10 69 15 75
REMARK Flexibility Score: inf
ROOT
ATOM      1  C   UNL     1       3.982  -1.115  -1.888  1.00  0.00     0.275 C 
ENDROOT
BRANCH   1   2
ATOM      2  C   UNL     1       4.266  -1.409  -0.412  1.00  0.00     0.275 C 
BRANCH   2   3
ATOM      3  O   UNL     1       3.184  -1.043   0.465  1.00  0.00    -0.458 OA
BRANCH   3   4
ATOM      4  C   UNL     1       2.867   0.105   1.103  1.00  0.00     0.338 C 
ATOM      5  O   UNL     1       1.833   0.107   1.773  1.00  0.00    -0.246 OA
BRANCH   4   6
ATOM      6  C   UNL     1       3.619   1.405   1.009  1.00  0.00     0.060 A 
ATOM      7  C   UNL     1       4.888   1.604   0.464  1.00  0.00     0.016 A 
ATOM      8  C   UNL     1       2.957   2.540   1.523  1.00  0.00     0.016 A 
ATOM      9  C   UNL     1       5.472   2.879   0.432  1.00  0.00     0.010 A 
ATOM     10  C   UNL     1       3.519   3.821   1.464  1.00  0.00     0.010 A 
ATOM     11  C   UNL     1       4.793   3.997   0.927  1.00  0.00    -0.014 A 
BRANCH  11  12
ATOM     12  C   UNL     1       5.455   5.324   0.928  1.00  0.00     0.031 A 
ATOM     13  C   UNL     1       6.042   5.851   2.196  1.00  0.00     0.074 A 
ATOM     14  C   UNL     1       5.614   6.006  -0.220  1.00  0.00     0.049 A 
ATOM     15  N   UNL     1       6.753   6.931   2.384  1.00  0.00    -0.248 NA
ATOM     16  C   UNL     1       5.827   5.044   3.406  1.00  0.00     0.031 C 
ATOM     17  C   UNL     1       5.150   5.540  -1.517  1.00  0.00     0.029 A 
ATOM     18  N   UNL     1       6.232   7.196  -0.501  1.00  0.00    -0.354 N 
ATOM     19  C   UNL     1       7.102   6.916   3.725  1.00  0.00     0.074 A 
ATOM     20  C   UNL     1       6.478   5.752   4.316  1.00  0.00     0.031 C 
ATOM     21  C   UNL     1       5.549   6.392  -2.473  1.00  0.00     0.029 A 
ATOM     22  C   UNL     1       6.242   7.507  -1.842  1.00  0.00     0.049 A 
ATOM     23  H   UNL     1       6.630   7.774   0.189  1.00  0.00     0.167 HD
ATOM     24  C   UNL     1       7.898   7.781   4.395  1.00  0.00     0.037 A 
ATOM     25  C   UNL     1       6.752   8.576  -2.483  1.00  0.00     0.037 A 
ATOM     26  C   UNL     1       8.484   8.957   3.812  1.00  0.00     0.049 A 
ATOM     27  C   UNL     1       7.417   9.641  -1.661  1.00  0.00     0.074 A 
ATOM     28  C   UNL     1       9.289   9.911   4.406  1.00  0.00     0.029 A 
ATOM     29  N   UNL     1       8.305   9.348   2.492  1.00  0.00    -0.354 N 
ATOM     30  N   UNL     1       7.749   9.614  -0.394  1.00  0.00    -0.248 NA
ATOM     31  C   UNL     1       7.754  10.893  -2.350  1.00  0.00     0.031 C 
ATOM     32  C   UNL     1       9.567  10.901   3.453  1.00  0.00     0.029 A 
ATOM     33  C   UNL     1       8.957  10.547   2.259  1.00  0.00     0.049 A 
ATOM     34  H   UNL     1       7.790   8.846   1.820  1.00  0.00     0.167 HD
ATOM     35  C   UNL     1       8.387  10.819  -0.145  1.00  0.00     0.074 A 
ATOM     36  C   UNL     1       8.373  11.565  -1.389  1.00  0.00     0.031 C 
ATOM     37  C   UNL     1       8.950  11.259   1.006  1.00  0.00     0.037 A 
BRANCH  24  38
ATOM     38  C   UNL     1       8.143   7.465   5.836  1.00  0.00     0.057 A 
ATOM     39  C   UNL     1       9.000   6.424   6.217  1.00  0.00     0.134 A 
ATOM     40  C   UNL     1       7.464   8.152   6.847  1.00  0.00     0.134 A 
ATOM     41  F   UNL     1       9.656   5.709   5.290  1.00  0.00    -0.206 F 
ATOM     42  C   UNL     1       9.147   6.055   7.554  1.00  0.00     0.040 A 
ATOM     43  C   UNL     1       7.616   7.803   8.190  1.00  0.00     0.040 A 
ATOM     44  F   UNL     1       6.621   9.151   6.544  1.00  0.00    -0.206 F 
ATOM     45  C   UNL     1       8.451   6.745   8.545  1.00  0.00     0.006 A 
ENDBRANCH  24  38
BRANCH  25  46
ATOM     46  C   UNL     1       6.669   8.701  -3.962  1.00  0.00     0.057 A 
ATOM     47  C   UNL     1       7.825   8.707  -4.752  1.00  0.00     0.134 A 
ATOM     48  C   UNL     1       5.445   8.848  -4.623  1.00  0.00     0.134 A 
ATOM     49  F   UNL     1       9.033   8.592  -4.179  1.00  0.00    -0.206 F 
ATOM     50  C   UNL     1       7.769   8.863  -6.139  1.00  0.00     0.040 A 
ATOM     51  C   UNL     1       5.373   8.981  -6.012  1.00  0.00     0.040 A 
ATOM     52  F   UNL     1       4.301   8.856  -3.926  1.00  0.00    -0.206 F 
ATOM     53  C   UNL     1       6.538   8.996  -6.774  1.00  0.00     0.006 A 
ENDBRANCH  25  46
BRANCH  37  54
ATOM     54  C   UNL     1       9.664  12.572   0.940  1.00  0.00     0.057 A 
ATOM     55  C   UNL     1       8.975  13.790   0.935  1.00  0.00     0.134 A 
ATOM     56  C   UNL     1      11.062  12.611   0.884  1.00  0.00     0.134 A 
ATOM     57  F   UNL     1       7.634  13.813   0.961  1.00  0.00    -0.206 F 
ATOM     58  C   UNL     1       9.655  15.006   0.860  1.00  0.00     0.040 A 
ATOM     59  C   UNL     1      11.754  13.820   0.829  1.00  0.00     0.040 A 
ATOM     60  F   UNL     1      11.776  11.475   0.883  1.00  0.00    -0.206 F 
ATOM     61  C   UNL     1      11.049  15.023   0.812  1.00  0.00     0.006 A 
ENDBRANCH  37  54
ENDBRANCH  11  12
ENDBRANCH   4   6
ENDBRANCH   3   4
ENDBRANCH   2   3
ENDBRANCH   1   2
BRANCH   1  62
ATOM     62  O   UNL     1       3.461   0.206  -2.093  1.00  0.00    -0.457 OA
BRANCH  62  63
ATOM     63  C   UNL     1       2.097   0.290  -2.123  1.00  0.00     0.356 C 
ATOM     64  O   UNL     1       1.328  -0.660  -2.126  1.00  0.00    -0.244 OA
BRANCH  63  65
ATOM     65  C   UNL     1       1.706   1.652  -1.936  1.00  0.00     0.152 A 
ATOM     66  N   UNL     1       0.726   1.982  -1.040  1.00  0.00    -0.271 N 
ATOM     67  C   UNL     1       2.159   2.853  -2.467  1.00  0.00     0.059 A 
ATOM     68  N   UNL     1       0.649   3.297  -0.793  1.00  0.00    -0.183 NA
ATOM     69  H   UNL     1       0.134   1.318  -0.617  1.00  0.00     0.190 HD
ATOM     70  C   UNL     1       1.538   3.822  -1.636  1.00  0.00     0.145 A 
BRANCH  67  71
ATOM     71  C   UNL     1       3.123   3.061  -3.595  1.00  0.00     0.303 C 
BRANCH  71  72
ATOM     72  N   UNL     1       2.586   3.825  -4.735  1.00  0.00    -0.330 N 
ATOM     73  C   UNL     1       1.496   3.129  -5.423  1.00  0.00     0.262 C 
ATOM     74  C   UNL     1       2.231   5.219  -4.423  1.00  0.00     0.275 C 
ATOM     75  H   UNL     1       3.369   3.883  -5.386  1.00  0.00     0.348 HD
ATOM     76  C   UNL     1       1.097   3.872  -6.702  1.00  0.00     0.062 C 
ATOM     77  C   UNL     1       1.855   6.032  -5.674  1.00  0.00     0.131 C 
ATOM     78  C   UNL     1       0.720   5.327  -6.420  1.00  0.00     0.025 C 
BRANCH  77  79
ATOM     79  C   UNL     1       1.472   7.424  -5.281  1.00  0.00     0.204 A 
ATOM     80  N   UNL     1       0.775   7.825  -4.234  1.00  0.00    -0.213 NA
ATOM     81  O   UNL     1       1.971   8.436  -6.061  1.00  0.00    -0.440 OA
ATOM     82  C   UNL     1       0.874   9.194  -4.282  1.00  0.00     0.109 A 
ATOM     83  C   UNL     1       1.603   9.572  -5.397  1.00  0.00     0.154 A 
ATOM     84  C   UNL     1       0.401  10.187  -3.415  1.00  0.00     0.032 A 
ATOM     85  C   UNL     1       1.917  10.883  -5.732  1.00  0.00     0.049 A 
ATOM     86  C   UNL     1       0.708  11.525  -3.710  1.00  0.00     0.003 A 
ATOM     87  C   UNL     1       1.455  11.864  -4.845  1.00  0.00     0.004 A 
ENDBRANCH  77  79
ENDBRANCH  71  72
ENDBRANCH  67  71
ENDBRANCH  63  65
ENDBRANCH  62  63
ENDBRANCH   1  62
TORSDOF 14
