REMARK SMILES C[C@@](NC(=O)CSCc1ccccc1)(C(=O)OCCOC(=O)c1ccc(-c2c3nc(c(-c4c(F)cccc4F)c4ccc([nH]4)c(-c4c(F)cccc4F)c4nc(c(-c5c(F)cccc5F)c5ccc2[nH]5)C=C4)C=C3)cc1)C1CC1
REMARK SMILES IDX 17 1 15 2 16 3 2 4 1 5 3 6 4 7 5 9 6 10 7 11 8 12 9 13 10 14
REMARK SMILES IDX 14 15 11 16 13 17 12 18 77 19 78 20 79 21 18 22 19 23 20 24
REMARK SMILES IDX 21 25 22 26 23 27 24 28 76 29 25 30 75 31 26 32 27 33 28 34
REMARK SMILES IDX 69 35 29 36 74 37 68 38 70 39 30 40 73 41 67 42 66 43 31 45
REMARK SMILES IDX 57 46 40 47 56 48 41 49 44 50 55 51 71 52 42 53 43 54 54 56
REMARK SMILES IDX 72 57 45 58 32 59 33 60 38 61 34 62 35 63 37 64 39 65 36 66
REMARK SMILES IDX 58 67 59 68 64 69 60 70 61 71 63 72 65 73 62 74 46 75 47 76
REMARK SMILES IDX 52 77 48 78 49 79 51 80 53 81 50 82
REMARK H PARENT 3 8 70 44 44 55
REMARK Flexibility Score: inf
ROOT
ATOM      1  O   UNL     1      -1.757  -0.212  -0.144  1.00  0.00    -0.460 OA
ENDROOT
BRANCH   1   2
ATOM      2  C   UNL     1      -1.047  -1.088  -0.920  1.00  0.00     0.331 C 
ATOM      3  O   UNL     1      -1.560  -1.773  -1.800  1.00  0.00    -0.249 OA
BRANCH   2   4
ATOM      4  C   UNL     1       0.454  -1.220  -0.484  1.00  0.00     0.138 C 
ATOM      5  C   UNL     1       0.831  -0.014   0.412  1.00  0.00     0.048 C 
BRANCH   4   6
ATOM      6  N   UNL     1       0.773  -2.427   0.336  1.00  0.00    -0.340 N 
ATOM      7  C   UNL     1       0.370  -3.724   0.298  1.00  0.00     0.230 C 
ATOM      8  H   UNL     1       1.414  -2.243   1.060  1.00  0.00     0.164 HD
ATOM      9  O   UNL     1       1.202  -4.575   0.634  1.00  0.00    -0.274 OA
BRANCH   7  10
ATOM     10  C   UNL     1      -1.059  -4.132   0.021  1.00  0.00     0.169 C 
BRANCH  10  11
ATOM     11  S   UNL     1      -2.259  -3.279   1.096  1.00  0.00    -0.147 SA
BRANCH  11  12
ATOM     12  C   UNL     1      -1.476  -3.426   2.736  1.00  0.00     0.105 C 
BRANCH  12  13
ATOM     13  C   UNL     1      -2.141  -4.535   3.497  1.00  0.00    -0.038 A 
ATOM     14  C   UNL     1      -3.306  -4.282   4.237  1.00  0.00     0.004 A 
ATOM     15  C   UNL     1      -1.673  -5.849   3.376  1.00  0.00     0.004 A 
ATOM     16  C   UNL     1      -4.004  -5.332   4.827  1.00  0.00     0.000 A 
ATOM     17  C   UNL     1      -2.376  -6.897   3.965  1.00  0.00     0.000 A 
ATOM     18  C   UNL     1      -3.543  -6.639   4.683  1.00  0.00     0.000 A 
ENDBRANCH  12  13
ENDBRANCH  11  12
ENDBRANCH  10  11
ENDBRANCH   7  10
ENDBRANCH   4   6
BRANCH   4  19
ATOM     19  C   UNL     1       1.474  -1.251  -1.641  1.00  0.00     0.026 C 
ATOM     20  C   UNL     1       1.158  -1.475  -3.102  1.00  0.00     0.007 C 
ATOM     21  C   UNL     1       1.579  -0.111  -2.629  1.00  0.00     0.007 C 
ENDBRANCH   4  19
ENDBRANCH   2   4
ENDBRANCH   1   2
BRANCH   1  22
ATOM     22  C   UNL     1      -3.201  -0.325  -0.168  1.00  0.00     0.274 C 
BRANCH  22  23
ATOM     23  C   UNL     1      -3.873   1.002  -0.493  1.00  0.00     0.275 C 
BRANCH  23  24
ATOM     24  O   UNL     1      -3.691   1.265  -1.889  1.00  0.00    -0.458 OA
BRANCH  24  25
ATOM     25  C   UNL     1      -2.819   2.250  -2.179  1.00  0.00     0.338 C 
ATOM     26  O   UNL     1      -2.304   3.058  -1.429  1.00  0.00    -0.246 OA
BRANCH  25  27
ATOM     27  C   UNL     1      -2.435   2.094  -3.583  1.00  0.00     0.060 A 
ATOM     28  C   UNL     1      -1.571   1.048  -3.898  1.00  0.00     0.016 A 
ATOM     29  C   UNL     1      -2.797   3.037  -4.537  1.00  0.00     0.016 A 
ATOM     30  C   UNL     1      -0.965   0.996  -5.144  1.00  0.00     0.010 A 
ATOM     31  C   UNL     1      -2.251   2.935  -5.817  1.00  0.00     0.010 A 
ATOM     32  C   UNL     1      -1.291   1.946  -6.113  1.00  0.00    -0.014 A 
BRANCH  32  33
ATOM     33  C   UNL     1      -0.540   2.002  -7.389  1.00  0.00     0.031 A 
ATOM     34  C   UNL     1       0.239   3.244  -7.707  1.00  0.00     0.074 A 
ATOM     35  C   UNL     1      -0.523   0.964  -8.245  1.00  0.00     0.049 A 
ATOM     36  N   UNL     1       0.681   3.675  -8.857  1.00  0.00    -0.248 NA
ATOM     37  C   UNL     1       0.541   4.131  -6.571  1.00  0.00     0.031 C 
ATOM     38  C   UNL     1      -1.127  -0.347  -8.012  1.00  0.00     0.029 A 
ATOM     39  N   UNL     1       0.027   0.862  -9.498  1.00  0.00    -0.354 N 
ATOM     40  C   UNL     1       1.230   4.924  -8.600  1.00  0.00     0.074 A 
ATOM     41  C   UNL     1       1.097   5.168  -7.180  1.00  0.00     0.031 C 
ATOM     42  C   UNL     1      -0.907  -1.127  -9.082  1.00  0.00     0.029 A 
ATOM     43  C   UNL     1      -0.244  -0.336 -10.113  1.00  0.00     0.049 A 
ATOM     44  H   UNL     1       0.561   1.576  -9.915  1.00  0.00     0.167 HD
ATOM     45  C   UNL     1       1.769   5.794  -9.484  1.00  0.00     0.037 A 
ATOM     46  C   UNL     1      -0.049  -0.723 -11.387  1.00  0.00     0.037 A 
ATOM     47  C   UNL     1       1.953   5.499 -10.879  1.00  0.00     0.049 A 
ATOM     48  C   UNL     1       0.524   0.263 -12.365  1.00  0.00     0.074 A 
ATOM     49  C   UNL     1       2.473   6.305 -11.876  1.00  0.00     0.029 A 
ATOM     50  N   UNL     1       1.645   4.281 -11.466  1.00  0.00    -0.354 N 
ATOM     51  N   UNL     1       0.915   1.498 -12.159  1.00  0.00    -0.248 NA
ATOM     52  C   UNL     1       0.646  -0.183 -13.759  1.00  0.00     0.031 C 
ATOM     53  C   UNL     1       2.461   5.578 -13.072  1.00  0.00     0.029 A 
ATOM     54  C   UNL     1       1.961   4.311 -12.812  1.00  0.00     0.049 A 
ATOM     55  H   UNL     1       1.258   3.508 -10.994  1.00  0.00     0.167 HD
ATOM     56  C   UNL     1       1.322   1.980 -13.396  1.00  0.00     0.074 A 
ATOM     57  C   UNL     1       1.154   0.894 -14.342  1.00  0.00     0.031 C 
ATOM     58  C   UNL     1       1.781   3.212 -13.725  1.00  0.00     0.037 A 
BRANCH  45  59
ATOM     59  C   UNL     1       2.127   7.157  -8.976  1.00  0.00     0.057 A 
ATOM     60  C   UNL     1       3.253   7.392  -8.180  1.00  0.00     0.134 A 
ATOM     61  C   UNL     1       1.314   8.255  -9.290  1.00  0.00     0.134 A 
ATOM     62  F   UNL     1       4.056   6.379  -7.823  1.00  0.00    -0.206 F 
ATOM     63  C   UNL     1       3.549   8.668  -7.697  1.00  0.00     0.040 A 
ATOM     64  C   UNL     1       1.611   9.539  -8.831  1.00  0.00     0.040 A 
ATOM     65  F   UNL     1       0.217   8.097 -10.045  1.00  0.00    -0.206 F 
ATOM     66  C   UNL     1       2.728   9.747  -8.026  1.00  0.00     0.006 A 
ENDBRANCH  45  59
BRANCH  46  67
ATOM     67  C   UNL     1      -0.487  -2.072 -11.820  1.00  0.00     0.057 A 
ATOM     68  C   UNL     1       0.440  -3.067 -12.142  1.00  0.00     0.134 A 
ATOM     69  C   UNL     1      -1.846  -2.406 -11.896  1.00  0.00     0.134 A 
ATOM     70  F   UNL     1       1.754  -2.800 -12.112  1.00  0.00    -0.206 F 
ATOM     71  C   UNL     1       0.034  -4.348 -12.522  1.00  0.00     0.040 A 
ATOM     72  C   UNL     1      -2.266  -3.688 -12.249  1.00  0.00     0.040 A 
ATOM     73  F   UNL     1      -2.785  -1.494 -11.600  1.00  0.00    -0.206 F 
ATOM     74  C   UNL     1      -1.324  -4.663 -12.566  1.00  0.00     0.006 A 
ENDBRANCH  46  67
BRANCH  58  75
ATOM     75  C   UNL     1       2.145   3.438 -15.158  1.00  0.00     0.057 A 
ATOM     76  C   UNL     1       1.166   3.671 -16.131  1.00  0.00     0.134 A 
ATOM     77  C   UNL     1       3.486   3.471 -15.558  1.00  0.00     0.134 A 
ATOM     78  F   UNL     1      -0.135   3.639 -15.808  1.00  0.00    -0.206 F 
ATOM     79  C   UNL     1       1.510   3.918 -17.460  1.00  0.00     0.040 A 
ATOM     80  C   UNL     1       3.842   3.735 -16.880  1.00  0.00     0.040 A 
ATOM     81  F   UNL     1       4.467   3.261 -14.667  1.00  0.00    -0.206 F 
ATOM     82  C   UNL     1       2.853   3.957 -17.836  1.00  0.00     0.006 A 
ENDBRANCH  58  75
ENDBRANCH  32  33
ENDBRANCH  25  27
ENDBRANCH  24  25
ENDBRANCH  23  24
ENDBRANCH  22  23
ENDBRANCH   1  22
TORSDOF 17
