REMARK SMILES O=C(OCCOC(=O)c1c(C(F)(F)F)nn(-c2ccccc2)c1C(F)(F)Cl)c1ccc(-c2c3nc(c(-c4c(F)cccc4F)c4ccc([nH]4)c(-c4c(F)cccc4F)c4nc(c(-c5c(F)cccc5F)c5ccc2[nH]5)C=C4)C=C3)cc1
REMARK SMILES IDX 4 1 3 2 2 3 1 4 28 5 29 6 81 7 30 8 80 9 31 10 32 11 33 12
REMARK SMILES IDX 74 13 34 14 79 15 73 16 75 17 35 18 78 19 72 20 71 21 36 23
REMARK SMILES IDX 62 24 45 25 61 26 46 27 49 28 60 29 76 30 47 31 48 32 59 34
REMARK SMILES IDX 77 35 50 36 37 37 38 38 43 39 39 40 40 41 42 42 44 43 41 44
REMARK SMILES IDX 63 45 64 46 69 47 65 48 66 49 68 50 70 51 67 52 51 53 52 54
REMARK SMILES IDX 57 55 53 56 54 57 56 58 58 59 55 60 5 61 6 62 7 63 8 64 9 65
REMARK SMILES IDX 10 66 23 67 15 68 16 69 11 70 12 71 13 72 14 73 24 74 25 75
REMARK SMILES IDX 26 76 27 77 17 78 18 79 22 80 19 81 21 82 20 83
REMARK H PARENT 75 22 49 33
REMARK Flexibility Score: inf
ROOT
ATOM      1  C   UNL     1       4.682  -1.002  -1.184  1.00  0.00     0.275 C 
ENDROOT
BRANCH   1   2
ATOM      2  O   UNL     1       4.082  -1.534   0.004  1.00  0.00    -0.458 OA
BRANCH   2   3
ATOM      3  C   UNL     1       2.741  -1.534   0.129  1.00  0.00     0.338 C 
ATOM      4  O   UNL     1       1.920  -1.672  -0.765  1.00  0.00    -0.246 OA
BRANCH   3   5
ATOM      5  C   UNL     1       2.427  -1.126   1.517  1.00  0.00     0.060 A 
ATOM      6  C   UNL     1       3.453  -0.865   2.439  1.00  0.00     0.016 A 
ATOM      7  C   UNL     1       1.097  -0.888   1.869  1.00  0.00     0.016 A 
ATOM      8  C   UNL     1       3.151  -0.389   3.706  1.00  0.00     0.010 A 
ATOM      9  C   UNL     1       0.798  -0.389   3.135  1.00  0.00     0.010 A 
ATOM     10  C   UNL     1       1.822  -0.163   4.065  1.00  0.00    -0.014 A 
BRANCH  10  11
ATOM     11  C   UNL     1       1.566   0.250   5.445  1.00  0.00     0.031 A 
ATOM     12  C   UNL     1       2.145   1.528   5.955  1.00  0.00     0.074 A 
ATOM     13  C   UNL     1       0.763  -0.443   6.275  1.00  0.00     0.049 A 
ATOM     14  N   UNL     1       2.932   1.696   6.974  1.00  0.00    -0.248 NA
ATOM     15  C   UNL     1       1.766   2.776   5.282  1.00  0.00     0.031 C 
ATOM     16  C   UNL     1      -0.136  -1.548   5.940  1.00  0.00     0.029 A 
ATOM     17  N   UNL     1       0.520  -0.223   7.602  1.00  0.00    -0.354 N 
ATOM     18  C   UNL     1       3.003   3.071   7.189  1.00  0.00     0.074 A 
ATOM     19  C   UNL     1       2.320   3.692   6.080  1.00  0.00     0.031 C 
ATOM     20  C   UNL     1      -0.979  -1.754   6.972  1.00  0.00     0.029 A 
ATOM     21  C   UNL     1      -0.581  -0.902   8.081  1.00  0.00     0.049 A 
ATOM     22  H   UNL     1       1.078   0.364   8.163  1.00  0.00     0.167 HD
ATOM     23  C   UNL     1       3.467   3.611   8.351  1.00  0.00     0.037 A 
ATOM     24  C   UNL     1      -1.172  -0.765   9.287  1.00  0.00     0.037 A 
ATOM     25  C   UNL     1       4.257   2.691   9.122  1.00  0.00     0.049 A 
ATOM     26  C   UNL     1      -0.203  -0.181  10.237  1.00  0.00     0.074 A 
ATOM     27  C   UNL     1       5.393   1.938   8.904  1.00  0.00     0.029 A 
ATOM     28  N   UNL     1       3.769   2.265  10.331  1.00  0.00    -0.354 N 
ATOM     29  N   UNL     1       0.829  -0.809  10.728  1.00  0.00    -0.248 NA
ATOM     30  C   UNL     1      -0.228   1.255  10.476  1.00  0.00     0.031 C 
ATOM     31  C   UNL     1       5.268   0.800   9.756  1.00  0.00     0.029 A 
ATOM     32  C   UNL     1       4.045   0.926  10.414  1.00  0.00     0.049 A 
ATOM     33  H   UNL     1       3.311   2.814  11.007  1.00  0.00     0.167 HD
ATOM     34  C   UNL     1       1.759   0.185  10.982  1.00  0.00     0.074 A 
ATOM     35  C   UNL     1       0.999   1.426  10.969  1.00  0.00     0.031 C 
ATOM     36  C   UNL     1       3.098  -0.058  10.882  1.00  0.00     0.037 A 
BRANCH  23  37
ATOM     37  C   UNL     1       2.968   4.905   8.945  1.00  0.00     0.057 A 
ATOM     38  C   UNL     1       3.701   5.543   9.964  1.00  0.00     0.134 A 
ATOM     39  C   UNL     1       1.657   5.383   8.758  1.00  0.00     0.134 A 
ATOM     40  F   UNL     1       4.947   5.146  10.265  1.00  0.00    -0.206 F 
ATOM     41  C   UNL     1       3.155   6.553  10.765  1.00  0.00     0.040 A 
ATOM     42  C   UNL     1       1.117   6.425   9.520  1.00  0.00     0.040 A 
ATOM     43  F   UNL     1       0.811   4.801   7.897  1.00  0.00    -0.206 F 
ATOM     44  C   UNL     1       1.857   6.998  10.545  1.00  0.00     0.006 A 
ENDBRANCH  23  37
BRANCH  24  45
ATOM     45  C   UNL     1      -2.587  -1.005   9.622  1.00  0.00     0.057 A 
ATOM     46  C   UNL     1      -2.994  -1.295  10.928  1.00  0.00     0.134 A 
ATOM     47  C   UNL     1      -3.611  -0.755   8.690  1.00  0.00     0.134 A 
ATOM     48  F   UNL     1      -2.090  -1.486  11.899  1.00  0.00    -0.206 F 
ATOM     49  C   UNL     1      -4.347  -1.352  11.284  1.00  0.00     0.040 A 
ATOM     50  C   UNL     1      -4.963  -0.824   9.027  1.00  0.00     0.040 A 
ATOM     51  F   UNL     1      -3.328  -0.367   7.437  1.00  0.00    -0.206 F 
ATOM     52  C   UNL     1      -5.336  -1.119  10.332  1.00  0.00     0.006 A 
ENDBRANCH  24  45
BRANCH  36  53
ATOM     53  C   UNL     1       3.552  -1.485  10.896  1.00  0.00     0.057 A 
ATOM     54  C   UNL     1       3.256  -2.397   9.874  1.00  0.00     0.134 A 
ATOM     55  C   UNL     1       4.425  -1.913  11.903  1.00  0.00     0.134 A 
ATOM     56  F   UNL     1       2.514  -2.035   8.819  1.00  0.00    -0.206 F 
ATOM     57  C   UNL     1       3.766  -3.698   9.883  1.00  0.00     0.040 A 
ATOM     58  C   UNL     1       4.965  -3.201  11.908  1.00  0.00     0.040 A 
ATOM     59  F   UNL     1       4.803  -1.068  12.876  1.00  0.00    -0.206 F 
ATOM     60  C   UNL     1       4.626  -4.103  10.901  1.00  0.00     0.006 A 
ENDBRANCH  36  53
ENDBRANCH  10  11
ENDBRANCH   3   5
ENDBRANCH   2   3
ENDBRANCH   1   2
BRANCH   1  61
ATOM     61  C   UNL     1       3.903   0.123  -1.869  1.00  0.00     0.275 C 
BRANCH  61  62
ATOM     62  O   UNL     1       3.574   1.165  -0.927  1.00  0.00    -0.458 OA
BRANCH  62  63
ATOM     63  C   UNL     1       2.586   2.009  -1.333  1.00  0.00     0.342 C 
ATOM     64  O   UNL     1       1.908   1.885  -2.348  1.00  0.00    -0.246 OA
BRANCH  63  65
ATOM     65  C   UNL     1       2.484   3.178  -0.490  1.00  0.00     0.121 A 
ATOM     66  C   UNL     1       1.523   3.446   0.523  1.00  0.00     0.181 A 
ATOM     67  C   UNL     1       3.244   4.342  -0.588  1.00  0.00     0.145 A 
ATOM     68  N   UNL     1       1.811   4.605   1.147  1.00  0.00    -0.162 NA
ATOM     69  N   UNL     1       2.718   5.209   0.346  1.00  0.00    -0.229 N 
BRANCH  66  70
ATOM     70  C   UNL     1       0.317   2.625   0.890  1.00  0.00     0.436 C 
ATOM     71  F   UNL     1       0.230   2.396   2.226  1.00  0.00    -0.164 F 
ATOM     72  F   UNL     1      -0.840   3.239   0.525  1.00  0.00    -0.164 F 
ATOM     73  F   UNL     1       0.315   1.413   0.281  1.00  0.00    -0.164 F 
ENDBRANCH  66  70
BRANCH  67  74
ATOM     74  C   UNL     1       4.371   4.766  -1.457  1.00  0.00     0.365 C 
ATOM     75  F   UNL     1       3.904   5.508  -2.495  1.00  0.00    -0.181 F 
ATOM     76  F   UNL     1       5.235   5.562  -0.774  1.00  0.00    -0.181 F 
ATOM     77  Cl  UNL     1       5.325   3.436  -2.131  1.00  0.00    -0.040 Cl
ENDBRANCH  67  74
BRANCH  69  78
ATOM     78  C   UNL     1       2.942   6.596   0.501  1.00  0.00     0.065 A 
ATOM     79  C   UNL     1       3.251   7.100   1.768  1.00  0.00     0.028 A 
ATOM     80  C   UNL     1       2.833   7.454  -0.600  1.00  0.00     0.028 A 
ATOM     81  C   UNL     1       3.529   8.460   1.913  1.00  0.00     0.002 A 
ATOM     82  C   UNL     1       3.079   8.817  -0.438  1.00  0.00     0.002 A 
ATOM     83  C   UNL     1       3.445   9.315   0.812  1.00  0.00     0.000 A 
ENDBRANCH  69  78
ENDBRANCH  63  65
ENDBRANCH  62  63
ENDBRANCH  61  62
ENDBRANCH   1  61
TORSDOF 14
