REMARK SMILES Cc1cc(=O)c(Oc2ccc(C(=O)OCCOC(=O)c3ccc(-c4c5nc(c(-c6c(F)cccc6F)c6ccc([nH]6)c(-c6c(F)cccc6F)c6nc(c(-c7c(F)cccc7F)c7ccc4[nH]7)C=C6)C=C5)cc3)cc2)c(-c2ccc(S(C)(=O)=O)cc2)o1
REMARK SMILES IDX 15 1 14 2 12 3 13 4 11 5 8 6 9 7 75 8 10 9 74 10 7 11 6 12
REMARK SMILES IDX 1 13 2 14 3 15 87 16 4 17 76 18 5 19 77 20 78 21 86 22 79 23
REMARK SMILES IDX 85 24 80 25 81 26 82 27 83 28 84 29 16 30 17 31 18 32 19 33
REMARK SMILES IDX 20 34 21 35 73 36 22 37 72 38 23 39 24 40 25 41 66 42 26 43
REMARK SMILES IDX 71 44 65 45 67 46 27 47 70 48 64 49 63 50 28 52 54 53 37 54
REMARK SMILES IDX 53 55 38 56 41 57 52 58 68 59 39 60 40 61 51 63 69 64 42 65
REMARK SMILES IDX 29 66 30 67 35 68 31 69 32 70 34 71 36 72 33 73 55 74 56 75
REMARK SMILES IDX 61 76 57 77 58 78 60 79 62 80 59 81 43 82 44 83 49 84 45 85
REMARK SMILES IDX 46 86 48 87 50 88 47 89
REMARK H PARENT 67 51 41 62
REMARK Flexibility Score: inf
ROOT
ATOM      1  C   UNL     1      -4.603  -1.806 -10.426  1.00  0.00     0.275 C 
ENDROOT
BRANCH   1   2
ATOM      2  O   UNL     1      -4.046  -2.555  -9.326  1.00  0.00    -0.458 OA
BRANCH   2   3
ATOM      3  C   UNL     1      -2.712  -2.806  -9.368  1.00  0.00     0.338 C 
ATOM      4  O   UNL     1      -1.968  -2.597 -10.315  1.00  0.00    -0.246 OA
BRANCH   3   5
ATOM      5  C   UNL     1      -2.222  -3.210  -8.019  1.00  0.00     0.060 A 
ATOM      6  C   UNL     1      -1.309  -3.519  -5.395  1.00  0.00     0.127 A 
ATOM      7  C   UNL     1      -0.425  -3.081  -6.375  1.00  0.00     0.048 A 
ATOM      8  C   UNL     1      -2.603  -3.918  -5.743  1.00  0.00     0.048 A 
ATOM      9  C   UNL     1      -0.880  -2.950  -7.693  1.00  0.00     0.019 A 
ATOM     10  C   UNL     1      -3.073  -3.736  -7.045  1.00  0.00     0.019 A 
BRANCH   6  11
ATOM     11  O   UNL     1      -0.963  -3.686  -4.083  1.00  0.00    -0.449 OA
BRANCH  11  12
ATOM     12  C   UNL     1      -0.360  -2.689  -3.333  1.00  0.00     0.217 A 
ATOM     13  C   UNL     1       1.033   0.027  -0.286  1.00  0.00     0.088 C 
ATOM     14  C   UNL     1       0.694  -0.992  -1.327  1.00  0.00     0.105 A 
ATOM     15  C   UNL     1       0.958  -2.292  -1.187  1.00  0.00     0.098 A 
ATOM     16  O   UNL     1       0.048  -0.488  -2.434  1.00  0.00    -0.457 OA
ATOM     17  C   UNL     1       0.534  -3.216  -2.251  1.00  0.00     0.228 A 
ATOM     18  C   UNL     1      -0.575  -1.349  -3.338  1.00  0.00     0.180 A 
ATOM     19  O   UNL     1       0.878  -4.393  -2.196  1.00  0.00    -0.285 OA
BRANCH  18  20
ATOM     20  C   UNL     1      -1.520  -0.574  -4.171  1.00  0.00     0.021 A 
ATOM     21  C   UNL     1      -1.082   0.613  -4.787  1.00  0.00     0.013 A 
ATOM     22  C   UNL     1      -2.887  -0.876  -4.202  1.00  0.00     0.013 A 
ATOM     23  C   UNL     1      -1.988   1.491  -5.395  1.00  0.00     0.021 A 
ATOM     24  C   UNL     1      -3.796  -0.014  -4.827  1.00  0.00     0.021 A 
ATOM     25  C   UNL     1      -3.348   1.179  -5.402  1.00  0.00     0.067 A 
BRANCH  25  26
ATOM     26  S   UNL     1      -4.546   2.319  -6.068  1.00  0.00     0.175 S 
ATOM     27  C   UNL     1      -4.016   3.921  -5.535  1.00  0.00     0.163 C 
ATOM     28  O   UNL     1      -4.455   2.305  -7.514  1.00  0.00    -0.224 OA
ATOM     29  O   UNL     1      -5.809   2.056  -5.402  1.00  0.00    -0.224 OA
ENDBRANCH  25  26
ENDBRANCH  18  20
ENDBRANCH  11  12
ENDBRANCH   6  11
ENDBRANCH   3   5
ENDBRANCH   2   3
ENDBRANCH   1   2
BRANCH   1  30
ATOM     30  C   UNL     1      -4.784  -0.318 -10.087  1.00  0.00     0.275 C 
BRANCH  30  31
ATOM     31  O   UNL     1      -3.552   0.434 -10.104  1.00  0.00    -0.458 OA
BRANCH  31  32
ATOM     32  C   UNL     1      -2.871   0.382  -8.938  1.00  0.00     0.338 C 
ATOM     33  O   UNL     1      -3.138  -0.317  -7.972  1.00  0.00    -0.246 OA
BRANCH  32  34
ATOM     34  C   UNL     1      -1.678   1.246  -8.929  1.00  0.00     0.060 A 
ATOM     35  C   UNL     1      -1.733   2.613  -9.211  1.00  0.00     0.016 A 
ATOM     36  C   UNL     1      -0.497   0.679  -8.444  1.00  0.00     0.016 A 
ATOM     37  C   UNL     1      -0.590   3.404  -9.027  1.00  0.00     0.010 A 
ATOM     38  C   UNL     1       0.633   1.461  -8.244  1.00  0.00     0.010 A 
ATOM     39  C   UNL     1       0.603   2.825  -8.560  1.00  0.00    -0.014 A 
BRANCH  39  40
ATOM     40  C   UNL     1       1.884   3.569  -8.557  1.00  0.00     0.031 A 
ATOM     41  C   UNL     1       2.874   3.262  -9.648  1.00  0.00     0.074 A 
ATOM     42  C   UNL     1       2.192   4.439  -7.578  1.00  0.00     0.049 A 
ATOM     43  N   UNL     1       4.087   3.716  -9.825  1.00  0.00    -0.248 NA
ATOM     44  C   UNL     1       2.445   2.279 -10.659  1.00  0.00     0.031 C 
ATOM     45  C   UNL     1       1.338   4.779  -6.441  1.00  0.00     0.029 A 
ATOM     46  N   UNL     1       3.325   5.187  -7.382  1.00  0.00    -0.354 N 
ATOM     47  C   UNL     1       4.558   3.081 -10.968  1.00  0.00     0.074 A 
ATOM     48  C   UNL     1       3.537   2.151 -11.393  1.00  0.00     0.031 C 
ATOM     49  C   UNL     1       1.976   5.680  -5.669  1.00  0.00     0.029 A 
ATOM     50  C   UNL     1       3.284   5.969  -6.253  1.00  0.00     0.049 A 
ATOM     51  H   UNL     1       4.096   5.166  -7.993  1.00  0.00     0.167 HD
ATOM     52  C   UNL     1       5.719   3.281 -11.633  1.00  0.00     0.037 A 
ATOM     53  C   UNL     1       4.203   6.822  -5.760  1.00  0.00     0.037 A 
ATOM     54  C   UNL     1       6.732   4.208 -11.216  1.00  0.00     0.049 A 
ATOM     55  C   UNL     1       5.497   7.019  -6.511  1.00  0.00     0.074 A 
ATOM     56  C   UNL     1       7.946   4.495 -11.812  1.00  0.00     0.029 A 
ATOM     57  N   UNL     1       6.637   5.010 -10.088  1.00  0.00    -0.354 N 
ATOM     58  N   UNL     1       5.906   6.455  -7.623  1.00  0.00    -0.248 NA
ATOM     59  C   UNL     1       6.453   7.981  -5.943  1.00  0.00     0.031 C 
ATOM     60  C   UNL     1       8.593   5.463 -11.036  1.00  0.00     0.029 A 
ATOM     61  C   UNL     1       7.768   5.798  -9.973  1.00  0.00     0.049 A 
ATOM     62  H   UNL     1       5.877   5.017  -9.462  1.00  0.00     0.167 HD
ATOM     63  C   UNL     1       7.146   7.018  -7.903  1.00  0.00     0.074 A 
ATOM     64  C   UNL     1       7.415   7.979  -6.854  1.00  0.00     0.031 C 
ATOM     65  C   UNL     1       7.993   6.763  -8.930  1.00  0.00     0.037 A 
BRANCH  52  66
ATOM     66  C   UNL     1       5.918   2.494 -12.893  1.00  0.00     0.057 A 
ATOM     67  C   UNL     1       6.840   1.444 -12.958  1.00  0.00     0.134 A 
ATOM     68  C   UNL     1       5.160   2.763 -14.043  1.00  0.00     0.134 A 
ATOM     69  F   UNL     1       7.597   1.135 -11.895  1.00  0.00    -0.206 F 
ATOM     70  C   UNL     1       6.993   0.681 -14.118  1.00  0.00     0.040 A 
ATOM     71  C   UNL     1       5.285   1.991 -15.198  1.00  0.00     0.040 A 
ATOM     72  F   UNL     1       4.244   3.744 -14.037  1.00  0.00    -0.206 F 
ATOM     73  C   UNL     1       6.206   0.947 -15.238  1.00  0.00     0.006 A 
ENDBRANCH  52  66
BRANCH  53  74
ATOM     74  C   UNL     1       3.945   7.590  -4.514  1.00  0.00     0.057 A 
ATOM     75  C   UNL     1       3.947   6.974  -3.258  1.00  0.00     0.134 A 
ATOM     76  C   UNL     1       3.763   8.979  -4.549  1.00  0.00     0.134 A 
ATOM     77  F   UNL     1       4.110   5.647  -3.154  1.00  0.00    -0.206 F 
ATOM     78  C   UNL     1       3.796   7.712  -2.081  1.00  0.00     0.040 A 
ATOM     79  C   UNL     1       3.634   9.732  -3.380  1.00  0.00     0.040 A 
ATOM     80  F   UNL     1       3.771   9.630  -5.721  1.00  0.00    -0.206 F 
ATOM     81  C   UNL     1       3.652   9.097  -2.140  1.00  0.00     0.006 A 
ENDBRANCH  53  74
BRANCH  65  82
ATOM     82  C   UNL     1       9.259   7.564  -8.989  1.00  0.00     0.057 A 
ATOM     83  C   UNL     1       9.426   8.559  -9.960  1.00  0.00     0.134 A 
ATOM     84  C   UNL     1      10.325   7.323  -8.113  1.00  0.00     0.134 A 
ATOM     85  F   UNL     1       8.444   8.832 -10.832  1.00  0.00    -0.206 F 
ATOM     86  C   UNL     1      10.613   9.285 -10.060  1.00  0.00     0.040 A 
ATOM     87  C   UNL     1      11.507   8.060  -8.189  1.00  0.00     0.040 A 
ATOM     88  F   UNL     1      10.219   6.392  -7.153  1.00  0.00    -0.206 F 
ATOM     89  C   UNL     1      11.656   9.039  -9.169  1.00  0.00     0.006 A 
ENDBRANCH  65  82
ENDBRANCH  39  40
ENDBRANCH  32  34
ENDBRANCH  31  32
ENDBRANCH  30  31
ENDBRANCH   1  30
TORSDOF 15
