REMARK SMILES O=C(OCCOC(=O)c1ccccc1/N=C/c1coc2ccccc2c1=O)c1ccc(-c2c3nc(c(-c4c(F)cccc4F)c4ccc([nH]4)c(-c4c(F)cccc4F)c4nc(c(-c5c(F)cccc5F)c5ccc2[nH]5)C=C4)C=C3)cc1
REMARK SMILES IDX 4 1 3 2 2 3 1 4 28 5 29 6 81 7 30 8 80 9 31 10 32 11 33 12
REMARK SMILES IDX 74 13 34 14 79 15 73 16 75 17 35 18 78 19 72 20 71 21 36 23
REMARK SMILES IDX 62 24 45 25 61 26 46 27 49 28 60 29 76 30 47 31 48 32 59 34
REMARK SMILES IDX 77 35 50 36 37 37 38 38 43 39 39 40 40 41 42 42 44 43 41 44
REMARK SMILES IDX 63 45 64 46 69 47 65 48 66 49 68 50 70 51 67 52 51 53 52 54
REMARK SMILES IDX 57 55 53 56 54 57 56 58 58 59 55 60 5 61 6 62 7 63 8 64 9 65
REMARK SMILES IDX 10 66 14 67 11 68 13 69 12 70 15 71 16 72 17 73 18 74 26 75
REMARK SMILES IDX 19 76 25 77 27 78 20 79 24 80 21 81 23 82 22 83
REMARK H PARENT 75 22 49 33
REMARK Flexibility Score: inf
ROOT
ATOM      1  C   UNL     1       4.472  -0.962   0.860  1.00  0.00     0.275 C 
ENDROOT
BRANCH   1   2
ATOM      2  O   UNL     1       3.488   0.006   1.252  1.00  0.00    -0.458 OA
BRANCH   2   3
ATOM      3  C   UNL     1       3.224   1.226   0.736  1.00  0.00     0.338 C 
ATOM      4  O   UNL     1       2.327   1.891   1.257  1.00  0.00    -0.246 OA
BRANCH   3   5
ATOM      5  C   UNL     1       3.886   1.810  -0.479  1.00  0.00     0.060 A 
ATOM      6  C   UNL     1       5.188   1.566  -0.932  1.00  0.00     0.016 A 
ATOM      7  C   UNL     1       3.126   2.760  -1.182  1.00  0.00     0.016 A 
ATOM      8  C   UNL     1       5.725   2.247  -2.044  1.00  0.00     0.010 A 
ATOM      9  C   UNL     1       3.646   3.427  -2.295  1.00  0.00     0.010 A 
ATOM     10  C   UNL     1       4.969   3.201  -2.721  1.00  0.00    -0.014 A 
BRANCH  10  11
ATOM     11  C   UNL     1       5.532   4.148  -3.717  1.00  0.00     0.031 A 
ATOM     12  C   UNL     1       5.725   5.557  -3.268  1.00  0.00     0.074 A 
ATOM     13  C   UNL     1       5.854   3.855  -4.992  1.00  0.00     0.049 A 
ATOM     14  N   UNL     1       6.069   6.590  -3.982  1.00  0.00    -0.248 NA
ATOM     15  C   UNL     1       5.614   5.815  -1.823  1.00  0.00     0.031 C 
ATOM     16  C   UNL     1       6.092   2.542  -5.556  1.00  0.00     0.029 A 
ATOM     17  N   UNL     1       5.895   4.681  -6.096  1.00  0.00    -0.354 N 
ATOM     18  C   UNL     1       6.368   7.573  -3.063  1.00  0.00     0.074 A 
ATOM     19  C   UNL     1       5.983   7.084  -1.758  1.00  0.00     0.031 C 
ATOM     20  C   UNL     1       5.959   2.602  -6.894  1.00  0.00     0.029 A 
ATOM     21  C   UNL     1       5.711   3.980  -7.272  1.00  0.00     0.049 A 
ATOM     22  H   UNL     1       6.038   5.654  -6.050  1.00  0.00     0.167 HD
ATOM     23  C   UNL     1       7.022   8.730  -3.295  1.00  0.00     0.037 A 
ATOM     24  C   UNL     1       5.351   4.418  -8.494  1.00  0.00     0.037 A 
ATOM     25  C   UNL     1       7.337   9.206  -4.611  1.00  0.00     0.049 A 
ATOM     26  C   UNL     1       5.628   5.860  -8.771  1.00  0.00     0.074 A 
ATOM     27  C   UNL     1       7.977  10.371  -4.984  1.00  0.00     0.029 A 
ATOM     28  N   UNL     1       6.988   8.544  -5.784  1.00  0.00    -0.354 N 
ATOM     29  N   UNL     1       5.981   6.788  -7.918  1.00  0.00    -0.248 NA
ATOM     30  C   UNL     1       5.655   6.279 -10.177  1.00  0.00     0.031 C 
ATOM     31  C   UNL     1       7.937  10.455  -6.381  1.00  0.00     0.029 A 
ATOM     32  C   UNL     1       7.328   9.313  -6.883  1.00  0.00     0.049 A 
ATOM     33  H   UNL     1       6.561   7.659  -5.826  1.00  0.00     0.167 HD
ATOM     34  C   UNL     1       6.437   7.844  -8.684  1.00  0.00     0.074 A 
ATOM     35  C   UNL     1       6.203   7.484 -10.071  1.00  0.00     0.031 C 
ATOM     36  C   UNL     1       7.080   8.958  -8.261  1.00  0.00     0.037 A 
BRANCH  23  37
ATOM     37  C   UNL     1       7.395   9.508  -2.076  1.00  0.00     0.057 A 
ATOM     38  C   UNL     1       8.363   9.033  -1.175  1.00  0.00     0.134 A 
ATOM     39  C   UNL     1       6.688  10.659  -1.726  1.00  0.00     0.134 A 
ATOM     40  F   UNL     1       9.050   7.911  -1.440  1.00  0.00    -0.206 F 
ATOM     41  C   UNL     1       8.571   9.649   0.059  1.00  0.00     0.040 A 
ATOM     42  C   UNL     1       6.905  11.297  -0.505  1.00  0.00     0.040 A 
ATOM     43  F   UNL     1       5.742  11.151  -2.540  1.00  0.00    -0.206 F 
ATOM     44  C   UNL     1       7.835  10.782   0.398  1.00  0.00     0.006 A 
ENDBRANCH  23  37
BRANCH  24  45
ATOM     45  C   UNL     1       4.855   3.506  -9.553  1.00  0.00     0.057 A 
ATOM     46  C   UNL     1       5.704   2.893 -10.476  1.00  0.00     0.134 A 
ATOM     47  C   UNL     1       3.482   3.247  -9.682  1.00  0.00     0.134 A 
ATOM     48  F   UNL     1       7.022   3.133 -10.436  1.00  0.00    -0.206 F 
ATOM     49  C   UNL     1       5.215   2.045 -11.476  1.00  0.00     0.040 A 
ATOM     50  C   UNL     1       2.978   2.392 -10.669  1.00  0.00     0.040 A 
ATOM     51  F   UNL     1       2.604   3.810  -8.838  1.00  0.00    -0.206 F 
ATOM     52  C   UNL     1       3.848   1.785 -11.570  1.00  0.00     0.006 A 
ENDBRANCH  24  45
BRANCH  36  53
ATOM     53  C   UNL     1       7.635   9.865  -9.311  1.00  0.00     0.057 A 
ATOM     54  C   UNL     1       6.814  10.685 -10.089  1.00  0.00     0.134 A 
ATOM     55  C   UNL     1       9.022   9.976  -9.478  1.00  0.00     0.134 A 
ATOM     56  F   UNL     1       5.479  10.602  -9.991  1.00  0.00    -0.206 F 
ATOM     57  C   UNL     1       7.355  11.596 -10.995  1.00  0.00     0.040 A 
ATOM     58  C   UNL     1       9.575  10.903 -10.359  1.00  0.00     0.040 A 
ATOM     59  F   UNL     1       9.860   9.210  -8.763  1.00  0.00    -0.206 F 
ATOM     60  C   UNL     1       8.739  11.718 -11.119  1.00  0.00     0.006 A 
ENDBRANCH  36  53
ENDBRANCH  10  11
ENDBRANCH   3   5
ENDBRANCH   2   3
ENDBRANCH   1   2
BRANCH   1  61
ATOM     61  C   UNL     1       4.122  -1.760  -0.390  1.00  0.00     0.275 C 
BRANCH  61  62
ATOM     62  O   UNL     1       3.287  -1.038  -1.302  1.00  0.00    -0.458 OA
BRANCH  62  63
ATOM     63  C   UNL     1       1.985  -1.431  -1.323  1.00  0.00     0.340 C 
ATOM     64  O   UNL     1       1.458  -2.285  -0.649  1.00  0.00    -0.246 OA
BRANCH  63  65
ATOM     65  C   UNL     1       1.282  -0.665  -2.355  1.00  0.00     0.085 A 
ATOM     66  C   UNL     1       0.586   0.471  -1.899  1.00  0.00     0.018 A 
ATOM     67  C   UNL     1       1.332  -1.006  -3.717  1.00  0.00     0.077 A 
ATOM     68  C   UNL     1      -0.035   1.325  -2.805  1.00  0.00     0.001 A 
ATOM     69  C   UNL     1       0.617  -0.163  -4.592  1.00  0.00     0.029 A 
ATOM     70  C   UNL     1      -0.030   1.002  -4.155  1.00  0.00     0.002 A 
BRANCH  67  71
ATOM     71  N   UNL     1       2.283  -1.823  -4.372  1.00  0.00    -0.255 NA
ATOM     72  C   UNL     1       3.086  -2.668  -3.812  1.00  0.00     0.127 C 
BRANCH  72  73
ATOM     73  C   UNL     1       4.555  -2.691  -4.225  1.00  0.00     0.076 A 
ATOM     74  C   UNL     1       4.826  -3.124  -5.478  1.00  0.00     0.209 A 
ATOM     75  C   UNL     1       5.107  -1.296  -4.108  1.00  0.00     0.201 A 
ATOM     76  O   UNL     1       4.933  -2.276  -6.608  1.00  0.00    -0.463 OA
ATOM     77  C   UNL     1       4.562  -0.419  -5.155  1.00  0.00     0.065 A 
ATOM     78  O   UNL     1       5.856  -0.932  -3.215  1.00  0.00    -0.288 OA
ATOM     79  C   UNL     1       4.473  -0.991  -6.420  1.00  0.00     0.137 A 
ATOM     80  C   UNL     1       3.873   0.745  -4.846  1.00  0.00     0.016 A 
ATOM     81  C   UNL     1       3.805  -0.329  -7.439  1.00  0.00     0.048 A 
ATOM     82  C   UNL     1       3.166   1.400  -5.851  1.00  0.00     0.001 A 
ATOM     83  C   UNL     1       3.137   0.863  -7.141  1.00  0.00     0.004 A 
ENDBRANCH  72  73
ENDBRANCH  67  71
ENDBRANCH  63  65
ENDBRANCH  62  63
ENDBRANCH  61  62
ENDBRANCH   1  61
TORSDOF 13
