REMARK SMILES O=C(OCCOC(=O)c1nccnc1C(=O)Nc1n[nH]c2ncccc12)c1ccc(-c2c3nc(c(-c4c(F)cccc4F)c4ccc([nH]4)c(-c4c(F)cccc4F)c4nc(c(-c5c(F)cccc5F)c5ccc2[nH]5)C=C4)C=C3)cc1
REMARK SMILES IDX 4 1 3 2 2 3 1 4 27 5 28 6 80 7 29 8 79 9 30 10 31 11 32 12
REMARK SMILES IDX 73 13 33 14 78 15 72 16 74 17 34 18 77 19 71 20 70 21 35 23
REMARK SMILES IDX 61 24 44 25 60 26 45 27 48 28 59 29 75 30 46 31 47 32 58 34
REMARK SMILES IDX 76 35 49 36 36 37 37 38 42 39 38 40 39 41 41 42 43 43 40 44
REMARK SMILES IDX 62 45 63 46 68 47 64 48 65 49 67 50 69 51 66 52 50 53 51 54
REMARK SMILES IDX 56 55 52 56 53 57 55 58 57 59 54 60 5 61 6 62 7 63 8 64 9 65
REMARK SMILES IDX 10 66 14 67 11 68 13 69 12 70 15 71 16 72 17 73 18 75 19 76
REMARK SMILES IDX 26 77 20 78 21 79 25 80 22 82 24 83 23 84
REMARK H PARENT 74 22 48 33 17 74 20 81
REMARK Flexibility Score: inf
ROOT
ATOM      1  C   UNL     1       4.753   0.267  -0.946  1.00  0.00     0.275 C 
ENDROOT
BRANCH   1   2
ATOM      2  O   UNL     1       3.477  -0.538  -0.695  1.00  0.00    -0.458 OA
BRANCH   2   3
ATOM      3  C   UNL     1       3.219  -1.911  -0.737  1.00  0.00     0.338 C 
ATOM      4  O   UNL     1       2.966  -2.521  -1.762  1.00  0.00    -0.246 OA
BRANCH   3   5
ATOM      5  C   UNL     1       3.097  -2.564   0.645  1.00  0.00     0.060 A 
ATOM      6  C   UNL     1       3.052  -1.712   1.689  1.00  0.00     0.016 A 
ATOM      7  C   UNL     1       3.070  -3.880   1.070  1.00  0.00     0.016 A 
ATOM      8  C   UNL     1       3.782  -1.966   2.840  1.00  0.00     0.010 A 
ATOM      9  C   UNL     1       3.446  -4.196   2.430  1.00  0.00     0.010 A 
ATOM     10  C   UNL     1       4.075  -3.230   3.251  1.00  0.00    -0.014 A 
BRANCH  10  11
ATOM     11  C   UNL     1       5.158  -3.449   4.315  1.00  0.00     0.031 A 
ATOM     12  C   UNL     1       6.075  -4.633   4.115  1.00  0.00     0.074 A 
ATOM     13  C   UNL     1       5.561  -2.584   5.298  1.00  0.00     0.049 A 
ATOM     14  N   UNL     1       6.878  -5.231   4.954  1.00  0.00    -0.248 NA
ATOM     15  C   UNL     1       6.101  -5.208   2.762  1.00  0.00     0.031 C 
ATOM     16  C   UNL     1       5.093  -1.221   5.516  1.00  0.00     0.029 A 
ATOM     17  N   UNL     1       6.521  -2.693   6.299  1.00  0.00    -0.354 N 
ATOM     18  C   UNL     1       7.409  -6.306   4.252  1.00  0.00     0.074 A 
ATOM     19  C   UNL     1       6.812  -6.303   2.940  1.00  0.00     0.031 C 
ATOM     20  C   UNL     1       5.736  -0.621   6.521  1.00  0.00     0.029 A 
ATOM     21  C   UNL     1       6.616  -1.585   7.130  1.00  0.00     0.049 A 
ATOM     22  H   UNL     1       7.087  -3.491   6.409  1.00  0.00     0.167 HD
ATOM     23  C   UNL     1       8.340  -7.204   4.642  1.00  0.00     0.037 A 
ATOM     24  C   UNL     1       7.282  -1.343   8.278  1.00  0.00     0.037 A 
ATOM     25  C   UNL     1       9.025  -7.146   5.898  1.00  0.00     0.049 A 
ATOM     26  C   UNL     1       8.175  -2.424   8.796  1.00  0.00     0.074 A 
ATOM     27  C   UNL     1       9.880  -8.073   6.460  1.00  0.00     0.029 A 
ATOM     28  N   UNL     1       8.966  -6.067   6.767  1.00  0.00    -0.354 N 
ATOM     29  N   UNL     1       8.485  -3.561   8.226  1.00  0.00    -0.248 NA
ATOM     30  C   UNL     1       8.809  -2.204  10.102  1.00  0.00     0.031 C 
ATOM     31  C   UNL     1      10.314  -7.568   7.691  1.00  0.00     0.029 A 
ATOM     32  C   UNL     1       9.765  -6.308   7.869  1.00  0.00     0.049 A 
ATOM     33  H   UNL     1       8.434  -5.251   6.622  1.00  0.00     0.167 HD
ATOM     34  C   UNL     1       9.371  -4.182   9.088  1.00  0.00     0.074 A 
ATOM     35  C   UNL     1       9.569  -3.284  10.208  1.00  0.00     0.031 C 
ATOM     36  C   UNL     1       9.961  -5.393   8.963  1.00  0.00     0.037 A 
BRANCH  23  37
ATOM     37  C   UNL     1       8.571  -8.353   3.709  1.00  0.00     0.057 A 
ATOM     38  C   UNL     1       9.241  -8.214   2.486  1.00  0.00     0.134 A 
ATOM     39  C   UNL     1       7.988  -9.595   3.992  1.00  0.00     0.134 A 
ATOM     40  F   UNL     1       9.767  -7.031   2.130  1.00  0.00    -0.206 F 
ATOM     41  C   UNL     1       9.283  -9.256   1.558  1.00  0.00     0.040 A 
ATOM     42  C   UNL     1       8.051 -10.653   3.087  1.00  0.00     0.040 A 
ATOM     43  F   UNL     1       7.315  -9.785   5.137  1.00  0.00    -0.206 F 
ATOM     44  C   UNL     1       8.687 -10.480   1.859  1.00  0.00     0.006 A 
ENDBRANCH  23  37
BRANCH  24  45
ATOM     45  C   UNL     1       7.079  -0.080   9.063  1.00  0.00     0.057 A 
ATOM     46  C   UNL     1       8.132   0.802   9.343  1.00  0.00     0.134 A 
ATOM     47  C   UNL     1       5.831   0.235   9.627  1.00  0.00     0.134 A 
ATOM     48  F   UNL     1       9.358   0.564   8.855  1.00  0.00    -0.206 F 
ATOM     49  C   UNL     1       7.966   1.915  10.177  1.00  0.00     0.040 A 
ATOM     50  C   UNL     1       5.643   1.360  10.437  1.00  0.00     0.040 A 
ATOM     51  F   UNL     1       4.768  -0.551   9.402  1.00  0.00    -0.206 F 
ATOM     52  C   UNL     1       6.717   2.196  10.728  1.00  0.00     0.006 A 
ENDBRANCH  24  45
BRANCH  36  53
ATOM     53  C   UNL     1      10.907  -5.793  10.047  1.00  0.00     0.057 A 
ATOM     54  C   UNL     1      10.456  -6.156  11.321  1.00  0.00     0.134 A 
ATOM     55  C   UNL     1      12.283  -5.847   9.798  1.00  0.00     0.134 A 
ATOM     56  F   UNL     1       9.149  -6.101  11.621  1.00  0.00    -0.206 F 
ATOM     57  C   UNL     1      11.346  -6.541  12.321  1.00  0.00     0.040 A 
ATOM     58  C   UNL     1      13.180  -6.259  10.780  1.00  0.00     0.040 A 
ATOM     59  F   UNL     1      12.772  -5.512   8.594  1.00  0.00    -0.206 F 
ATOM     60  C   UNL     1      12.712  -6.602  12.048  1.00  0.00     0.006 A 
ENDBRANCH  36  53
ENDBRANCH  10  11
ENDBRANCH   3   5
ENDBRANCH   2   3
ENDBRANCH   1   2
BRANCH   1  61
ATOM     61  C   UNL     1       5.141   1.858  -0.052  1.00  0.00     0.275 C 
BRANCH  61  62
ATOM     62  O   UNL     1       4.253   2.562   1.663  1.00  0.00    -0.457 OA
BRANCH  62  63
ATOM     63  C   UNL     1       3.225   2.604   2.729  1.00  0.00     0.359 C 
ATOM     64  O   UNL     1       2.945   3.709   3.204  1.00  0.00    -0.244 OA
BRANCH  63  65
ATOM     65  C   UNL     1       2.479   1.404   3.404  1.00  0.00     0.179 A 
ATOM     66  N   UNL     1       2.922   1.316   4.716  1.00  0.00    -0.245 NA
ATOM     67  C   UNL     1       1.409   0.567   3.009  1.00  0.00     0.161 A 
ATOM     68  C   UNL     1       2.334   0.425   5.561  1.00  0.00     0.132 A 
ATOM     69  N   UNL     1       0.935  -0.402   3.889  1.00  0.00    -0.247 NA
ATOM     70  C   UNL     1       1.391  -0.465   5.140  1.00  0.00     0.132 A 
BRANCH  67  71
ATOM     71  C   UNL     1       0.569   0.365   1.747  1.00  0.00     0.278 C 
ATOM     72  O   UNL     1      -0.466  -0.314   1.820  1.00  0.00    -0.267 OA
ATOM     73  N   UNL     1       0.822   0.828   0.496  1.00  0.00    -0.303 N 
ATOM     74  H   UNL     1       0.191   0.539  -0.203  1.00  0.00     0.172 HD
BRANCH  73  75
ATOM     75  C   UNL     1       1.819   1.628   0.086  1.00  0.00     0.164 A 
ATOM     76  N   UNL     1       1.463   2.660  -0.691  1.00  0.00    -0.155 NA
ATOM     77  C   UNL     1       3.155   1.608   0.505  1.00  0.00     0.063 A 
ATOM     78  N   UNL     1       2.361   3.657  -0.516  1.00  0.00    -0.259 N 
ATOM     79  C   UNL     1       3.499   3.271   0.096  1.00  0.00     0.157 A 
ATOM     80  C   UNL     1       4.459   0.719   1.503  1.00  0.00     0.017 A 
ATOM     81  H   UNL     1       2.197   4.582  -0.810  1.00  0.00     0.192 HD
ATOM     82  N   UNL     1       4.895   4.096   0.548  1.00  0.00    -0.237 NA
ATOM     83  C   UNL     1       5.908   1.591   2.030  1.00  0.00     0.021 A 
ATOM     84  C   UNL     1       6.031   3.230   1.518  1.00  0.00     0.113 A 
ENDBRANCH  73  75
ENDBRANCH  67  71
ENDBRANCH  63  65
ENDBRANCH  62  63
ENDBRANCH  61  62
ENDBRANCH   1  61
TORSDOF 13
