REMARK SMILES O=C(OCCOC(=O)c1ccccc1-c1ccccc1C(=O)N1CC[NH+](Cc2ccc3c(c2)OCO3)CC1)c1ccc(-c2c3nc(c(-c4c(F)cccc4F)c4ccc([nH]4)c(-c4c(F)cccc4F)c4nc(c(-c5c(F)cccc5F)c5ccc2[nH]5)C=C4)C=C3)cc1
REMARK SMILES IDX 5 1 4 2 3 3 2 4 1 5 39 6 40 7 92 8 41 9 91 10 42 11 43 12
REMARK SMILES IDX 44 13 85 14 45 15 90 16 84 17 86 18 46 19 89 20 83 21 82 22
REMARK SMILES IDX 47 24 73 25 56 26 72 27 57 28 60 29 71 30 87 31 58 32 59 33
REMARK SMILES IDX 70 35 88 36 61 37 48 38 49 39 54 40 50 41 51 42 53 43 55 44
REMARK SMILES IDX 52 45 74 46 75 47 80 48 76 49 77 50 79 51 81 52 78 53 62 54
REMARK SMILES IDX 63 55 68 56 64 57 65 58 67 59 69 60 66 61 6 62 7 63 8 64
REMARK SMILES IDX 9 65 10 66 14 67 11 68 13 69 12 70 15 71 16 72 20 73 17 74
REMARK SMILES IDX 19 75 18 76 21 77 22 78 23 79 24 80 38 81 25 82 37 83 26 84
REMARK SMILES IDX 27 86 28 87 29 88 33 89 30 90 32 91 31 92 34 93 36 94 35 95
REMARK H PARENT 86 23 60 34 26 85
REMARK Flexibility Score: inf
ROOT
ATOM      1  C   UNL     1       4.554   1.213   0.628  1.00  0.00     0.275 C 
ENDROOT
BRANCH   1   2
ATOM      2  C   UNL     1       5.119   0.912  -0.762  1.00  0.00     0.275 C 
BRANCH   2   3
ATOM      3  O   UNL     1       4.262   0.172  -1.661  1.00  0.00    -0.458 OA
BRANCH   3   4
ATOM      4  C   UNL     1       4.145  -1.165  -1.846  1.00  0.00     0.338 C 
ATOM      5  O   UNL     1       3.534  -1.614  -2.814  1.00  0.00    -0.246 OA
BRANCH   4   6
ATOM      6  C   UNL     1       4.638  -2.125  -0.828  1.00  0.00     0.060 A 
ATOM      7  C   UNL     1       5.908  -2.062  -0.263  1.00  0.00     0.016 A 
ATOM      8  C   UNL     1       3.769  -3.159  -0.436  1.00  0.00     0.016 A 
ATOM      9  C   UNL     1       6.260  -2.929   0.771  1.00  0.00     0.010 A 
ATOM     10  C   UNL     1       4.131  -4.055   0.578  1.00  0.00     0.010 A 
ATOM     11  C   UNL     1       5.379  -3.933   1.196  1.00  0.00    -0.014 A 
BRANCH  11  12
ATOM     12  C   UNL     1       5.929  -4.969   2.103  1.00  0.00     0.031 A 
ATOM     13  C   UNL     1       6.636  -6.103   1.466  1.00  0.00     0.074 A 
ATOM     14  C   UNL     1       5.941  -4.833   3.439  1.00  0.00     0.049 A 
ATOM     15  N   UNL     1       7.486  -6.930   2.000  1.00  0.00    -0.248 NA
ATOM     16  C   UNL     1       6.349  -6.330   0.043  1.00  0.00     0.031 C 
ATOM     17  C   UNL     1       5.176  -3.830   4.133  1.00  0.00     0.029 A 
ATOM     18  N   UNL     1       6.616  -5.470   4.448  1.00  0.00    -0.354 N 
ATOM     19  C   UNL     1       7.856  -7.770   0.969  1.00  0.00     0.074 A 
ATOM     20  C   UNL     1       7.115  -7.376  -0.209  1.00  0.00     0.031 C 
ATOM     21  C   UNL     1       5.468  -3.833   5.441  1.00  0.00     0.029 A 
ATOM     22  C   UNL     1       6.476  -4.846   5.673  1.00  0.00     0.049 A 
ATOM     23  H   UNL     1       7.146  -6.289   4.313  1.00  0.00     0.167 HD
ATOM     24  C   UNL     1       8.745  -8.784   1.016  1.00  0.00     0.037 A 
ATOM     25  C   UNL     1       7.136  -5.030   6.832  1.00  0.00     0.037 A 
ATOM     26  C   UNL     1       9.396  -9.202   2.223  1.00  0.00     0.049 A 
ATOM     27  C   UNL     1       8.182  -6.104   6.840  1.00  0.00     0.074 A 
ATOM     28  C   UNL     1      10.213 -10.292   2.438  1.00  0.00     0.029 A 
ATOM     29  N   UNL     1       9.275  -8.538   3.441  1.00  0.00    -0.354 N 
ATOM     30  N   UNL     1       8.571  -6.866   5.845  1.00  0.00    -0.248 NA
ATOM     31  C   UNL     1       8.870  -6.361   8.109  1.00  0.00     0.031 C 
ATOM     32  C   UNL     1      10.572 -10.299   3.793  1.00  0.00     0.029 A 
ATOM     33  C   UNL     1      10.005  -9.195   4.414  1.00  0.00     0.049 A 
ATOM     34  H   UNL     1       8.746  -7.720   3.587  1.00  0.00     0.167 HD
ATOM     35  C   UNL     1       9.517  -7.723   6.373  1.00  0.00     0.074 A 
ATOM     36  C   UNL     1       9.703  -7.331   7.759  1.00  0.00     0.031 C 
ATOM     37  C   UNL     1      10.142  -8.771   5.785  1.00  0.00     0.037 A 
BRANCH  24  38
ATOM     38  C   UNL     1       8.955  -9.493  -0.280  1.00  0.00     0.057 A 
ATOM     39  C   UNL     1       9.668  -8.889  -1.326  1.00  0.00     0.134 A 
ATOM     40  C   UNL     1       8.282 -10.688  -0.552  1.00  0.00     0.134 A 
ATOM     41  F   UNL     1      10.280  -7.709  -1.139  1.00  0.00    -0.206 F 
ATOM     42  C   UNL     1       9.672  -9.432  -2.610  1.00  0.00     0.040 A 
ATOM     43  C   UNL     1       8.295 -11.250  -1.828  1.00  0.00     0.040 A 
ATOM     44  F   UNL     1       7.550 -11.288   0.398  1.00  0.00    -0.206 F 
ATOM     45  C   UNL     1       8.979 -10.615  -2.864  1.00  0.00     0.006 A 
ENDBRANCH  24  38
BRANCH  25  46
ATOM     46  C   UNL     1       6.887  -4.178   8.030  1.00  0.00     0.057 A 
ATOM     47  C   UNL     1       7.879  -3.323   8.531  1.00  0.00     0.134 A 
ATOM     48  C   UNL     1       5.672  -4.210   8.727  1.00  0.00     0.134 A 
ATOM     49  F   UNL     1       9.070  -3.241   7.919  1.00  0.00    -0.206 F 
ATOM     50  C   UNL     1       7.689  -2.565   9.691  1.00  0.00     0.040 A 
ATOM     51  C   UNL     1       5.458  -3.439   9.875  1.00  0.00     0.040 A 
ATOM     52  F   UNL     1       4.668  -4.990   8.302  1.00  0.00    -0.206 F 
ATOM     53  C   UNL     1       6.473  -2.622  10.367  1.00  0.00     0.006 A 
ENDBRANCH  25  46
BRANCH  37  54
ATOM     54  C   UNL     1      11.035  -9.574   6.672  1.00  0.00     0.057 A 
ATOM     55  C   UNL     1      10.504 -10.451   7.626  1.00  0.00     0.134 A 
ATOM     56  C   UNL     1      12.425  -9.486   6.559  1.00  0.00     0.134 A 
ATOM     57  F   UNL     1       9.176 -10.557   7.789  1.00  0.00    -0.206 F 
ATOM     58  C   UNL     1      11.331 -11.205   8.455  1.00  0.00     0.040 A 
ATOM     59  C   UNL     1      13.262 -10.250   7.369  1.00  0.00     0.040 A 
ATOM     60  F   UNL     1      12.985  -8.658   5.665  1.00  0.00    -0.206 F 
ATOM     61  C   UNL     1      12.715 -11.109   8.322  1.00  0.00     0.006 A 
ENDBRANCH  37  54
ENDBRANCH  11  12
ENDBRANCH   4   6
ENDBRANCH   3   4
ENDBRANCH   2   3
ENDBRANCH   1   2
BRANCH   1  62
ATOM     62  O   UNL     1       4.404   0.083   1.506  1.00  0.00    -0.458 OA
BRANCH  62  63
ATOM     63  C   UNL     1       3.195  -0.522   1.427  1.00  0.00     0.338 C 
ATOM     64  O   UNL     1       2.432  -0.398   0.480  1.00  0.00    -0.246 OA
BRANCH  63  65
ATOM     65  C   UNL     1       2.850  -1.368   2.608  1.00  0.00     0.067 A 
ATOM     66  C   UNL     1       1.986  -2.458   2.366  1.00  0.00     0.016 A 
ATOM     67  C   UNL     1       3.208  -1.061   3.935  1.00  0.00    -0.003 A 
ATOM     68  C   UNL     1       1.514  -3.266   3.399  1.00  0.00     0.001 A 
ATOM     69  C   UNL     1       2.682  -1.869   4.975  1.00  0.00     0.009 A 
ATOM     70  C   UNL     1       1.863  -2.971   4.709  1.00  0.00     0.001 A 
BRANCH  67  71
ATOM     71  C   UNL     1       4.116   0.029   4.309  1.00  0.00    -0.005 A 
ATOM     72  C   UNL     1       5.473  -0.311   4.544  1.00  0.00     0.009 A 
ATOM     73  C   UNL     1       3.733   1.376   4.437  1.00  0.00     0.047 A 
ATOM     74  C   UNL     1       6.423   0.625   4.937  1.00  0.00     0.001 A 
ATOM     75  C   UNL     1       4.710   2.313   4.848  1.00  0.00     0.014 A 
ATOM     76  C   UNL     1       6.035   1.942   5.104  1.00  0.00     0.001 A 
BRANCH  73  77
ATOM     77  C   UNL     1       2.390   1.944   4.050  1.00  0.00     0.254 C 
ATOM     78  O   UNL     1       2.266   3.165   3.953  1.00  0.00    -0.269 OA
ATOM     79  N   UNL     1       1.352   1.083   3.681  1.00  0.00    -0.327 N 
ATOM     80  C   UNL     1       0.705   1.376   2.410  1.00  0.00     0.181 C 
ATOM     81  C   UNL     1       0.385   0.700   4.704  1.00  0.00     0.181 C 
ATOM     82  C   UNL     1      -0.169   0.211   1.901  1.00  0.00     0.284 C 
ATOM     83  C   UNL     1      -0.651  -0.365   4.246  1.00  0.00     0.284 C 
ATOM     84  N   UNL     1      -1.126  -0.366   2.855  1.00  0.00    -0.328 N 
ATOM     85  H   UNL     1      -1.155  -1.363   2.640  1.00  0.00     0.348 HD
BRANCH  84  86
ATOM     86  C   UNL     1      -2.527   0.003   2.623  1.00  0.00     0.299 C 
BRANCH  86  87
ATOM     87  C   UNL     1      -2.738   1.499   2.681  1.00  0.00     0.010 A 
ATOM     88  C   UNL     1      -2.824   2.127   3.943  1.00  0.00     0.013 A 
ATOM     89  C   UNL     1      -2.497   2.257   1.522  1.00  0.00     0.060 A 
ATOM     90  C   UNL     1      -2.456   3.464   4.087  1.00  0.00     0.051 A 
ATOM     91  C   UNL     1      -2.059   3.544   1.710  1.00  0.00     0.166 A 
ATOM     92  C   UNL     1      -2.007   4.118   2.961  1.00  0.00     0.165 A 
ATOM     93  O   UNL     1      -1.419   4.294   0.770  1.00  0.00    -0.454 OA
ATOM     94  O   UNL     1      -1.333   5.301   2.946  1.00  0.00    -0.454 OA
ATOM     95  C   UNL     1      -0.734   5.225   1.634  1.00  0.00     0.468 C 
ENDBRANCH  86  87
ENDBRANCH  84  86
ENDBRANCH  73  77
ENDBRANCH  67  71
ENDBRANCH  63  65
ENDBRANCH  62  63
ENDBRANCH   1  62
TORSDOF 15
