REMARK SMILES COc1cccc([C@@H]2[NH2+][C@@](CCSC)(C(=O)OCCOC(=O)c3ccc(-c4c5nc(c(-c6c(F)cccc6F)c6ccc([nH]6)c(-c6c(F)cccc6F)c6nc(c(-c7c(F)cccc7F)c7ccc4[nH]7)C=C6)C=C5)cc3)[C@@H]3C(=O)N(C(C)C)C(=O)[C@@H]32)c1O
REMARK SMILES IDX 18 1 17 2 15 3 16 4 10 5 8 6 9 7 86 8 77 11 84 12 78 13
REMARK SMILES IDX 80 14 85 15 79 16 7 17 3 18 4 19 87 20 5 21 6 22 2 23 1 24
REMARK SMILES IDX 88 25 11 27 12 28 13 29 14 30 81 31 82 32 83 33 19 34 20 35
REMARK SMILES IDX 21 36 22 37 23 38 24 39 76 40 25 41 75 42 26 43 27 44 28 45
REMARK SMILES IDX 69 46 29 47 74 48 68 49 70 50 30 51 73 52 67 53 66 54 31 56
REMARK SMILES IDX 57 57 40 58 56 59 41 60 44 61 55 62 71 63 42 64 43 65 54 67
REMARK SMILES IDX 72 68 45 69 32 70 33 71 38 72 34 73 35 74 37 75 39 76 36 77
REMARK SMILES IDX 58 78 59 79 64 80 60 81 61 82 63 83 65 84 62 85 46 86 47 87
REMARK SMILES IDX 52 88 48 89 49 90 51 91 53 92 50 93
REMARK H PARENT 9 9 9 10 88 26 70 55 44 66
REMARK Flexibility Score: inf
ROOT
ATOM      1  C   UNL     1       0.251  -0.887  -0.203  1.00  0.00     0.274 C 
ENDROOT
BRANCH   1   2
ATOM      2  O   UNL     1      -0.573  -1.836  -0.921  1.00  0.00    -0.457 OA
BRANCH   2   3
ATOM      3  C   UNL     1      -0.677  -1.597  -2.250  1.00  0.00     0.369 C 
ATOM      4  O   UNL     1      -0.077  -0.690  -2.825  1.00  0.00    -0.245 OA
BRANCH   3   5
ATOM      5  C   UNL     1      -1.654  -2.550  -3.014  1.00  0.00     0.208 C 
ATOM      6  C   UNL     1      -2.971  -0.751  -3.831  1.00  0.00     0.232 C 
ATOM      7  N   UNL     1      -2.034  -1.809  -4.276  1.00  0.00    -0.324 N 
ATOM      8  C   UNL     1      -3.863  -1.469  -2.820  1.00  0.00     0.161 C 
ATOM      9  H   UNL     1      -1.209  -1.397  -4.712  1.00  0.00     0.347 HD
ATOM     10  H   UNL     1      -2.455  -2.426  -4.971  1.00  0.00     0.347 HD
ATOM     11  C   UNL     1      -3.037  -2.689  -2.355  1.00  0.00     0.171 C 
ATOM     12  C   UNL     1      -5.095  -2.065  -3.443  1.00  0.00     0.240 C 
ATOM     13  C   UNL     1      -3.839  -3.849  -2.901  1.00  0.00     0.240 C 
ATOM     14  N   UNL     1      -4.888  -3.396  -3.639  1.00  0.00    -0.279 N 
ATOM     15  O   UNL     1      -6.114  -1.442  -3.703  1.00  0.00    -0.274 OA
ATOM     16  O   UNL     1      -3.598  -5.026  -2.684  1.00  0.00    -0.274 OA
BRANCH   6  17
ATOM     17  C   UNL     1      -3.601  -0.004  -4.976  1.00  0.00     0.056 A 
ATOM     18  C   UNL     1      -4.324   2.095  -5.984  1.00  0.00     0.161 A 
ATOM     19  C   UNL     1      -4.797   1.422  -7.104  1.00  0.00     0.050 A 
ATOM     20  C   UNL     1      -3.778   1.383  -4.910  1.00  0.00     0.166 A 
ATOM     21  C   UNL     1      -4.656   0.037  -7.179  1.00  0.00     0.005 A 
ATOM     22  C   UNL     1      -4.042  -0.664  -6.136  1.00  0.00     0.014 A 
BRANCH  18  23
ATOM     23  O   UNL     1      -4.458   3.457  -5.924  1.00  0.00    -0.493 OA
ATOM     24  C   UNL     1      -3.198   4.111  -6.115  1.00  0.00     0.278 C 
ENDBRANCH  18  23
BRANCH  20  25
ATOM     25  O   UNL     1      -3.424   2.056  -3.769  1.00  0.00    -0.504 OA
ATOM     26  H   UNL     1      -3.540   2.984  -3.718  1.00  0.00     0.293 HD
ENDBRANCH  20  25
ENDBRANCH   6  17
BRANCH   5  27
ATOM     27  C   UNL     1      -0.929  -3.841  -3.468  1.00  0.00     0.093 C 
BRANCH  27  28
ATOM     28  C   UNL     1      -0.140  -4.694  -2.463  1.00  0.00     0.076 C 
BRANCH  28  29
ATOM     29  S   UNL     1      -1.030  -5.642  -1.197  1.00  0.00    -0.165 SA
ATOM     30  C   UNL     1      -0.754  -4.618   0.262  1.00  0.00     0.085 C 
ENDBRANCH  28  29
ENDBRANCH  27  28
ENDBRANCH   5  27
BRANCH  14  31
ATOM     31  C   UNL     1      -5.750  -4.248  -4.457  1.00  0.00     0.087 C 
ATOM     32  C   UNL     1      -4.953  -4.848  -5.621  1.00  0.00     0.031 C 
ATOM     33  C   UNL     1      -6.439  -5.347  -3.651  1.00  0.00     0.031 C 
ENDBRANCH  14  31
ENDBRANCH   3   5
ENDBRANCH   2   3
ENDBRANCH   1   2
BRANCH   1  34
ATOM     34  C   UNL     1       1.710  -1.340  -0.109  1.00  0.00     0.275 C 
BRANCH  34  35
ATOM     35  O   UNL     1       2.239  -1.591  -1.422  1.00  0.00    -0.458 OA
BRANCH  35  36
ATOM     36  C   UNL     1       2.908  -2.753  -1.587  1.00  0.00     0.338 C 
ATOM     37  O   UNL     1       3.179  -3.570  -0.718  1.00  0.00    -0.246 OA
BRANCH  36  38
ATOM     38  C   UNL     1       3.262  -2.947  -3.011  1.00  0.00     0.060 A 
ATOM     39  C   UNL     1       2.408  -2.533  -4.036  1.00  0.00     0.016 A 
ATOM     40  C   UNL     1       4.443  -3.615  -3.330  1.00  0.00     0.016 A 
ATOM     41  C   UNL     1       2.708  -2.801  -5.368  1.00  0.00     0.010 A 
ATOM     42  C   UNL     1       4.795  -3.798  -4.670  1.00  0.00     0.010 A 
ATOM     43  C   UNL     1       3.936  -3.381  -5.700  1.00  0.00    -0.014 A 
BRANCH  43  44
ATOM     44  C   UNL     1       4.378  -3.457  -7.113  1.00  0.00     0.031 A 
ATOM     45  C   UNL     1       4.686  -4.778  -7.750  1.00  0.00     0.074 A 
ATOM     46  C   UNL     1       4.573  -2.311  -7.796  1.00  0.00     0.049 A 
ATOM     47  N   UNL     1       5.321  -5.026  -8.866  1.00  0.00    -0.248 NA
ATOM     48  C   UNL     1       4.228  -5.978  -7.034  1.00  0.00     0.031 C 
ATOM     49  C   UNL     1       4.275  -0.965  -7.298  1.00  0.00     0.029 A 
ATOM     50  N   UNL     1       5.094  -2.091  -9.046  1.00  0.00    -0.354 N 
ATOM     51  C   UNL     1       5.376  -6.409  -8.970  1.00  0.00     0.074 A 
ATOM     52  C   UNL     1       4.706  -6.947  -7.803  1.00  0.00     0.031 C 
ATOM     53  C   UNL     1       4.615  -0.063  -8.229  1.00  0.00     0.029 A 
ATOM     54  C   UNL     1       5.237  -0.758  -9.348  1.00  0.00     0.049 A 
ATOM     55  H   UNL     1       5.341  -2.816  -9.664  1.00  0.00     0.167 HD
ATOM     56  C   UNL     1       5.943  -7.153  -9.949  1.00  0.00     0.037 A 
ATOM     57  C   UNL     1       5.858  -0.154 -10.376  1.00  0.00     0.037 A 
ATOM     58  C   UNL     1       6.588  -6.601 -11.113  1.00  0.00     0.049 A 
ATOM     59  C   UNL     1       6.544  -0.998 -11.407  1.00  0.00     0.074 A 
ATOM     60  C   UNL     1       7.170  -7.269 -12.176  1.00  0.00     0.029 A 
ATOM     61  N   UNL     1       6.736  -5.245 -11.364  1.00  0.00    -0.354 N 
ATOM     62  N   UNL     1       6.622  -2.304 -11.482  1.00  0.00    -0.248 NA
ATOM     63  C   UNL     1       7.249  -0.287 -12.480  1.00  0.00     0.031 C 
ATOM     64  C   UNL     1       7.705  -6.316 -13.051  1.00  0.00     0.029 A 
ATOM     65  C   UNL     1       7.422  -5.055 -12.552  1.00  0.00     0.049 A 
ATOM     66  H   UNL     1       6.402  -4.523 -10.783  1.00  0.00     0.167 HD
ATOM     67  C   UNL     1       7.379  -2.574 -12.611  1.00  0.00     0.074 A 
ATOM     68  C   UNL     1       7.721  -1.294 -13.201  1.00  0.00     0.031 C 
ATOM     69  C   UNL     1       7.761  -3.773 -13.113  1.00  0.00     0.037 A 
BRANCH  56  70
ATOM     70  C   UNL     1       5.923  -8.644  -9.790  1.00  0.00     0.057 A 
ATOM     71  C   UNL     1       4.760  -9.397  -9.987  1.00  0.00     0.134 A 
ATOM     72  C   UNL     1       7.099  -9.340  -9.480  1.00  0.00     0.134 A 
ATOM     73  F   UNL     1       3.598  -8.791 -10.274  1.00  0.00    -0.206 F 
ATOM     74  C   UNL     1       4.763 -10.789  -9.869  1.00  0.00     0.040 A 
ATOM     75  C   UNL     1       7.120 -10.732  -9.379  1.00  0.00     0.040 A 
ATOM     76  F   UNL     1       8.249  -8.678  -9.282  1.00  0.00    -0.206 F 
ATOM     77  C   UNL     1       5.948 -11.460  -9.570  1.00  0.00     0.006 A 
ENDBRANCH  56  70
BRANCH  57  78
ATOM     78  C   UNL     1       5.907   1.327 -10.436  1.00  0.00     0.057 A 
ATOM     79  C   UNL     1       5.164   2.034 -11.385  1.00  0.00     0.134 A 
ATOM     80  C   UNL     1       6.668   2.070  -9.523  1.00  0.00     0.134 A 
ATOM     81  F   UNL     1       4.433   1.377 -12.297  1.00  0.00    -0.206 F 
ATOM     82  C   UNL     1       5.176   3.429 -11.428  1.00  0.00     0.040 A 
ATOM     83  C   UNL     1       6.669   3.464  -9.538  1.00  0.00     0.040 A 
ATOM     84  F   UNL     1       7.396   1.448  -8.584  1.00  0.00    -0.206 F 
ATOM     85  C   UNL     1       5.923   4.148 -10.495  1.00  0.00     0.006 A 
ENDBRANCH  57  78
BRANCH  69  86
ATOM     86  C   UNL     1       8.581  -3.747 -14.366  1.00  0.00     0.057 A 
ATOM     87  C   UNL     1       9.936  -3.397 -14.348  1.00  0.00     0.134 A 
ATOM     88  C   UNL     1       8.013  -4.091 -15.598  1.00  0.00     0.134 A 
ATOM     89  F   UNL     1      10.530  -3.039 -13.200  1.00  0.00    -0.206 F 
ATOM     90  C   UNL     1      10.696  -3.373 -15.518  1.00  0.00     0.040 A 
ATOM     91  C   UNL     1       8.767  -4.092 -16.771  1.00  0.00     0.040 A 
ATOM     92  F   UNL     1       6.720  -4.438 -15.680  1.00  0.00    -0.206 F 
ATOM     93  C   UNL     1      10.112  -3.727 -16.733  1.00  0.00     0.006 A 
ENDBRANCH  69  86
ENDBRANCH  43  44
ENDBRANCH  36  38
ENDBRANCH  35  36
ENDBRANCH  34  35
ENDBRANCH   1  34
TORSDOF 18
