REMARK SMILES C[C@@H](C(=O)OCCOC(=O)c1ccc(-c2c3nc(c(-c4c(F)cccc4F)c4ccc([nH]4)c(-c4c(F)cccc4F)c4nc(c(-c5c(F)cccc5F)c5ccc2[nH]5)C=C4)C=C3)cc1)c1ccc(N[C@H]2CCC[C@@H]2O)cc1F
REMARK SMILES IDX 6 1 5 2 3 3 4 4 2 5 1 6 65 7 66 8 77 9 67 10 76 11 78 12
REMARK SMILES IDX 68 13 69 14 70 16 71 17 74 18 72 19 73 20 75 21 7 23 8 24
REMARK SMILES IDX 9 25 10 26 11 27 12 28 64 29 13 30 63 31 14 32 15 33 16 34
REMARK SMILES IDX 57 35 17 36 62 37 56 38 58 39 18 40 61 41 55 42 54 43 19 45
REMARK SMILES IDX 45 46 28 47 44 48 29 49 32 50 43 51 59 52 30 53 31 54 42 56
REMARK SMILES IDX 60 57 33 58 20 59 21 60 26 61 22 62 23 63 25 64 27 65 24 66
REMARK SMILES IDX 46 67 47 68 52 69 48 70 49 71 51 72 53 73 50 74 34 75 35 76
REMARK SMILES IDX 40 77 36 78 37 79 39 80 41 81 38 82
REMARK H PARENT 69 15 75 22 58 44 32 55
REMARK Flexibility Score: inf
ROOT
ATOM      1  C   UNL     1       2.740  -1.889   3.356  1.00  0.00     0.274 C 
ENDROOT
BRANCH   1   2
ATOM      2  O   UNL     1       2.335  -1.450   2.044  1.00  0.00    -0.462 OA
BRANCH   2   3
ATOM      3  C   UNL     1       1.205  -2.014   1.532  1.00  0.00     0.313 C 
ATOM      4  O   UNL     1       0.543  -2.857   2.126  1.00  0.00    -0.252 OA
BRANCH   3   5
ATOM      5  C   UNL     1       0.894  -1.518   0.109  1.00  0.00     0.129 C 
ATOM      6  C   UNL     1       1.677  -0.255  -0.268  1.00  0.00     0.025 C 
BRANCH   5   7
ATOM      7  C   UNL     1      -0.608  -1.379  -0.115  1.00  0.00     0.002 A 
ATOM      8  C   UNL     1      -1.289  -0.158  -0.043  1.00  0.00     0.010 A 
ATOM      9  C   UNL     1      -1.379  -2.524  -0.332  1.00  0.00     0.129 A 
ATOM     10  C   UNL     1      -2.687  -0.103  -0.176  1.00  0.00     0.026 A 
ATOM     11  C   UNL     1      -2.770  -2.465  -0.449  1.00  0.00     0.065 A 
ATOM     12  F   UNL     1      -0.782  -3.722  -0.413  1.00  0.00    -0.207 F 
ATOM     13  C   UNL     1      -3.460  -1.249  -0.374  1.00  0.00     0.037 A 
BRANCH  13  14
ATOM     14  N   UNL     1      -4.834  -1.267  -0.444  1.00  0.00    -0.380 N 
ATOM     15  H   UNL     1      -5.225  -2.167  -0.526  1.00  0.00     0.160 HD
BRANCH  14  16
ATOM     16  C   UNL     1      -5.814  -0.180  -0.417  1.00  0.00     0.107 C 
ATOM     17  C   UNL     1      -5.788   0.662   0.858  1.00  0.00     0.027 C 
ATOM     18  C   UNL     1      -5.707   0.811  -1.589  1.00  0.00     0.136 C 
ATOM     19  C   UNL     1      -5.727   2.119   0.407  1.00  0.00     0.005 C 
ATOM     20  C   UNL     1      -6.273   2.102  -1.008  1.00  0.00     0.034 C 
BRANCH  18  21
ATOM     21  O   UNL     1      -6.469   0.388  -2.713  1.00  0.00    -0.391 OA
ATOM     22  H   UNL     1      -7.397   0.280  -2.451  1.00  0.00     0.211 HD
ENDBRANCH  18  21
ENDBRANCH  14  16
ENDBRANCH  13  14
ENDBRANCH   5   7
ENDBRANCH   3   5
ENDBRANCH   2   3
ENDBRANCH   1   2
BRANCH   1  23
ATOM     23  C   UNL     1       2.317  -0.889   4.434  1.00  0.00     0.275 C 
BRANCH  23  24
ATOM     24  O   UNL     1       0.898  -0.953   4.667  1.00  0.00    -0.458 OA
BRANCH  24  25
ATOM     25  C   UNL     1       0.174   0.077   4.188  1.00  0.00     0.338 C 
ATOM     26  O   UNL     1       0.587   1.076   3.604  1.00  0.00    -0.246 OA
BRANCH  25  27
ATOM     27  C   UNL     1      -1.255  -0.188   4.382  1.00  0.00     0.060 A 
ATOM     28  C   UNL     1      -1.927  -0.870   3.375  1.00  0.00     0.016 A 
ATOM     29  C   UNL     1      -1.964   0.345   5.460  1.00  0.00     0.016 A 
ATOM     30  C   UNL     1      -3.313  -0.951   3.396  1.00  0.00     0.010 A 
ATOM     31  C   UNL     1      -3.362   0.202   5.511  1.00  0.00     0.010 A 
ATOM     32  C   UNL     1      -4.059  -0.410   4.455  1.00  0.00    -0.014 A 
BRANCH  32  33
ATOM     33  C   UNL     1      -5.551  -0.444   4.371  1.00  0.00     0.031 A 
ATOM     34  C   UNL     1      -6.347   0.834   4.244  1.00  0.00     0.074 A 
ATOM     35  C   UNL     1      -6.189  -1.625   4.226  1.00  0.00     0.049 A 
ATOM     36  N   UNL     1      -7.634   0.988   4.042  1.00  0.00    -0.248 NA
ATOM     37  C   UNL     1      -5.603   2.103   4.305  1.00  0.00     0.031 C 
ATOM     38  C   UNL     1      -5.544  -2.939   4.245  1.00  0.00     0.029 A 
ATOM     39  N   UNL     1      -7.511  -1.910   3.981  1.00  0.00    -0.354 N 
ATOM     40  C   UNL     1      -7.844   2.355   3.917  1.00  0.00     0.074 A 
ATOM     41  C   UNL     1      -6.566   2.998   4.130  1.00  0.00     0.031 C 
ATOM     42  C   UNL     1      -6.455  -3.881   3.955  1.00  0.00     0.029 A 
ATOM     43  C   UNL     1      -7.762  -3.250   3.803  1.00  0.00     0.049 A 
ATOM     44  H   UNL     1      -8.212  -1.220   3.938  1.00  0.00     0.167 HD
ATOM     45  C   UNL     1      -8.982   3.019   3.604  1.00  0.00     0.037 A 
ATOM     46  C   UNL     1      -8.913  -3.908   3.564  1.00  0.00     0.037 A 
ATOM     47  C   UNL     1     -10.261   2.406   3.368  1.00  0.00     0.049 A 
ATOM     48  C   UNL     1     -10.199  -3.141   3.462  1.00  0.00     0.074 A 
ATOM     49  C   UNL     1     -11.462   3.015   3.045  1.00  0.00     0.029 A 
ATOM     50  N   UNL     1     -10.508   1.046   3.432  1.00  0.00    -0.354 N 
ATOM     51  N   UNL     1     -10.384  -1.847   3.391  1.00  0.00    -0.248 NA
ATOM     52  C   UNL     1     -11.441  -3.930   3.443  1.00  0.00     0.031 C 
ATOM     53  C   UNL     1     -12.446   2.025   2.952  1.00  0.00     0.029 A 
ATOM     54  C   UNL     1     -11.851   0.799   3.195  1.00  0.00     0.049 A 
ATOM     55  H   UNL     1      -9.830   0.356   3.619  1.00  0.00     0.167 HD
ATOM     56  C   UNL     1     -11.759  -1.666   3.313  1.00  0.00     0.074 A 
ATOM     57  C   UNL     1     -12.361  -2.982   3.328  1.00  0.00     0.031 C 
ATOM     58  C   UNL     1     -12.454  -0.506   3.237  1.00  0.00     0.037 A 
BRANCH  45  59
ATOM     59  C   UNL     1      -8.898   4.509   3.480  1.00  0.00     0.057 A 
ATOM     60  C   UNL     1      -8.480   5.115   2.290  1.00  0.00     0.134 A 
ATOM     61  C   UNL     1      -9.298   5.341   4.531  1.00  0.00     0.134 A 
ATOM     62  F   UNL     1      -8.098   4.369   1.243  1.00  0.00    -0.206 F 
ATOM     63  C   UNL     1      -8.447   6.503   2.153  1.00  0.00     0.040 A 
ATOM     64  C   UNL     1      -9.283   6.731   4.402  1.00  0.00     0.040 A 
ATOM     65  F   UNL     1      -9.720   4.817   5.691  1.00  0.00    -0.206 F 
ATOM     66  C   UNL     1      -8.854   7.315   3.210  1.00  0.00     0.006 A 
ENDBRANCH  45  59
BRANCH  46  67
ATOM     67  C   UNL     1      -8.918  -5.389   3.460  1.00  0.00     0.057 A 
ATOM     68  C   UNL     1      -9.223  -6.032   2.256  1.00  0.00     0.134 A 
ATOM     69  C   UNL     1      -8.643  -6.196   4.572  1.00  0.00     0.134 A 
ATOM     70  F   UNL     1      -9.527  -5.315   1.164  1.00  0.00    -0.206 F 
ATOM     71  C   UNL     1      -9.256  -7.425   2.161  1.00  0.00     0.040 A 
ATOM     72  C   UNL     1      -8.648  -7.588   4.485  1.00  0.00     0.040 A 
ATOM     73  F   UNL     1      -8.359  -5.639   5.758  1.00  0.00    -0.206 F 
ATOM     74  C   UNL     1      -8.960  -8.206   3.277  1.00  0.00     0.006 A 
ENDBRANCH  46  67
BRANCH  58  75
ATOM     75  C   UNL     1     -13.948  -0.604   3.181  1.00  0.00     0.057 A 
ATOM     76  C   UNL     1     -14.699  -0.897   4.326  1.00  0.00     0.134 A 
ATOM     77  C   UNL     1     -14.644  -0.377   1.988  1.00  0.00     0.134 A 
ATOM     78  F   UNL     1     -14.088  -1.140   5.495  1.00  0.00    -0.206 F 
ATOM     79  C   UNL     1     -16.092  -0.975   4.282  1.00  0.00     0.040 A 
ATOM     80  C   UNL     1     -16.038  -0.433   1.936  1.00  0.00     0.040 A 
ATOM     81  F   UNL     1     -13.982  -0.088   0.857  1.00  0.00    -0.206 F 
ATOM     82  C   UNL     1     -16.765  -0.737   3.086  1.00  0.00     0.006 A 
ENDBRANCH  58  75
ENDBRANCH  32  33
ENDBRANCH  25  27
ENDBRANCH  24  25
ENDBRANCH  23  24
ENDBRANCH   1  23
TORSDOF 15
