REMARK SMILES O=C(C[C@H]1CC[C@@H](C(=O)OCCOC(=O)c2ccc(-c3c4nc(c(-c5c(F)cccc5F)c5ccc([nH]5)c(-c5c(F)cccc5F)c5nc(c(-c6c(F)cccc6F)c6ccc3[nH]6)C=C5)C=C4)cc2)C1)c1ccc(Cl)cc1
REMARK SMILES IDX 11 1 10 2 8 3 9 4 7 5 4 6 5 7 70 8 6 9 3 10 2 11 1 12 71 13
REMARK SMILES IDX 72 14 77 15 73 16 76 17 74 18 75 19 12 20 13 21 14 22 15 23
REMARK SMILES IDX 16 24 17 25 69 26 18 27 68 28 19 29 20 30 21 31 62 32 22 33
REMARK SMILES IDX 67 34 61 35 63 36 23 37 66 38 60 39 59 40 24 42 50 43 33 44
REMARK SMILES IDX 49 45 34 46 37 47 48 48 64 49 35 50 36 51 47 53 65 54 38 55
REMARK SMILES IDX 25 56 26 57 31 58 27 59 28 60 30 61 32 62 29 63 51 64 52 65
REMARK SMILES IDX 57 66 53 67 54 68 56 69 58 70 55 71 39 72 40 73 45 74 41 75
REMARK SMILES IDX 42 76 44 77 46 78 43 79
REMARK H PARENT 63 41 37 52
REMARK Flexibility Score: inf
ROOT
ATOM      1  C   UNL     1       6.479  -5.367  -4.093  1.00  0.00     0.274 C 
ENDROOT
BRANCH   1   2
ATOM      2  O   UNL     1       5.152  -4.802  -4.164  1.00  0.00    -0.462 OA
BRANCH   2   3
ATOM      3  C   UNL     1       4.919  -3.827  -3.247  1.00  0.00     0.309 C 
ATOM      4  O   UNL     1       5.772  -3.374  -2.513  1.00  0.00    -0.252 OA
BRANCH   3   5
ATOM      5  C   UNL     1       3.470  -3.389  -3.186  1.00  0.00     0.099 C 
ATOM      6  C   UNL     1       3.288  -2.320  -0.972  1.00  0.00    -0.003 C 
ATOM      7  C   UNL     1       3.417  -1.222  -2.047  1.00  0.00     0.005 C 
ATOM      8  C   UNL     1       2.906  -3.569  -1.778  1.00  0.00     0.019 C 
ATOM      9  C   UNL     1       3.289  -1.896  -3.422  1.00  0.00     0.015 C 
BRANCH   6  10
ATOM     10  C   UNL     1       4.389  -2.292   0.131  1.00  0.00     0.084 C 
BRANCH  10  11
ATOM     11  C   UNL     1       5.750  -3.010   0.156  1.00  0.00     0.163 C 
ATOM     12  O   UNL     1       6.785  -2.361   0.336  1.00  0.00    -0.294 OA
BRANCH  11  13
ATOM     13  C   UNL     1       5.871  -4.502   0.095  1.00  0.00     0.018 A 
ATOM     14  C   UNL     1       4.774  -5.346   0.252  1.00  0.00     0.013 A 
ATOM     15  C   UNL     1       7.121  -5.066  -0.218  1.00  0.00     0.013 A 
ATOM     16  C   UNL     1       4.870  -6.697  -0.101  1.00  0.00     0.021 A 
ATOM     17  C   UNL     1       7.234  -6.431  -0.508  1.00  0.00     0.021 A 
ATOM     18  C   UNL     1       6.093  -7.228  -0.502  1.00  0.00     0.041 A 
ATOM     19  Cl  UNL     1       6.185  -8.863  -1.027  1.00  0.00    -0.084 Cl
ENDBRANCH  11  13
ENDBRANCH  10  11
ENDBRANCH   6  10
ENDBRANCH   3   5
ENDBRANCH   2   3
ENDBRANCH   1   2
BRANCH   1  20
ATOM     20  C   UNL     1       7.498  -4.669  -4.997  1.00  0.00     0.275 C 
BRANCH  20  21
ATOM     21  O   UNL     1       7.766  -3.318  -4.573  1.00  0.00    -0.458 OA
BRANCH  21  22
ATOM     22  C   UNL     1       7.207  -2.357  -5.340  1.00  0.00     0.338 C 
ATOM     23  O   UNL     1       6.535  -2.518  -6.348  1.00  0.00    -0.246 OA
BRANCH  22  24
ATOM     24  C   UNL     1       7.422  -1.015  -4.775  1.00  0.00     0.060 A 
ATOM     25  C   UNL     1       6.605  -0.615  -3.727  1.00  0.00     0.016 A 
ATOM     26  C   UNL     1       8.190  -0.068  -5.447  1.00  0.00     0.016 A 
ATOM     27  C   UNL     1       6.421   0.729  -3.441  1.00  0.00     0.010 A 
ATOM     28  C   UNL     1       8.090   1.285  -5.085  1.00  0.00     0.010 A 
ATOM     29  C   UNL     1       7.153   1.701  -4.120  1.00  0.00    -0.014 A 
BRANCH  29  30
ATOM     30  C   UNL     1       6.824   3.134  -3.897  1.00  0.00     0.031 A 
ATOM     31  C   UNL     1       6.335   3.963  -5.055  1.00  0.00     0.074 A 
ATOM     32  C   UNL     1       6.861   3.671  -2.661  1.00  0.00     0.049 A 
ATOM     33  N   UNL     1       6.193   5.260  -5.144  1.00  0.00    -0.248 NA
ATOM     34  C   UNL     1       5.955   3.235  -6.278  1.00  0.00     0.031 C 
ATOM     35  C   UNL     1       7.187   2.950  -1.428  1.00  0.00     0.029 A 
ATOM     36  N   UNL     1       6.606   4.951  -2.234  1.00  0.00    -0.354 N 
ATOM     37  C   UNL     1       5.792   5.507  -6.451  1.00  0.00     0.074 A 
ATOM     38  C   UNL     1       5.681   4.227  -7.114  1.00  0.00     0.031 C 
ATOM     39  C   UNL     1       7.088   3.788  -0.386  1.00  0.00     0.029 A 
ATOM     40  C   UNL     1       6.808   5.128  -0.885  1.00  0.00     0.049 A 
ATOM     41  H   UNL     1       6.308   5.672  -2.835  1.00  0.00     0.167 HD
ATOM     42  C   UNL     1       5.557   6.701  -7.042  1.00  0.00     0.037 A 
ATOM     43  C   UNL     1       6.839   6.253  -0.146  1.00  0.00     0.037 A 
ATOM     44  C   UNL     1       5.597   7.960  -6.345  1.00  0.00     0.049 A 
ATOM     45  C   UNL     1       6.633   7.573  -0.837  1.00  0.00     0.074 A 
ATOM     46  C   UNL     1       5.379   9.231  -6.845  1.00  0.00     0.029 A 
ATOM     47  N   UNL     1       5.854   8.099  -4.990  1.00  0.00    -0.354 N 
ATOM     48  N   UNL     1       6.352   7.813  -2.095  1.00  0.00    -0.248 NA
ATOM     49  C   UNL     1       6.777   8.780  -0.012  1.00  0.00     0.031 C 
ATOM     50  C   UNL     1       5.544  10.144  -5.799  1.00  0.00     0.029 A 
ATOM     51  C   UNL     1       5.818   9.437  -4.639  1.00  0.00     0.049 A 
ATOM     52  H   UNL     1       6.035   7.356  -4.369  1.00  0.00     0.167 HD
ATOM     53  C   UNL     1       6.274   9.193  -2.211  1.00  0.00     0.074 A 
ATOM     54  C   UNL     1       6.512   9.737  -0.889  1.00  0.00     0.031 C 
ATOM     55  C   UNL     1       6.039   9.948  -3.312  1.00  0.00     0.037 A 
BRANCH  42  56
ATOM     56  C   UNL     1       5.305   6.718  -8.520  1.00  0.00     0.057 A 
ATOM     57  C   UNL     1       4.090   6.318  -9.085  1.00  0.00     0.134 A 
ATOM     58  C   UNL     1       6.295   7.199  -9.388  1.00  0.00     0.134 A 
ATOM     59  F   UNL     1       3.107   5.831  -8.313  1.00  0.00    -0.206 F 
ATOM     60  C   UNL     1       3.871   6.388 -10.464  1.00  0.00     0.040 A 
ATOM     61  C   UNL     1       6.081   7.295 -10.763  1.00  0.00     0.040 A 
ATOM     62  F   UNL     1       7.483   7.599  -8.909  1.00  0.00    -0.206 F 
ATOM     63  C   UNL     1       4.865   6.887 -11.305  1.00  0.00     0.006 A 
ENDBRANCH  42  56
BRANCH  43  64
ATOM     64  C   UNL     1       7.183   6.196   1.300  1.00  0.00     0.057 A 
ATOM     65  C   UNL     1       6.272   6.590   2.286  1.00  0.00     0.134 A 
ATOM     66  C   UNL     1       8.452   5.781   1.728  1.00  0.00     0.134 A 
ATOM     67  F   UNL     1       5.051   7.026   1.943  1.00  0.00    -0.206 F 
ATOM     68  C   UNL     1       6.616   6.593   3.640  1.00  0.00     0.040 A 
ATOM     69  C   UNL     1       8.797   5.745   3.079  1.00  0.00     0.040 A 
ATOM     70  F   UNL     1       9.377   5.396   0.836  1.00  0.00    -0.206 F 
ATOM     71  C   UNL     1       7.880   6.163   4.040  1.00  0.00     0.006 A 
ENDBRANCH  43  64
BRANCH  55  72
ATOM     72  C   UNL     1       5.983  11.432  -3.119  1.00  0.00     0.057 A 
ATOM     73  C   UNL     1       7.138  12.192  -2.898  1.00  0.00     0.134 A 
ATOM     74  C   UNL     1       4.761  12.111  -3.190  1.00  0.00     0.134 A 
ATOM     75  F   UNL     1       8.337  11.596  -2.805  1.00  0.00    -0.206 F 
ATOM     76  C   UNL     1       7.076  13.575  -2.733  1.00  0.00     0.040 A 
ATOM     77  C   UNL     1       4.689  13.497  -3.053  1.00  0.00     0.040 A 
ATOM     78  F   UNL     1       3.619  11.440  -3.408  1.00  0.00    -0.206 F 
ATOM     79  C   UNL     1       5.849  14.232  -2.817  1.00  0.00     0.006 A 
ENDBRANCH  55  72
ENDBRANCH  29  30
ENDBRANCH  22  24
ENDBRANCH  21  22
ENDBRANCH  20  21
ENDBRANCH   1  20
TORSDOF 14
