REMARK SMILES C=CCC(=O)N[C@@](C)(CC)C(=O)OCCOC(=O)c1ccc(-c2c3nc(c(-c4c(F)cccc4F)c4ccc([nH]4)c(-c4c(F)cccc4F)c4nc(c(-c5c(F)cccc5F)c5ccc2[nH]5)C=C4)C=C3)cc1
REMARK SMILES IDX 14 1 13 2 11 3 12 4 7 5 8 6 6 7 4 8 5 9 3 11 2 12 1 13 9 14
REMARK SMILES IDX 10 15 15 16 16 17 17 18 18 19 19 20 20 21 72 22 21 23 71 24
REMARK SMILES IDX 22 25 23 26 24 27 65 28 25 29 70 30 64 31 66 32 26 33 69 34
REMARK SMILES IDX 63 35 62 36 27 38 53 39 36 40 52 41 37 42 40 43 51 44 67 45
REMARK SMILES IDX 38 46 39 47 50 49 68 50 41 51 28 52 29 53 34 54 30 55 31 56
REMARK SMILES IDX 33 57 35 58 32 59 54 60 55 61 60 62 56 63 57 64 59 65 61 66
REMARK SMILES IDX 58 67 42 68 43 69 48 70 44 71 45 72 47 73 49 74 46 75
REMARK H PARENT 6 10 66 37 40 48
REMARK Flexibility Score: inf
ROOT
ATOM      1  C   UNL     1       0.348  -1.443  -1.949  1.00  0.00     0.274 C 
ENDROOT
BRANCH   1   2
ATOM      2  O   UNL     1       0.050  -2.329  -0.841  1.00  0.00    -0.460 OA
BRANCH   2   3
ATOM      3  C   UNL     1      -0.251  -1.645   0.289  1.00  0.00     0.331 C 
ATOM      4  O   UNL     1      -0.430  -0.435   0.257  1.00  0.00    -0.249 OA
BRANCH   3   5
ATOM      5  C   UNL     1      -0.272  -2.436   1.604  1.00  0.00     0.135 C 
ATOM      6  C   UNL     1       1.161  -2.775   2.043  1.00  0.00     0.047 C 
BRANCH   5   7
ATOM      7  N   UNL     1      -0.915  -1.651   2.711  1.00  0.00    -0.340 N 
ATOM      8  C   UNL     1      -0.650  -0.432   3.276  1.00  0.00     0.224 C 
ATOM      9  O   UNL     1      -0.939  -0.341   4.478  1.00  0.00    -0.275 OA
ATOM     10  H   UNL     1      -1.687  -2.109   3.115  1.00  0.00     0.164 HD
BRANCH   8  11
ATOM     11  C   UNL     1      -0.165   0.836   2.540  1.00  0.00     0.126 C 
BRANCH  11  12
ATOM     12  C   UNL     1       1.295   0.932   2.186  1.00  0.00    -0.025 C 
ATOM     13  C   UNL     1       1.763   1.301   0.982  1.00  0.00     0.004 C 
ENDBRANCH  11  12
ENDBRANCH   8  11
ENDBRANCH   5   7
BRANCH   5  14
ATOM     14  C   UNL     1      -1.015  -3.802   1.430  1.00  0.00     0.037 C 
ATOM     15  C   UNL     1      -2.454  -3.769   0.935  1.00  0.00     0.007 C 
ENDBRANCH   5  14
ENDBRANCH   3   5
ENDBRANCH   2   3
ENDBRANCH   1   2
BRANCH   1  16
ATOM     16  C   UNL     1      -0.868  -0.789  -2.659  1.00  0.00     0.275 C 
BRANCH  16  17
ATOM     17  O   UNL     1      -1.656   0.116  -1.842  1.00  0.00    -0.458 OA
BRANCH  17  18
ATOM     18  C   UNL     1      -2.831  -0.380  -1.370  1.00  0.00     0.338 C 
ATOM     19  O   UNL     1      -3.343  -1.436  -1.709  1.00  0.00    -0.246 OA
BRANCH  18  20
ATOM     20  C   UNL     1      -3.359   0.392  -0.208  1.00  0.00     0.060 A 
ATOM     21  C   UNL     1      -3.446  -0.291   1.010  1.00  0.00     0.016 A 
ATOM     22  C   UNL     1      -3.864   1.688  -0.279  1.00  0.00     0.016 A 
ATOM     23  C   UNL     1      -3.997   0.287   2.154  1.00  0.00     0.010 A 
ATOM     24  C   UNL     1      -4.459   2.269   0.867  1.00  0.00     0.010 A 
ATOM     25  C   UNL     1      -4.537   1.570   2.090  1.00  0.00    -0.014 A 
BRANCH  25  26
ATOM     26  C   UNL     1      -5.279   2.092   3.273  1.00  0.00     0.031 A 
ATOM     27  C   UNL     1      -6.758   1.840   3.387  1.00  0.00     0.074 A 
ATOM     28  C   UNL     1      -4.646   2.703   4.293  1.00  0.00     0.049 A 
ATOM     29  N   UNL     1      -7.598   2.214   4.321  1.00  0.00    -0.248 NA
ATOM     30  C   UNL     1      -7.369   1.048   2.310  1.00  0.00     0.031 C 
ATOM     31  C   UNL     1      -3.205   2.916   4.385  1.00  0.00     0.029 A 
ATOM     32  N   UNL     1      -5.140   3.252   5.455  1.00  0.00    -0.354 N 
ATOM     33  C   UNL     1      -8.835   1.708   3.944  1.00  0.00     0.074 A 
ATOM     34  C   UNL     1      -8.638   1.013   2.689  1.00  0.00     0.031 C 
ATOM     35  C   UNL     1      -2.931   3.569   5.528  1.00  0.00     0.029 A 
ATOM     36  C   UNL     1      -4.180   3.853   6.234  1.00  0.00     0.049 A 
ATOM     37  H   UNL     1      -6.092   3.217   5.704  1.00  0.00     0.167 HD
ATOM     38  C   UNL     1     -10.028   1.815   4.579  1.00  0.00     0.037 A 
ATOM     39  C   UNL     1      -4.295   4.574   7.368  1.00  0.00     0.037 A 
ATOM     40  C   UNL     1     -10.241   2.520   5.818  1.00  0.00     0.049 A 
ATOM     41  C   UNL     1      -5.655   4.786   7.989  1.00  0.00     0.074 A 
ATOM     42  C   UNL     1     -11.424   2.690   6.519  1.00  0.00     0.029 A 
ATOM     43  N   UNL     1      -9.258   3.184   6.535  1.00  0.00    -0.354 N 
ATOM     44  N   UNL     1      -6.820   4.311   7.622  1.00  0.00    -0.248 NA
ATOM     45  C   UNL     1      -5.713   5.637   9.188  1.00  0.00     0.031 C 
ATOM     46  C   UNL     1     -11.170   3.512   7.622  1.00  0.00     0.029 A 
ATOM     47  C   UNL     1      -9.815   3.795   7.649  1.00  0.00     0.049 A 
ATOM     48  H   UNL     1      -8.305   3.217   6.289  1.00  0.00     0.167 HD
ATOM     49  C   UNL     1      -7.737   4.773   8.560  1.00  0.00     0.074 A 
ATOM     50  C   UNL     1      -6.992   5.553   9.524  1.00  0.00     0.031 C 
ATOM     51  C   UNL     1      -9.076   4.567   8.616  1.00  0.00     0.037 A 
BRANCH  38  52
ATOM     52  C   UNL     1     -11.219   1.198   3.907  1.00  0.00     0.057 A 
ATOM     53  C   UNL     1     -11.403  -0.188   3.839  1.00  0.00     0.134 A 
ATOM     54  C   UNL     1     -12.212   2.011   3.342  1.00  0.00     0.134 A 
ATOM     55  F   UNL     1     -10.484  -1.023   4.348  1.00  0.00    -0.206 F 
ATOM     56  C   UNL     1     -12.519  -0.745   3.211  1.00  0.00     0.040 A 
ATOM     57  C   UNL     1     -13.345   1.467   2.738  1.00  0.00     0.040 A 
ATOM     58  F   UNL     1     -12.101   3.347   3.379  1.00  0.00    -0.206 F 
ATOM     59  C   UNL     1     -13.497   0.084   2.664  1.00  0.00     0.006 A 
ENDBRANCH  38  52
BRANCH  39  60
ATOM     60  C   UNL     1      -3.097   5.207   7.985  1.00  0.00     0.057 A 
ATOM     61  C   UNL     1      -2.647   4.837   9.259  1.00  0.00     0.134 A 
ATOM     62  C   UNL     1      -2.423   6.256   7.347  1.00  0.00     0.134 A 
ATOM     63  F   UNL     1      -3.272   3.866   9.941  1.00  0.00    -0.206 F 
ATOM     64  C   UNL     1      -1.592   5.505   9.886  1.00  0.00     0.040 A 
ATOM     65  C   UNL     1      -1.347   6.911   7.949  1.00  0.00     0.040 A 
ATOM     66  F   UNL     1      -2.809   6.671   6.132  1.00  0.00    -0.206 F 
ATOM     67  C   UNL     1      -0.936   6.543   9.228  1.00  0.00     0.006 A 
ENDBRANCH  39  60
BRANCH  51  68
ATOM     68  C   UNL     1      -9.824   5.154   9.783  1.00  0.00     0.057 A 
ATOM     69  C   UNL     1     -10.003   6.536   9.940  1.00  0.00     0.134 A 
ATOM     70  C   UNL     1     -10.398   4.321  10.754  1.00  0.00     0.134 A 
ATOM     71  F   UNL     1      -9.474   7.395   9.055  1.00  0.00    -0.206 F 
ATOM     72  C   UNL     1     -10.692   7.066  11.034  1.00  0.00     0.040 A 
ATOM     73  C   UNL     1     -11.117   4.838  11.834  1.00  0.00     0.040 A 
ATOM     74  F   UNL     1     -10.279   2.988  10.665  1.00  0.00    -0.206 F 
ATOM     75  C   UNL     1     -11.257   6.216  11.981  1.00  0.00     0.006 A 
ENDBRANCH  51  68
ENDBRANCH  25  26
ENDBRANCH  18  20
ENDBRANCH  17  18
ENDBRANCH  16  17
ENDBRANCH   1  16
TORSDOF 15
