REMARK SMILES Cn1cc(S(=O)(=O)N2CCC(C(=O)OCCOC(=O)c3ccc(-c4c5nc(c(-c6c(F)cccc6F)c6ccc([nH]6)c(-c6c(F)cccc6F)c6nc(c(-c7c(F)cccc7F)c7ccc4[nH]7)C=C6)C=C5)cc3)CC2)cc1C(=O)N1CCCCC1
REMARK SMILES IDX 15 1 14 2 12 3 13 4 11 5 8 6 9 7 75 8 10 9 74 10 5 11 6 12
REMARK SMILES IDX 7 13 4 14 1 15 2 16 3 17 77 18 76 19 78 20 79 21 80 22 81 23
REMARK SMILES IDX 85 24 82 25 84 26 83 27 16 28 17 29 18 30 19 31 20 32 21 33
REMARK SMILES IDX 73 34 22 35 72 36 23 37 24 38 25 39 66 40 26 41 71 42 65 43
REMARK SMILES IDX 67 44 27 45 70 46 64 47 63 48 28 50 54 51 37 52 53 53 38 54
REMARK SMILES IDX 41 55 52 56 68 57 39 58 40 59 51 61 69 62 42 63 29 64 30 65
REMARK SMILES IDX 35 66 31 67 32 68 34 69 36 70 33 71 55 72 56 73 61 74 57 75
REMARK SMILES IDX 58 76 60 77 62 78 59 79 43 80 44 81 49 82 45 83 46 84 48 85
REMARK SMILES IDX 50 86 47 87
REMARK H PARENT 67 49 41 60
REMARK Flexibility Score: inf
ROOT
ATOM      1  C   UNL     1      -9.404  -2.584  -0.480  1.00  0.00     0.274 C 
ENDROOT
BRANCH   1   2
ATOM      2  O   UNL     1      -8.196  -1.798  -0.475  1.00  0.00    -0.462 OA
BRANCH   2   3
ATOM      3  C   UNL     1      -7.233  -2.195   0.392  1.00  0.00     0.309 C 
ATOM      4  O   UNL     1      -7.348  -3.110   1.200  1.00  0.00    -0.252 OA
BRANCH   3   5
ATOM      5  C   UNL     1      -5.952  -1.398   0.276  1.00  0.00     0.102 C 
ATOM      6  N   UNL     1      -4.086   0.789   0.196  1.00  0.00    -0.198 NA
ATOM      7  C   UNL     1      -4.379   0.028  -1.045  1.00  0.00     0.103 C 
ATOM      8  C   UNL     1      -4.355   0.089   1.473  1.00  0.00     0.103 C 
ATOM      9  C   UNL     1      -5.782  -0.574  -0.998  1.00  0.00     0.032 C 
ATOM     10  C   UNL     1      -5.766  -0.487   1.484  1.00  0.00     0.032 C 
BRANCH   6  11
ATOM     11  S   UNL     1      -2.671   1.740   0.168  1.00  0.00     0.244 S 
ATOM     12  O   UNL     1      -2.568   2.449   1.426  1.00  0.00    -0.207 OA
ATOM     13  O   UNL     1      -2.616   2.434  -1.100  1.00  0.00    -0.207 OA
BRANCH  11  14
ATOM     14  C   UNL     1      -1.237   0.760   0.145  1.00  0.00     0.101 A 
ATOM     15  C   UNL     1       2.293   0.424  -0.498  1.00  0.00     0.150 C 
ATOM     16  N   UNL     1       0.912   0.212  -0.123  1.00  0.00    -0.345 N 
ATOM     17  C   UNL     1       0.044   1.262   0.063  1.00  0.00     0.107 A 
ATOM     18  C   UNL     1       0.222  -0.988  -0.075  1.00  0.00     0.108 A 
ATOM     19  C   UNL     1      -1.119  -0.648   0.117  1.00  0.00     0.055 A 
BRANCH  18  20
ATOM     20  C   UNL     1       0.700  -2.329  -0.401  1.00  0.00     0.270 C 
ATOM     21  O   UNL     1      -0.023  -3.097  -1.036  1.00  0.00    -0.267 OA
ATOM     22  N   UNL     1       1.993  -2.708  -0.047  1.00  0.00    -0.337 N 
ATOM     23  C   UNL     1       2.697  -3.656  -0.907  1.00  0.00     0.120 C 
ATOM     24  C   UNL     1       2.691  -2.283   1.165  1.00  0.00     0.120 C 
ATOM     25  C   UNL     1       3.229  -4.858  -0.138  1.00  0.00     0.022 C 
ATOM     26  C   UNL     1       3.221  -3.482   1.956  1.00  0.00     0.022 C 
ATOM     27  C   UNL     1       4.049  -4.411   1.068  1.00  0.00     0.004 C 
ENDBRANCH  18  20
ENDBRANCH  11  14
ENDBRANCH   6  11
ENDBRANCH   3   5
ENDBRANCH   2   3
ENDBRANCH   1   2
BRANCH   1  28
ATOM     28  C   UNL     1      -9.456  -3.516  -1.694  1.00  0.00     0.275 C 
BRANCH  28  29
ATOM     29  O   UNL     1      -8.423  -4.520  -1.644  1.00  0.00    -0.458 OA
BRANCH  29  30
ATOM     30  C   UNL     1      -7.290  -4.211  -2.317  1.00  0.00     0.338 C 
ATOM     31  O   UNL     1      -7.064  -3.203  -2.965  1.00  0.00    -0.246 OA
BRANCH  30  32
ATOM     32  C   UNL     1      -6.266  -5.237  -2.072  1.00  0.00     0.060 A 
ATOM     33  C   UNL     1      -5.088  -4.847  -1.428  1.00  0.00     0.016 A 
ATOM     34  C   UNL     1      -6.412  -6.538  -2.556  1.00  0.00     0.016 A 
ATOM     35  C   UNL     1      -4.049  -5.757  -1.257  1.00  0.00     0.010 A 
ATOM     36  C   UNL     1      -5.365  -7.450  -2.391  1.00  0.00     0.010 A 
ATOM     37  C   UNL     1      -4.175  -7.062  -1.749  1.00  0.00    -0.014 A 
BRANCH  37  38
ATOM     38  C   UNL     1      -3.036  -8.002  -1.636  1.00  0.00     0.031 A 
ATOM     39  C   UNL     1      -2.170  -8.274  -2.830  1.00  0.00     0.074 A 
ATOM     40  C   UNL     1      -2.772  -8.596  -0.458  1.00  0.00     0.049 A 
ATOM     41  N   UNL     1      -1.185  -9.125  -2.961  1.00  0.00    -0.248 NA
ATOM     42  C   UNL     1      -2.452  -7.486  -4.040  1.00  0.00     0.031 C 
ATOM     43  C   UNL     1      -3.513  -8.377   0.783  1.00  0.00     0.029 A 
ATOM     44  N   UNL     1      -1.806  -9.509  -0.118  1.00  0.00    -0.354 N 
ATOM     45  C   UNL     1      -0.740  -8.989  -4.269  1.00  0.00     0.074 A 
ATOM     46  C   UNL     1      -1.570  -7.981  -4.896  1.00  0.00     0.031 C 
ATOM     47  C   UNL     1      -2.978  -9.140   1.751  1.00  0.00     0.029 A 
ATOM     48  C   UNL     1      -1.883  -9.927   1.187  1.00  0.00     0.049 A 
ATOM     49  H   UNL     1      -1.124  -9.834  -0.749  1.00  0.00     0.167 HD
ATOM     50  C   UNL     1       0.270  -9.644  -4.889  1.00  0.00     0.037 A 
ATOM     51  C   UNL     1      -1.168 -10.858   1.845  1.00  0.00     0.037 A 
ATOM     52  C   UNL     1       1.107 -10.630  -4.259  1.00  0.00     0.049 A 
ATOM     53  C   UNL     1      -0.082 -11.603   1.122  1.00  0.00     0.074 A 
ATOM     54  C   UNL     1       2.163 -11.342  -4.804  1.00  0.00     0.029 A 
ATOM     55  N   UNL     1       0.986 -11.040  -2.941  1.00  0.00    -0.354 N 
ATOM     56  N   UNL     1       0.324 -11.475  -0.118  1.00  0.00    -0.248 NA
ATOM     57  C   UNL     1       0.642 -12.629   1.887  1.00  0.00     0.031 C 
ATOM     58  C   UNL     1       2.662 -12.204  -3.821  1.00  0.00     0.029 A 
ATOM     59  C   UNL     1       1.938 -12.005  -2.657  1.00  0.00     0.049 A 
ATOM     60  H   UNL     1       0.321 -10.697  -2.301  1.00  0.00     0.167 HD
ATOM     61  C   UNL     1       1.357 -12.388  -0.277  1.00  0.00     0.074 A 
ATOM     62  C   UNL     1       1.527 -13.055   0.997  1.00  0.00     0.031 C 
ATOM     63  C   UNL     1       2.097 -12.652  -1.381  1.00  0.00     0.037 A 
BRANCH  50  64
ATOM     64  C   UNL     1       0.509  -9.331  -6.334  1.00  0.00     0.057 A 
ATOM     65  C   UNL     1       1.148  -8.153  -6.738  1.00  0.00     0.134 A 
ATOM     66  C   UNL     1       0.130 -10.240  -7.330  1.00  0.00     0.134 A 
ATOM     67  F   UNL     1       1.527  -7.239  -5.832  1.00  0.00    -0.206 F 
ATOM     68  C   UNL     1       1.388  -7.882  -8.087  1.00  0.00     0.040 A 
ATOM     69  C   UNL     1       0.381  -9.988  -8.680  1.00  0.00     0.040 A 
ATOM     70  F   UNL     1      -0.483 -11.388  -7.006  1.00  0.00    -0.206 F 
ATOM     71  C   UNL     1       1.009  -8.805  -9.061  1.00  0.00     0.006 A 
ENDBRANCH  50  64
BRANCH  51  72
ATOM     72  C   UNL     1      -1.472 -11.157   3.265  1.00  0.00     0.057 A 
ATOM     73  C   UNL     1      -0.595 -10.780   4.288  1.00  0.00     0.134 A 
ATOM     74  C   UNL     1      -2.639 -11.837   3.630  1.00  0.00     0.134 A 
ATOM     75  F   UNL     1       0.551 -10.148   3.997  1.00  0.00    -0.206 F 
ATOM     76  C   UNL     1      -0.863 -11.079   5.625  1.00  0.00     0.040 A 
ATOM     77  C   UNL     1      -2.931 -12.124   4.964  1.00  0.00     0.040 A 
ATOM     78  F   UNL     1      -3.517 -12.226   2.694  1.00  0.00    -0.206 F 
ATOM     79  C   UNL     1      -2.038 -11.749   5.966  1.00  0.00     0.006 A 
ENDBRANCH  51  72
BRANCH  63  80
ATOM     80  C   UNL     1       3.173 -13.686  -1.249  1.00  0.00     0.057 A 
ATOM     81  C   UNL     1       2.878 -15.054  -1.224  1.00  0.00     0.134 A 
ATOM     82  C   UNL     1       4.520 -13.309  -1.181  1.00  0.00     0.134 A 
ATOM     83  F   UNL     1       1.606 -15.476  -1.271  1.00  0.00    -0.206 F 
ATOM     84  C   UNL     1       3.887 -16.013  -1.120  1.00  0.00     0.040 A 
ATOM     85  C   UNL     1       5.538 -14.259  -1.096  1.00  0.00     0.040 A 
ATOM     86  F   UNL     1       4.867 -12.013  -1.206  1.00  0.00    -0.206 F 
ATOM     87  C   UNL     1       5.222 -15.616  -1.061  1.00  0.00     0.006 A 
ENDBRANCH  63  80
ENDBRANCH  37  38
ENDBRANCH  30  32
ENDBRANCH  29  30
ENDBRANCH  28  29
ENDBRANCH   1  28
TORSDOF 14
