REMARK SMILES O=C(N[C@@H](Cc1ccc(O)cc1)C(=O)N[C@@H](CO)C(=O)OCCOC(=O)c1ccc(-c2c3nc(c(-c4c(F)cccc4F)c4ccc([nH]4)c(-c4c(F)cccc4F)c4nc(c(-c5c(F)cccc5F)c5ccc2[nH]5)C=C4)C=C3)cc1)c1ccc(F)cc1
REMARK SMILES IDX 21 1 19 2 20 3 16 4 15 5 13 6 14 7 4 9 3 10 1 11 2 12 81 14
REMARK SMILES IDX 82 15 87 16 83 17 86 18 84 19 85 20 5 21 6 22 7 23 12 24
REMARK SMILES IDX 8 25 11 26 9 27 10 28 17 30 18 31 22 33 23 34 24 35 25 36
REMARK SMILES IDX 26 37 27 38 28 39 80 40 29 41 79 42 30 43 31 44 32 45 73 46
REMARK SMILES IDX 33 47 78 48 72 49 74 50 34 51 77 52 71 53 70 54 35 56 61 57
REMARK SMILES IDX 44 58 60 59 45 60 48 61 59 62 75 63 46 64 47 65 58 67 76 68
REMARK SMILES IDX 49 69 36 70 37 71 42 72 38 73 39 74 41 75 43 76 40 77 62 78
REMARK SMILES IDX 63 79 68 80 64 81 65 82 67 83 69 84 66 85 50 86 51 87 56 88
REMARK SMILES IDX 52 89 53 90 55 91 57 92 54 93
REMARK H PARENT 15 8 3 13 10 29 18 32 74 55 48 66
REMARK Flexibility Score: inf
ROOT
ATOM      1  O   UNL     1       5.833  -5.352  -2.013  1.00  0.00    -0.460 OA
ENDROOT
BRANCH   1   2
ATOM      2  C   UNL     1       4.623  -5.636  -2.602  1.00  0.00     0.331 C 
ATOM      3  O   UNL     1       4.191  -6.776  -2.735  1.00  0.00    -0.250 OA
BRANCH   2   4
ATOM      4  C   UNL     1       3.794  -4.354  -2.861  1.00  0.00     0.218 C 
BRANCH   4   5
ATOM      5  N   UNL     1       4.589  -3.136  -2.994  1.00  0.00    -0.339 N 
ATOM      6  C   UNL     1       4.705  -2.033  -2.216  1.00  0.00     0.243 C 
ATOM      7  O   UNL     1       5.432  -1.139  -2.672  1.00  0.00    -0.273 OA
ATOM      8  H   UNL     1       5.148  -3.111  -3.804  1.00  0.00     0.164 HD
BRANCH   6   9
ATOM      9  C   UNL     1       3.914  -1.775  -0.905  1.00  0.00     0.176 C 
BRANCH   9  10
ATOM     10  N   UNL     1       2.605  -1.171  -1.113  1.00  0.00    -0.340 N 
ATOM     11  O   UNL     1       0.913   0.224  -0.650  1.00  0.00    -0.269 OA
ATOM     12  C   UNL     1       2.127   0.035  -0.651  1.00  0.00     0.251 C 
ATOM     13  H   UNL     1       1.976  -1.697  -1.657  1.00  0.00     0.164 HD
BRANCH  12  14
ATOM     14  C   UNL     1       3.026   1.109  -0.150  1.00  0.00     0.040 A 
ATOM     15  C   UNL     1       4.145   1.530  -0.882  1.00  0.00     0.017 A 
ATOM     16  C   UNL     1       2.664   1.805   1.014  1.00  0.00     0.017 A 
ATOM     17  C   UNL     1       4.916   2.607  -0.431  1.00  0.00     0.040 A 
ATOM     18  C   UNL     1       3.433   2.887   1.458  1.00  0.00     0.040 A 
ATOM     19  C   UNL     1       4.552   3.277   0.731  1.00  0.00     0.123 A 
ATOM     20  F   UNL     1       5.277   4.325   1.142  1.00  0.00    -0.207 F 
ENDBRANCH  12  14
ENDBRANCH   9  10
BRANCH   9  21
ATOM     21  C   UNL     1       3.961  -2.834   0.212  1.00  0.00     0.070 C 
BRANCH  21  22
ATOM     22  C   UNL     1       3.062  -4.058   0.280  1.00  0.00    -0.045 A 
ATOM     23  C   UNL     1       1.667  -3.990   0.307  1.00  0.00     0.007 A 
ATOM     24  C   UNL     1       3.645  -5.340   0.340  1.00  0.00     0.007 A 
ATOM     25  C   UNL     1       0.902  -5.169   0.311  1.00  0.00     0.046 A 
ATOM     26  C   UNL     1       2.895  -6.512   0.360  1.00  0.00     0.046 A 
ATOM     27  C   UNL     1       1.520  -6.416   0.320  1.00  0.00     0.115 A 
BRANCH  27  28
ATOM     28  O   UNL     1       0.746  -7.535   0.274  1.00  0.00    -0.508 OA
ATOM     29  H   UNL     1      -0.188  -7.458   0.247  1.00  0.00     0.293 HD
ENDBRANCH  27  28
ENDBRANCH  21  22
ENDBRANCH   9  21
ENDBRANCH   6   9
ENDBRANCH   4   5
BRANCH   4  30
ATOM     30  C   UNL     1       2.802  -4.522  -4.010  1.00  0.00     0.193 C 
BRANCH  30  31
ATOM     31  O   UNL     1       3.464  -4.556  -5.268  1.00  0.00    -0.394 OA
ATOM     32  H   UNL     1       3.938  -3.721  -5.407  1.00  0.00     0.210 HD
ENDBRANCH  30  31
ENDBRANCH   4  30
ENDBRANCH   2   4
ENDBRANCH   1   2
BRANCH   1  33
ATOM     33  C   UNL     1       6.554  -6.508  -1.518  1.00  0.00     0.274 C 
BRANCH  33  34
ATOM     34  C   UNL     1       7.698  -6.078  -0.585  1.00  0.00     0.275 C 
BRANCH  34  35
ATOM     35  O   UNL     1       7.172  -5.574   0.665  1.00  0.00    -0.458 OA
BRANCH  35  36
ATOM     36  C   UNL     1       8.041  -4.871   1.438  1.00  0.00     0.338 C 
ATOM     37  O   UNL     1       9.224  -4.653   1.171  1.00  0.00    -0.246 OA
BRANCH  36  38
ATOM     38  C   UNL     1       7.374  -4.317   2.648  1.00  0.00     0.060 A 
ATOM     39  C   UNL     1       6.016  -4.038   2.609  1.00  0.00     0.016 A 
ATOM     40  C   UNL     1       8.082  -3.934   3.786  1.00  0.00     0.016 A 
ATOM     41  C   UNL     1       5.387  -3.264   3.573  1.00  0.00     0.010 A 
ATOM     42  C   UNL     1       7.427  -3.245   4.828  1.00  0.00     0.010 A 
ATOM     43  C   UNL     1       6.082  -2.844   4.702  1.00  0.00    -0.014 A 
BRANCH  43  44
ATOM     44  C   UNL     1       5.431  -1.855   5.612  1.00  0.00     0.031 A 
ATOM     45  C   UNL     1       6.068  -0.501   5.793  1.00  0.00     0.074 A 
ATOM     46  C   UNL     1       4.203  -2.067   6.135  1.00  0.00     0.049 A 
ATOM     47  N   UNL     1       5.775   0.451   6.641  1.00  0.00    -0.248 NA
ATOM     48  C   UNL     1       7.183  -0.174   4.890  1.00  0.00     0.031 C 
ATOM     49  C   UNL     1       3.377  -3.256   5.917  1.00  0.00     0.029 A 
ATOM     50  N   UNL     1       3.406  -1.258   6.912  1.00  0.00    -0.354 N 
ATOM     51  C   UNL     1       6.722   1.446   6.433  1.00  0.00     0.074 A 
ATOM     52  C   UNL     1       7.580   0.998   5.359  1.00  0.00     0.031 C 
ATOM     53  C   UNL     1       2.167  -3.063   6.465  1.00  0.00     0.029 A 
ATOM     54  C   UNL     1       2.169  -1.795   7.185  1.00  0.00     0.049 A 
ATOM     55  H   UNL     1       3.695  -0.377   7.242  1.00  0.00     0.167 HD
ATOM     56  C   UNL     1       6.874   2.619   7.093  1.00  0.00     0.037 A 
ATOM     57  C   UNL     1       1.168  -1.340   7.965  1.00  0.00     0.037 A 
ATOM     58  C   UNL     1       5.976   3.086   8.114  1.00  0.00     0.049 A 
ATOM     59  C   UNL     1       1.375  -0.061   8.730  1.00  0.00     0.074 A 
ATOM     60  C   UNL     1       6.084   4.198   8.928  1.00  0.00     0.029 A 
ATOM     61  N   UNL     1       4.772   2.473   8.430  1.00  0.00    -0.354 N 
ATOM     62  N   UNL     1       2.378   0.781   8.677  1.00  0.00    -0.248 NA
ATOM     63  C   UNL     1       0.331   0.307   9.697  1.00  0.00     0.031 C 
ATOM     64  C   UNL     1       4.953   4.247   9.753  1.00  0.00     0.029 A 
ATOM     65  C   UNL     1       4.124   3.186   9.424  1.00  0.00     0.049 A 
ATOM     66  H   UNL     1       4.429   1.652   8.010  1.00  0.00     0.167 HD
ATOM     67  C   UNL     1       2.090   1.775   9.603  1.00  0.00     0.074 A 
ATOM     68  C   UNL     1       0.799   1.451  10.175  1.00  0.00     0.031 C 
ATOM     69  C   UNL     1       2.835   2.848   9.967  1.00  0.00     0.037 A 
BRANCH  56  70
ATOM     70  C   UNL     1       8.109   3.412   6.785  1.00  0.00     0.057 A 
ATOM     71  C   UNL     1       8.263   4.138   5.598  1.00  0.00     0.134 A 
ATOM     72  C   UNL     1       9.187   3.399   7.680  1.00  0.00     0.134 A 
ATOM     73  F   UNL     1       7.280   4.164   4.686  1.00  0.00    -0.206 F 
ATOM     74  C   UNL     1       9.459   4.795   5.297  1.00  0.00     0.040 A 
ATOM     75  C   UNL     1      10.377   4.072   7.402  1.00  0.00     0.040 A 
ATOM     76  F   UNL     1       9.105   2.719   8.834  1.00  0.00    -0.206 F 
ATOM     77  C   UNL     1      10.520   4.764   6.201  1.00  0.00     0.006 A 
ENDBRANCH  56  70
BRANCH  57  78
ATOM     78  C   UNL     1      -0.085  -2.128   8.134  1.00  0.00     0.057 A 
ATOM     79  C   UNL     1      -1.326  -1.620   7.729  1.00  0.00     0.134 A 
ATOM     80  C   UNL     1      -0.081  -3.390   8.742  1.00  0.00     0.134 A 
ATOM     81  F   UNL     1      -1.408  -0.403   7.171  1.00  0.00    -0.206 F 
ATOM     82  C   UNL     1      -2.513  -2.329   7.933  1.00  0.00     0.040 A 
ATOM     83  C   UNL     1      -1.254  -4.126   8.921  1.00  0.00     0.040 A 
ATOM     84  F   UNL     1       1.069  -3.935   9.165  1.00  0.00    -0.206 F 
ATOM     85  C   UNL     1      -2.477  -3.591   8.524  1.00  0.00     0.006 A 
ENDBRANCH  57  78
BRANCH  69  86
ATOM     86  C   UNL     1       2.253   3.752  11.011  1.00  0.00     0.057 A 
ATOM     87  C   UNL     1       2.199   3.378  12.360  1.00  0.00     0.134 A 
ATOM     88  C   UNL     1       1.755   5.013  10.664  1.00  0.00     0.134 A 
ATOM     89  F   UNL     1       2.646   2.176  12.751  1.00  0.00    -0.206 F 
ATOM     90  C   UNL     1       1.645   4.220  13.325  1.00  0.00     0.040 A 
ATOM     91  C   UNL     1       1.220   5.872  11.624  1.00  0.00     0.040 A 
ATOM     92  F   UNL     1       1.784   5.430   9.389  1.00  0.00    -0.206 F 
ATOM     93  C   UNL     1       1.158   5.473  12.958  1.00  0.00     0.006 A 
ENDBRANCH  69  86
ENDBRANCH  43  44
ENDBRANCH  36  38
ENDBRANCH  35  36
ENDBRANCH  34  35
ENDBRANCH  33  34
ENDBRANCH   1  33
TORSDOF 20
