REMARK SMILES Cc1cccc(CN(C)c2nc(C)c(C(=O)OCCOC(=O)c3ccc(-c4c5nc(c(-c6c(F)cccc6F)c6ccc([nH]6)c(-c6c(F)cccc6F)c6nc(c(-c7c(F)cccc7F)c7ccc4[nH]7)C=C6)C=C5)cc3)s2)n1
REMARK SMILES IDX 18 1 17 2 15 3 16 4 14 5 10 6 11 7 77 8 12 9 13 10 8 11 9 12
REMARK SMILES IDX 7 13 6 14 1 15 2 16 3 17 78 18 4 19 5 20 19 21 20 22 21 23
REMARK SMILES IDX 22 24 23 25 24 26 76 27 25 28 75 29 26 30 27 31 28 32 69 33
REMARK SMILES IDX 29 34 74 35 68 36 70 37 30 38 73 39 67 40 66 41 31 43 57 44
REMARK SMILES IDX 40 45 56 46 41 47 44 48 55 49 71 50 42 51 43 52 54 54 72 55
REMARK SMILES IDX 45 56 32 57 33 58 38 59 34 60 35 61 37 62 39 63 36 64 58 65
REMARK SMILES IDX 59 66 64 67 60 68 61 69 63 70 65 71 62 72 46 73 47 74 52 75
REMARK SMILES IDX 48 76 49 77 51 78 53 79 50 80
REMARK H PARENT 70 42 44 53
REMARK Flexibility Score: inf
ROOT
ATOM      1  C   UNL     1      -1.867  -0.080   7.891  1.00  0.00     0.275 C 
ENDROOT
BRANCH   1   2
ATOM      2  O   UNL     1      -1.942   0.952   6.886  1.00  0.00    -0.458 OA
BRANCH   2   3
ATOM      3  C   UNL     1      -0.933   0.965   5.966  1.00  0.00     0.350 C 
ATOM      4  O   UNL     1       0.006   0.181   5.982  1.00  0.00    -0.245 OA
BRANCH   3   5
ATOM      5  C   UNL     1      -1.171   1.962   4.945  1.00  0.00     0.137 A 
ATOM      6  C   UNL     1      -1.202   3.121   2.787  1.00  0.00     0.186 A 
ATOM      7  N   UNL     1      -1.836   3.825   3.697  1.00  0.00    -0.225 NA
ATOM      8  S   UNL     1      -0.476   1.697   3.399  1.00  0.00    -0.089 S 
ATOM      9  C   UNL     1      -1.849   3.169   4.930  1.00  0.00     0.065 A 
ATOM     10  C   UNL     1      -2.520   3.876   6.054  1.00  0.00     0.069 C 
BRANCH   6  11
ATOM     11  N   UNL     1      -1.016   3.506   1.500  1.00  0.00    -0.345 N 
ATOM     12  C   UNL     1      -0.522   4.843   1.257  1.00  0.00     0.146 C 
BRANCH  11  13
ATOM     13  C   UNL     1      -1.655   2.775   0.406  1.00  0.00     0.174 C 
BRANCH  13  14
ATOM     14  C   UNL     1      -0.962   1.478  -0.005  1.00  0.00     0.060 A 
ATOM     15  C   UNL     1       2.481   0.162  -0.159  1.00  0.00     0.067 C 
ATOM     16  C   UNL     1       0.992   0.241  -0.312  1.00  0.00     0.038 A 
ATOM     17  C   UNL     1       0.288  -0.817  -0.874  1.00  0.00     0.023 A 
ATOM     18  N   UNL     1       0.392   1.390   0.085  1.00  0.00    -0.256 NA
ATOM     19  C   UNL     1      -1.091  -0.708  -0.994  1.00  0.00     0.004 A 
ATOM     20  C   UNL     1      -1.729   0.445  -0.546  1.00  0.00     0.026 A 
ENDBRANCH  13  14
ENDBRANCH  11  13
ENDBRANCH   6  11
ENDBRANCH   3   5
ENDBRANCH   2   3
ENDBRANCH   1   2
BRANCH   1  21
ATOM     21  C   UNL     1      -2.853  -1.211   7.595  1.00  0.00     0.275 C 
BRANCH  21  22
ATOM     22  O   UNL     1      -2.449  -1.940   6.421  1.00  0.00    -0.458 OA
BRANCH  22  23
ATOM     23  C   UNL     1      -3.196  -1.732   5.313  1.00  0.00     0.338 C 
ATOM     24  O   UNL     1      -4.184  -1.030   5.198  1.00  0.00    -0.246 OA
BRANCH  23  25
ATOM     25  C   UNL     1      -2.577  -2.439   4.184  1.00  0.00     0.060 A 
ATOM     26  C   UNL     1      -1.528  -1.813   3.522  1.00  0.00     0.016 A 
ATOM     27  C   UNL     1      -3.076  -3.652   3.716  1.00  0.00     0.016 A 
ATOM     28  C   UNL     1      -1.005  -2.358   2.357  1.00  0.00     0.010 A 
ATOM     29  C   UNL     1      -2.491  -4.244   2.586  1.00  0.00     0.010 A 
ATOM     30  C   UNL     1      -1.459  -3.594   1.882  1.00  0.00    -0.014 A 
BRANCH  30  31
ATOM     31  C   UNL     1      -0.854  -4.184   0.655  1.00  0.00     0.031 A 
ATOM     32  C   UNL     1      -1.696  -4.448  -0.564  1.00  0.00     0.074 A 
ATOM     33  C   UNL     1       0.471  -4.434   0.607  1.00  0.00     0.049 A 
ATOM     34  N   UNL     1      -1.364  -5.037  -1.686  1.00  0.00    -0.248 NA
ATOM     35  C   UNL     1      -3.087  -3.969  -0.529  1.00  0.00     0.031 C 
ATOM     36  C   UNL     1       1.426  -4.154   1.682  1.00  0.00     0.029 A 
ATOM     37  N   UNL     1       1.250  -4.971  -0.391  1.00  0.00    -0.354 N 
ATOM     38  C   UNL     1      -2.506  -5.024  -2.477  1.00  0.00     0.074 A 
ATOM     39  C   UNL     1      -3.544  -4.371  -1.708  1.00  0.00     0.031 C 
ATOM     40  C   UNL     1       2.658  -4.495   1.279  1.00  0.00     0.029 A 
ATOM     41  C   UNL     1       2.572  -5.108  -0.041  1.00  0.00     0.049 A 
ATOM     42  H   UNL     1       0.894  -5.232  -1.271  1.00  0.00     0.167 HD
ATOM     43  C   UNL     1      -2.675  -5.513  -3.729  1.00  0.00     0.037 A 
ATOM     44  C   UNL     1       3.595  -5.712  -0.677  1.00  0.00     0.037 A 
ATOM     45  C   UNL     1      -1.643  -6.159  -4.498  1.00  0.00     0.049 A 
ATOM     46  C   UNL     1       3.346  -6.375  -2.002  1.00  0.00     0.074 A 
ATOM     47  C   UNL     1      -1.723  -6.688  -5.776  1.00  0.00     0.029 A 
ATOM     48  N   UNL     1      -0.346  -6.374  -4.059  1.00  0.00    -0.354 N 
ATOM     49  N   UNL     1       2.254  -6.385  -2.726  1.00  0.00    -0.248 NA
ATOM     50  C   UNL     1       4.461  -7.137  -2.583  1.00  0.00     0.031 C 
ATOM     51  C   UNL     1      -0.491  -7.273  -6.086  1.00  0.00     0.029 A 
ATOM     52  C   UNL     1       0.371  -7.066  -5.023  1.00  0.00     0.049 A 
ATOM     53  H   UNL     1       0.013  -6.078  -3.192  1.00  0.00     0.167 HD
ATOM     54  C   UNL     1       2.549  -7.149  -3.847  1.00  0.00     0.074 A 
ATOM     55  C   UNL     1       3.931  -7.564  -3.721  1.00  0.00     0.031 C 
ATOM     56  C   UNL     1       1.743  -7.483  -4.883  1.00  0.00     0.037 A 
BRANCH  43  57
ATOM     57  C   UNL     1      -4.043  -5.412  -4.336  1.00  0.00     0.057 A 
ATOM     58  C   UNL     1      -4.556  -4.201  -4.816  1.00  0.00     0.134 A 
ATOM     59  C   UNL     1      -4.837  -6.557  -4.485  1.00  0.00     0.134 A 
ATOM     60  F   UNL     1      -3.852  -3.067  -4.690  1.00  0.00    -0.206 F 
ATOM     61  C   UNL     1      -5.819  -4.130  -5.410  1.00  0.00     0.040 A 
ATOM     62  C   UNL     1      -6.090  -6.502  -5.096  1.00  0.00     0.040 A 
ATOM     63  F   UNL     1      -4.401  -7.749  -4.051  1.00  0.00    -0.206 F 
ATOM     64  C   UNL     1      -6.586  -5.285  -5.558  1.00  0.00     0.006 A 
ENDBRANCH  43  57
BRANCH  44  65
ATOM     65  C   UNL     1       4.930  -5.789  -0.029  1.00  0.00     0.057 A 
ATOM     66  C   UNL     1       6.038  -5.124  -0.563  1.00  0.00     0.134 A 
ATOM     67  C   UNL     1       5.129  -6.539   1.139  1.00  0.00     0.134 A 
ATOM     68  F   UNL     1       5.920  -4.415  -1.695  1.00  0.00    -0.206 F 
ATOM     69  C   UNL     1       7.297  -5.203   0.038  1.00  0.00     0.040 A 
ATOM     70  C   UNL     1       6.373  -6.601   1.767  1.00  0.00     0.040 A 
ATOM     71  F   UNL     1       4.109  -7.207   1.697  1.00  0.00    -0.206 F 
ATOM     72  C   UNL     1       7.463  -5.936   1.213  1.00  0.00     0.006 A 
ENDBRANCH  44  65
BRANCH  56  73
ATOM     73  C   UNL     1       2.332  -8.336  -5.966  1.00  0.00     0.057 A 
ATOM     74  C   UNL     1       2.574  -9.702  -5.772  1.00  0.00     0.134 A 
ATOM     75  C   UNL     1       2.616  -7.801  -7.228  1.00  0.00     0.134 A 
ATOM     76  F   UNL     1       2.338 -10.271  -4.580  1.00  0.00    -0.206 F 
ATOM     77  C   UNL     1       3.090 -10.503  -6.792  1.00  0.00     0.040 A 
ATOM     78  C   UNL     1       3.110  -8.597  -8.263  1.00  0.00     0.040 A 
ATOM     79  F   UNL     1       2.402  -6.501  -7.481  1.00  0.00    -0.206 F 
ATOM     80  C   UNL     1       3.351  -9.952  -8.045  1.00  0.00     0.006 A 
ENDBRANCH  56  73
ENDBRANCH  30  31
ENDBRANCH  23  25
ENDBRANCH  22  23
ENDBRANCH  21  22
ENDBRANCH   1  21
TORSDOF 14
