REMARK SMILES COc1ccc(C[N@@H+](CC(=O)OCCOC(=O)c2ccc(-c3c4nc(c(-c5c(F)cccc5F)c5ccc([nH]5)c(-c5c(F)cccc5F)c5nc(c(-c6c(F)cccc6F)c6ccc3[nH]6)C=C5)C=C4)cc2)C(C)(C)C)cc1C#N
REMARK SMILES IDX 13 1 12 2 10 3 11 4 9 5 8 6 7 8 6 9 3 10 4 11 77 12 5 13
REMARK SMILES IDX 76 14 2 15 1 16 78 17 79 18 72 19 73 20 74 21 75 22 14 23
REMARK SMILES IDX 15 24 16 25 17 26 18 27 19 28 71 29 20 30 70 31 21 32 22 33
REMARK SMILES IDX 23 34 64 35 24 36 69 37 63 38 65 39 25 40 68 41 62 42 61 43
REMARK SMILES IDX 26 45 52 46 35 47 51 48 36 49 39 50 50 51 66 52 37 53 38 54
REMARK SMILES IDX 49 56 67 57 40 58 27 59 28 60 33 61 29 62 30 63 32 64 34 65
REMARK SMILES IDX 31 66 53 67 54 68 59 69 55 70 56 71 58 72 60 73 57 74 41 75
REMARK SMILES IDX 42 76 47 77 43 78 44 79 46 80 48 81 45 82
REMARK H PARENT 8 7 65 44 39 55
REMARK Flexibility Score: inf
ROOT
ATOM      1  C   UNL     1       5.837  -8.227  -1.741  1.00  0.00     0.274 C 
ENDROOT
BRANCH   1   2
ATOM      2  O   UNL     1       4.486  -7.805  -1.404  1.00  0.00    -0.458 OA
BRANCH   2   3
ATOM      3  C   UNL     1       3.553  -8.775  -1.191  1.00  0.00     0.361 C 
ATOM      4  O   UNL     1       3.710  -9.942  -1.556  1.00  0.00    -0.245 OA
BRANCH   3   5
ATOM      5  C   UNL     1       2.282  -8.356  -0.409  1.00  0.00     0.387 C 
BRANCH   5   6
ATOM      6  N   UNL     1       2.085  -6.952   0.071  1.00  0.00    -0.318 N 
ATOM      7  H   UNL     1       1.145  -6.863   0.456  1.00  0.00     0.349 HD
BRANCH   6   8
ATOM      8  C   UNL     1       2.152  -6.053  -1.089  1.00  0.00     0.299 C 
BRANCH   8   9
ATOM      9  C   UNL     1       1.651  -4.657  -0.868  1.00  0.00     0.008 A 
ATOM     10  C   UNL     1       0.929  -2.113   0.031  1.00  0.00     0.136 A 
ATOM     11  C   UNL     1      -0.027  -3.137  -0.044  1.00  0.00     0.048 A 
ATOM     12  C   UNL     1       2.240  -2.346  -0.402  1.00  0.00     0.094 A 
ATOM     13  C   UNL     1       0.324  -4.401  -0.514  1.00  0.00     0.013 A 
ATOM     14  C   UNL     1       2.582  -3.611  -0.880  1.00  0.00     0.033 A 
BRANCH  10  15
ATOM     15  O   UNL     1       0.494  -0.984   0.672  1.00  0.00    -0.495 OA
ATOM     16  C   UNL     1       0.759   0.228  -0.025  1.00  0.00     0.278 C 
ENDBRANCH  10  15
BRANCH  12  17
ATOM     17  C   UNL     1       3.312  -1.401  -0.284  1.00  0.00     0.103 C 
ATOM     18  N   UNL     1       4.211  -0.674  -0.221  1.00  0.00    -0.192 NA
ENDBRANCH  12  17
ENDBRANCH   8   9
ENDBRANCH   6   8
BRANCH   6  19
ATOM     19  C   UNL     1       2.589  -6.534   1.431  1.00  0.00     0.090 C 
ATOM     20  C   UNL     1       4.010  -5.902   1.477  1.00  0.00     0.078 C 
ATOM     21  C   UNL     1       1.680  -5.445   2.081  1.00  0.00     0.078 C 
ATOM     22  C   UNL     1       2.455  -7.663   2.495  1.00  0.00     0.078 C 
ENDBRANCH   6  19
ENDBRANCH   5   6
ENDBRANCH   3   5
ENDBRANCH   2   3
ENDBRANCH   1   2
BRANCH   1  23
ATOM     23  C   UNL     1       6.833  -7.963  -0.579  1.00  0.00     0.275 C 
BRANCH  23  24
ATOM     24  O   UNL     1       6.920  -9.036   0.406  1.00  0.00    -0.458 OA
BRANCH  24  25
ATOM     25  C   UNL     1       5.796  -9.117   1.131  1.00  0.00     0.338 C 
ATOM     26  O   UNL     1       4.817  -8.418   0.945  1.00  0.00    -0.246 OA
BRANCH  25  27
ATOM     27  C   UNL     1       5.619 -10.066   2.214  1.00  0.00     0.060 A 
ATOM     28  C   UNL     1       4.377 -10.713   2.165  1.00  0.00     0.016 A 
ATOM     29  C   UNL     1       6.292  -9.912   3.425  1.00  0.00     0.016 A 
ATOM     30  C   UNL     1       3.756 -11.095   3.338  1.00  0.00     0.010 A 
ATOM     31  C   UNL     1       5.730 -10.461   4.587  1.00  0.00     0.010 A 
ATOM     32  C   UNL     1       4.454 -11.053   4.553  1.00  0.00    -0.014 A 
BRANCH  32  33
ATOM     33  C   UNL     1       3.852 -11.748   5.719  1.00  0.00     0.031 A 
ATOM     34  C   UNL     1       3.562 -11.053   7.017  1.00  0.00     0.074 A 
ATOM     35  C   UNL     1       3.545 -13.053   5.563  1.00  0.00     0.049 A 
ATOM     36  N   UNL     1       3.108 -11.563   8.135  1.00  0.00    -0.248 NA
ATOM     37  C   UNL     1       3.829  -9.609   7.082  1.00  0.00     0.031 C 
ATOM     38  C   UNL     1       3.775 -13.833   4.340  1.00  0.00     0.029 A 
ATOM     39  N   UNL     1       2.960 -13.953   6.414  1.00  0.00    -0.354 N 
ATOM     40  C   UNL     1       3.064 -10.516   9.046  1.00  0.00     0.074 A 
ATOM     41  C   UNL     1       3.564  -9.344   8.355  1.00  0.00     0.031 C 
ATOM     42  C   UNL     1       3.276 -15.063   4.494  1.00  0.00     0.029 A 
ATOM     43  C   UNL     1       2.810 -15.202   5.862  1.00  0.00     0.049 A 
ATOM     44  H   UNL     1       2.676 -13.727   7.329  1.00  0.00     0.167 HD
ATOM     45  C   UNL     1       2.645 -10.539  10.336  1.00  0.00     0.037 A 
ATOM     46  C   UNL     1       2.393 -16.358   6.404  1.00  0.00     0.037 A 
ATOM     47  C   UNL     1       2.147 -11.720  11.003  1.00  0.00     0.049 A 
ATOM     48  C   UNL     1       1.984 -16.360   7.842  1.00  0.00     0.074 A 
ATOM     49  C   UNL     1       1.691 -11.851  12.304  1.00  0.00     0.029 A 
ATOM     50  N   UNL     1       2.041 -12.977  10.420  1.00  0.00    -0.354 N 
ATOM     51  N   UNL     1       1.963 -15.366   8.696  1.00  0.00    -0.248 NA
ATOM     52  C   UNL     1       1.542 -17.644   8.392  1.00  0.00     0.031 C 
ATOM     53  C   UNL     1       1.373 -13.195  12.527  1.00  0.00     0.029 A 
ATOM     54  C   UNL     1       1.549 -13.890  11.341  1.00  0.00     0.049 A 
ATOM     55  H   UNL     1       2.281 -13.189   9.489  1.00  0.00     0.167 HD
ATOM     56  C   UNL     1       1.474 -15.897   9.880  1.00  0.00     0.074 A 
ATOM     57  C   UNL     1       1.192 -17.295   9.620  1.00  0.00     0.031 C 
ATOM     58  C   UNL     1       1.275 -15.282  11.072  1.00  0.00     0.037 A 
BRANCH  45  59
ATOM     59  C   UNL     1       2.742  -9.260  11.125  1.00  0.00     0.057 A 
ATOM     60  C   UNL     1       1.947  -8.142  10.841  1.00  0.00     0.134 A 
ATOM     61  C   UNL     1       3.627  -9.156  12.209  1.00  0.00     0.134 A 
ATOM     62  F   UNL     1       1.081  -8.165   9.817  1.00  0.00    -0.206 F 
ATOM     63  C   UNL     1       2.053  -6.959  11.579  1.00  0.00     0.040 A 
ATOM     64  C   UNL     1       3.717  -7.992  12.975  1.00  0.00     0.040 A 
ATOM     65  F   UNL     1       4.412 -10.189  12.550  1.00  0.00    -0.206 F 
ATOM     66  C   UNL     1       2.936  -6.884  12.654  1.00  0.00     0.006 A 
ENDBRANCH  45  59
BRANCH  46  67
ATOM     67  C   UNL     1       2.382 -17.596   5.586  1.00  0.00     0.057 A 
ATOM     68  C   UNL     1       1.184 -18.234   5.250  1.00  0.00     0.134 A 
ATOM     69  C   UNL     1       3.571 -18.163   5.105  1.00  0.00     0.134 A 
ATOM     70  F   UNL     1       0.013 -17.746   5.685  1.00  0.00    -0.206 F 
ATOM     71  C   UNL     1       1.169 -19.405   4.490  1.00  0.00     0.040 A 
ATOM     72  C   UNL     1       3.568 -19.310   4.312  1.00  0.00     0.040 A 
ATOM     73  F   UNL     1       4.753 -17.588   5.374  1.00  0.00    -0.206 F 
ATOM     74  C   UNL     1       2.364 -19.941   4.014  1.00  0.00     0.006 A 
ENDBRANCH  46  67
BRANCH  58  75
ATOM     75  C   UNL     1       0.662 -16.115  12.162  1.00  0.00     0.057 A 
ATOM     76  C   UNL     1       1.334 -17.195  12.751  1.00  0.00     0.134 A 
ATOM     77  C   UNL     1      -0.637 -15.843  12.611  1.00  0.00     0.134 A 
ATOM     78  F   UNL     1       2.575 -17.521  12.357  1.00  0.00    -0.206 F 
ATOM     79  C   UNL     1       0.717 -18.004  13.706  1.00  0.00     0.040 A 
ATOM     80  C   UNL     1      -1.248 -16.619  13.595  1.00  0.00     0.040 A 
ATOM     81  F   UNL     1      -1.336 -14.818  12.099  1.00  0.00    -0.206 F 
ATOM     82  C   UNL     1      -0.577 -17.714  14.134  1.00  0.00     0.006 A 
ENDBRANCH  58  75
ENDBRANCH  32  33
ENDBRANCH  25  27
ENDBRANCH  24  25
ENDBRANCH  23  24
ENDBRANCH   1  23
TORSDOF 17
