REMARK SMILES COc1cc2c(cc1OC)[C@H](C(=O)OCCOC(=O)c1ccc(-c3c4nc(c(-c5c(F)cccc5F)c5ccc([nH]5)c(-c5c(F)cccc5F)c5nc(c(-c6c(F)cccc6F)c6ccc3[nH]6)C=C5)C=C4)cc1)[C@H](c1cccs1)N(C)C2=O
REMARK SMILES IDX 16 1 15 2 14 3 12 4 13 5 11 6 3 7 4 8 8 9 5 10 7 11 6 12
REMARK SMILES IDX 82 13 80 14 83 15 74 16 81 17 2 18 1 19 9 20 10 21 75 22
REMARK SMILES IDX 76 23 79 24 77 25 78 26 17 27 18 28 19 29 20 30 21 31 73 32
REMARK SMILES IDX 22 33 72 34 23 35 24 36 25 37 66 38 26 39 71 40 65 41 67 42
REMARK SMILES IDX 27 43 70 44 64 45 63 46 28 48 54 49 37 50 53 51 38 52 41 53
REMARK SMILES IDX 52 54 68 55 39 56 40 57 51 59 69 60 42 61 29 62 30 63 35 64
REMARK SMILES IDX 31 65 32 66 34 67 36 68 33 69 55 70 56 71 61 72 57 73 58 74
REMARK SMILES IDX 60 75 62 76 59 77 43 78 44 79 49 80 45 81 46 82 48 83 50 84
REMARK SMILES IDX 47 85
REMARK H PARENT 67 47 41 58
REMARK Flexibility Score: inf
ROOT
ATOM      1  C   UNL     1       0.648   5.412  -9.008  1.00  0.00     0.275 C 
ENDROOT
BRANCH   1   2
ATOM      2  C   UNL     1      -0.045   4.900  -7.746  1.00  0.00     0.274 C 
BRANCH   2   3
ATOM      3  O   UNL     1       0.855   4.846  -6.616  1.00  0.00    -0.462 OA
BRANCH   3   4
ATOM      4  C   UNL     1       0.818   3.683  -5.902  1.00  0.00     0.316 C 
ATOM      5  O   UNL     1       0.156   2.710  -6.243  1.00  0.00    -0.251 OA
BRANCH   4   6
ATOM      6  C   UNL     1       1.686   3.758  -4.651  1.00  0.00     0.158 C 
ATOM      7  C   UNL     1       0.635   0.929  -1.554  1.00  0.00     0.161 A 
ATOM      8  C   UNL     1       1.887   1.563  -1.554  1.00  0.00     0.064 A 
ATOM      9  C   UNL     1      -0.352   1.363  -2.453  1.00  0.00     0.161 A 
ATOM     10  C   UNL     1       2.183   2.547  -2.505  1.00  0.00     0.048 A 
ATOM     11  C   UNL     1      -0.049   2.368  -3.378  1.00  0.00     0.056 A 
ATOM     12  C   UNL     1       1.239   2.894  -3.483  1.00  0.00    -0.015 A 
ATOM     13  C   UNL     1       3.552   3.147  -2.538  1.00  0.00     0.254 C 
ATOM     14  N   UNL     1       3.977   3.629  -3.776  1.00  0.00    -0.333 N 
ATOM     15  O   UNL     1       4.234   3.174  -1.519  1.00  0.00    -0.269 OA
ATOM     16  C   UNL     1       3.154   3.383  -4.976  1.00  0.00     0.144 C 
ATOM     17  C   UNL     1       5.340   4.114  -3.925  1.00  0.00     0.147 C 
BRANCH   7  18
ATOM     18  O   UNL     1       0.365  -0.156  -0.766  1.00  0.00    -0.493 OA
ATOM     19  C   UNL     1       1.059  -0.244   0.469  1.00  0.00     0.278 C 
ENDBRANCH   7  18
BRANCH   9  20
ATOM     20  O   UNL     1      -1.639   0.921  -2.606  1.00  0.00    -0.493 OA
ATOM     21  C   UNL     1      -2.104  -0.139  -1.790  1.00  0.00     0.278 C 
ENDBRANCH   9  20
BRANCH  16  22
ATOM     22  C   UNL     1       3.348   1.944  -5.502  1.00  0.00     0.028 A 
ATOM     23  C   UNL     1       2.833   1.383  -6.662  1.00  0.00     0.017 A 
ATOM     24  S   UNL     1       4.308   0.761  -4.680  1.00  0.00    -0.147 S 
ATOM     25  C   UNL     1       3.064  -0.018  -6.763  1.00  0.00     0.012 A 
ATOM     26  C   UNL     1       3.868  -0.481  -5.752  1.00  0.00     0.065 A 
ENDBRANCH  16  22
ENDBRANCH   4   6
ENDBRANCH   3   4
ENDBRANCH   2   3
ENDBRANCH   1   2
BRANCH   1  27
ATOM     27  O   UNL     1       1.785   4.596  -9.348  1.00  0.00    -0.458 OA
BRANCH  27  28
ATOM     28  C   UNL     1       2.974   5.083  -8.923  1.00  0.00     0.338 C 
ATOM     29  O   UNL     1       3.162   6.135  -8.323  1.00  0.00    -0.246 OA
BRANCH  28  30
ATOM     30  C   UNL     1       4.034   4.072  -9.098  1.00  0.00     0.060 A 
ATOM     31  C   UNL     1       4.919   3.909  -8.030  1.00  0.00     0.016 A 
ATOM     32  C   UNL     1       4.178   3.292 -10.248  1.00  0.00     0.016 A 
ATOM     33  C   UNL     1       5.872   2.901  -8.051  1.00  0.00     0.010 A 
ATOM     34  C   UNL     1       5.208   2.341 -10.312  1.00  0.00     0.010 A 
ATOM     35  C   UNL     1       6.049   2.132  -9.207  1.00  0.00    -0.014 A 
BRANCH  35  36
ATOM     36  C   UNL     1       7.214   1.218  -9.249  1.00  0.00     0.031 A 
ATOM     37  C   UNL     1       8.587   1.810  -9.379  1.00  0.00     0.074 A 
ATOM     38  C   UNL     1       7.065  -0.102  -9.042  1.00  0.00     0.049 A 
ATOM     39  N   UNL     1       9.749   1.212  -9.379  1.00  0.00    -0.248 NA
ATOM     40  C   UNL     1       8.660   3.275  -9.507  1.00  0.00     0.031 C 
ATOM     41  C   UNL     1       5.791  -0.771  -8.808  1.00  0.00     0.029 A 
ATOM     42  N   UNL     1       7.992  -1.110  -8.956  1.00  0.00    -0.354 N 
ATOM     43  C   UNL     1      10.689   2.224  -9.510  1.00  0.00     0.074 A 
ATOM     44  C   UNL     1       9.967   3.476  -9.562  1.00  0.00     0.031 C 
ATOM     45  C   UNL     1       6.015  -2.071  -8.557  1.00  0.00     0.029 A 
ATOM     46  C   UNL     1       7.444  -2.341  -8.682  1.00  0.00     0.049 A 
ATOM     47  H   UNL     1       8.958  -0.965  -9.079  1.00  0.00     0.167 HD
ATOM     48  C   UNL     1      12.034   2.116  -9.613  1.00  0.00     0.037 A 
ATOM     49  C   UNL     1       8.033  -3.549  -8.576  1.00  0.00     0.037 A 
ATOM     50  C   UNL     1      12.742   0.866  -9.622  1.00  0.00     0.049 A 
ATOM     51  C   UNL     1       9.520  -3.652  -8.799  1.00  0.00     0.074 A 
ATOM     52  C   UNL     1      14.093   0.640  -9.815  1.00  0.00     0.029 A 
ATOM     53  N   UNL     1      12.148  -0.375  -9.445  1.00  0.00    -0.354 N 
ATOM     54  N   UNL     1      10.397  -2.695  -8.984  1.00  0.00    -0.248 NA
ATOM     55  C   UNL     1      10.094  -5.005  -8.835  1.00  0.00     0.031 C 
ATOM     56  C   UNL     1      14.308  -0.742  -9.805  1.00  0.00     0.029 A 
ATOM     57  C   UNL     1      13.101  -1.373  -9.549  1.00  0.00     0.049 A 
ATOM     58  H   UNL     1      11.191  -0.524  -9.271  1.00  0.00     0.167 HD
ATOM     59  C   UNL     1      11.623  -3.327  -9.152  1.00  0.00     0.074 A 
ATOM     60  C   UNL     1      11.381  -4.748  -9.017  1.00  0.00     0.031 C 
ATOM     61  C   UNL     1      12.838  -2.783  -9.410  1.00  0.00     0.037 A 
BRANCH  48  62
ATOM     62  C   UNL     1      12.797   3.386  -9.830  1.00  0.00     0.057 A 
ATOM     63  C   UNL     1      13.009   4.313  -8.803  1.00  0.00     0.134 A 
ATOM     64  C   UNL     1      13.300   3.696 -11.100  1.00  0.00     0.134 A 
ATOM     65  F   UNL     1      12.523   4.089  -7.573  1.00  0.00    -0.206 F 
ATOM     66  C   UNL     1      13.680   5.515  -9.037  1.00  0.00     0.040 A 
ATOM     67  C   UNL     1      13.991   4.883 -11.340  1.00  0.00     0.040 A 
ATOM     68  F   UNL     1      13.119   2.853 -12.128  1.00  0.00    -0.206 F 
ATOM     69  C   UNL     1      14.176   5.800 -10.308  1.00  0.00     0.006 A 
ENDBRANCH  48  62
BRANCH  49  70
ATOM     70  C   UNL     1       7.225  -4.771  -8.312  1.00  0.00     0.057 A 
ATOM     71  C   UNL     1       7.413  -5.535  -7.153  1.00  0.00     0.134 A 
ATOM     72  C   UNL     1       6.284  -5.239  -9.239  1.00  0.00     0.134 A 
ATOM     73  F   UNL     1       8.320  -5.162  -6.238  1.00  0.00    -0.206 F 
ATOM     74  C   UNL     1       6.712  -6.723  -6.935  1.00  0.00     0.040 A 
ATOM     75  C   UNL     1       5.554  -6.408  -9.020  1.00  0.00     0.040 A 
ATOM     76  F   UNL     1       6.059  -4.563 -10.376  1.00  0.00    -0.206 F 
ATOM     77  C   UNL     1       5.775  -7.160  -7.869  1.00  0.00     0.006 A 
ENDBRANCH  49  70
BRANCH  61  78
ATOM     78  C   UNL     1      13.998  -3.724  -9.546  1.00  0.00     0.057 A 
ATOM     79  C   UNL     1      14.158  -4.542 -10.671  1.00  0.00     0.134 A 
ATOM     80  C   UNL     1      14.995  -3.772  -8.563  1.00  0.00     0.134 A 
ATOM     81  F   UNL     1      13.232  -4.550 -11.643  1.00  0.00    -0.206 F 
ATOM     82  C   UNL     1      15.259  -5.388 -10.807  1.00  0.00     0.040 A 
ATOM     83  C   UNL     1      16.114  -4.594  -8.700  1.00  0.00     0.040 A 
ATOM     84  F   UNL     1      14.907  -3.006  -7.465  1.00  0.00    -0.206 F 
ATOM     85  C   UNL     1      16.245  -5.409  -9.822  1.00  0.00     0.006 A 
ENDBRANCH  61  78
ENDBRANCH  35  36
ENDBRANCH  28  30
ENDBRANCH  27  28
ENDBRANCH   1  27
TORSDOF 14
