REMARK SMILES Cc1cc(C)c2c(=O)n(CCCC(=O)OCCOC(=O)c3ccc(-c4c5nc(c(-c6c(F)cccc6F)c6ccc([nH]6)c(-c6c(F)cccc6F)c6nc(c(-c7c(F)cccc7F)c7ccc4[nH]7)C=C6)C=C5)cc3)sc2n1
REMARK SMILES IDX 16 1 15 2 13 3 14 4 12 5 11 6 10 7 9 8 1 9 2 10 3 11 77 12
REMARK SMILES IDX 4 13 76 14 5 15 6 16 75 17 7 18 8 19 17 20 18 21 19 22 20 23
REMARK SMILES IDX 21 24 22 25 74 26 23 27 73 28 24 29 25 30 26 31 67 32 27 33
REMARK SMILES IDX 72 34 66 35 68 36 28 37 71 38 65 39 64 40 29 42 55 43 38 44
REMARK SMILES IDX 54 45 39 46 42 47 53 48 69 49 40 50 41 51 52 53 70 54 43 55
REMARK SMILES IDX 30 56 31 57 36 58 32 59 33 60 35 61 37 62 34 63 56 64 57 65
REMARK SMILES IDX 62 66 58 67 59 68 61 69 63 70 60 71 44 72 45 73 50 74 46 75
REMARK SMILES IDX 47 76 49 77 51 78 48 79
REMARK H PARENT 68 41 42 52
REMARK Flexibility Score: inf
ROOT
ATOM      1  C   UNL     1      -3.767  -3.300  -5.592  1.00  0.00     0.274 C 
ENDROOT
BRANCH   1   2
ATOM      2  O   UNL     1      -3.776  -3.740  -4.225  1.00  0.00    -0.462 OA
BRANCH   2   3
ATOM      3  C   UNL     1      -4.790  -3.361  -3.413  1.00  0.00     0.305 C 
ATOM      4  O   UNL     1      -5.696  -2.605  -3.744  1.00  0.00    -0.252 OA
BRANCH   3   5
ATOM      5  C   UNL     1      -4.657  -3.920  -2.006  1.00  0.00     0.124 C 
BRANCH   5   6
ATOM      6  C   UNL     1      -3.991  -5.286  -1.779  1.00  0.00     0.035 C 
BRANCH   6   7
ATOM      7  C   UNL     1      -2.612  -5.572  -2.396  1.00  0.00     0.139 C 
BRANCH   7   8
ATOM      8  N   UNL     1      -1.554  -4.668  -1.975  1.00  0.00    -0.262 N 
ATOM      9  C   UNL     1       1.512   0.112   0.180  1.00  0.00     0.067 C 
ATOM     10  C   UNL     1       1.153  -1.290  -0.204  1.00  0.00     0.039 A 
ATOM     11  C   UNL     1       1.783  -2.391   0.395  1.00  0.00     0.027 A 
ATOM     12  N   UNL     1       0.162  -1.420  -1.108  1.00  0.00    -0.241 NA
ATOM     13  C   UNL     1       1.355  -3.697   0.099  1.00  0.00    -0.033 A 
ATOM     14  C   UNL     1      -0.232  -2.677  -1.356  1.00  0.00     0.146 A 
ATOM     15  C   UNL     1       2.033  -4.893   0.687  1.00  0.00     0.045 C 
ATOM     16  C   UNL     1       0.276  -3.817  -0.763  1.00  0.00     0.081 A 
ATOM     17  S   UNL     1      -1.507  -3.041  -2.503  1.00  0.00    -0.035 S 
ATOM     18  C   UNL     1      -0.515  -5.016  -1.125  1.00  0.00     0.270 A 
ATOM     19  O   UNL     1      -0.284  -6.129  -0.671  1.00  0.00    -0.268 OA
ENDBRANCH   7   8
ENDBRANCH   6   7
ENDBRANCH   5   6
ENDBRANCH   3   5
ENDBRANCH   2   3
ENDBRANCH   1   2
BRANCH   1  20
ATOM     20  C   UNL     1      -4.321  -4.393  -6.490  1.00  0.00     0.275 C 
BRANCH  20  21
ATOM     21  O   UNL     1      -5.707  -4.585  -6.219  1.00  0.00    -0.458 OA
BRANCH  21  22
ATOM     22  C   UNL     1      -5.971  -5.474  -5.238  1.00  0.00     0.338 C 
ATOM     23  O   UNL     1      -5.176  -6.061  -4.525  1.00  0.00    -0.246 OA
BRANCH  22  24
ATOM     24  C   UNL     1      -7.400  -5.768  -5.228  1.00  0.00     0.060 A 
ATOM     25  C   UNL     1      -7.917  -6.437  -4.113  1.00  0.00     0.016 A 
ATOM     26  C   UNL     1      -8.112  -5.638  -6.425  1.00  0.00     0.016 A 
ATOM     27  C   UNL     1      -9.092  -7.137  -4.263  1.00  0.00     0.010 A 
ATOM     28  C   UNL     1      -9.274  -6.347  -6.577  1.00  0.00     0.010 A 
ATOM     29  C   UNL     1      -9.703  -7.149  -5.521  1.00  0.00    -0.014 A 
BRANCH  29  30
ATOM     30  C   UNL     1     -10.840  -8.017  -5.718  1.00  0.00     0.031 A 
ATOM     31  C   UNL     1     -12.096  -7.526  -5.112  1.00  0.00     0.074 A 
ATOM     32  C   UNL     1     -10.767  -9.088  -6.528  1.00  0.00     0.049 A 
ATOM     33  N   UNL     1     -12.836  -8.104  -4.227  1.00  0.00    -0.248 NA
ATOM     34  C   UNL     1     -12.523  -6.161  -5.463  1.00  0.00     0.031 C 
ATOM     35  C   UNL     1      -9.675  -9.470  -7.430  1.00  0.00     0.029 A 
ATOM     36  N   UNL     1     -11.730 -10.003  -6.805  1.00  0.00    -0.354 N 
ATOM     37  C   UNL     1     -13.921  -7.255  -4.036  1.00  0.00     0.074 A 
ATOM     38  C   UNL     1     -13.606  -6.019  -4.702  1.00  0.00     0.031 C 
ATOM     39  C   UNL     1     -10.130 -10.392  -8.308  1.00  0.00     0.029 A 
ATOM     40  C   UNL     1     -11.491 -10.751  -7.946  1.00  0.00     0.049 A 
ATOM     41  H   UNL     1     -12.530 -10.124  -6.244  1.00  0.00     0.167 HD
ATOM     42  C   UNL     1     -15.098  -7.705  -3.531  1.00  0.00     0.037 A 
ATOM     43  C   UNL     1     -12.393 -11.533  -8.586  1.00  0.00     0.037 A 
ATOM     44  C   UNL     1     -14.943  -8.955  -2.842  1.00  0.00     0.049 A 
ATOM     45  C   UNL     1     -13.505 -11.802  -7.638  1.00  0.00     0.074 A 
ATOM     46  C   UNL     1     -14.215  -9.368  -1.744  1.00  0.00     0.029 A 
ATOM     47  N   UNL     1     -15.328 -10.101  -3.492  1.00  0.00    -0.354 N 
ATOM     48  N   UNL     1     -13.399 -12.535  -6.565  1.00  0.00    -0.248 NA
ATOM     49  C   UNL     1     -14.648 -10.899  -7.662  1.00  0.00     0.031 C 
ATOM     50  C   UNL     1     -13.806 -10.698  -2.049  1.00  0.00     0.029 A 
ATOM     51  C   UNL     1     -14.337 -11.028  -3.298  1.00  0.00     0.049 A 
ATOM     52  H   UNL     1     -16.159 -10.232  -4.003  1.00  0.00     0.167 HD
ATOM     53  C   UNL     1     -14.199 -11.907  -5.622  1.00  0.00     0.074 A 
ATOM     54  C   UNL     1     -15.021 -10.970  -6.382  1.00  0.00     0.031 C 
ATOM     55  C   UNL     1     -13.927 -11.999  -4.287  1.00  0.00     0.037 A 
BRANCH  42  56
ATOM     56  C   UNL     1     -16.437  -7.178  -3.965  1.00  0.00     0.057 A 
ATOM     57  C   UNL     1     -17.586  -7.522  -3.237  1.00  0.00     0.134 A 
ATOM     58  C   UNL     1     -16.672  -6.581  -5.221  1.00  0.00     0.134 A 
ATOM     59  F   UNL     1     -17.489  -8.127  -2.043  1.00  0.00    -0.206 F 
ATOM     60  C   UNL     1     -18.876  -7.331  -3.744  1.00  0.00     0.040 A 
ATOM     61  C   UNL     1     -17.954  -6.334  -5.713  1.00  0.00     0.040 A 
ATOM     62  F   UNL     1     -15.681  -6.302  -6.078  1.00  0.00    -0.206 F 
ATOM     63  C   UNL     1     -19.063  -6.736  -4.987  1.00  0.00     0.006 A 
ENDBRANCH  42  56
BRANCH  43  64
ATOM     64  C   UNL     1     -12.509 -11.782 -10.040  1.00  0.00     0.057 A 
ATOM     65  C   UNL     1     -13.274 -12.848 -10.530  1.00  0.00     0.134 A 
ATOM     66  C   UNL     1     -12.091 -10.833 -10.991  1.00  0.00     0.134 A 
ATOM     67  F   UNL     1     -13.754 -13.780  -9.694  1.00  0.00    -0.206 F 
ATOM     68  C   UNL     1     -13.620 -12.956 -11.883  1.00  0.00     0.040 A 
ATOM     69  C   UNL     1     -12.421 -10.934 -12.346  1.00  0.00     0.040 A 
ATOM     70  F   UNL     1     -11.425  -9.729 -10.626  1.00  0.00    -0.206 F 
ATOM     71  C   UNL     1     -13.201 -11.991 -12.795  1.00  0.00     0.006 A 
ENDBRANCH  43  64
BRANCH  55  72
ATOM     72  C   UNL     1     -12.905 -13.005  -3.839  1.00  0.00     0.057 A 
ATOM     73  C   UNL     1     -11.542 -12.924  -4.158  1.00  0.00     0.134 A 
ATOM     74  C   UNL     1     -13.279 -13.966  -2.892  1.00  0.00     0.134 A 
ATOM     75  F   UNL     1     -11.077 -11.974  -4.979  1.00  0.00    -0.206 F 
ATOM     76  C   UNL     1     -10.598 -13.777  -3.578  1.00  0.00     0.040 A 
ATOM     77  C   UNL     1     -12.341 -14.802  -2.281  1.00  0.00     0.040 A 
ATOM     78  F   UNL     1     -14.558 -14.062  -2.495  1.00  0.00    -0.206 F 
ATOM     79  C   UNL     1     -10.996 -14.711  -2.627  1.00  0.00     0.006 A 
ENDBRANCH  55  72
ENDBRANCH  29  30
ENDBRANCH  22  24
ENDBRANCH  21  22
ENDBRANCH  20  21
ENDBRANCH   1  20
TORSDOF 14
