REMARK SMILES C[C@H]([NH3+])c1ccc(F)cc1OCC(C)(C)C(=O)OCCOC(=O)c1ccc(-c2c3nc(c(-c4c(F)cccc4F)c4ccc([nH]4)c(-c4c(F)cccc4F)c4nc(c(-c5c(F)cccc5F)c5ccc2[nH]5)C=C4)C=C3)cc1
REMARK SMILES IDX 18 1 16 2 17 3 13 4 14 5 15 6 12 7 11 8 10 9 4 10 5 11 6 12
REMARK SMILES IDX 9 13 7 14 8 15 2 16 1 17 3 18 19 22 20 23 21 24 22 25 23 26
REMARK SMILES IDX 24 27 25 28 77 29 26 30 76 31 27 32 28 33 29 34 70 35 30 36
REMARK SMILES IDX 75 37 69 38 71 39 31 40 74 41 68 42 67 43 32 45 58 46 41 47
REMARK SMILES IDX 57 48 42 49 45 50 56 51 72 52 43 53 44 54 55 56 73 57 46 58
REMARK SMILES IDX 33 59 34 60 39 61 35 62 36 63 38 64 40 65 37 66 59 67 60 68
REMARK SMILES IDX 65 69 61 70 62 71 64 72 66 73 63 74 47 75 48 76 53 77 49 78
REMARK SMILES IDX 50 79 52 80 54 81 51 82
REMARK H PARENT 3 19 3 20 3 21 71 44 45 55
REMARK Flexibility Score: inf
ROOT
ATOM      1  O   UNL     1       1.025  -4.169   2.393  1.00  0.00    -0.462 OA
ENDROOT
BRANCH   1   2
ATOM      2  C   UNL     1       0.348  -2.986   2.437  1.00  0.00     0.315 C 
ATOM      3  O   UNL     1      -0.836  -2.893   2.731  1.00  0.00    -0.251 OA
BRANCH   2   4
ATOM      4  C   UNL     1       1.219  -1.817   1.958  1.00  0.00     0.096 C 
ATOM      5  C   UNL     1       0.978  -1.709   0.448  1.00  0.00     0.027 C 
ATOM      6  C   UNL     1       2.719  -2.100   2.197  1.00  0.00     0.027 C 
BRANCH   4   7
ATOM      7  C   UNL     1       0.901  -0.518   2.744  1.00  0.00     0.247 C 
BRANCH   7   8
ATOM      8  O   UNL     1      -0.456  -0.121   2.862  1.00  0.00    -0.492 OA
BRANCH   8   9
ATOM      9  C   UNL     1      -1.234   0.407   1.879  1.00  0.00     0.131 A 
ATOM     10  C   UNL     1      -0.897   1.244   0.797  1.00  0.00     0.051 A 
ATOM     11  C   UNL     1      -1.956   1.707  -0.031  1.00  0.00     0.017 A 
ATOM     12  C   UNL     1      -3.286   1.355   0.192  1.00  0.00     0.040 A 
ATOM     13  C   UNL     1      -2.586   0.081   2.102  1.00  0.00     0.086 A 
ATOM     14  C   UNL     1      -3.591   0.544   1.266  1.00  0.00     0.126 A 
ATOM     15  F   UNL     1      -4.866   0.216   1.509  1.00  0.00    -0.207 F 
BRANCH  10  16
ATOM     16  C   UNL     1       0.495   1.774   0.504  1.00  0.00     0.212 C 
ATOM     17  C   UNL     1       0.772   3.058   1.281  1.00  0.00     0.081 C 
BRANCH  16  18
ATOM     18  N   UNL     1       0.735   1.995  -0.931  1.00  0.00    -0.351 N 
ATOM     19  H   UNL     1       0.103   2.718  -1.274  1.00  0.00     0.345 HD
ATOM     20  H   UNL     1       0.569   1.127  -1.441  1.00  0.00     0.345 HD
ATOM     21  H   UNL     1       1.700   2.292  -1.072  1.00  0.00     0.345 HD
ENDBRANCH  16  18
ENDBRANCH  10  16
ENDBRANCH   8   9
ENDBRANCH   7   8
ENDBRANCH   4   7
ENDBRANCH   2   4
ENDBRANCH   1   2
BRANCH   1  22
ATOM     22  C   UNL     1       0.265  -5.360   2.675  1.00  0.00     0.274 C 
BRANCH  22  23
ATOM     23  C   UNL     1       0.535  -5.863   4.090  1.00  0.00     0.275 C 
BRANCH  23  24
ATOM     24  O   UNL     1       0.020  -4.931   5.058  1.00  0.00    -0.458 OA
BRANCH  24  25
ATOM     25  C   UNL     1       0.953  -4.242   5.752  1.00  0.00     0.338 C 
ATOM     26  O   UNL     1       2.164  -4.355   5.693  1.00  0.00    -0.246 OA
BRANCH  25  27
ATOM     27  C   UNL     1       0.300  -3.223   6.585  1.00  0.00     0.060 A 
ATOM     28  C   UNL     1      -0.102  -2.038   5.979  1.00  0.00     0.016 A 
ATOM     29  C   UNL     1       0.257  -3.353   7.971  1.00  0.00     0.016 A 
ATOM     30  C   UNL     1      -0.442  -0.935   6.754  1.00  0.00     0.010 A 
ATOM     31  C   UNL     1      -0.181  -2.272   8.748  1.00  0.00     0.010 A 
ATOM     32  C   UNL     1      -0.487  -1.034   8.151  1.00  0.00    -0.014 A 
BRANCH  32  33
ATOM     33  C   UNL     1      -0.777   0.175   8.974  1.00  0.00     0.031 A 
ATOM     34  C   UNL     1       0.237   0.679   9.969  1.00  0.00     0.074 A 
ATOM     35  C   UNL     1      -1.919   0.871   8.794  1.00  0.00     0.049 A 
ATOM     36  N   UNL     1       0.119   1.627  10.866  1.00  0.00    -0.248 NA
ATOM     37  C   UNL     1       1.556   0.025   9.964  1.00  0.00     0.031 C 
ATOM     38  C   UNL     1      -2.969   0.544   7.829  1.00  0.00     0.029 A 
ATOM     39  N   UNL     1      -2.372   2.017   9.400  1.00  0.00    -0.354 N 
ATOM     40  C   UNL     1       1.318   1.640  11.567  1.00  0.00     0.074 A 
ATOM     41  C   UNL     1       2.154   0.608  10.993  1.00  0.00     0.031 C 
ATOM     42  C   UNL     1      -3.908   1.501   7.860  1.00  0.00     0.029 A 
ATOM     43  C   UNL     1      -3.573   2.463   8.905  1.00  0.00     0.049 A 
ATOM     44  H   UNL     1      -1.883   2.475  10.121  1.00  0.00     0.167 HD
ATOM     45  C   UNL     1       1.689   2.438  12.597  1.00  0.00     0.037 A 
ATOM     46  C   UNL     1      -4.336   3.513   9.264  1.00  0.00     0.037 A 
ATOM     47  C   UNL     1       0.890   3.513  13.125  1.00  0.00     0.049 A 
ATOM     48  C   UNL     1      -3.906   4.384  10.408  1.00  0.00     0.074 A 
ATOM     49  C   UNL     1       1.180   4.368  14.175  1.00  0.00     0.029 A 
ATOM     50  N   UNL     1      -0.342   3.900  12.624  1.00  0.00    -0.354 N 
ATOM     51  N   UNL     1      -2.816   4.317  11.132  1.00  0.00    -0.248 NA
ATOM     52  C   UNL     1      -4.828   5.458  10.805  1.00  0.00     0.031 C 
ATOM     53  C   UNL     1       0.114   5.262  14.320  1.00  0.00     0.029 A 
ATOM     54  C   UNL     1      -0.825   4.983  13.341  1.00  0.00     0.049 A 
ATOM     55  H   UNL     1      -0.806   3.469  11.870  1.00  0.00     0.167 HD
ATOM     56  C   UNL     1      -2.923   5.332  12.072  1.00  0.00     0.074 A 
ATOM     57  C   UNL     1      -4.169   6.021  11.809  1.00  0.00     0.031 C 
ATOM     58  C   UNL     1      -2.070   5.653  13.074  1.00  0.00     0.037 A 
BRANCH  45  59
ATOM     59  C   UNL     1       3.014   2.165  13.244  1.00  0.00     0.057 A 
ATOM     60  C   UNL     1       3.071   1.569  14.510  1.00  0.00     0.134 A 
ATOM     61  C   UNL     1       4.224   2.531  12.645  1.00  0.00     0.134 A 
ATOM     62  F   UNL     1       1.946   1.199  15.141  1.00  0.00    -0.206 F 
ATOM     63  C   UNL     1       4.287   1.354  15.162  1.00  0.00     0.040 A 
ATOM     64  C   UNL     1       5.448   2.302  13.277  1.00  0.00     0.040 A 
ATOM     65  F   UNL     1       4.238   3.092  11.426  1.00  0.00    -0.206 F 
ATOM     66  C   UNL     1       5.480   1.718  14.543  1.00  0.00     0.006 A 
ENDBRANCH  45  59
BRANCH  46  67
ATOM     67  C   UNL     1      -5.605   3.781   8.542  1.00  0.00     0.057 A 
ATOM     68  C   UNL     1      -6.714   2.936   8.675  1.00  0.00     0.134 A 
ATOM     69  C   UNL     1      -5.728   4.881   7.688  1.00  0.00     0.134 A 
ATOM     70  F   UNL     1      -6.657   1.866   9.481  1.00  0.00    -0.206 F 
ATOM     71  C   UNL     1      -7.892   3.162   7.963  1.00  0.00     0.040 A 
ATOM     72  C   UNL     1      -6.909   5.133   6.988  1.00  0.00     0.040 A 
ATOM     73  F   UNL     1      -4.708   5.740   7.542  1.00  0.00    -0.206 F 
ATOM     74  C   UNL     1      -7.992   4.266   7.118  1.00  0.00     0.006 A 
ENDBRANCH  46  67
BRANCH  58  75
ATOM     75  C   UNL     1      -2.456   6.798  13.960  1.00  0.00     0.057 A 
ATOM     76  C   UNL     1      -1.809   8.036  13.856  1.00  0.00     0.134 A 
ATOM     77  C   UNL     1      -3.445   6.662  14.941  1.00  0.00     0.134 A 
ATOM     78  F   UNL     1      -0.847   8.227  12.941  1.00  0.00    -0.206 F 
ATOM     79  C   UNL     1      -2.131   9.098  14.701  1.00  0.00     0.040 A 
ATOM     80  C   UNL     1      -3.790   7.723  15.780  1.00  0.00     0.040 A 
ATOM     81  F   UNL     1      -4.108   5.504  15.081  1.00  0.00    -0.206 F 
ATOM     82  C   UNL     1      -3.128   8.944  15.664  1.00  0.00     0.006 A 
ENDBRANCH  58  75
ENDBRANCH  32  33
ENDBRANCH  25  27
ENDBRANCH  24  25
ENDBRANCH  23  24
ENDBRANCH  22  23
ENDBRANCH   1  22
TORSDOF 16
