REMARK SMILES CC[NH2+][C@@]1(C(=O)OCCOC(=O)c2ccc(-c3c4nc(c(-c5c(F)cccc5F)c5ccc([nH]5)c(-c5c(F)cccc5F)c5nc(c(-c6c(F)cccc6F)c6ccc3[nH]6)C=C5)C=C4)cc2)CC[C@H](Sc2nccc(=O)[nH]2)C1
REMARK SMILES IDX 8 1 7 2 5 3 6 4 4 5 67 6 78 7 68 8 69 9 3 10 2 13 1 14 70 15
REMARK SMILES IDX 71 16 72 17 77 18 73 19 75 20 74 22 76 23 9 24 10 25 11 26
REMARK SMILES IDX 12 27 13 28 14 29 66 30 15 31 65 32 16 33 17 34 18 35 59 36
REMARK SMILES IDX 19 37 64 38 58 39 60 40 20 41 63 42 57 43 56 44 21 46 47 47
REMARK SMILES IDX 30 48 46 49 31 50 34 51 45 52 61 53 32 54 33 55 44 57 62 58
REMARK SMILES IDX 35 59 22 60 23 61 28 62 24 63 25 64 27 65 29 66 26 67 48 68
REMARK SMILES IDX 49 69 54 70 50 71 51 72 53 73 55 74 52 75 36 76 37 77 42 78
REMARK SMILES IDX 38 79 39 80 41 81 43 82 40 83
REMARK H PARENT 3 11 3 12 77 21 60 45 34 56
REMARK Flexibility Score: inf
ROOT
ATOM      1  C   UNL     1      -0.392  -3.719   5.606  1.00  0.00     0.274 C 
ENDROOT
BRANCH   1   2
ATOM      2  O   UNL     1       0.012  -3.946   4.242  1.00  0.00    -0.457 OA
BRANCH   2   3
ATOM      3  C   UNL     1      -0.405  -3.049   3.309  1.00  0.00     0.368 C 
ATOM      4  O   UNL     1      -1.102  -2.071   3.566  1.00  0.00    -0.245 OA
BRANCH   3   5
ATOM      5  C   UNL     1       0.057  -3.428   1.857  1.00  0.00     0.195 C 
ATOM      6  C   UNL     1      -1.173  -3.998   1.136  1.00  0.00     0.082 C 
ATOM      7  C   UNL     1       1.052  -4.605   1.788  1.00  0.00     0.096 C 
ATOM      8  C   UNL     1      -1.257  -5.425   1.671  1.00  0.00     0.022 C 
ATOM      9  C   UNL     1       0.203  -5.894   1.740  1.00  0.00     0.062 C 
BRANCH   5  10
ATOM     10  N   UNL     1       0.688  -2.213   1.298  1.00  0.00    -0.332 N 
ATOM     11  H   UNL     1       0.496  -1.448   1.945  1.00  0.00     0.347 HD
ATOM     12  H   UNL     1       1.669  -2.466   1.186  1.00  0.00     0.347 HD
BRANCH  10  13
ATOM     13  C   UNL     1       0.276  -1.773  -0.023  1.00  0.00     0.257 C 
ATOM     14  C   UNL     1       0.918  -0.424  -0.323  1.00  0.00     0.071 C 
ENDBRANCH  10  13
ENDBRANCH   5  10
BRANCH   9  15
ATOM     15  S   UNL     1       0.594  -6.970   3.156  1.00  0.00    -0.084 SA
BRANCH  15  16
ATOM     16  C   UNL     1      -0.558  -8.250   2.983  1.00  0.00     0.168 A 
ATOM     17  N   UNL     1      -1.227  -8.477   1.904  1.00  0.00    -0.233 NA
ATOM     18  N   UNL     1      -0.673  -8.975   4.127  1.00  0.00    -0.301 N 
ATOM     19  C   UNL     1      -2.122  -9.514   1.956  1.00  0.00     0.120 A 
ATOM     20  C   UNL     1      -1.543 -10.014   4.233  1.00  0.00     0.251 A 
ATOM     21  H   UNL     1      -0.111  -8.741   4.900  1.00  0.00     0.172 HD
ATOM     22  C   UNL     1      -2.334 -10.289   3.024  1.00  0.00     0.091 A 
ATOM     23  O   UNL     1      -1.677 -10.678   5.253  1.00  0.00    -0.269 OA
ENDBRANCH  15  16
ENDBRANCH   9  15
ENDBRANCH   3   5
ENDBRANCH   2   3
ENDBRANCH   1   2
BRANCH   1  24
ATOM     24  C   UNL     1       0.818  -3.369   6.468  1.00  0.00     0.275 C 
BRANCH  24  25
ATOM     25  O   UNL     1       1.330  -2.076   6.102  1.00  0.00    -0.458 OA
BRANCH  25  26
ATOM     26  C   UNL     1       2.395  -2.095   5.271  1.00  0.00     0.338 C 
ATOM     27  O   UNL     1       3.011  -3.061   4.856  1.00  0.00    -0.246 OA
BRANCH  26  28
ATOM     28  C   UNL     1       2.696  -0.723   4.851  1.00  0.00     0.060 A 
ATOM     29  C   UNL     1       2.067  -0.228   3.711  1.00  0.00     0.016 A 
ATOM     30  C   UNL     1       3.684   0.016   5.499  1.00  0.00     0.016 A 
ATOM     31  C   UNL     1       2.479   0.980   3.160  1.00  0.00     0.010 A 
ATOM     32  C   UNL     1       4.049   1.262   4.982  1.00  0.00     0.010 A 
ATOM     33  C   UNL     1       3.474   1.738   3.789  1.00  0.00    -0.014 A 
BRANCH  33  34
ATOM     34  C   UNL     1       3.955   3.000   3.173  1.00  0.00     0.031 A 
ATOM     35  C   UNL     1       5.378   3.101   2.698  1.00  0.00     0.074 A 
ATOM     36  C   UNL     1       3.124   4.048   3.022  1.00  0.00     0.049 A 
ATOM     37  N   UNL     1       6.053   4.157   2.325  1.00  0.00    -0.248 NA
ATOM     38  C   UNL     1       6.144   1.845   2.644  1.00  0.00     0.031 C 
ATOM     39  C   UNL     1       1.704   4.064   3.374  1.00  0.00     0.029 A 
ATOM     40  N   UNL     1       3.360   5.307   2.529  1.00  0.00    -0.354 N 
ATOM     41  C   UNL     1       7.337   3.705   2.049  1.00  0.00     0.074 A 
ATOM     42  C   UNL     1       7.344   2.277   2.283  1.00  0.00     0.031 C 
ATOM     43  C   UNL     1       1.190   5.265   3.067  1.00  0.00     0.029 A 
ATOM     44  C   UNL     1       2.258   6.125   2.567  1.00  0.00     0.049 A 
ATOM     45  H   UNL     1       4.235   5.596   2.182  1.00  0.00     0.167 HD
ATOM     46  C   UNL     1       8.413   4.422   1.647  1.00  0.00     0.037 A 
ATOM     47  C   UNL     1       2.132   7.432   2.272  1.00  0.00     0.037 A 
ATOM     48  C   UNL     1       8.389   5.833   1.367  1.00  0.00     0.049 A 
ATOM     49  C   UNL     1       3.341   8.210   1.843  1.00  0.00     0.074 A 
ATOM     50  C   UNL     1       9.431   6.655   0.973  1.00  0.00     0.029 A 
ATOM     51  N   UNL     1       7.254   6.626   1.429  1.00  0.00    -0.354 N 
ATOM     52  N   UNL     1       4.573   7.795   1.675  1.00  0.00    -0.248 NA
ATOM     53  C   UNL     1       3.149   9.645   1.587  1.00  0.00     0.031 C 
ATOM     54  C   UNL     1       8.928   7.951   0.810  1.00  0.00     0.029 A 
ATOM     55  C   UNL     1       7.569   7.928   1.079  1.00  0.00     0.049 A 
ATOM     56  H   UNL     1       6.357   6.310   1.685  1.00  0.00     0.167 HD
ATOM     57  C   UNL     1       5.301   8.912   1.292  1.00  0.00     0.074 A 
ATOM     58  C   UNL     1       4.371  10.021   1.234  1.00  0.00     0.031 C 
ATOM     59  C   UNL     1       6.625   9.012   1.021  1.00  0.00     0.037 A 
BRANCH  46  60
ATOM     60  C   UNL     1       9.716   3.694   1.526  1.00  0.00     0.057 A 
ATOM     61  C   UNL     1      10.003   2.860   0.439  1.00  0.00     0.134 A 
ATOM     62  C   UNL     1      10.705   3.848   2.505  1.00  0.00     0.134 A 
ATOM     63  F   UNL     1       9.090   2.657  -0.522  1.00  0.00    -0.206 F 
ATOM     64  C   UNL     1      11.226   2.193   0.338  1.00  0.00     0.040 A 
ATOM     65  C   UNL     1      11.937   3.201   2.407  1.00  0.00     0.040 A 
ATOM     66  F   UNL     1      10.490   4.634   3.571  1.00  0.00    -0.206 F 
ATOM     67  C   UNL     1      12.198   2.367   1.321  1.00  0.00     0.006 A 
ENDBRANCH  46  60
BRANCH  47  68
ATOM     68  C   UNL     1       0.813   8.094   2.416  1.00  0.00     0.057 A 
ATOM     69  C   UNL     1       0.072   8.476   1.294  1.00  0.00     0.134 A 
ATOM     70  C   UNL     1       0.260   8.350   3.677  1.00  0.00     0.134 A 
ATOM     71  F   UNL     1       0.562   8.277   0.061  1.00  0.00    -0.206 F 
ATOM     72  C   UNL     1      -1.174   9.092   1.419  1.00  0.00     0.040 A 
ATOM     73  C   UNL     1      -0.993   8.945   3.816  1.00  0.00     0.040 A 
ATOM     74  F   UNL     1       0.924   8.006   4.790  1.00  0.00    -0.206 F 
ATOM     75  C   UNL     1      -1.713   9.322   2.684  1.00  0.00     0.006 A 
ENDBRANCH  47  68
BRANCH  59  76
ATOM     76  C   UNL     1       7.135  10.360   0.618  1.00  0.00     0.057 A 
ATOM     77  C   UNL     1       7.380  11.362   1.565  1.00  0.00     0.134 A 
ATOM     78  C   UNL     1       7.415  10.646  -0.723  1.00  0.00     0.134 A 
ATOM     79  F   UNL     1       7.119  11.149   2.863  1.00  0.00    -0.206 F 
ATOM     80  C   UNL     1       7.878  12.610   1.188  1.00  0.00     0.040 A 
ATOM     81  C   UNL     1       7.926  11.885  -1.110  1.00  0.00     0.040 A 
ATOM     82  F   UNL     1       7.202   9.724  -1.674  1.00  0.00    -0.206 F 
ATOM     83  C   UNL     1       8.156  12.872  -0.153  1.00  0.00     0.006 A 
ENDBRANCH  59  76
ENDBRANCH  33  34
ENDBRANCH  26  28
ENDBRANCH  25  26
ENDBRANCH  24  25
ENDBRANCH   1  24
TORSDOF 15
