REMARK SMILES Cc1c(C(=O)OCCOC(=O)c2ccc(-c3c4nc(c(-c5c(F)cccc5F)c5ccc([nH]5)c(-c5c(F)cccc5F)c5nc(c(-c6c(F)cccc6F)c6ccc3[nH]6)C=C5)C=C4)cc2)cccc1N1[C@@H](C)C=C(/C=C(\C#N)C(=O)NCCc2c[nH]c3ccccc23)[C@@H]1C
REMARK SMILES IDX 4 1 5 2 3 3 1 4 2 5 69 6 66 7 68 8 67 9 70 10 71 11 93 12
REMARK SMILES IDX 73 13 72 14 74 15 94 16 75 17 76 18 77 19 78 20 79 21 80 22
REMARK SMILES IDX 81 23 82 25 83 26 84 27 85 28 92 29 86 30 87 31 91 32 88 34
REMARK SMILES IDX 90 35 89 36 6 37 7 38 8 39 9 40 10 41 11 42 12 43 13 44
REMARK SMILES IDX 65 45 14 46 64 47 15 48 16 49 17 50 58 51 18 52 63 53 57 54
REMARK SMILES IDX 59 55 19 56 62 57 56 58 55 59 20 61 46 62 29 63 45 64 30 65
REMARK SMILES IDX 33 66 44 67 60 68 31 69 32 70 43 72 61 73 34 74 21 75 22 76
REMARK SMILES IDX 27 77 23 78 24 79 26 80 28 81 25 82 47 83 48 84 53 85 49 86
REMARK SMILES IDX 50 87 52 88 54 89 51 90 35 91 36 92 41 93 37 94 38 95 40 96
REMARK SMILES IDX 42 97 39 98
REMARK H PARENT 81 24 86 33 59 60 33 71
REMARK Flexibility Score: inf
ROOT
ATOM      1  C   UNL     1       1.906  -1.460   0.882  1.00  0.00     0.338 C 
ATOM      2  O   UNL     1       2.679  -1.550  -0.062  1.00  0.00    -0.246 OA
ENDROOT
BRANCH   1   3
ATOM      3  C   UNL     1       0.866  -0.428   0.864  1.00  0.00     0.065 A 
ATOM      4  C   UNL     1       2.795   1.141   0.607  1.00  0.00     0.047 C 
ATOM      5  C   UNL     1       1.313   0.851   0.500  1.00  0.00    -0.013 A 
ATOM      6  C   UNL     1       0.361   1.803   0.106  1.00  0.00     0.041 A 
ATOM      7  C   UNL     1      -0.495  -0.720   0.997  1.00  0.00     0.016 A 
ATOM      8  C   UNL     1      -1.004   1.452   0.110  1.00  0.00     0.026 A 
ATOM      9  C   UNL     1      -1.436   0.217   0.585  1.00  0.00     0.003 A 
BRANCH   6  10
ATOM     10  N   UNL     1       0.673   3.133  -0.082  1.00  0.00    -0.358 N 
ATOM     11  C   UNL     1       0.397   4.029   1.058  1.00  0.00     0.103 C 
ATOM     12  C   UNL     1       1.796   3.592  -0.912  1.00  0.00     0.110 C 
ATOM     13  C   UNL     1       1.536   4.982   0.958  1.00  0.00     0.003 C 
ATOM     14  C   UNL     1       0.467   3.367   2.446  1.00  0.00     0.035 C 
ATOM     15  C   UNL     1       2.390   4.659  -0.023  1.00  0.00    -0.026 C 
ATOM     16  C   UNL     1       1.273   4.131  -2.241  1.00  0.00     0.036 C 
BRANCH  15  17
ATOM     17  C   UNL     1       3.712   5.200  -0.234  1.00  0.00     0.031 C 
ATOM     18  C   UNL     1       4.504   5.805   0.679  1.00  0.00     0.117 C 
BRANCH  18  19
ATOM     19  C   UNL     1       4.141   5.974   2.048  1.00  0.00     0.105 C 
ATOM     20  N   UNL     1       3.831   6.138   3.144  1.00  0.00    -0.192 NA
ENDBRANCH  18  19
BRANCH  18  21
ATOM     21  C   UNL     1       5.669   6.540   0.120  1.00  0.00     0.261 C 
ATOM     22  O   UNL     1       5.960   6.468  -1.074  1.00  0.00    -0.268 OA
ATOM     23  N   UNL     1       6.248   7.516   0.871  1.00  0.00    -0.351 N 
ATOM     24  H   UNL     1       6.258   8.403   0.444  1.00  0.00     0.163 HD
BRANCH  23  25
ATOM     25  C   UNL     1       6.862   7.480   2.207  1.00  0.00     0.121 C 
BRANCH  25  26
ATOM     26  C   UNL     1       8.220   6.721   2.297  1.00  0.00     0.059 C 
BRANCH  26  27
ATOM     27  C   UNL     1       9.356   7.373   1.506  1.00  0.00    -0.021 A 
ATOM     28  C   UNL     1       9.371   8.732   1.193  1.00  0.00     0.087 A 
ATOM     29  C   UNL     1       9.932   6.840   0.308  1.00  0.00     0.003 A 
ATOM     30  N   UNL     1       8.780   8.682  -0.072  1.00  0.00    -0.361 N 
ATOM     31  C   UNL     1       9.267   7.550  -0.693  1.00  0.00     0.046 A 
ATOM     32  C   UNL     1      10.834   5.834  -0.076  1.00  0.00     0.010 A 
ATOM     33  H   UNL     1       8.140   9.329  -0.448  1.00  0.00     0.166 HD
ATOM     34  C   UNL     1       9.228   7.151  -2.025  1.00  0.00     0.026 A 
ATOM     35  C   UNL     1      10.978   5.563  -1.447  1.00  0.00     0.001 A 
ATOM     36  C   UNL     1      10.133   6.155  -2.391  1.00  0.00     0.002 A 
ENDBRANCH  26  27
ENDBRANCH  25  26
ENDBRANCH  23  25
ENDBRANCH  18  21
ENDBRANCH  15  17
ENDBRANCH   6  10
ENDBRANCH   1   3
BRANCH   1  37
ATOM     37  O   UNL     1       1.996  -2.153   2.037  1.00  0.00    -0.458 OA
BRANCH  37  38
ATOM     38  C   UNL     1       3.120  -3.042   2.022  1.00  0.00     0.275 C 
BRANCH  38  39
ATOM     39  C   UNL     1       2.803  -4.398   2.648  1.00  0.00     0.275 C 
BRANCH  39  40
ATOM     40  O   UNL     1       1.427  -4.889   2.630  1.00  0.00    -0.458 OA
BRANCH  40  41
ATOM     41  C   UNL     1       0.426  -4.596   1.761  1.00  0.00     0.338 C 
ATOM     42  O   UNL     1      -0.742  -4.510   2.118  1.00  0.00    -0.246 OA
BRANCH  41  43
ATOM     43  C   UNL     1       0.781  -4.383   0.349  1.00  0.00     0.060 A 
ATOM     44  C   UNL     1      -0.030  -3.565  -0.464  1.00  0.00     0.016 A 
ATOM     45  C   UNL     1       1.974  -4.901  -0.127  1.00  0.00     0.016 A 
ATOM     46  C   UNL     1       0.405  -3.173  -1.720  1.00  0.00     0.010 A 
ATOM     47  C   UNL     1       2.495  -4.369  -1.269  1.00  0.00     0.010 A 
ATOM     48  C   UNL     1       1.675  -3.585  -2.097  1.00  0.00    -0.014 A 
BRANCH  48  49
ATOM     49  C   UNL     1       2.142  -3.578  -3.466  1.00  0.00     0.031 A 
ATOM     50  C   UNL     1       2.686  -2.342  -4.040  1.00  0.00     0.074 A 
ATOM     51  C   UNL     1       2.151  -4.850  -3.935  1.00  0.00     0.049 A 
ATOM     52  N   UNL     1       2.577  -2.002  -5.276  1.00  0.00    -0.248 NA
ATOM     53  C   UNL     1       3.346  -1.301  -3.243  1.00  0.00     0.031 C 
ATOM     54  C   UNL     1       2.831  -5.524  -5.018  1.00  0.00     0.029 A 
ATOM     55  N   UNL     1       1.339  -5.873  -3.398  1.00  0.00    -0.354 N 
ATOM     56  C   UNL     1       3.554  -1.045  -5.475  1.00  0.00     0.074 A 
ATOM     57  C   UNL     1       3.794  -0.460  -4.184  1.00  0.00     0.031 C 
ATOM     58  C   UNL     1       2.171  -6.675  -5.283  1.00  0.00     0.029 A 
ATOM     59  C   UNL     1       0.975  -6.712  -4.445  1.00  0.00     0.049 A 
ATOM     60  H   UNL     1       1.078  -5.973  -2.454  1.00  0.00     0.167 HD
ATOM     61  C   UNL     1       4.317  -1.112  -6.605  1.00  0.00     0.037 A 
ATOM     62  C   UNL     1      -0.329  -6.615  -4.846  1.00  0.00     0.037 A 
ATOM     63  C   UNL     1       3.946  -2.311  -7.357  1.00  0.00     0.049 A 
ATOM     64  C   UNL     1      -0.423  -5.888  -6.171  1.00  0.00     0.074 A 
ATOM     65  C   UNL     1       4.489  -3.582  -7.432  1.00  0.00     0.029 A 
ATOM     66  N   UNL     1       2.650  -2.429  -7.812  1.00  0.00    -0.354 N 
ATOM     67  N   UNL     1       0.519  -5.128  -6.660  1.00  0.00    -0.248 NA
ATOM     68  C   UNL     1      -1.593  -5.946  -7.037  1.00  0.00     0.031 C 
ATOM     69  C   UNL     1       3.504  -4.452  -7.988  1.00  0.00     0.029 A 
ATOM     70  C   UNL     1       2.355  -3.716  -8.202  1.00  0.00     0.049 A 
ATOM     71  H   UNL     1       2.011  -1.681  -7.854  1.00  0.00     0.167 HD
ATOM     72  C   UNL     1       0.162  -4.678  -7.899  1.00  0.00     0.074 A 
ATOM     73  C   UNL     1      -1.207  -5.149  -8.050  1.00  0.00     0.031 C 
ATOM     74  C   UNL     1       1.019  -3.979  -8.706  1.00  0.00     0.037 A 
BRANCH  61  75
ATOM     75  C   UNL     1       5.586  -0.337  -6.872  1.00  0.00     0.057 A 
ATOM     76  C   UNL     1       6.577  -0.858  -7.731  1.00  0.00     0.134 A 
ATOM     77  C   UNL     1       5.875   0.941  -6.361  1.00  0.00     0.134 A 
ATOM     78  F   UNL     1       6.425  -2.030  -8.360  1.00  0.00    -0.206 F 
ATOM     79  C   UNL     1       7.780  -0.200  -8.008  1.00  0.00     0.040 A 
ATOM     80  C   UNL     1       7.090   1.604  -6.614  1.00  0.00     0.040 A 
ATOM     81  F   UNL     1       4.979   1.624  -5.635  1.00  0.00    -0.206 F 
ATOM     82  C   UNL     1       8.050   1.031  -7.438  1.00  0.00     0.006 A 
ENDBRANCH  61  75
BRANCH  62  83
ATOM     83  C   UNL     1      -1.283  -6.438  -3.685  1.00  0.00     0.057 A 
ATOM     84  C   UNL     1      -1.205  -7.333  -2.590  1.00  0.00     0.134 A 
ATOM     85  C   UNL     1      -2.007  -5.263  -3.462  1.00  0.00     0.134 A 
ATOM     86  F   UNL     1      -0.534  -8.491  -2.711  1.00  0.00    -0.206 F 
ATOM     87  C   UNL     1      -1.696  -7.016  -1.317  1.00  0.00     0.040 A 
ATOM     88  C   UNL     1      -2.541  -4.953  -2.199  1.00  0.00     0.040 A 
ATOM     89  F   UNL     1      -2.135  -4.342  -4.427  1.00  0.00    -0.206 F 
ATOM     90  C   UNL     1      -2.352  -5.809  -1.114  1.00  0.00     0.006 A 
ENDBRANCH  62  83
BRANCH  74  91
ATOM     91  C   UNL     1       0.660  -3.444 -10.066  1.00  0.00     0.057 A 
ATOM     92  C   UNL     1      -0.183  -4.122 -10.949  1.00  0.00     0.134 A 
ATOM     93  C   UNL     1       1.218  -2.246 -10.575  1.00  0.00     0.134 A 
ATOM     94  F   UNL     1      -0.621  -5.360 -10.681  1.00  0.00    -0.206 F 
ATOM     95  C   UNL     1      -0.577  -3.570 -12.171  1.00  0.00     0.040 A 
ATOM     96  C   UNL     1       0.881  -1.717 -11.817  1.00  0.00     0.040 A 
ATOM     97  F   UNL     1       2.112  -1.511  -9.903  1.00  0.00    -0.206 F 
ATOM     98  C   UNL     1      -0.055  -2.358 -12.604  1.00  0.00     0.006 A 
ENDBRANCH  74  91
ENDBRANCH  48  49
ENDBRANCH  41  43
ENDBRANCH  40  41
ENDBRANCH  39  40
ENDBRANCH  38  39
ENDBRANCH  37  38
ENDBRANCH   1  37
TORSDOF 18
