REMARK SMILES CCCc1cc2c(cc1Cl)C=C(C(=O)OCCOC(=O)c1ccc(-c3c4nc(c(-c5c(F)cccc5F)c5ccc([nH]5)c(-c5c(F)cccc5F)c5nc(c(-c6c(F)cccc6F)c6ccc3[nH]6)C=C5)C=C4)cc1)[C@H](C(F)(F)F)O2
REMARK SMILES IDX 16 1 15 2 13 3 14 4 12 5 4 6 5 7 9 8 6 9 8 10 10 11 7 12
REMARK SMILES IDX 80 13 11 14 75 15 3 16 2 17 1 18 76 19 77 20 78 21 79 22
REMARK SMILES IDX 17 23 18 24 19 25 20 26 21 27 22 28 74 29 23 30 73 31 24 32
REMARK SMILES IDX 25 33 26 34 67 35 27 36 72 37 66 38 68 39 28 40 71 41 65 42
REMARK SMILES IDX 64 43 29 45 55 46 38 47 54 48 39 49 42 50 53 51 69 52 40 53
REMARK SMILES IDX 41 54 52 56 70 57 43 58 30 59 31 60 36 61 32 62 33 63 35 64
REMARK SMILES IDX 37 65 34 66 56 67 57 68 62 69 58 70 59 71 61 72 63 73 60 74
REMARK SMILES IDX 44 75 45 76 50 77 46 78 47 79 49 80 51 81 48 82
REMARK H PARENT 68 44 42 55
REMARK Flexibility Score: inf
ROOT
ATOM      1  C   UNL     1      -2.097   1.217  10.221  1.00  0.00     0.275 C 
ENDROOT
BRANCH   1   2
ATOM      2  O   UNL     1      -1.746   0.387   9.091  1.00  0.00    -0.459 OA
BRANCH   2   3
ATOM      3  C   UNL     1      -2.025   0.904   7.873  1.00  0.00     0.338 C 
ATOM      4  O   UNL     1      -2.638   1.935   7.647  1.00  0.00    -0.246 OA
BRANCH   3   5
ATOM      5  C   UNL     1      -1.370   0.108   6.820  1.00  0.00     0.087 C 
ATOM      6  C   UNL     1       0.936  -1.340   2.596  1.00  0.00    -0.026 A 
ATOM      7  C   UNL     1       0.068  -1.982   3.510  1.00  0.00     0.052 A 
ATOM      8  C   UNL     1       1.351  -0.028   2.876  1.00  0.00     0.045 A 
ATOM      9  C   UNL     1      -0.411  -1.309   4.632  1.00  0.00     0.128 A 
ATOM     10  C   UNL     1       0.797   0.671   3.946  1.00  0.00     0.032 A 
ATOM     11  Cl  UNL     1       2.557   0.791   1.949  1.00  0.00    -0.084 Cl
ATOM     12  C   UNL     1      -0.111   0.038   4.795  1.00  0.00     0.019 A 
ATOM     13  O   UNL     1      -1.218  -1.988   5.510  1.00  0.00    -0.475 OA
ATOM     14  C   UNL     1      -0.805   0.789   5.817  1.00  0.00     0.027 C 
ATOM     15  C   UNL     1      -1.373  -1.395   6.845  1.00  0.00     0.316 C 
BRANCH   6  16
ATOM     16  C   UNL     1       1.348  -2.075   1.339  1.00  0.00     0.037 C 
BRANCH  16  17
ATOM     17  C   UNL     1       0.432  -1.801   0.135  1.00  0.00     0.001 C 
ATOM     18  C   UNL     1       0.636  -0.443  -0.525  1.00  0.00     0.004 C 
ENDBRANCH  16  17
ENDBRANCH   6  16
BRANCH  15  19
ATOM     19  C   UNL     1      -0.387  -2.014   7.859  1.00  0.00     0.430 C 
ATOM     20  F   UNL     1       0.515  -1.124   8.329  1.00  0.00    -0.167 F 
ATOM     21  F   UNL     1      -1.058  -2.511   8.929  1.00  0.00    -0.167 F 
ATOM     22  F   UNL     1       0.314  -3.044   7.328  1.00  0.00    -0.167 F 
ENDBRANCH  15  19
ENDBRANCH   3   5
ENDBRANCH   2   3
ENDBRANCH   1   2
BRANCH   1  23
ATOM     23  C   UNL     1      -0.869   1.963  10.744  1.00  0.00     0.275 C 
BRANCH  23  24
ATOM     24  O   UNL     1      -0.459   2.958   9.786  1.00  0.00    -0.458 OA
BRANCH  24  25
ATOM     25  C   UNL     1       0.818   2.884   9.352  1.00  0.00     0.338 C 
ATOM     26  O   UNL     1       1.678   2.084   9.689  1.00  0.00    -0.246 OA
BRANCH  25  27
ATOM     27  C   UNL     1       1.054   3.942   8.357  1.00  0.00     0.060 A 
ATOM     28  C   UNL     1       2.047   4.896   8.552  1.00  0.00     0.016 A 
ATOM     29  C   UNL     1       0.325   3.932   7.173  1.00  0.00     0.016 A 
ATOM     30  C   UNL     1       2.274   5.864   7.565  1.00  0.00     0.010 A 
ATOM     31  C   UNL     1       0.644   4.805   6.136  1.00  0.00     0.010 A 
ATOM     32  C   UNL     1       1.590   5.819   6.334  1.00  0.00    -0.014 A 
BRANCH  32  33
ATOM     33  C   UNL     1       1.801   6.853   5.278  1.00  0.00     0.031 A 
ATOM     34  C   UNL     1       0.633   7.664   4.762  1.00  0.00     0.074 A 
ATOM     35  C   UNL     1       3.025   7.046   4.745  1.00  0.00     0.049 A 
ATOM     36  N   UNL     1       0.598   8.553   3.798  1.00  0.00    -0.248 NA
ATOM     37  C   UNL     1      -0.678   7.415   5.383  1.00  0.00     0.031 C 
ATOM     38  C   UNL     1       4.233   6.297   5.093  1.00  0.00     0.029 A 
ATOM     39  N   UNL     1       3.454   7.941   3.794  1.00  0.00    -0.354 N 
ATOM     40  C   UNL     1      -0.736   8.925   3.672  1.00  0.00     0.074 A 
ATOM     41  C   UNL     1      -1.487   8.126   4.614  1.00  0.00     0.031 C 
ATOM     42  C   UNL     1       5.275   6.798   4.409  1.00  0.00     0.029 A 
ATOM     43  C   UNL     1       4.804   7.875   3.544  1.00  0.00     0.049 A 
ATOM     44  H   UNL     1       2.852   8.571   3.336  1.00  0.00     0.167 HD
ATOM     45  C   UNL     1      -1.290   9.868   2.872  1.00  0.00     0.037 A 
ATOM     46  C   UNL     1       5.577   8.604   2.716  1.00  0.00     0.037 A 
ATOM     47  C   UNL     1      -0.541  10.722   1.989  1.00  0.00     0.049 A 
ATOM     48  C   UNL     1       4.952   9.687   1.881  1.00  0.00     0.074 A 
ATOM     49  C   UNL     1      -0.999  11.758   1.194  1.00  0.00     0.029 A 
ATOM     50  N   UNL     1       0.830  10.648   1.801  1.00  0.00    -0.354 N 
ATOM     51  N   UNL     1       3.696  10.058   1.812  1.00  0.00    -0.248 NA
ATOM     52  C   UNL     1       5.854  10.457   1.011  1.00  0.00     0.031 C 
ATOM     53  C   UNL     1       0.094  12.300   0.510  1.00  0.00     0.029 A 
ATOM     54  C   UNL     1       1.235  11.621   0.904  1.00  0.00     0.049 A 
ATOM     55  H   UNL     1       1.427   9.999   2.241  1.00  0.00     0.167 HD
ATOM     56  C   UNL     1       3.662  11.117   0.915  1.00  0.00     0.074 A 
ATOM     57  C   UNL     1       5.023  11.339   0.474  1.00  0.00     0.031 C 
ATOM     58  C   UNL     1       2.597  11.841   0.493  1.00  0.00     0.037 A 
BRANCH  45  59
ATOM     59  C   UNL     1      -2.781  10.041   2.938  1.00  0.00     0.057 A 
ATOM     60  C   UNL     1      -3.595   9.665   1.862  1.00  0.00     0.134 A 
ATOM     61  C   UNL     1      -3.413  10.590   4.063  1.00  0.00     0.134 A 
ATOM     62  F   UNL     1      -3.057   9.142   0.750  1.00  0.00    -0.206 F 
ATOM     63  C   UNL     1      -4.982   9.819   1.907  1.00  0.00     0.040 A 
ATOM     64  C   UNL     1      -4.801  10.722   4.131  1.00  0.00     0.040 A 
ATOM     65  F   UNL     1      -2.693  10.961   5.133  1.00  0.00    -0.206 F 
ATOM     66  C   UNL     1      -5.590  10.339   3.048  1.00  0.00     0.006 A 
ENDBRANCH  45  59
BRANCH  46  67
ATOM     67  C   UNL     1       7.042   8.368   2.665  1.00  0.00     0.057 A 
ATOM     68  C   UNL     1       7.583   7.228   2.062  1.00  0.00     0.134 A 
ATOM     69  C   UNL     1       7.936   9.295   3.214  1.00  0.00     0.134 A 
ATOM     70  F   UNL     1       6.779   6.301   1.522  1.00  0.00    -0.206 F 
ATOM     71  C   UNL     1       8.962   7.014   2.011  1.00  0.00     0.040 A 
ATOM     72  C   UNL     1       9.317   9.105   3.151  1.00  0.00     0.040 A 
ATOM     73  F   UNL     1       7.477  10.417   3.788  1.00  0.00    -0.206 F 
ATOM     74  C   UNL     1       9.833   7.959   2.550  1.00  0.00     0.006 A 
ENDBRANCH  46  67
BRANCH  58  75
ATOM     75  C   UNL     1       2.866  12.966  -0.459  1.00  0.00     0.057 A 
ATOM     76  C   UNL     1       2.796  14.296  -0.025  1.00  0.00     0.134 A 
ATOM     77  C   UNL     1       3.155  12.737  -1.809  1.00  0.00     0.134 A 
ATOM     78  F   UNL     1       2.516  14.581   1.256  1.00  0.00    -0.206 F 
ATOM     79  C   UNL     1       2.999  15.360  -0.904  1.00  0.00     0.040 A 
ATOM     80  C   UNL     1       3.381  13.793  -2.693  1.00  0.00     0.040 A 
ATOM     81  F   UNL     1       3.249  11.485  -2.281  1.00  0.00    -0.206 F 
ATOM     82  C   UNL     1       3.297  15.109  -2.242  1.00  0.00     0.006 A 
ENDBRANCH  58  75
ENDBRANCH  32  33
ENDBRANCH  25  27
ENDBRANCH  24  25
ENDBRANCH  23  24
ENDBRANCH   1  23
TORSDOF 14
