REMARK SMILES Cc1nn(C)c(=O)c(C(=O)N[C@H]2C=C[C@H](C(=O)OCCOC(=O)c3ccc(-c4c5nc(c(-c6c(F)cccc6F)c6ccc([nH]6)c(-c6c(F)cccc6F)c6nc(c(-c7c(F)cccc7F)c7ccc4[nH]7)C=C6)C=C5)cc3)C2)c1C
REMARK SMILES IDX 19 1 18 2 16 3 17 4 15 5 12 6 13 7 78 8 14 9 11 10 9 11
REMARK SMILES IDX 10 12 8 14 1 15 2 16 3 17 79 18 4 19 80 20 5 21 6 22 7 23
REMARK SMILES IDX 20 24 21 25 22 26 23 27 24 28 25 29 77 30 26 31 76 32 27 33
REMARK SMILES IDX 28 34 29 35 70 36 30 37 75 38 69 39 71 40 31 41 74 42 68 43
REMARK SMILES IDX 67 44 32 46 58 47 41 48 57 49 42 50 45 51 56 52 72 53 43 54
REMARK SMILES IDX 44 55 55 57 73 58 46 59 33 60 34 61 39 62 35 63 36 64 38 65
REMARK SMILES IDX 40 66 37 67 59 68 60 69 65 70 61 71 62 72 64 73 66 74 63 75
REMARK SMILES IDX 47 76 48 77 53 78 49 79 50 80 52 81 54 82 51 83
REMARK H PARENT 11 13 71 45 45 56
REMARK Flexibility Score: inf
ROOT
ATOM      1  C   UNL     1       1.884   1.116   2.226  1.00  0.00     0.274 C 
ENDROOT
BRANCH   1   2
ATOM      2  O   UNL     1       1.019   1.763   1.257  1.00  0.00    -0.462 OA
BRANCH   2   3
ATOM      3  C   UNL     1      -0.307   1.883   1.572  1.00  0.00     0.312 C 
ATOM      4  O   UNL     1      -0.785   1.588   2.661  1.00  0.00    -0.252 OA
BRANCH   3   5
ATOM      5  C   UNL     1      -1.149   2.494   0.435  1.00  0.00     0.124 C 
ATOM      6  C   UNL     1       0.325   3.509  -1.208  1.00  0.00     0.106 C 
ATOM      7  C   UNL     1      -0.449   4.554  -0.467  1.00  0.00    -0.006 C 
ATOM      8  C   UNL     1      -0.553   2.277  -0.950  1.00  0.00     0.048 C 
ATOM      9  C   UNL     1      -1.248   3.991   0.453  1.00  0.00    -0.014 C 
BRANCH   6  10
ATOM     10  N   UNL     1       0.528   3.891  -2.588  1.00  0.00    -0.346 N 
ATOM     11  C   UNL     1       1.017   3.140  -3.628  1.00  0.00     0.257 C 
ATOM     12  O   UNL     1       1.469   3.684  -4.631  1.00  0.00    -0.269 OA
ATOM     13  H   UNL     1       0.283   4.818  -2.812  1.00  0.00     0.164 HD
BRANCH  11  14
ATOM     14  C   UNL     1       0.957   1.665  -3.513  1.00  0.00     0.111 A 
ATOM     15  C   UNL     1       1.869  -1.041  -1.121  1.00  0.00     0.069 C 
ATOM     16  C   UNL     1       1.398  -0.400  -2.411  1.00  0.00     0.062 A 
ATOM     17  N   UNL     1       0.519  -1.071  -3.084  1.00  0.00    -0.175 NA
ATOM     18  C   UNL     1       1.813   1.000  -2.717  1.00  0.00    -0.010 A 
ATOM     19  N   UNL     1      -0.133  -0.428  -4.102  1.00  0.00    -0.232 N 
ATOM     20  C   UNL     1       3.021   1.571  -2.045  1.00  0.00     0.047 C 
ATOM     21  C   UNL     1      -1.063  -1.237  -4.868  1.00  0.00     0.178 C 
ATOM     22  C   UNL     1      -0.092   0.948  -4.286  1.00  0.00     0.279 A 
ATOM     23  O   UNL     1      -0.856   1.556  -5.031  1.00  0.00    -0.267 OA
ENDBRANCH  11  14
ENDBRANCH   6  10
ENDBRANCH   3   5
ENDBRANCH   2   3
ENDBRANCH   1   2
BRANCH   1  24
ATOM     24  C   UNL     1       3.090   1.996   2.568  1.00  0.00     0.275 C 
BRANCH  24  25
ATOM     25  O   UNL     1       2.610   3.118   3.320  1.00  0.00    -0.458 OA
BRANCH  25  26
ATOM     26  C   UNL     1       2.870   4.344   2.820  1.00  0.00     0.338 C 
ATOM     27  O   UNL     1       3.668   4.650   1.947  1.00  0.00    -0.246 OA
BRANCH  26  28
ATOM     28  C   UNL     1       1.875   5.260   3.392  1.00  0.00     0.060 A 
ATOM     29  C   UNL     1       0.535   4.946   3.176  1.00  0.00     0.016 A 
ATOM     30  C   UNL     1       2.222   6.443   4.036  1.00  0.00     0.016 A 
ATOM     31  C   UNL     1      -0.466   5.834   3.525  1.00  0.00     0.010 A 
ATOM     32  C   UNL     1       1.204   7.302   4.472  1.00  0.00     0.010 A 
ATOM     33  C   UNL     1      -0.147   7.018   4.190  1.00  0.00    -0.014 A 
BRANCH  33  34
ATOM     34  C   UNL     1      -1.235   7.983   4.486  1.00  0.00     0.031 A 
ATOM     35  C   UNL     1      -1.210   9.340   3.843  1.00  0.00     0.074 A 
ATOM     36  C   UNL     1      -2.293   7.614   5.235  1.00  0.00     0.049 A 
ATOM     37  N   UNL     1      -1.964  10.381   4.080  1.00  0.00    -0.248 NA
ATOM     38  C   UNL     1      -0.199   9.556   2.794  1.00  0.00     0.031 C 
ATOM     39  C   UNL     1      -2.499   6.287   5.820  1.00  0.00     0.029 A 
ATOM     40  N   UNL     1      -3.416   8.312   5.603  1.00  0.00    -0.354 N 
ATOM     41  C   UNL     1      -1.477  11.391   3.261  1.00  0.00     0.074 A 
ATOM     42  C   UNL     1      -0.371  10.839   2.512  1.00  0.00     0.031 C 
ATOM     43  C   UNL     1      -3.699   6.250   6.418  1.00  0.00     0.029 A 
ATOM     44  C   UNL     1      -4.302   7.575   6.351  1.00  0.00     0.049 A 
ATOM     45  H   UNL     1      -3.572   9.252   5.354  1.00  0.00     0.167 HD
ATOM     46  C   UNL     1      -1.915  12.667   3.155  1.00  0.00     0.037 A 
ATOM     47  C   UNL     1      -5.449   7.939   6.954  1.00  0.00     0.037 A 
ATOM     48  C   UNL     1      -3.055  13.184   3.863  1.00  0.00     0.049 A 
ATOM     49  C   UNL     1      -5.884   9.373   6.873  1.00  0.00     0.074 A 
ATOM     50  C   UNL     1      -3.565  14.470   3.858  1.00  0.00     0.029 A 
ATOM     51  N   UNL     1      -3.879  12.427   4.683  1.00  0.00    -0.354 N 
ATOM     52  N   UNL     1      -5.340  10.361   6.204  1.00  0.00    -0.248 NA
ATOM     53  C   UNL     1      -7.063   9.755   7.662  1.00  0.00     0.031 C 
ATOM     54  C   UNL     1      -4.684  14.496   4.697  1.00  0.00     0.029 A 
ATOM     55  C   UNL     1      -4.890  13.220   5.196  1.00  0.00     0.049 A 
ATOM     56  H   UNL     1      -3.761  11.468   4.872  1.00  0.00     0.167 HD
ATOM     57  C   UNL     1      -6.103  11.483   6.495  1.00  0.00     0.074 A 
ATOM     58  C   UNL     1      -7.165  11.048   7.380  1.00  0.00     0.031 C 
ATOM     59  C   UNL     1      -5.932  12.761   6.079  1.00  0.00     0.037 A 
BRANCH  46  60
ATOM     60  C   UNL     1      -1.129  13.597   2.281  1.00  0.00     0.057 A 
ATOM     61  C   UNL     1      -1.190  13.540   0.884  1.00  0.00     0.134 A 
ATOM     62  C   UNL     1      -0.309  14.578   2.855  1.00  0.00     0.134 A 
ATOM     63  F   UNL     1      -1.938  12.608   0.274  1.00  0.00    -0.206 F 
ATOM     64  C   UNL     1      -0.451  14.417   0.087  1.00  0.00     0.040 A 
ATOM     65  C   UNL     1       0.417  15.474   2.069  1.00  0.00     0.040 A 
ATOM     66  F   UNL     1      -0.205  14.683   4.188  1.00  0.00    -0.206 F 
ATOM     67  C   UNL     1       0.350  15.392   0.680  1.00  0.00     0.006 A 
ENDBRANCH  46  60
BRANCH  47  68
ATOM     68  C   UNL     1      -6.227   6.939   7.730  1.00  0.00     0.057 A 
ATOM     69  C   UNL     1      -7.474   6.489   7.283  1.00  0.00     0.134 A 
ATOM     70  C   UNL     1      -5.729   6.385   8.916  1.00  0.00     0.134 A 
ATOM     71  F   UNL     1      -8.016   6.999   6.168  1.00  0.00    -0.206 F 
ATOM     72  C   UNL     1      -8.194   5.519   7.984  1.00  0.00     0.040 A 
ATOM     73  C   UNL     1      -6.426   5.397   9.613  1.00  0.00     0.040 A 
ATOM     74  F   UNL     1      -4.540   6.776   9.399  1.00  0.00    -0.206 F 
ATOM     75  C   UNL     1      -7.664   4.962   9.147  1.00  0.00     0.006 A 
ENDBRANCH  47  68
BRANCH  59  76
ATOM     76  C   UNL     1      -6.912  13.777   6.574  1.00  0.00     0.057 A 
ATOM     77  C   UNL     1      -6.833  14.293   7.873  1.00  0.00     0.134 A 
ATOM     78  C   UNL     1      -7.898  14.293   5.726  1.00  0.00     0.134 A 
ATOM     79  F   UNL     1      -5.915  13.828   8.734  1.00  0.00    -0.206 F 
ATOM     80  C   UNL     1      -7.709  15.285   8.315  1.00  0.00     0.040 A 
ATOM     81  C   UNL     1      -8.767  15.299   6.149  1.00  0.00     0.040 A 
ATOM     82  F   UNL     1      -8.018  13.844   4.467  1.00  0.00    -0.206 F 
ATOM     83  C   UNL     1      -8.674  15.796   7.448  1.00  0.00     0.006 A 
ENDBRANCH  59  76
ENDBRANCH  33  34
ENDBRANCH  26  28
ENDBRANCH  25  26
ENDBRANCH  24  25
ENDBRANCH   1  24
TORSDOF 13
