REMARK SMILES COc1ccc(-c2cc(Cl)cc3c2O[C@H](C(F)(F)F)C(C(=O)OCCOC(=O)c2ccc(-c4c5nc(c(-c6c(F)cccc6F)c6ccc([nH]6)c(-c6c(F)cccc6F)c6nc(c(-c7c(F)cccc7F)c7ccc4[nH]7)C=C6)C=C5)cc2)=C3)cc1C
REMARK SMILES IDX 24 1 23 2 21 3 22 4 20 5 7 6 8 7 13 8 9 9 12 10 14 11 10 12
REMARK SMILES IDX 11 13 83 14 15 15 6 16 3 17 4 18 85 19 5 20 84 21 86 22 2 23
REMARK SMILES IDX 1 24 16 25 17 26 18 27 19 28 25 29 26 30 27 31 28 32 29 33
REMARK SMILES IDX 30 34 82 35 31 36 81 37 32 38 33 39 34 40 75 41 35 42 80 43
REMARK SMILES IDX 74 44 76 45 36 46 79 47 73 48 72 49 37 51 63 52 46 53 62 54
REMARK SMILES IDX 47 55 50 56 61 57 77 58 48 59 49 60 60 62 78 63 51 64 38 65
REMARK SMILES IDX 39 66 44 67 40 68 41 69 43 70 45 71 42 72 64 73 65 74 70 75
REMARK SMILES IDX 66 76 67 77 69 78 71 79 68 80 52 81 53 82 58 83 54 84 55 85
REMARK SMILES IDX 57 86 59 87 56 88
REMARK H PARENT 76 50 50 61
REMARK Flexibility Score: inf
ROOT
ATOM      1  C   UNL     1      -1.991   4.993  -2.567  1.00  0.00     0.275 C 
ENDROOT
BRANCH   1   2
ATOM      2  O   UNL     1      -0.717   4.770  -3.186  1.00  0.00    -0.459 OA
BRANCH   2   3
ATOM      3  C   UNL     1       0.382   5.234  -2.528  1.00  0.00     0.338 C 
ATOM      4  O   UNL     1       0.637   4.942  -1.370  1.00  0.00    -0.246 OA
BRANCH   3   5
ATOM      5  C   UNL     1       1.073   6.426  -3.230  1.00  0.00     0.087 C 
ATOM      6  C   UNL     1       1.030   4.032  -6.000  1.00  0.00     0.026 A 
ATOM      7  C   UNL     1       2.106   3.862  -6.920  1.00  0.00     0.033 A 
ATOM      8  C   UNL     1       0.854   5.386  -5.571  1.00  0.00     0.135 A 
ATOM      9  C   UNL     1       3.053   4.873  -7.147  1.00  0.00     0.042 A 
ATOM     10  C   UNL     1       2.018   6.102  -5.414  1.00  0.00     0.019 A 
ATOM     11  O   UNL     1      -0.266   6.146  -5.168  1.00  0.00    -0.475 OA
ATOM     12  Cl  UNL     1       4.397   4.580  -8.182  1.00  0.00    -0.084 Cl
ATOM     13  C   UNL     1       3.053   5.995  -6.332  1.00  0.00     0.032 A 
ATOM     14  C   UNL     1       2.216   6.339  -3.965  1.00  0.00     0.027 C 
ATOM     15  C   UNL     1      -0.088   7.321  -3.850  1.00  0.00     0.316 C 
BRANCH   6  16
ATOM     16  C   UNL     1       0.773   2.758  -5.120  1.00  0.00    -0.014 A 
ATOM     17  C   UNL     1       0.563   0.694  -3.076  1.00  0.00     0.121 A 
ATOM     18  C   UNL     1      -0.547   1.418  -3.531  1.00  0.00     0.047 A 
ATOM     19  C   UNL     1       1.790   0.897  -3.695  1.00  0.00    -0.008 A 
ATOM     20  C   UNL     1      -0.444   2.427  -4.532  1.00  0.00     0.013 A 
ATOM     21  C   UNL     1       1.853   1.875  -4.740  1.00  0.00     0.016 A 
ATOM     22  C   UNL     1       3.050   0.228  -3.181  1.00  0.00     0.048 C 
BRANCH  17  23
ATOM     23  O   UNL     1       0.373  -0.274  -2.124  1.00  0.00    -0.496 OA
ATOM     24  C   UNL     1       0.761   0.106  -0.797  1.00  0.00     0.278 C 
ENDBRANCH  17  23
ENDBRANCH   6  16
BRANCH  15  25
ATOM     25  C   UNL     1      -0.655   9.466  -3.791  1.00  0.00     0.430 C 
ATOM     26  F   UNL     1       0.332  10.494  -3.695  1.00  0.00    -0.167 F 
ATOM     27  F   UNL     1      -1.363  10.054  -4.880  1.00  0.00    -0.167 F 
ATOM     28  F   UNL     1      -1.488  10.018  -2.779  1.00  0.00    -0.167 F 
ENDBRANCH  15  25
ENDBRANCH   3   5
ENDBRANCH   2   3
ENDBRANCH   1   2
BRANCH   1  29
ATOM     29  C   UNL     1      -3.145   5.294  -3.588  1.00  0.00     0.275 C 
BRANCH  29  30
ATOM     30  O   UNL     1      -2.994   5.913  -4.944  1.00  0.00    -0.458 OA
BRANCH  30  31
ATOM     31  C   UNL     1      -2.647   7.070  -5.584  1.00  0.00     0.338 C 
ATOM     32  O   UNL     1      -2.868   7.274  -6.769  1.00  0.00    -0.246 OA
BRANCH  31  33
ATOM     33  C   UNL     1      -1.776   8.013  -4.859  1.00  0.00     0.060 A 
ATOM     34  C   UNL     1      -0.112   8.482  -5.508  1.00  0.00     0.016 A 
ATOM     35  C   UNL     1      -2.080   8.033  -3.117  1.00  0.00     0.016 A 
ATOM     36  C   UNL     1       1.238   8.825  -4.328  1.00  0.00     0.010 A 
ATOM     37  C   UNL     1      -0.726   8.286  -1.984  1.00  0.00     0.010 A 
ATOM     38  C   UNL     1       0.911   8.703  -2.538  1.00  0.00    -0.014 A 
BRANCH  38  39
ATOM     39  C   UNL     1       1.821   8.798  -1.353  1.00  0.00     0.031 A 
ATOM     40  C   UNL     1       1.750  10.051  -0.550  1.00  0.00     0.074 A 
ATOM     41  C   UNL     1       2.208   7.694  -0.633  1.00  0.00     0.049 A 
ATOM     42  N   UNL     1       2.572  10.338   0.411  1.00  0.00    -0.248 NA
ATOM     43  C   UNL     1       0.803  11.133  -0.827  1.00  0.00     0.031 C 
ATOM     44  C   UNL     1       2.019   7.530   0.816  1.00  0.00     0.029 A 
ATOM     45  N   UNL     1       2.797   6.463  -1.000  1.00  0.00    -0.354 N 
ATOM     46  C   UNL     1       1.993  11.396   1.075  1.00  0.00     0.074 A 
ATOM     47  C   UNL     1       1.181  12.032   0.083  1.00  0.00     0.031 C 
ATOM     48  C   UNL     1       2.631   6.415   1.236  1.00  0.00     0.029 A 
ATOM     49  C   UNL     1       3.361   5.845   0.127  1.00  0.00     0.049 A 
ATOM     50  H   UNL     1       2.810   6.093  -1.912  1.00  0.00     0.167 HD
ATOM     51  C   UNL     1       1.986  11.440   2.438  1.00  0.00     0.037 A 
ATOM     52  C   UNL     1       4.521   5.134   0.202  1.00  0.00     0.037 A 
ATOM     53  C   UNL     1       2.778  10.347   3.011  1.00  0.00     0.049 A 
ATOM     54  C   UNL     1       5.463   5.760   1.125  1.00  0.00     0.074 A 
ATOM     55  C   UNL     1       2.452   9.245   3.784  1.00  0.00     0.029 A 
ATOM     56  N   UNL     1       4.099  10.166   2.613  1.00  0.00    -0.354 N 
ATOM     57  N   UNL     1       5.093   6.804   1.782  1.00  0.00    -0.248 NA
ATOM     58  C   UNL     1       6.854   5.401   1.329  1.00  0.00     0.031 C 
ATOM     59  C   UNL     1       3.592   8.401   3.840  1.00  0.00     0.029 A 
ATOM     60  C   UNL     1       4.624   9.004   3.135  1.00  0.00     0.049 A 
ATOM     61  H   UNL     1       4.595  10.789   2.032  1.00  0.00     0.167 HD
ATOM     62  C   UNL     1       6.167   7.370   2.349  1.00  0.00     0.074 A 
ATOM     63  C   UNL     1       7.242   6.427   2.107  1.00  0.00     0.031 C 
ATOM     64  C   UNL     1       6.009   8.613   2.861  1.00  0.00     0.037 A 
BRANCH  51  65
ATOM     65  C   UNL     1       1.094  12.332   3.301  1.00  0.00     0.057 A 
ATOM     66  C   UNL     1       1.241  12.321   4.704  1.00  0.00     0.134 A 
ATOM     67  C   UNL     1       0.063  13.190   2.858  1.00  0.00     0.134 A 
ATOM     68  F   UNL     1       2.151  11.545   5.309  1.00  0.00    -0.206 F 
ATOM     69  C   UNL     1       0.460  13.101   5.572  1.00  0.00     0.040 A 
ATOM     70  C   UNL     1      -0.685  14.018   3.709  1.00  0.00     0.040 A 
ATOM     71  F   UNL     1      -0.345  13.255   1.591  1.00  0.00    -0.206 F 
ATOM     72  C   UNL     1      -0.492  13.975   5.074  1.00  0.00     0.006 A 
ENDBRANCH  51  65
BRANCH  52  73
ATOM     73  C   UNL     1       4.895   4.276  -0.923  1.00  0.00     0.057 A 
ATOM     74  C   UNL     1       3.982   3.231  -1.004  1.00  0.00     0.134 A 
ATOM     75  C   UNL     1       5.406   4.861  -2.085  1.00  0.00     0.134 A 
ATOM     76  F   UNL     1       3.572   2.575   0.093  1.00  0.00    -0.206 F 
ATOM     77  C   UNL     1       3.200   3.194  -2.119  1.00  0.00     0.040 A 
ATOM     78  C   UNL     1       4.771   4.634  -3.284  1.00  0.00     0.040 A 
ATOM     79  F   UNL     1       6.348   5.810  -2.030  1.00  0.00    -0.206 F 
ATOM     80  C   UNL     1       3.608   3.881  -3.253  1.00  0.00     0.006 A 
ENDBRANCH  52  73
BRANCH  64  81
ATOM     81  C   UNL     1       7.160   9.485   3.189  1.00  0.00     0.057 A 
ATOM     82  C   UNL     1       8.423   9.367   2.591  1.00  0.00     0.134 A 
ATOM     83  C   UNL     1       6.997  10.550   4.087  1.00  0.00     0.134 A 
ATOM     84  F   UNL     1       8.654   8.523   1.575  1.00  0.00    -0.206 F 
ATOM     85  C   UNL     1       9.501  10.152   2.985  1.00  0.00     0.040 A 
ATOM     86  C   UNL     1       8.046  11.394   4.428  1.00  0.00     0.040 A 
ATOM     87  F   UNL     1       5.813  10.824   4.653  1.00  0.00    -0.206 F 
ATOM     88  C   UNL     1       9.314  11.168   3.911  1.00  0.00     0.006 A 
ENDBRANCH  64  81
ENDBRANCH  38  39
ENDBRANCH  31  33
ENDBRANCH  30  31
ENDBRANCH  29  30
ENDBRANCH   1  29
TORSDOF 14
