REMARK SMILES Nc1ncccc1C[N@@H+]1CC2(CC[NH2+]CC2)C[C@H]1C(=O)OCCOC(=O)c1ccc(-c2c3nc(c(-c4c(F)cccc4F)c4ccc([nH]4)c(-c4c(F)cccc4F)c4nc(c(-c5c(F)cccc5F)c5ccc2[nH]5)C=C4)C=C3)cc1
REMARK SMILES IDX 22 1 21 2 19 3 20 4 18 5 9 6 10 7 11 9 17 10 12 11 16 12
REMARK SMILES IDX 13 13 15 14 14 15 8 18 7 19 2 20 3 21 4 22 6 23 5 24 1 25
REMARK SMILES IDX 23 28 24 29 25 30 26 31 27 32 28 33 80 34 29 35 79 36 30 37
REMARK SMILES IDX 31 38 32 39 73 40 33 41 78 42 72 43 74 44 34 45 77 46 71 47
REMARK SMILES IDX 70 48 35 50 61 51 44 52 60 53 45 54 48 55 59 56 75 57 46 58
REMARK SMILES IDX 47 59 58 61 76 62 49 63 36 64 37 65 42 66 38 67 39 68 41 69
REMARK SMILES IDX 43 70 40 71 62 72 63 73 68 74 64 75 65 76 67 77 69 78 66 79
REMARK SMILES IDX 50 80 51 81 56 82 52 83 53 84 55 85 57 86 54 87
REMARK H PARENT 9 8 14 16 14 17 1 26 1 27 74 49 48 60
REMARK Flexibility Score: inf
ROOT
ATOM      1  C   UNL     1      -0.227  -4.368   5.343  1.00  0.00     0.274 C 
ENDROOT
BRANCH   1   2
ATOM      2  O   UNL     1      -0.300  -3.737   4.051  1.00  0.00    -0.458 OA
BRANCH   2   3
ATOM      3  C   UNL     1      -0.006  -2.409   4.003  1.00  0.00     0.365 C 
ATOM      4  O   UNL     1       0.299  -1.737   4.986  1.00  0.00    -0.245 OA
BRANCH   3   5
ATOM      5  C   UNL     1      -0.146  -1.783   2.606  1.00  0.00     0.296 C 
ATOM      6  N   UNL     1      -0.093  -2.762   1.504  1.00  0.00    -0.319 N 
ATOM      7  C   UNL     1      -1.467  -3.133   1.151  1.00  0.00     0.270 C 
ATOM      8  H   UNL     1       0.389  -3.597   1.836  1.00  0.00     0.349 HD
ATOM      9  C   UNL     1      -2.430  -2.113   1.807  1.00  0.00     0.036 C 
ATOM     10  C   UNL     1      -1.490  -1.082   2.458  1.00  0.00     0.091 C 
ATOM     11  C   UNL     1      -3.339  -2.772   2.872  1.00  0.00     0.074 C 
ATOM     12  C   UNL     1      -3.359  -1.436   0.777  1.00  0.00     0.074 C 
ATOM     13  C   UNL     1      -4.414  -3.673   2.255  1.00  0.00     0.261 C 
ATOM     14  C   UNL     1      -4.394  -2.403   0.206  1.00  0.00     0.261 C 
ATOM     15  N   UNL     1      -5.227  -2.966   1.265  1.00  0.00    -0.346 N 
ATOM     16  H   UNL     1      -5.732  -2.210   1.728  1.00  0.00     0.346 HD
ATOM     17  H   UNL     1      -5.878  -3.630   0.847  1.00  0.00     0.346 HD
BRANCH   6  18
ATOM     18  C   UNL     1       0.788  -2.405   0.373  1.00  0.00     0.303 C 
BRANCH  18  19
ATOM     19  C   UNL     1       0.629  -1.020  -0.220  1.00  0.00     0.048 A 
ATOM     20  C   UNL     1       1.460   0.051   0.115  1.00  0.00     0.132 A 
ATOM     21  N   UNL     1       1.193   1.327  -0.224  1.00  0.00    -0.239 NA
ATOM     22  C   UNL     1       0.107   1.560  -0.986  1.00  0.00     0.113 A 
ATOM     23  C   UNL     1      -0.426  -0.749  -1.099  1.00  0.00     0.015 A 
ATOM     24  C   UNL     1      -0.707   0.560  -1.475  1.00  0.00     0.021 A 
BRANCH  20  25
ATOM     25  N   UNL     1       2.629  -0.103   0.836  1.00  0.00    -0.383 N 
ATOM     26  H   UNL     1       3.183   0.682   1.049  1.00  0.00     0.158 HD
ATOM     27  H   UNL     1       2.907  -0.998   1.138  1.00  0.00     0.158 HD
ENDBRANCH  20  25
ENDBRANCH  18  19
ENDBRANCH   6  18
ENDBRANCH   3   5
ENDBRANCH   2   3
ENDBRANCH   1   2
BRANCH   1  28
ATOM     28  C   UNL     1       0.988  -5.290   5.435  1.00  0.00     0.275 C 
BRANCH  28  29
ATOM     29  O   UNL     1       2.208  -4.540   5.317  1.00  0.00    -0.458 OA
BRANCH  29  30
ATOM     30  C   UNL     1       2.756  -4.534   4.080  1.00  0.00     0.338 C 
ATOM     31  O   UNL     1       2.391  -5.146   3.092  1.00  0.00    -0.246 OA
BRANCH  30  32
ATOM     32  C   UNL     1       3.862  -3.570   4.054  1.00  0.00     0.060 A 
ATOM     33  C   UNL     1       3.693  -2.396   3.321  1.00  0.00     0.016 A 
ATOM     34  C   UNL     1       5.082  -3.859   4.666  1.00  0.00     0.016 A 
ATOM     35  C   UNL     1       4.755  -1.510   3.175  1.00  0.00     0.010 A 
ATOM     36  C   UNL     1       6.148  -2.966   4.521  1.00  0.00     0.010 A 
ATOM     37  C   UNL     1       5.996  -1.796   3.756  1.00  0.00    -0.014 A 
BRANCH  37  38
ATOM     38  C   UNL     1       7.149  -0.903   3.492  1.00  0.00     0.031 A 
ATOM     39  C   UNL     1       8.224  -1.342   2.539  1.00  0.00     0.074 A 
ATOM     40  C   UNL     1       7.208   0.313   4.065  1.00  0.00     0.049 A 
ATOM     41  N   UNL     1       9.354  -0.755   2.237  1.00  0.00    -0.248 NA
ATOM     42  C   UNL     1       7.992  -2.607   1.823  1.00  0.00     0.031 C 
ATOM     43  C   UNL     1       6.190   0.881   4.949  1.00  0.00     0.029 A 
ATOM     44  N   UNL     1       8.167   1.290   3.985  1.00  0.00    -0.354 N 
ATOM     45  C   UNL     1       9.973  -1.581   1.307  1.00  0.00     0.074 A 
ATOM     46  C   UNL     1       9.102  -2.720   1.106  1.00  0.00     0.031 C 
ATOM     47  C   UNL     1       6.582   2.107   5.334  1.00  0.00     0.029 A 
ATOM     48  C   UNL     1       7.896   2.389   4.762  1.00  0.00     0.049 A 
ATOM     49  H   UNL     1       8.973   1.211   3.425  1.00  0.00     0.167 HD
ATOM     50  C   UNL     1      11.156  -1.401   0.675  1.00  0.00     0.037 A 
ATOM     51  C   UNL     1       8.639   3.484   5.008  1.00  0.00     0.037 A 
ATOM     52  C   UNL     1      12.019  -0.267   0.875  1.00  0.00     0.049 A 
ATOM     53  C   UNL     1       9.991   3.616   4.361  1.00  0.00     0.074 A 
ATOM     54  C   UNL     1      13.258  -0.012   0.311  1.00  0.00     0.029 A 
ATOM     55  N   UNL     1      11.726   0.809   1.700  1.00  0.00    -0.354 N 
ATOM     56  N   UNL     1      10.586   2.809   3.515  1.00  0.00    -0.248 NA
ATOM     57  C   UNL     1      10.778   4.808   4.708  1.00  0.00     0.031 C 
ATOM     58  C   UNL     1      13.726   1.206   0.815  1.00  0.00     0.029 A 
ATOM     59  C   UNL     1      12.763   1.726   1.664  1.00  0.00     0.049 A 
ATOM     60  H   UNL     1      10.904   0.905   2.232  1.00  0.00     0.167 HD
ATOM     61  C   UNL     1      11.801   3.408   3.211  1.00  0.00     0.074 A 
ATOM     62  C   UNL     1      11.855   4.650   3.952  1.00  0.00     0.031 C 
ATOM     63  C   UNL     1      12.788   2.966   2.393  1.00  0.00     0.037 A 
BRANCH  50  64
ATOM     64  C   UNL     1      11.597  -2.466  -0.283  1.00  0.00     0.057 A 
ATOM     65  C   UNL     1      11.022  -2.595  -1.553  1.00  0.00     0.134 A 
ATOM     66  C   UNL     1      12.638  -3.341   0.050  1.00  0.00     0.134 A 
ATOM     67  F   UNL     1      10.011  -1.797  -1.926  1.00  0.00    -0.206 F 
ATOM     68  C   UNL     1      11.461  -3.566  -2.455  1.00  0.00     0.040 A 
ATOM     69  C   UNL     1      13.098  -4.303  -0.850  1.00  0.00     0.040 A 
ATOM     70  F   UNL     1      13.232  -3.267   1.251  1.00  0.00    -0.206 F 
ATOM     71  C   UNL     1      12.507  -4.419  -2.107  1.00  0.00     0.006 A 
ENDBRANCH  50  64
BRANCH  51  72
ATOM     72  C   UNL     1       8.146   4.532   5.937  1.00  0.00     0.057 A 
ATOM     73  C   UNL     1       7.806   5.808   5.475  1.00  0.00     0.134 A 
ATOM     74  C   UNL     1       8.045   4.294   7.313  1.00  0.00     0.134 A 
ATOM     75  F   UNL     1       7.908   6.104   4.171  1.00  0.00    -0.206 F 
ATOM     76  C   UNL     1       7.403   6.818   6.351  1.00  0.00     0.040 A 
ATOM     77  C   UNL     1       7.620   5.287   8.197  1.00  0.00     0.040 A 
ATOM     78  F   UNL     1       8.360   3.093   7.818  1.00  0.00    -0.206 F 
ATOM     79  C   UNL     1       7.306   6.556   7.716  1.00  0.00     0.006 A 
ENDBRANCH  51  72
BRANCH  63  80
ATOM     80  C   UNL     1      13.983   3.855   2.225  1.00  0.00     0.057 A 
ATOM     81  C   UNL     1      14.955   3.982   3.224  1.00  0.00     0.134 A 
ATOM     82  C   UNL     1      14.178   4.567   1.034  1.00  0.00     0.134 A 
ATOM     83  F   UNL     1      14.817   3.336   4.392  1.00  0.00    -0.206 F 
ATOM     84  C   UNL     1      16.070   4.804   3.054  1.00  0.00     0.040 A 
ATOM     85  C   UNL     1      15.299   5.374   0.844  1.00  0.00     0.040 A 
ATOM     86  F   UNL     1      13.286   4.481   0.036  1.00  0.00    -0.206 F 
ATOM     87  C   UNL     1      16.247   5.498   1.858  1.00  0.00     0.006 A 
ENDBRANCH  63  80
ENDBRANCH  37  38
ENDBRANCH  30  32
ENDBRANCH  29  30
ENDBRANCH  28  29
ENDBRANCH   1  28
TORSDOF 14
