REMARK SMILES CC(C)[C@@H](C[NH+](C)C)C(=O)OCCOC(=O)c1ccc(-c2c3nc(c(-c4c(F)cccc4F)c4ccc([nH]4)c(-c4c(F)cccc4F)c4nc(c(-c5c(F)cccc5F)c5ccc2[nH]5)C=C4)C=C3)cc1
REMARK SMILES IDX 12 1 11 2 9 3 10 4 4 5 2 6 1 7 3 8 5 9 6 10 7 11 8 12 13 14
REMARK SMILES IDX 14 15 15 16 16 17 17 18 18 19 70 20 19 21 69 22 20 23 21 24
REMARK SMILES IDX 22 25 63 26 23 27 68 28 62 29 64 30 24 31 67 32 61 33 60 34
REMARK SMILES IDX 25 36 51 37 34 38 50 39 35 40 38 41 49 42 65 43 36 44 37 45
REMARK SMILES IDX 48 47 66 48 39 49 26 50 27 51 32 52 28 53 29 54 31 55 33 56
REMARK SMILES IDX 30 57 52 58 53 59 58 60 54 61 55 62 57 63 59 64 56 65 40 66
REMARK SMILES IDX 41 67 46 68 42 69 43 70 45 71 47 72 44 73
REMARK H PARENT 6 13 64 35 38 46
REMARK Flexibility Score: inf
ROOT
ATOM      1  C   UNL     1      -1.504   3.893   3.073  1.00  0.00     0.274 C 
ENDROOT
BRANCH   1   2
ATOM      2  O   UNL     1      -0.803   2.815   2.425  1.00  0.00    -0.462 OA
BRANCH   2   3
ATOM      3  C   UNL     1      -1.581   2.011   1.654  1.00  0.00     0.315 C 
ATOM      4  O   UNL     1      -2.782   2.179   1.454  1.00  0.00    -0.252 OA
BRANCH   3   5
ATOM      5  C   UNL     1      -0.837   0.826   1.064  1.00  0.00     0.156 C 
BRANCH   5   6
ATOM      6  C   UNL     1       0.675   1.014   0.773  1.00  0.00     0.003 C 
ATOM      7  C   UNL     1       1.281  -0.243   0.132  1.00  0.00     0.008 C 
ATOM      8  C   UNL     1       0.938   2.194  -0.175  1.00  0.00     0.008 C 
ENDBRANCH   5   6
BRANCH   5   9
ATOM      9  C   UNL     1      -1.256  -0.411   1.893  1.00  0.00     0.277 C 
BRANCH   9  10
ATOM     10  N   UNL     1      -1.068  -0.364   3.356  1.00  0.00    -0.339 N 
ATOM     11  C   UNL     1      -1.776  -1.487   3.979  1.00  0.00     0.332 C 
ATOM     12  C   UNL     1       0.332  -0.373   3.771  1.00  0.00     0.332 C 
ATOM     13  H   UNL     1      -1.454   0.526   3.670  1.00  0.00     0.347 HD
ENDBRANCH   9  10
ENDBRANCH   5   9
ENDBRANCH   3   5
ENDBRANCH   2   3
ENDBRANCH   1   2
BRANCH   1  14
ATOM     14  C   UNL     1      -1.442   5.174   2.243  1.00  0.00     0.275 C 
BRANCH  14  15
ATOM     15  O   UNL     1      -1.977   4.938   0.930  1.00  0.00    -0.458 OA
BRANCH  15  16
ATOM     16  C   UNL     1      -1.210   5.354  -0.101  1.00  0.00     0.338 C 
ATOM     17  O   UNL     1      -0.165   5.979  -0.046  1.00  0.00    -0.246 OA
BRANCH  16  18
ATOM     18  C   UNL     1      -1.839   4.965  -1.375  1.00  0.00     0.060 A 
ATOM     19  C   UNL     1      -2.145   3.629  -1.650  1.00  0.00     0.016 A 
ATOM     20  C   UNL     1      -2.031   5.946  -2.348  1.00  0.00     0.016 A 
ATOM     21  C   UNL     1      -2.603   3.263  -2.916  1.00  0.00     0.010 A 
ATOM     22  C   UNL     1      -2.544   5.587  -3.595  1.00  0.00     0.010 A 
ATOM     23  C   UNL     1      -2.810   4.240  -3.897  1.00  0.00    -0.014 A 
BRANCH  23  24
ATOM     24  C   UNL     1      -3.275   3.875  -5.257  1.00  0.00     0.031 A 
ATOM     25  C   UNL     1      -2.363   4.074  -6.434  1.00  0.00     0.074 A 
ATOM     26  C   UNL     1      -4.524   3.410  -5.441  1.00  0.00     0.049 A 
ATOM     27  N   UNL     1      -2.636   4.015  -7.712  1.00  0.00    -0.248 NA
ATOM     28  C   UNL     1      -0.959   4.391  -6.131  1.00  0.00     0.031 C 
ATOM     29  C   UNL     1      -5.492   3.139  -4.378  1.00  0.00     0.029 A 
ATOM     30  N   UNL     1      -5.199   3.105  -6.595  1.00  0.00    -0.354 N 
ATOM     31  C   UNL     1      -1.451   4.326  -8.366  1.00  0.00     0.074 A 
ATOM     32  C   UNL     1      -0.456   4.574  -7.344  1.00  0.00     0.031 C 
ATOM     33  C   UNL     1      -6.639   2.712  -4.929  1.00  0.00     0.029 A 
ATOM     34  C   UNL     1      -6.505   2.738  -6.382  1.00  0.00     0.049 A 
ATOM     35  H   UNL     1      -4.787   3.144  -7.489  1.00  0.00     0.167 HD
ATOM     36  C   UNL     1      -1.218   4.401  -9.698  1.00  0.00     0.037 A 
ATOM     37  C   UNL     1      -7.496   2.495  -7.260  1.00  0.00     0.037 A 
ATOM     38  C   UNL     1      -2.204   4.125 -10.710  1.00  0.00     0.049 A 
ATOM     39  C   UNL     1      -7.224   2.622  -8.732  1.00  0.00     0.074 A 
ATOM     40  C   UNL     1      -2.061   4.156 -12.086  1.00  0.00     0.029 A 
ATOM     41  N   UNL     1      -3.516   3.761 -10.451  1.00  0.00    -0.354 N 
ATOM     42  N   UNL     1      -6.109   2.945  -9.340  1.00  0.00    -0.248 NA
ATOM     43  C   UNL     1      -8.353   2.366  -9.637  1.00  0.00     0.031 C 
ATOM     44  C   UNL     1      -3.296   3.837 -12.661  1.00  0.00     0.029 A 
ATOM     45  C   UNL     1      -4.198   3.576 -11.642  1.00  0.00     0.049 A 
ATOM     46  H   UNL     1      -3.906   3.650  -9.554  1.00  0.00     0.167 HD
ATOM     47  C   UNL     1      -6.396   2.919 -10.698  1.00  0.00     0.074 A 
ATOM     48  C   UNL     1      -7.787   2.535 -10.825  1.00  0.00     0.031 C 
ATOM     49  C   UNL     1      -5.582   3.191 -11.746  1.00  0.00     0.037 A 
BRANCH  36  50
ATOM     50  C   UNL     1       0.151   4.824 -10.136  1.00  0.00     0.057 A 
ATOM     51  C   UNL     1       1.250   3.960 -10.071  1.00  0.00     0.134 A 
ATOM     52  C   UNL     1       0.363   6.105 -10.662  1.00  0.00     0.134 A 
ATOM     53  F   UNL     1       1.115   2.725  -9.564  1.00  0.00    -0.206 F 
ATOM     54  C   UNL     1       2.518   4.360 -10.498  1.00  0.00     0.040 A 
ATOM     55  C   UNL     1       1.621   6.510 -11.110  1.00  0.00     0.040 A 
ATOM     56  F   UNL     1      -0.649   6.980 -10.754  1.00  0.00    -0.206 F 
ATOM     57  C   UNL     1       2.704   5.637 -11.026  1.00  0.00     0.006 A 
ENDBRANCH  36  50
BRANCH  37  58
ATOM     58  C   UNL     1      -8.847   2.140  -6.765  1.00  0.00     0.057 A 
ATOM     59  C   UNL     1      -9.345   0.840  -6.896  1.00  0.00     0.134 A 
ATOM     60  C   UNL     1      -9.667   3.088  -6.141  1.00  0.00     0.134 A 
ATOM     61  F   UNL     1      -8.613  -0.105  -7.505  1.00  0.00    -0.206 F 
ATOM     62  C   UNL     1     -10.615   0.494  -6.431  1.00  0.00     0.040 A 
ATOM     63  C   UNL     1     -10.930   2.752  -5.652  1.00  0.00     0.040 A 
ATOM     64  F   UNL     1      -9.244   4.351  -5.985  1.00  0.00    -0.206 F 
ATOM     65  C   UNL     1     -11.408   1.452  -5.800  1.00  0.00     0.006 A 
ENDBRANCH  37  58
BRANCH  49  66
ATOM     66  C   UNL     1      -6.171   3.057 -13.116  1.00  0.00     0.057 A 
ATOM     67  C   UNL     1      -7.029   4.029 -13.645  1.00  0.00     0.134 A 
ATOM     68  C   UNL     1      -5.852   1.960 -13.925  1.00  0.00     0.134 A 
ATOM     69  F   UNL     1      -7.383   5.095 -12.911  1.00  0.00    -0.206 F 
ATOM     70  C   UNL     1      -7.565   3.905 -14.927  1.00  0.00     0.040 A 
ATOM     71  C   UNL     1      -6.366   1.834 -15.216  1.00  0.00     0.040 A 
ATOM     72  F   UNL     1      -5.031   0.999 -13.477  1.00  0.00    -0.206 F 
ATOM     73  C   UNL     1      -7.229   2.807 -15.719  1.00  0.00     0.006 A 
ENDBRANCH  49  66
ENDBRANCH  23  24
ENDBRANCH  16  18
ENDBRANCH  15  16
ENDBRANCH  14  15
ENDBRANCH   1  14
TORSDOF 14
