REMARK SMILES CC(C)Cc1ccc(S(=O)(=O)Nc2ccc(N3CCC[N@H+](C)CC3)cc2C(=O)OCCOC(=O)c2ccc(-c3c4nc(c(-c5c(F)cccc5F)c5ccc([nH]5)c(-c5c(F)cccc5F)c5nc(c(-c6c(F)cccc6F)c6ccc3[nH]6)C=C5)C=C4)cc2)cc1
REMARK SMILES IDX 29 1 27 2 28 3 26 4 13 5 14 6 15 7 25 8 16 9 12 10 9 12
REMARK SMILES IDX 10 13 11 14 8 15 5 16 6 17 90 18 7 19 89 20 4 21 2 22 1 23
REMARK SMILES IDX 3 24 17 25 18 26 19 27 24 29 23 30 21 31 22 32 20 34 30 36
REMARK SMILES IDX 31 37 32 38 33 39 34 40 35 41 36 42 88 43 37 44 87 45 38 46
REMARK SMILES IDX 39 47 40 48 81 49 41 50 86 51 80 52 82 53 42 54 85 55 79 56
REMARK SMILES IDX 78 57 43 59 69 60 52 61 68 62 53 63 56 64 67 65 83 66 54 67
REMARK SMILES IDX 55 68 66 70 84 71 57 72 44 73 45 74 50 75 46 76 47 77 49 78
REMARK SMILES IDX 51 79 48 80 70 81 71 82 76 83 72 84 73 85 75 86 77 87 74 88
REMARK SMILES IDX 58 89 59 90 64 91 60 92 61 93 63 94 65 95 62 96
REMARK H PARENT 12 11 21 33 82 58 56 69
REMARK Flexibility Score: 100.00
ROOT
ATOM      1  O   UNL     1      -3.540  -5.764  -0.291  1.00  0.00    -0.458 OA
ENDROOT
BRANCH   1   2
ATOM      2  C   UNL     1      -2.486  -5.269   0.402  1.00  0.00     0.340 C 
ATOM      3  O   UNL     1      -2.495  -4.220   1.025  1.00  0.00    -0.246 OA
BRANCH   2   4
ATOM      4  C   UNL     1      -1.240  -6.045   0.238  1.00  0.00     0.086 A 
ATOM      5  C   UNL     1      -0.759  -6.335  -1.040  1.00  0.00     0.064 A 
ATOM      6  C   UNL     1       0.568  -6.751  -1.171  1.00  0.00     0.030 A 
ATOM      7  C   UNL     1       1.401  -6.856  -0.036  1.00  0.00     0.028 A 
ATOM      8  C   UNL     1      -0.402  -6.199   1.363  1.00  0.00     0.043 A 
ATOM      9  C   UNL     1       0.939  -6.575   1.257  1.00  0.00     0.038 A 
BRANCH   5  10
ATOM     10  N   UNL     1      -1.566  -6.098  -2.200  1.00  0.00    -0.279 N 
ATOM     11  H   UNL     1      -2.159  -6.814  -2.524  1.00  0.00     0.180 HD
BRANCH  10  12
ATOM     12  S   UNL     1      -1.530  -4.615  -3.034  1.00  0.00     0.261 S 
ATOM     13  O   UNL     1      -2.867  -4.492  -3.591  1.00  0.00    -0.201 OA
ATOM     14  O   UNL     1      -0.360  -4.588  -3.879  1.00  0.00    -0.201 OA
BRANCH  12  15
ATOM     15  C   UNL     1      -1.343  -3.310  -1.840  1.00  0.00     0.087 A 
ATOM     16  C   UNL     1      -1.003  -1.343   0.141  1.00  0.00    -0.048 A 
ATOM     17  C   UNL     1      -2.138  -1.331  -0.687  1.00  0.00     0.005 A 
ATOM     18  C   UNL     1      -0.065  -2.370  -0.031  1.00  0.00     0.005 A 
ATOM     19  C   UNL     1      -2.317  -2.319  -1.669  1.00  0.00     0.022 A 
ATOM     20  C   UNL     1      -0.187  -3.286  -1.066  1.00  0.00     0.022 A 
BRANCH  16  21
ATOM     21  C   UNL     1      -0.783  -0.268   1.189  1.00  0.00     0.038 C 
BRANCH  21  22
ATOM     22  C   UNL     1       0.707   0.083   1.435  1.00  0.00    -0.013 C 
ATOM     23  C   UNL     1       1.410   0.544   0.151  1.00  0.00     0.008 C 
ATOM     24  C   UNL     1       0.864   1.151   2.515  1.00  0.00     0.008 C 
ENDBRANCH  21  22
ENDBRANCH  16  21
ENDBRANCH  12  15
ENDBRANCH  10  12
ENDBRANCH   5  10
BRANCH   9  25
ATOM     25  N   UNL     1       1.783  -6.605   2.359  1.00  0.00    -0.366 N 
BRANCH  25  26
ATOM     26  C   UNL     1       3.005  -5.797   2.338  1.00  0.00     0.122 C 
BRANCH  26  27
ATOM     27  C   UNL     1       4.226  -6.588   2.802  1.00  0.00     0.083 CG0
ATOM     28  G   UNL     1       4.222  -6.876   4.305  1.00  0.00     0.000 G0
ENDBRANCH  26  27
ENDBRANCH  25  26
BRANCH  25  29
ATOM     29  C   UNL     1       1.334  -7.075   3.684  1.00  0.00     0.177 C 
BRANCH  29  30
ATOM     30  C   UNL     1       2.170  -8.296   4.129  1.00  0.00     0.283 C 
BRANCH  30  31
ATOM     31  N   UNL     1       3.476  -8.049   4.766  1.00  0.00    -0.336 N 
ATOM     32  C   UNL     1       4.293  -9.263   4.725  1.00  0.00     0.332 C 
ATOM     33  H   UNL     1       3.251  -7.804   5.730  1.00  0.00     0.347 HD
BRANCH  31  34
ATOM     34  C   UNL     1       4.222  -6.876   4.305  1.00  0.00     0.263 CG0
ATOM     35  G   UNL     1       4.226  -6.588   2.802  1.00  0.00     0.000 G0
ENDBRANCH  31  34
ENDBRANCH  30  31
ENDBRANCH  29  30
ENDBRANCH  25  29
ENDBRANCH   9  25
ENDBRANCH   2   4
ENDBRANCH   1   2
BRANCH   1  36
ATOM     36  C   UNL     1      -4.698  -4.898  -0.275  1.00  0.00     0.275 C 
BRANCH  36  37
ATOM     37  C   UNL     1      -5.658  -5.212   0.875  1.00  0.00     0.275 C 
BRANCH  37  38
ATOM     38  O   UNL     1      -5.100  -4.876   2.162  1.00  0.00    -0.458 OA
BRANCH  38  39
ATOM     39  C   UNL     1      -4.469  -5.896   2.782  1.00  0.00     0.338 C 
ATOM     40  O   UNL     1      -4.355  -7.045   2.385  1.00  0.00    -0.246 OA
BRANCH  39  41
ATOM     41  C   UNL     1      -3.817  -5.454   4.022  1.00  0.00     0.060 A 
ATOM     42  C   UNL     1      -2.537  -4.919   3.943  1.00  0.00     0.016 A 
ATOM     43  C   UNL     1      -4.331  -5.827   5.258  1.00  0.00     0.016 A 
ATOM     44  C   UNL     1      -1.695  -4.927   5.038  1.00  0.00     0.010 A 
ATOM     45  C   UNL     1      -3.535  -5.677   6.400  1.00  0.00     0.010 A 
ATOM     46  C   UNL     1      -2.189  -5.277   6.290  1.00  0.00    -0.014 A 
BRANCH  46  47
ATOM     47  C   UNL     1      -1.276  -5.269   7.458  1.00  0.00     0.031 A 
ATOM     48  C   UNL     1      -1.123  -6.513   8.283  1.00  0.00     0.074 A 
ATOM     49  C   UNL     1      -0.571  -4.160   7.759  1.00  0.00     0.049 A 
ATOM     50  N   UNL     1      -0.602  -6.657   9.472  1.00  0.00    -0.248 NA
ATOM     51  C   UNL     1      -1.651  -7.760   7.702  1.00  0.00     0.031 C 
ATOM     52  C   UNL     1      -0.563  -2.915   6.984  1.00  0.00     0.029 A 
ATOM     53  N   UNL     1       0.278  -3.898   8.803  1.00  0.00    -0.354 N 
ATOM     54  C   UNL     1      -0.810  -7.987   9.814  1.00  0.00     0.074 A 
ATOM     55  C   UNL     1      -1.503  -8.609   8.707  1.00  0.00     0.031 C 
ATOM     56  C   UNL     1       0.267  -2.037   7.561  1.00  0.00     0.029 A 
ATOM     57  C   UNL     1       0.746  -2.606   8.811  1.00  0.00     0.049 A 
ATOM     58  H   UNL     1       0.527  -4.569   9.480  1.00  0.00     0.167 HD
ATOM     59  C   UNL     1      -0.461  -8.618  10.960  1.00  0.00     0.037 A 
ATOM     60  C   UNL     1       1.418  -1.926   9.757  1.00  0.00     0.037 A 
ATOM     61  C   UNL     1       0.278  -7.983  12.021  1.00  0.00     0.049 A 
ATOM     62  C   UNL     1       1.746  -2.627  11.040  1.00  0.00     0.074 A 
ATOM     63  C   UNL     1       0.703  -8.522  13.222  1.00  0.00     0.029 A 
ATOM     64  N   UNL     1       0.712  -6.664  11.998  1.00  0.00    -0.354 N 
ATOM     65  N   UNL     1       1.485  -3.863  11.395  1.00  0.00    -0.248 NA
ATOM     66  C   UNL     1       2.444  -1.839  12.062  1.00  0.00     0.031 C 
ATOM     67  C   UNL     1       1.347  -7.514  13.947  1.00  0.00     0.029 A 
ATOM     68  C   UNL     1       1.380  -6.364  13.173  1.00  0.00     0.049 A 
ATOM     69  H   UNL     1       0.566  -6.034  11.255  1.00  0.00     0.167 HD
ATOM     70  C   UNL     1       2.003  -4.008  12.673  1.00  0.00     0.074 A 
ATOM     71  C   UNL     1       2.609  -2.737  13.021  1.00  0.00     0.031 C 
ATOM     72  C   UNL     1       1.978  -5.091  13.489  1.00  0.00     0.037 A 
BRANCH  59  73
ATOM     73  C   UNL     1      -0.922 -10.036  11.146  1.00  0.00     0.057 A 
ATOM     74  C   UNL     1      -0.415 -11.103  10.393  1.00  0.00     0.134 A 
ATOM     75  C   UNL     1      -1.894 -10.337  12.111  1.00  0.00     0.134 A 
ATOM     76  F   UNL     1       0.502 -10.886   9.439  1.00  0.00    -0.206 F 
ATOM     77  C   UNL     1      -0.877 -12.409  10.572  1.00  0.00     0.040 A 
ATOM     78  C   UNL     1      -2.340 -11.643  12.322  1.00  0.00     0.040 A 
ATOM     79  F   UNL     1      -2.424  -9.366  12.871  1.00  0.00    -0.206 F 
ATOM     80  C   UNL     1      -1.838 -12.683  11.544  1.00  0.00     0.006 A 
ENDBRANCH  59  73
BRANCH  60  81
ATOM     81  C   UNL     1       1.749  -0.493   9.544  1.00  0.00     0.057 A 
ATOM     82  C   UNL     1       3.074  -0.069   9.403  1.00  0.00     0.134 A 
ATOM     83  C   UNL     1       0.747   0.484   9.455  1.00  0.00     0.134 A 
ATOM     84  F   UNL     1       4.079  -0.952   9.495  1.00  0.00    -0.206 F 
ATOM     85  C   UNL     1       3.393   1.274   9.192  1.00  0.00     0.040 A 
ATOM     86  C   UNL     1       1.049   1.824   9.210  1.00  0.00     0.040 A 
ATOM     87  F   UNL     1      -0.545   0.144   9.572  1.00  0.00    -0.206 F 
ATOM     88  C   UNL     1       2.377   2.224   9.086  1.00  0.00     0.006 A 
ENDBRANCH  60  81
BRANCH  72  89
ATOM     89  C   UNL     1       2.669  -4.955  14.812  1.00  0.00     0.057 A 
ATOM     90  C   UNL     1       2.144  -4.171  15.847  1.00  0.00     0.134 A 
ATOM     91  C   UNL     1       3.865  -5.641  15.059  1.00  0.00     0.134 A 
ATOM     92  F   UNL     1       1.012  -3.475  15.667  1.00  0.00    -0.206 F 
ATOM     93  C   UNL     1       2.800  -4.053  17.073  1.00  0.00     0.040 A 
ATOM     94  C   UNL     1       4.512  -5.557  16.292  1.00  0.00     0.040 A 
ATOM     95  F   UNL     1       4.416  -6.415  14.111  1.00  0.00    -0.206 F 
ATOM     96  C   UNL     1       3.983  -4.754  17.300  1.00  0.00     0.006 A 
ENDBRANCH  72  89
ENDBRANCH  46  47
ENDBRANCH  39  41
ENDBRANCH  38  39
ENDBRANCH  37  38
ENDBRANCH  36  37
ENDBRANCH   1  36
TORSDOF 17
