REMARK SMILES C[N@@H+]1CC[C@H]2CN(C(=O)c3csc(-c4ccncc4)n3)C[C@@]2(C(=O)OCCOC(=O)c2ccc(-c3c4nc(c(-c5c(F)cccc5F)c5ccc([nH]5)c(-c5c(F)cccc5F)c5nc(c(-c6c(F)cccc6F)c6ccc3[nH]6)C=C5)C=C4)cc2)C1
REMARK SMILES IDX 26 1 25 2 23 3 24 4 22 5 1 6 2 7 3 8 85 9 4 11 5 12 21 13
REMARK SMILES IDX 6 14 7 15 8 16 9 17 10 18 11 19 20 20 12 21 13 22 14 23
REMARK SMILES IDX 15 24 19 25 16 26 18 27 17 28 27 29 28 30 29 31 30 32 31 33
REMARK SMILES IDX 32 34 84 35 33 36 83 37 34 38 35 39 36 40 77 41 37 42 82 43
REMARK SMILES IDX 76 44 78 45 38 46 81 47 75 48 74 49 39 51 65 52 48 53 64 54
REMARK SMILES IDX 49 55 52 56 63 57 79 58 50 59 51 60 62 62 80 63 53 64 40 65
REMARK SMILES IDX 41 66 46 67 42 68 43 69 45 70 47 71 44 72 66 73 67 74 72 75
REMARK SMILES IDX 68 76 69 77 71 78 73 79 70 80 54 81 55 82 60 83 56 84 57 85
REMARK SMILES IDX 59 86 61 87 58 88
REMARK H PARENT 2 10 78 50 52 61
REMARK Flexibility Score: inf
ROOT
ATOM      1  C   UNL     1       3.749   1.334   0.680  1.00  0.00     0.274 C 
ENDROOT
BRANCH   1   2
ATOM      2  O   UNL     1       3.144   2.484   1.353  1.00  0.00    -0.461 OA
BRANCH   2   3
ATOM      3  C   UNL     1       2.320   3.354   0.654  1.00  0.00     0.320 C 
ATOM      4  O   UNL     1       2.611   3.851  -0.422  1.00  0.00    -0.251 OA
BRANCH   3   5
ATOM      5  C   UNL     1       0.994   3.548   1.442  1.00  0.00     0.139 C 
ATOM      6  C   UNL     1       0.485   1.556  -0.666  1.00  0.00     0.332 C 
ATOM      7  N   UNL     1      -0.000   1.363   0.719  1.00  0.00    -0.336 N 
ATOM      8  C   UNL     1      -1.423   1.674   0.710  1.00  0.00     0.262 C 
ATOM      9  C   UNL     1       0.637   2.113   1.856  1.00  0.00     0.283 C 
ATOM     10  H   UNL     1       0.257   0.400   0.932  1.00  0.00     0.347 HD
ATOM     11  C   UNL     1      -1.639   3.151   0.992  1.00  0.00     0.068 C 
ATOM     12  C   UNL     1      -0.386   4.088   0.865  1.00  0.00     0.039 C 
ATOM     13  C   UNL     1       1.425   4.665   2.425  1.00  0.00     0.145 C 
ATOM     14  C   UNL     1      -0.755   5.280   1.749  1.00  0.00     0.125 C 
ATOM     15  N   UNL     1       0.501   5.773   2.181  1.00  0.00    -0.336 N 
BRANCH  15  16
ATOM     16  C   UNL     1       0.664   7.141   2.233  1.00  0.00     0.273 C 
ATOM     17  O   UNL     1      -0.263   7.879   2.570  1.00  0.00    -0.267 OA
BRANCH  16  18
ATOM     18  C   UNL     1       1.907   7.705   1.712  1.00  0.00     0.139 A 
ATOM     19  C   UNL     1       2.408   8.922   2.140  1.00  0.00     0.101 A 
ATOM     20  N   UNL     1       2.553   7.176   0.593  1.00  0.00    -0.231 NA
ATOM     21  S   UNL     1       3.711   9.411   1.149  1.00  0.00    -0.122 S 
ATOM     22  C   UNL     1       3.479   8.012   0.173  1.00  0.00     0.124 A 
BRANCH  22  23
ATOM     23  C   UNL     1       4.270   7.864  -1.046  1.00  0.00     0.013 A 
ATOM     24  C   UNL     1       3.697   8.101  -2.299  1.00  0.00     0.031 A 
ATOM     25  C   UNL     1       5.616   7.503  -0.976  1.00  0.00     0.031 A 
ATOM     26  C   UNL     1       4.502   7.988  -3.421  1.00  0.00     0.111 A 
ATOM     27  C   UNL     1       6.334   7.410  -2.155  1.00  0.00     0.111 A 
ATOM     28  N   UNL     1       5.809   7.653  -3.375  1.00  0.00    -0.265 NA
ENDBRANCH  22  23
ENDBRANCH  16  18
ENDBRANCH  15  16
ENDBRANCH   3   5
ENDBRANCH   2   3
ENDBRANCH   1   2
BRANCH   1  29
ATOM     29  C   UNL     1       3.473   0.000   1.461  1.00  0.00     0.275 C 
BRANCH  29  30
ATOM     30  O   UNL     1       2.248  -0.664   1.034  1.00  0.00    -0.458 OA
BRANCH  30  31
ATOM     31  C   UNL     1       1.720  -1.647   1.842  1.00  0.00     0.338 C 
ATOM     32  O   UNL     1       2.229  -2.055   2.871  1.00  0.00    -0.246 OA
BRANCH  31  33
ATOM     33  C   UNL     1       0.364  -2.111   1.357  1.00  0.00     0.060 A 
ATOM     34  C   UNL     1      -0.138  -1.613   0.174  1.00  0.00     0.016 A 
ATOM     35  C   UNL     1      -0.487  -2.947   2.086  1.00  0.00     0.016 A 
ATOM     36  C   UNL     1      -1.505  -1.661  -0.118  1.00  0.00     0.010 A 
ATOM     37  C   UNL     1      -1.828  -3.182   1.654  1.00  0.00     0.010 A 
ATOM     38  C   UNL     1      -2.401  -2.478   0.574  1.00  0.00    -0.014 A 
BRANCH  38  39
ATOM     39  C   UNL     1      -3.875  -2.537   0.183  1.00  0.00     0.031 A 
ATOM     40  C   UNL     1      -4.960  -2.687   1.238  1.00  0.00     0.074 A 
ATOM     41  C   UNL     1      -4.324  -2.389  -1.092  1.00  0.00     0.049 A 
ATOM     42  N   UNL     1      -6.198  -3.106   1.107  1.00  0.00    -0.248 NA
ATOM     43  C   UNL     1      -4.606  -2.329   2.619  1.00  0.00     0.031 C 
ATOM     44  C   UNL     1      -3.506  -2.142  -2.279  1.00  0.00     0.029 A 
ATOM     45  N   UNL     1      -5.610  -2.393  -1.607  1.00  0.00    -0.354 N 
ATOM     46  C   UNL     1      -6.718  -3.191   2.395  1.00  0.00     0.074 A 
ATOM     47  C   UNL     1      -5.678  -2.727   3.291  1.00  0.00     0.031 C 
ATOM     48  C   UNL     1      -4.291  -1.876  -3.330  1.00  0.00     0.029 A 
ATOM     49  C   UNL     1      -5.670  -2.156  -2.965  1.00  0.00     0.049 A 
ATOM     50  H   UNL     1      -6.409  -2.550  -1.055  1.00  0.00     0.167 HD
ATOM     51  C   UNL     1      -7.936  -3.638   2.796  1.00  0.00     0.037 A 
ATOM     52  C   UNL     1      -6.674  -2.248  -3.862  1.00  0.00     0.037 A 
ATOM     53  C   UNL     1      -9.020  -3.974   1.905  1.00  0.00     0.049 A 
ATOM     54  C   UNL     1      -8.010  -2.768  -3.422  1.00  0.00     0.074 A 
ATOM     55  C   UNL     1     -10.274  -4.478   2.212  1.00  0.00     0.029 A 
ATOM     56  N   UNL     1      -8.996  -3.788   0.532  1.00  0.00    -0.354 N 
ATOM     57  N   UNL     1      -8.416  -3.078  -2.217  1.00  0.00    -0.248 NA
ATOM     58  C   UNL     1      -9.006  -3.018  -4.476  1.00  0.00     0.031 C 
ATOM     59  C   UNL     1     -11.001  -4.615   1.023  1.00  0.00     0.029 A 
ATOM     60  C   UNL     1     -10.212  -4.162  -0.020  1.00  0.00     0.049 A 
ATOM     61  H   UNL     1      -8.228  -3.442   0.023  1.00  0.00     0.167 HD
ATOM     62  C   UNL     1      -9.704  -3.573  -2.367  1.00  0.00     0.074 A 
ATOM     63  C   UNL     1     -10.028  -3.489  -3.776  1.00  0.00     0.031 C 
ATOM     64  C   UNL     1     -10.533  -4.073  -1.420  1.00  0.00     0.037 A 
BRANCH  51  65
ATOM     65  C   UNL     1      -8.135  -3.878   4.268  1.00  0.00     0.057 A 
ATOM     66  C   UNL     1      -8.296  -2.845   5.197  1.00  0.00     0.134 A 
ATOM     67  C   UNL     1      -8.177  -5.193   4.755  1.00  0.00     0.134 A 
ATOM     68  F   UNL     1      -8.257  -1.563   4.803  1.00  0.00    -0.206 F 
ATOM     69  C   UNL     1      -8.454  -3.109   6.561  1.00  0.00     0.040 A 
ATOM     70  C   UNL     1      -8.361  -5.471   6.111  1.00  0.00     0.040 A 
ATOM     71  F   UNL     1      -8.045  -6.234   3.918  1.00  0.00    -0.206 F 
ATOM     72  C   UNL     1      -8.490  -4.425   7.020  1.00  0.00     0.006 A 
ENDBRANCH  51  65
BRANCH  52  73
ATOM     73  C   UNL     1      -6.416  -1.968  -5.305  1.00  0.00     0.057 A 
ATOM     74  C   UNL     1      -7.018  -0.886  -5.957  1.00  0.00     0.134 A 
ATOM     75  C   UNL     1      -5.553  -2.772  -6.064  1.00  0.00     0.134 A 
ATOM     76  F   UNL     1      -7.889  -0.103  -5.303  1.00  0.00    -0.206 F 
ATOM     77  C   UNL     1      -6.759  -0.605  -7.301  1.00  0.00     0.040 A 
ATOM     78  C   UNL     1      -5.255  -2.480  -7.396  1.00  0.00     0.040 A 
ATOM     79  F   UNL     1      -4.954  -3.835  -5.508  1.00  0.00    -0.206 F 
ATOM     80  C   UNL     1      -5.862  -1.394  -8.020  1.00  0.00     0.006 A 
ENDBRANCH  52  73
BRANCH  64  81
ATOM     81  C   UNL     1     -11.882  -4.543  -1.874  1.00  0.00     0.057 A 
ATOM     82  C   UNL     1     -12.048  -5.756  -2.553  1.00  0.00     0.134 A 
ATOM     83  C   UNL     1     -13.028  -3.782  -1.615  1.00  0.00     0.134 A 
ATOM     84  F   UNL     1     -10.986  -6.522  -2.848  1.00  0.00    -0.206 F 
ATOM     85  C   UNL     1     -13.307  -6.189  -2.973  1.00  0.00     0.040 A 
ATOM     86  C   UNL     1     -14.294  -4.213  -2.014  1.00  0.00     0.040 A 
ATOM     87  F   UNL     1     -12.935  -2.610  -0.969  1.00  0.00    -0.206 F 
ATOM     88  C   UNL     1     -14.435  -5.418  -2.699  1.00  0.00     0.006 A 
ENDBRANCH  64  81
ENDBRANCH  38  39
ENDBRANCH  31  33
ENDBRANCH  30  31
ENDBRANCH  29  30
ENDBRANCH   1  29
TORSDOF 14
