REMARK SMILES O=C(CCCc1nc(-c2ccc(Cl)c(Cl)c2)c(-c2ccccc2)o1)OCCOC(=O)c1ccc(-c2c3nc(c(-c4c(F)cccc4F)c4ccc([nH]4)c(-c4c(F)cccc4F)c4nc(c(-c5c(F)cccc5F)c5ccc2[nH]5)C=C4)C=C3)cc1
REMARK SMILES IDX 26 1 25 2 2 3 1 4 3 5 4 6 5 7 6 8 7 9 24 10 8 11 17 12 9 13
REMARK SMILES IDX 10 14 16 15 11 16 14 17 12 18 15 19 13 20 18 21 19 22 23 23
REMARK SMILES IDX 20 24 22 25 21 26 27 27 28 28 29 29 30 30 31 31 32 32 84 33
REMARK SMILES IDX 33 34 83 35 34 36 35 37 36 38 77 39 37 40 82 41 76 42 78 43
REMARK SMILES IDX 38 44 81 45 75 46 74 47 39 49 65 50 48 51 64 52 49 53 52 54
REMARK SMILES IDX 63 55 79 56 50 57 51 58 62 60 80 61 53 62 40 63 41 64 46 65
REMARK SMILES IDX 42 66 43 67 45 68 47 69 44 70 66 71 67 72 72 73 68 74 69 75
REMARK SMILES IDX 71 76 73 77 70 78 54 79 55 80 60 81 56 82 57 83 59 84 61 85
REMARK SMILES IDX 58 86
REMARK H PARENT 78 48 52 59
REMARK Flexibility Score: inf
ROOT
ATOM      1  C   UNL     1       3.196  -1.035   1.008  1.00  0.00     0.274 C 
ENDROOT
BRANCH   1   2
ATOM      2  O   UNL     1       2.182  -0.023   0.866  1.00  0.00    -0.462 OA
BRANCH   2   3
ATOM      3  C   UNL     1       2.479   1.230   0.441  1.00  0.00     0.305 C 
ATOM      4  O   UNL     1       1.836   2.193   0.852  1.00  0.00    -0.252 OA
BRANCH   3   5
ATOM      5  C   UNL     1       3.508   1.398  -0.658  1.00  0.00     0.123 C 
BRANCH   5   6
ATOM      6  C   UNL     1       4.687   2.310  -0.318  1.00  0.00     0.021 C 
BRANCH   6   7
ATOM      7  C   UNL     1       5.902   1.625   0.319  1.00  0.00     0.098 C 
BRANCH   7   8
ATOM      8  C   UNL     1       6.422   0.450  -0.442  1.00  0.00     0.195 A 
ATOM      9  N   UNL     1       6.039  -0.807  -0.328  1.00  0.00    -0.213 NA
ATOM     10  O   UNL     1       7.454   0.650  -1.325  1.00  0.00    -0.440 OA
ATOM     11  C   UNL     1       6.862  -1.486  -1.181  1.00  0.00     0.117 A 
ATOM     12  C   UNL     1       7.726  -0.610  -1.801  1.00  0.00     0.162 A 
BRANCH  11  13
ATOM     13  C   UNL     1       6.869  -2.923  -1.312  1.00  0.00     0.006 A 
ATOM     14  C   UNL     1       5.838  -3.578  -1.992  1.00  0.00     0.012 A 
ATOM     15  C   UNL     1       7.911  -3.670  -0.748  1.00  0.00     0.032 A 
ATOM     16  C   UNL     1       5.845  -4.970  -2.105  1.00  0.00     0.023 A 
ATOM     17  C   UNL     1       7.921  -5.063  -0.863  1.00  0.00     0.060 A 
ATOM     18  C   UNL     1       6.886  -5.715  -1.541  1.00  0.00     0.059 A 
ATOM     19  Cl  UNL     1       9.240  -5.916  -0.143  1.00  0.00    -0.083 Cl
ATOM     20  Cl  UNL     1       6.831  -7.433  -1.718  1.00  0.00    -0.083 Cl
ENDBRANCH  11  13
BRANCH  12  21
ATOM     21  C   UNL     1       8.814  -0.774  -2.743  1.00  0.00     0.020 A 
ATOM     22  C   UNL     1      10.104  -0.345  -2.417  1.00  0.00     0.012 A 
ATOM     23  C   UNL     1       8.610  -1.490  -3.933  1.00  0.00     0.012 A 
ATOM     24  C   UNL     1      11.180  -0.658  -3.250  1.00  0.00     0.001 A 
ATOM     25  C   UNL     1       9.685  -1.794  -4.768  1.00  0.00     0.001 A 
ATOM     26  C   UNL     1      10.971  -1.388  -4.420  1.00  0.00     0.000 A 
ENDBRANCH  12  21
ENDBRANCH   7   8
ENDBRANCH   6   7
ENDBRANCH   5   6
ENDBRANCH   3   5
ENDBRANCH   2   3
ENDBRANCH   1   2
BRANCH   1  27
ATOM     27  C   UNL     1       3.047  -2.160  -0.020  1.00  0.00     0.275 C 
BRANCH  27  28
ATOM     28  O   UNL     1       3.014  -1.637  -1.362  1.00  0.00    -0.458 OA
BRANCH  28  29
ATOM     29  C   UNL     1       1.788  -1.591  -1.933  1.00  0.00     0.338 C 
ATOM     30  O   UNL     1       0.779  -2.153  -1.542  1.00  0.00    -0.246 OA
BRANCH  29  31
ATOM     31  C   UNL     1       1.776  -0.596  -3.031  1.00  0.00     0.060 A 
ATOM     32  C   UNL     1       0.686   0.281  -3.077  1.00  0.00     0.016 A 
ATOM     33  C   UNL     1       2.781  -0.513  -4.001  1.00  0.00     0.016 A 
ATOM     34  C   UNL     1       0.574   1.212  -4.111  1.00  0.00     0.010 A 
ATOM     35  C   UNL     1       2.662   0.419  -5.045  1.00  0.00     0.010 A 
ATOM     36  C   UNL     1       1.543   1.269  -5.121  1.00  0.00    -0.014 A 
BRANCH  36  37
ATOM     37  C   UNL     1       1.316   2.147  -6.299  1.00  0.00     0.031 A 
ATOM     38  C   UNL     1       0.722   1.564  -7.554  1.00  0.00     0.074 A 
ATOM     39  C   UNL     1       1.589   3.464  -6.248  1.00  0.00     0.049 A 
ATOM     40  N   UNL     1       0.414   2.160  -8.679  1.00  0.00    -0.248 NA
ATOM     41  C   UNL     1       0.432   0.122  -7.537  1.00  0.00     0.031 C 
ATOM     42  C   UNL     1       2.136   4.172  -5.092  1.00  0.00     0.029 A 
ATOM     43  N   UNL     1       1.443   4.442  -7.203  1.00  0.00    -0.354 N 
ATOM     44  C   UNL     1      -0.107   1.170  -9.502  1.00  0.00     0.074 A 
ATOM     45  C   UNL     1      -0.051  -0.071  -8.757  1.00  0.00     0.031 C 
ATOM     46  C   UNL     1       2.296   5.468  -5.411  1.00  0.00     0.029 A 
ATOM     47  C   UNL     1       1.882   5.679  -6.798  1.00  0.00     0.049 A 
ATOM     48  H   UNL     1       1.059   4.272  -8.093  1.00  0.00     0.167 HD
ATOM     49  C   UNL     1      -0.598   1.283 -10.758  1.00  0.00     0.037 A 
ATOM     50  C   UNL     1       1.962   6.844  -7.474  1.00  0.00     0.037 A 
ATOM     51  C   UNL     1      -0.674   2.512 -11.504  1.00  0.00     0.049 A 
ATOM     52  C   UNL     1       1.484   6.922  -8.901  1.00  0.00     0.074 A 
ATOM     53  C   UNL     1      -1.224   2.723 -12.757  1.00  0.00     0.029 A 
ATOM     54  N   UNL     1      -0.172   3.729 -11.078  1.00  0.00    -0.354 N 
ATOM     55  N   UNL     1       0.922   5.996  -9.639  1.00  0.00    -0.248 NA
ATOM     56  C   UNL     1       1.653   8.211  -9.592  1.00  0.00     0.031 C 
ATOM     57  C   UNL     1      -1.001   4.055 -13.115  1.00  0.00     0.029 A 
ATOM     58  C   UNL     1      -0.354   4.684 -12.065  1.00  0.00     0.049 A 
ATOM     59  H   UNL     1       0.251   3.892 -10.204  1.00  0.00     0.167 HD
ATOM     60  C   UNL     1       0.652   6.594 -10.864  1.00  0.00     0.074 A 
ATOM     61  C   UNL     1       1.097   7.967 -10.771  1.00  0.00     0.031 C 
ATOM     62  C   UNL     1       0.088   6.050 -11.970  1.00  0.00     0.037 A 
BRANCH  49  63
ATOM     63  C   UNL     1      -1.085   0.037 -11.432  1.00  0.00     0.057 A 
ATOM     64  C   UNL     1      -2.314  -0.546 -11.106  1.00  0.00     0.134 A 
ATOM     65  C   UNL     1      -0.350  -0.535 -12.479  1.00  0.00     0.134 A 
ATOM     66  F   UNL     1      -3.060  -0.048 -10.108  1.00  0.00    -0.206 F 
ATOM     67  C   UNL     1      -2.794  -1.662 -11.793  1.00  0.00     0.040 A 
ATOM     68  C   UNL     1      -0.828  -1.638 -13.186  1.00  0.00     0.040 A 
ATOM     69  F   UNL     1       0.833  -0.016 -12.843  1.00  0.00    -0.206 F 
ATOM     70  C   UNL     1      -2.053  -2.205 -12.843  1.00  0.00     0.006 A 
ENDBRANCH  49  63
BRANCH  50  71
ATOM     71  C   UNL     1       2.561   8.041  -6.831  1.00  0.00     0.057 A 
ATOM     72  C   UNL     1       1.793   9.172  -6.533  1.00  0.00     0.134 A 
ATOM     73  C   UNL     1       3.934   8.104  -6.565  1.00  0.00     0.134 A 
ATOM     74  F   UNL     1       0.478   9.184  -6.795  1.00  0.00    -0.206 F 
ATOM     75  C   UNL     1       2.373  10.333  -6.016  1.00  0.00     0.040 A 
ATOM     76  C   UNL     1       4.523   9.249  -6.025  1.00  0.00     0.040 A 
ATOM     77  F   UNL     1       4.726   7.056  -6.835  1.00  0.00    -0.206 F 
ATOM     78  C   UNL     1       3.742  10.371  -5.759  1.00  0.00     0.006 A 
ENDBRANCH  50  71
BRANCH  62  79
ATOM     79  C   UNL     1      -0.098   6.935 -13.168  1.00  0.00     0.057 A 
ATOM     80  C   UNL     1       0.983   7.322 -13.970  1.00  0.00     0.134 A 
ATOM     81  C   UNL     1      -1.376   7.355 -13.560  1.00  0.00     0.134 A 
ATOM     82  F   UNL     1       2.234   6.963 -13.643  1.00  0.00    -0.206 F 
ATOM     83  C   UNL     1       0.801   8.103 -15.113  1.00  0.00     0.040 A 
ATOM     84  C   UNL     1      -1.573   8.117 -14.713  1.00  0.00     0.040 A 
ATOM     85  F   UNL     1      -2.455   7.013 -12.841  1.00  0.00    -0.206 F 
ATOM     86  C   UNL     1      -0.481   8.496 -15.492  1.00  0.00     0.006 A 
ENDBRANCH  62  79
ENDBRANCH  36  37
ENDBRANCH  29  31
ENDBRANCH  28  29
ENDBRANCH  27  28
ENDBRANCH   1  27
TORSDOF 16
