REMARK SMILES Nc1ccc(C(=O)N2Cc3nc[nH]c3C[C@H]2C(=O)OCCOC(=O)c2ccc(-c3c4nc(c(-c5c(F)cccc5F)c5ccc([nH]5)c(-c5c(F)cccc5F)c5nc(c(-c6c(F)cccc6F)c6ccc3[nH]6)C=C5)C=C4)cc2)cc1
REMARK SMILES IDX 20 1 19 2 17 3 18 4 16 5 8 6 9 7 10 8 15 9 11 10 14 11 12 12
REMARK SMILES IDX 13 13 6 15 7 16 5 17 2 18 3 19 80 20 4 21 79 22 1 23 21 26
REMARK SMILES IDX 22 27 23 28 24 29 25 30 26 31 78 32 27 33 77 34 28 35 29 36
REMARK SMILES IDX 30 37 71 38 31 39 76 40 70 41 72 42 32 43 75 44 69 45 68 46
REMARK SMILES IDX 33 48 59 49 42 50 58 51 43 52 46 53 57 54 73 55 44 56 45 57
REMARK SMILES IDX 56 59 74 60 47 61 34 62 35 63 40 64 36 65 37 66 39 67 41 68
REMARK SMILES IDX 38 69 60 70 61 71 66 72 62 73 63 74 65 75 67 76 64 77 48 78
REMARK SMILES IDX 49 79 54 80 50 81 51 82 53 83 55 84 52 85
REMARK H PARENT 13 14 1 24 1 25 72 47 46 58
REMARK Flexibility Score: inf
ROOT
ATOM      1  C   UNL     1      -2.940   5.557  -0.147  1.00  0.00     0.274 C 
ENDROOT
BRANCH   1   2
ATOM      2  O   UNL     1      -3.436   4.203  -0.205  1.00  0.00    -0.461 OA
BRANCH   2   3
ATOM      3  C   UNL     1      -3.217   3.518  -1.363  1.00  0.00     0.329 C 
ATOM      4  O   UNL     1      -2.677   4.008  -2.354  1.00  0.00    -0.250 OA
BRANCH   3   5
ATOM      5  C   UNL     1      -3.863   2.114  -1.397  1.00  0.00     0.201 C 
ATOM      6  N   UNL     1      -4.066   1.378  -0.113  1.00  0.00    -0.318 N 
ATOM      7  C   UNL     1      -5.082   1.854   0.847  1.00  0.00     0.179 C 
ATOM      8  C   UNL     1      -6.156   2.612   0.139  1.00  0.00     0.081 A 
ATOM      9  C   UNL     1      -5.198   2.276  -2.180  1.00  0.00     0.093 C 
ATOM     10  N   UNL     1      -7.151   3.326   0.754  1.00  0.00    -0.240 NA
ATOM     11  C   UNL     1      -6.204   2.803  -1.224  1.00  0.00     0.042 A 
ATOM     12  C   UNL     1      -7.790   3.933  -0.225  1.00  0.00     0.197 A 
ATOM     13  N   UNL     1      -7.251   3.641  -1.452  1.00  0.00    -0.348 N 
ATOM     14  H   UNL     1      -7.561   3.973  -2.325  1.00  0.00     0.167 HD
BRANCH   6  15
ATOM     15  C   UNL     1      -3.777   0.016  -0.116  1.00  0.00     0.254 C 
ATOM     16  O   UNL     1      -4.433  -0.794  -0.762  1.00  0.00    -0.269 OA
BRANCH  15  17
ATOM     17  C   UNL     1      -2.529  -0.399   0.598  1.00  0.00     0.040 A 
ATOM     18  C   UNL     1      -0.040  -1.098   1.739  1.00  0.00     0.031 A 
ATOM     19  C   UNL     1      -0.698  -1.975   0.875  1.00  0.00     0.026 A 
ATOM     20  C   UNL     1      -0.682   0.087   2.095  1.00  0.00     0.026 A 
ATOM     21  C   UNL     1      -1.930  -1.628   0.298  1.00  0.00     0.016 A 
ATOM     22  C   UNL     1      -1.913   0.435   1.530  1.00  0.00     0.016 A 
BRANCH  18  23
ATOM     23  N   UNL     1       1.173  -1.435   2.315  1.00  0.00    -0.399 N 
ATOM     24  H   UNL     1       1.623  -2.272   2.060  1.00  0.00     0.156 HD
ATOM     25  H   UNL     1       1.586  -0.836   2.978  1.00  0.00     0.156 HD
ENDBRANCH  18  23
ENDBRANCH  15  17
ENDBRANCH   6  15
ENDBRANCH   3   5
ENDBRANCH   2   3
ENDBRANCH   1   2
BRANCH   1  26
ATOM     26  C   UNL     1      -1.659   5.709   0.684  1.00  0.00     0.275 C 
BRANCH  26  27
ATOM     27  O   UNL     1      -0.471   5.181   0.069  1.00  0.00    -0.458 OA
BRANCH  27  28
ATOM     28  C   UNL     1      -0.392   3.848   0.188  1.00  0.00     0.338 C 
ATOM     29  O   UNL     1      -1.303   3.091   0.523  1.00  0.00    -0.246 OA
BRANCH  28  30
ATOM     30  C   UNL     1       0.955   3.307   0.127  1.00  0.00     0.060 A 
ATOM     31  C   UNL     1       1.037   1.966  -0.250  1.00  0.00     0.016 A 
ATOM     32  C   UNL     1       1.977   3.936   0.845  1.00  0.00     0.016 A 
ATOM     33  C   UNL     1       2.064   1.204   0.255  1.00  0.00     0.010 A 
ATOM     34  C   UNL     1       3.028   3.167   1.324  1.00  0.00     0.010 A 
ATOM     35  C   UNL     1       3.025   1.788   1.096  1.00  0.00    -0.014 A 
BRANCH  35  36
ATOM     36  C   UNL     1       4.121   0.918   1.534  1.00  0.00     0.031 A 
ATOM     37  C   UNL     1       4.801   0.268   0.380  1.00  0.00     0.074 A 
ATOM     38  C   UNL     1       4.534   0.785   2.814  1.00  0.00     0.049 A 
ATOM     39  N   UNL     1       5.055  -0.988   0.213  1.00  0.00    -0.248 NA
ATOM     40  C   UNL     1       5.090   1.104  -0.805  1.00  0.00     0.031 C 
ATOM     41  C   UNL     1       4.018   1.523   3.970  1.00  0.00     0.029 A 
ATOM     42  N   UNL     1       5.567   0.056   3.354  1.00  0.00    -0.354 N 
ATOM     43  C   UNL     1       5.742  -1.057  -0.997  1.00  0.00     0.074 A 
ATOM     44  C   UNL     1       5.571   0.204  -1.660  1.00  0.00     0.031 C 
ATOM     45  C   UNL     1       4.877   1.393   5.004  1.00  0.00     0.029 A 
ATOM     46  C   UNL     1       5.952   0.490   4.624  1.00  0.00     0.049 A 
ATOM     47  H   UNL     1       5.994  -0.700   2.890  1.00  0.00     0.167 HD
ATOM     48  C   UNL     1       6.698  -2.002  -1.178  1.00  0.00     0.037 A 
ATOM     49  C   UNL     1       7.089   0.195   5.306  1.00  0.00     0.037 A 
ATOM     50  C   UNL     1       6.478  -3.142  -0.333  1.00  0.00     0.049 A 
ATOM     51  C   UNL     1       7.698  -1.012   4.711  1.00  0.00     0.074 A 
ATOM     52  C   UNL     1       5.637  -4.232  -0.312  1.00  0.00     0.029 A 
ATOM     53  N   UNL     1       7.031  -3.029   0.909  1.00  0.00    -0.354 N 
ATOM     54  N   UNL     1       7.257  -2.220   4.904  1.00  0.00    -0.248 NA
ATOM     55  C   UNL     1       8.702  -0.869   3.660  1.00  0.00     0.031 C 
ATOM     56  C   UNL     1       5.644  -4.723   1.026  1.00  0.00     0.029 A 
ATOM     57  C   UNL     1       6.503  -3.935   1.785  1.00  0.00     0.049 A 
ATOM     58  H   UNL     1       7.727  -2.374   1.146  1.00  0.00     0.167 HD
ATOM     59  C   UNL     1       7.574  -2.876   3.736  1.00  0.00     0.074 A 
ATOM     60  C   UNL     1       8.620  -2.081   3.110  1.00  0.00     0.031 C 
ATOM     61  C   UNL     1       6.706  -3.779   3.205  1.00  0.00     0.037 A 
BRANCH  48  62
ATOM     62  C   UNL     1       8.090  -1.643  -1.661  1.00  0.00     0.057 A 
ATOM     63  C   UNL     1       9.013  -2.675  -1.900  1.00  0.00     0.134 A 
ATOM     64  C   UNL     1       8.650  -0.347  -1.590  1.00  0.00     0.134 A 
ATOM     65  F   UNL     1       8.614  -3.954  -1.952  1.00  0.00    -0.206 F 
ATOM     66  C   UNL     1      10.390  -2.438  -2.009  1.00  0.00     0.040 A 
ATOM     67  C   UNL     1      10.014  -0.095  -1.749  1.00  0.00     0.040 A 
ATOM     68  F   UNL     1       7.935   0.733  -1.256  1.00  0.00    -0.206 F 
ATOM     69  C   UNL     1      10.895  -1.146  -1.931  1.00  0.00     0.006 A 
ENDBRANCH  48  62
BRANCH  49  70
ATOM     70  C   UNL     1       7.802   0.918   6.391  1.00  0.00     0.057 A 
ATOM     71  C   UNL     1       8.780   0.270   7.169  1.00  0.00     0.134 A 
ATOM     72  C   UNL     1       7.748   2.314   6.520  1.00  0.00     0.134 A 
ATOM     73  F   UNL     1       8.935  -1.060   7.111  1.00  0.00    -0.206 F 
ATOM     74  C   UNL     1       9.678   0.971   7.983  1.00  0.00     0.040 A 
ATOM     75  C   UNL     1       8.631   3.025   7.343  1.00  0.00     0.040 A 
ATOM     76  F   UNL     1       6.899   3.047   5.787  1.00  0.00    -0.206 F 
ATOM     77  C   UNL     1       9.614   2.356   8.061  1.00  0.00     0.006 A 
ENDBRANCH  49  70
BRANCH  61  78
ATOM     78  C   UNL     1       5.824  -4.519   4.155  1.00  0.00     0.057 A 
ATOM     79  C   UNL     1       4.838  -3.933   4.958  1.00  0.00     0.134 A 
ATOM     80  C   UNL     1       5.975  -5.909   4.234  1.00  0.00     0.134 A 
ATOM     81  F   UNL     1       4.574  -2.619   4.891  1.00  0.00    -0.206 F 
ATOM     82  C   UNL     1       4.071  -4.699   5.841  1.00  0.00     0.040 A 
ATOM     83  C   UNL     1       5.189  -6.688   5.080  1.00  0.00     0.040 A 
ATOM     84  F   UNL     1       6.882  -6.537   3.468  1.00  0.00    -0.206 F 
ATOM     85  C   UNL     1       4.242  -6.080   5.900  1.00  0.00     0.006 A 
ENDBRANCH  61  78
ENDBRANCH  35  36
ENDBRANCH  28  30
ENDBRANCH  27  28
ENDBRANCH  26  27
ENDBRANCH   1  26
TORSDOF 14
