REMARK SMILES Cc1c(NC(=O)c2cccc(-c3cc4ccccc4oc3=O)c2)cccc1C(=O)OCCOC(=O)c1ccc(-c2c3nc(c(-c4c(F)cccc4F)c4ccc([nH]4)c(-c4c(F)cccc4F)c4nc(c(-c5c(F)cccc5F)c5ccc2[nH]5)C=C4)C=C3)cc1
REMARK SMILES IDX 31 1 30 2 28 3 29 4 27 5 1 6 2 7 3 8 24 9 26 10 25 11 4 12
REMARK SMILES IDX 5 13 6 15 7 16 8 17 23 18 9 19 11 20 10 21 12 22 13 23 21 24
REMARK SMILES IDX 14 25 20 26 22 27 15 28 19 29 16 30 18 31 17 32 32 33 33 34
REMARK SMILES IDX 34 35 35 36 36 37 37 38 89 39 38 40 88 41 39 42 40 43 41 44
REMARK SMILES IDX 82 45 42 46 87 47 81 48 83 49 43 50 86 51 80 52 79 53 44 55
REMARK SMILES IDX 70 56 53 57 69 58 54 59 57 60 68 61 84 62 55 63 56 64 67 66
REMARK SMILES IDX 85 67 58 68 45 69 46 70 51 71 47 72 48 73 50 74 52 75 49 76
REMARK SMILES IDX 71 77 72 78 77 79 73 80 74 81 76 82 78 83 75 84 59 85 60 86
REMARK SMILES IDX 65 87 61 88 62 89 64 90 66 91 63 92
REMARK H PARENT 4 14 83 54 57 65
REMARK Flexibility Score: inf
ROOT
ATOM      1  C   UNL     1       3.610   2.904  -1.462  1.00  0.00     0.275 C 
ENDROOT
BRANCH   1   2
ATOM      2  O   UNL     1       2.915   1.793  -0.812  1.00  0.00    -0.458 OA
BRANCH   2   3
ATOM      3  C   UNL     1       1.652   1.495  -1.159  1.00  0.00     0.338 C 
ATOM      4  O   UNL     1       1.025   2.134  -1.987  1.00  0.00    -0.246 OA
BRANCH   3   5
ATOM      5  C   UNL     1       0.956   0.409  -0.404  1.00  0.00     0.065 A 
ATOM      6  C   UNL     1       2.981  -1.079   0.046  1.00  0.00     0.047 C 
ATOM      7  C   UNL     1       1.506  -0.793   0.082  1.00  0.00    -0.013 A 
ATOM      8  C   UNL     1       0.582  -1.799   0.477  1.00  0.00     0.045 A 
ATOM      9  C   UNL     1      -0.763  -1.494   0.721  1.00  0.00     0.026 A 
ATOM     10  C   UNL     1      -0.443   0.606  -0.326  1.00  0.00     0.016 A 
ATOM     11  C   UNL     1      -1.285  -0.288   0.309  1.00  0.00     0.003 A 
BRANCH   8  12
ATOM     12  N   UNL     1       0.981  -3.148   0.515  1.00  0.00    -0.322 N 
ATOM     13  C   UNL     1       0.274  -4.296   0.191  1.00  0.00     0.255 C 
ATOM     14  H   UNL     1       1.905  -3.300   0.819  1.00  0.00     0.170 HD
ATOM     15  O   UNL     1       0.767  -5.382   0.503  1.00  0.00    -0.269 OA
BRANCH  13  16
ATOM     16  C   UNL     1      -0.995  -4.302  -0.617  1.00  0.00     0.040 A 
ATOM     17  C   UNL     1      -1.839  -5.413  -0.496  1.00  0.00     0.014 A 
ATOM     18  C   UNL     1      -1.304  -3.337  -1.590  1.00  0.00     0.022 A 
ATOM     19  C   UNL     1      -2.986  -5.530  -1.286  1.00  0.00     0.001 A 
ATOM     20  C   UNL     1      -2.462  -3.436  -2.390  1.00  0.00    -0.010 A 
ATOM     21  C   UNL     1      -3.303  -4.541  -2.217  1.00  0.00     0.009 A 
BRANCH  20  22
ATOM     22  C   UNL     1      -2.715  -2.571  -3.584  1.00  0.00     0.068 A 
ATOM     23  C   UNL     1      -2.461  -1.243  -3.573  1.00  0.00     0.028 A 
ATOM     24  C   UNL     1      -2.103  -3.186  -4.812  1.00  0.00     0.344 A 
ATOM     25  C   UNL     1      -1.110  -0.845  -4.019  1.00  0.00     0.018 A 
ATOM     26  O   UNL     1      -0.716  -3.115  -4.800  1.00  0.00    -0.422 OA
ATOM     27  O   UNL     1      -2.759  -3.792  -5.647  1.00  0.00    -0.246 OA
ATOM     28  C   UNL     1      -0.657   0.465  -3.994  1.00  0.00     0.012 A 
ATOM     29  C   UNL     1      -0.228  -1.852  -4.430  1.00  0.00     0.138 A 
ATOM     30  C   UNL     1       0.689   0.720  -4.275  1.00  0.00     0.001 A 
ATOM     31  C   UNL     1       1.136  -1.625  -4.553  1.00  0.00     0.048 A 
ATOM     32  C   UNL     1       1.601  -0.322  -4.448  1.00  0.00     0.004 A 
ENDBRANCH  20  22
ENDBRANCH  13  16
ENDBRANCH   8  12
ENDBRANCH   3   5
ENDBRANCH   2   3
ENDBRANCH   1   2
BRANCH   1  33
ATOM     33  C   UNL     1       2.984   3.794  -2.594  1.00  0.00     0.275 C 
BRANCH  33  34
ATOM     34  O   UNL     1       2.009   4.883  -2.430  1.00  0.00    -0.458 OA
BRANCH  34  35
ATOM     35  C   UNL     1       0.776   4.824  -1.835  1.00  0.00     0.338 C 
ATOM     36  O   UNL     1      -0.261   5.144  -2.337  1.00  0.00    -0.246 OA
BRANCH  35  37
ATOM     37  C   UNL     1       0.899   4.519  -0.400  1.00  0.00     0.060 A 
ATOM     38  C   UNL     1      -0.104   3.815   0.282  1.00  0.00     0.016 A 
ATOM     39  C   UNL     1       2.115   4.822   0.188  1.00  0.00     0.016 A 
ATOM     40  C   UNL     1       0.180   3.283   1.532  1.00  0.00     0.010 A 
ATOM     41  C   UNL     1       2.468   4.146   1.314  1.00  0.00     0.010 A 
ATOM     42  C   UNL     1       1.477   3.447   2.016  1.00  0.00    -0.014 A 
BRANCH  42  43
ATOM     43  C   UNL     1       1.804   3.427   3.423  1.00  0.00     0.031 A 
ATOM     44  C   UNL     1       2.464   2.280   4.039  1.00  0.00     0.074 A 
ATOM     45  C   UNL     1       1.743   4.694   3.893  1.00  0.00     0.049 A 
ATOM     46  N   UNL     1       2.470   2.051   5.301  1.00  0.00    -0.248 NA
ATOM     47  C   UNL     1       3.156   1.251   3.270  1.00  0.00     0.031 C 
ATOM     48  C   UNL     1       2.354   5.349   5.025  1.00  0.00     0.029 A 
ATOM     49  N   UNL     1       0.954   5.703   3.312  1.00  0.00    -0.354 N 
ATOM     50  C   UNL     1       3.457   1.114   5.535  1.00  0.00     0.074 A 
ATOM     51  C   UNL     1       3.713   0.520   4.245  1.00  0.00     0.031 C 
ATOM     52  C   UNL     1       1.687   6.503   5.248  1.00  0.00     0.029 A 
ATOM     53  C   UNL     1       0.547   6.551   4.329  1.00  0.00     0.049 A 
ATOM     54  H   UNL     1       0.732   5.791   2.357  1.00  0.00     0.167 HD
ATOM     55  C   UNL     1       4.083   1.131   6.751  1.00  0.00     0.037 A 
ATOM     56  C   UNL     1      -0.775   6.467   4.665  1.00  0.00     0.037 A 
ATOM     57  C   UNL     1       3.531   2.234   7.552  1.00  0.00     0.049 A 
ATOM     58  C   UNL     1      -0.909   5.777   6.001  1.00  0.00     0.074 A 
ATOM     59  C   UNL     1       3.983   3.531   7.744  1.00  0.00     0.029 A 
ATOM     60  N   UNL     1       2.188   2.228   7.923  1.00  0.00    -0.354 N 
ATOM     61  N   UNL     1      -0.071   4.882   6.457  1.00  0.00    -0.248 NA
ATOM     62  C   UNL     1      -1.951   6.120   6.958  1.00  0.00     0.031 C 
ATOM     63  C   UNL     1       2.869   4.328   8.120  1.00  0.00     0.029 A 
ATOM     64  C   UNL     1       1.745   3.518   8.168  1.00  0.00     0.049 A 
ATOM     65  H   UNL     1       1.631   1.420   8.001  1.00  0.00     0.167 HD
ATOM     66  C   UNL     1      -0.383   4.596   7.754  1.00  0.00     0.074 A 
ATOM     67  C   UNL     1      -1.582   5.377   8.015  1.00  0.00     0.031 C 
ATOM     68  C   UNL     1       0.361   3.769   8.547  1.00  0.00     0.037 A 
BRANCH  55  69
ATOM     69  C   UNL     1       5.390   0.438   7.107  1.00  0.00     0.057 A 
ATOM     70  C   UNL     1       6.142   0.870   8.223  1.00  0.00     0.134 A 
ATOM     71  C   UNL     1       5.982  -0.630   6.409  1.00  0.00     0.134 A 
ATOM     72  F   UNL     1       5.684   1.812   9.058  1.00  0.00    -0.206 F 
ATOM     73  C   UNL     1       7.403   0.352   8.556  1.00  0.00     0.040 A 
ATOM     74  C   UNL     1       7.257  -1.142   6.715  1.00  0.00     0.040 A 
ATOM     75  F   UNL     1       5.347  -1.277   5.427  1.00  0.00    -0.206 F 
ATOM     76  C   UNL     1       7.978  -0.644   7.787  1.00  0.00     0.006 A 
ENDBRANCH  55  69
BRANCH  56  77
ATOM     77  C   UNL     1      -1.705   6.298   3.487  1.00  0.00     0.057 A 
ATOM     78  C   UNL     1      -1.607   7.201   2.402  1.00  0.00     0.134 A 
ATOM     79  C   UNL     1      -2.505   5.172   3.267  1.00  0.00     0.134 A 
ATOM     80  F   UNL     1      -0.861   8.312   2.515  1.00  0.00    -0.206 F 
ATOM     81  C   UNL     1      -2.192   6.957   1.152  1.00  0.00     0.040 A 
ATOM     82  C   UNL     1      -3.118   4.926   2.023  1.00  0.00     0.040 A 
ATOM     83  F   UNL     1      -2.660   4.244   4.222  1.00  0.00    -0.206 F 
ATOM     84  C   UNL     1      -2.943   5.806   0.955  1.00  0.00     0.006 A 
ENDBRANCH  56  77
BRANCH  68  85
ATOM     85  C   UNL     1      -0.144   3.182   9.832  1.00  0.00     0.057 A 
ATOM     86  C   UNL     1      -1.492   2.868  10.050  1.00  0.00     0.134 A 
ATOM     87  C   UNL     1       0.755   2.741  10.826  1.00  0.00     0.134 A 
ATOM     88  F   UNL     1      -2.431   3.120   9.127  1.00  0.00    -0.206 F 
ATOM     89  C   UNL     1      -1.928   2.224  11.209  1.00  0.00     0.040 A 
ATOM     90  C   UNL     1       0.338   2.036  11.953  1.00  0.00     0.040 A 
ATOM     91  F   UNL     1       2.077   2.946  10.726  1.00  0.00    -0.206 F 
ATOM     92  C   UNL     1      -1.011   1.792  12.158  1.00  0.00     0.006 A 
ENDBRANCH  68  85
ENDBRANCH  42  43
ENDBRANCH  35  37
ENDBRANCH  34  35
ENDBRANCH  33  34
ENDBRANCH   1  33
TORSDOF 14
