REMARK SMILES O=C(OCCOC(=O)[C@H]1Sc2[nH]c(=O)sc2[C@H]2c3cc(Br)cc(Br)c3OC(=O)[C@H]21)c1ccc(-c2c3nc(c(-c4c(F)cccc4F)c4ccc([nH]4)c(-c4c(F)cccc4F)c4nc(c(-c5c(F)cccc5F)c5ccc2[nH]5)C=C4)C=C3)cc1
REMARK SMILES IDX 4 1 3 2 2 3 1 4 30 5 31 6 83 7 32 8 82 9 33 10 34 11 35 12
REMARK SMILES IDX 76 13 36 14 81 15 75 16 77 17 37 18 80 19 74 20 73 21 38 23
REMARK SMILES IDX 64 24 47 25 63 26 48 27 51 28 62 29 78 30 49 31 50 32 61 34
REMARK SMILES IDX 79 35 52 36 39 37 40 38 45 39 41 40 42 41 44 42 46 43 43 44
REMARK SMILES IDX 65 45 66 46 71 47 67 48 68 49 70 50 72 51 69 52 53 53 54 54
REMARK SMILES IDX 59 55 55 56 56 57 58 58 60 59 57 60 5 61 6 62 7 63 8 64 9 65
REMARK SMILES IDX 10 66 29 67 11 68 17 69 27 70 12 71 16 72 18 73 26 74 28 75
REMARK SMILES IDX 13 76 15 78 19 79 25 80 14 81 20 82 23 83 21 84 22 85 24 86
REMARK H PARENT 77 22 51 33 12 77
REMARK Flexibility Score: inf
ROOT
ATOM      1  C   UNL     1       4.685   1.314  -1.141  1.00  0.00     0.275 C 
ENDROOT
BRANCH   1   2
ATOM      2  O   UNL     1       3.321   1.108  -1.417  1.00  0.00    -0.458 OA
BRANCH   2   3
ATOM      3  C   UNL     1       2.653   0.540  -0.421  1.00  0.00     0.338 C 
ATOM      4  O   UNL     1       1.431   0.631  -0.339  1.00  0.00    -0.246 OA
BRANCH   3   5
ATOM      5  C   UNL     1       3.382  -0.419   0.504  1.00  0.00     0.060 A 
ATOM      6  C   UNL     1       4.723  -0.677   1.715  1.00  0.00     0.016 A 
ATOM      7  C   UNL     1       2.393  -1.708   0.427  1.00  0.00     0.016 A 
ATOM      8  C   UNL     1       4.964  -2.323   2.497  1.00  0.00     0.010 A 
ATOM      9  C   UNL     1       2.853  -3.308   1.474  1.00  0.00     0.010 A 
ATOM     10  C   UNL     1       4.161  -3.829   2.136  1.00  0.00    -0.014 A 
BRANCH  10  11
ATOM     11  C   UNL     1       3.094  -5.288   2.014  1.00  0.00     0.031 A 
ATOM     12  C   UNL     1       3.135  -5.531   3.476  1.00  0.00     0.074 A 
ATOM     13  C   UNL     1       2.281  -6.188   1.107  1.00  0.00     0.049 A 
ATOM     14  N   UNL     1       4.293  -5.836   3.986  1.00  0.00    -0.248 NA
ATOM     15  C   UNL     1       2.327  -4.797   4.521  1.00  0.00     0.031 C 
ATOM     16  C   UNL     1       1.886  -6.310  -0.357  1.00  0.00     0.029 A 
ATOM     17  N   UNL     1       1.536  -7.399   1.408  1.00  0.00    -0.354 N 
ATOM     18  C   UNL     1       4.056  -5.942   5.324  1.00  0.00     0.074 A 
ATOM     19  C   UNL     1       3.084  -4.945   5.621  1.00  0.00     0.031 C 
ATOM     20  C   UNL     1       0.806  -7.086  -0.696  1.00  0.00     0.029 A 
ATOM     21  C   UNL     1       0.451  -7.870   0.457  1.00  0.00     0.049 A 
ATOM     22  H   UNL     1       1.734  -7.912   2.224  1.00  0.00     0.167 HD
ATOM     23  C   UNL     1       4.223  -7.175   5.854  1.00  0.00     0.037 A 
ATOM     24  C   UNL     1      -0.170  -9.130   0.285  1.00  0.00     0.037 A 
ATOM     25  C   UNL     1       4.905  -8.031   4.892  1.00  0.00     0.049 A 
ATOM     26  C   UNL     1       0.599 -10.075   1.132  1.00  0.00     0.074 A 
ATOM     27  C   UNL     1       6.099  -7.912   4.199  1.00  0.00     0.029 A 
ATOM     28  N   UNL     1       4.060  -8.739   4.075  1.00  0.00    -0.354 N 
ATOM     29  N   UNL     1       1.808 -10.446   0.811  1.00  0.00    -0.248 NA
ATOM     30  C   UNL     1       0.283  -9.921   2.549  1.00  0.00     0.031 C 
ATOM     31  C   UNL     1       5.841  -8.351   2.865  1.00  0.00     0.029 A 
ATOM     32  C   UNL     1       4.582  -8.938   2.821  1.00  0.00     0.049 A 
ATOM     33  H   UNL     1       3.175  -9.067   4.357  1.00  0.00     0.167 HD
ATOM     34  C   UNL     1       2.557 -10.047   1.903  1.00  0.00     0.074 A 
ATOM     35  C   UNL     1       1.546  -9.705   2.942  1.00  0.00     0.031 C 
ATOM     36  C   UNL     1       3.851  -9.603   1.758  1.00  0.00     0.037 A 
BRANCH  23  37
ATOM     37  C   UNL     1       3.385  -7.669   6.976  1.00  0.00     0.057 A 
ATOM     38  C   UNL     1       3.976  -8.584   7.841  1.00  0.00     0.134 A 
ATOM     39  C   UNL     1       2.019  -7.381   7.197  1.00  0.00     0.134 A 
ATOM     40  F   UNL     1       5.254  -8.948   7.667  1.00  0.00    -0.206 F 
ATOM     41  C   UNL     1       3.271  -9.153   8.898  1.00  0.00     0.040 A 
ATOM     42  C   UNL     1       1.315  -7.907   8.279  1.00  0.00     0.040 A 
ATOM     43  F   UNL     1       1.298  -6.629   6.353  1.00  0.00    -0.206 F 
ATOM     44  C   UNL     1       1.944  -8.800   9.133  1.00  0.00     0.006 A 
ENDBRANCH  23  37
BRANCH  24  45
ATOM     45  C   UNL     1      -1.642  -9.493  -0.025  1.00  0.00     0.057 A 
ATOM     46  C   UNL     1      -2.219 -10.802  -0.101  1.00  0.00     0.134 A 
ATOM     47  C   UNL     1      -2.590  -8.470   0.042  1.00  0.00     0.134 A 
ATOM     48  F   UNL     1      -1.453 -11.899  -0.225  1.00  0.00    -0.206 F 
ATOM     49  C   UNL     1      -3.621 -11.042  -0.009  1.00  0.00     0.040 A 
ATOM     50  C   UNL     1      -3.974  -8.695   0.161  1.00  0.00     0.040 A 
ATOM     51  F   UNL     1      -2.186  -7.196   0.074  1.00  0.00    -0.206 F 
ATOM     52  C   UNL     1      -4.499  -9.980   0.168  1.00  0.00     0.006 A 
ENDBRANCH  24  45
BRANCH  36  53
ATOM     53  C   UNL     1       4.593  -9.791   0.432  1.00  0.00     0.057 A 
ATOM     54  C   UNL     1       4.428  -9.064  -0.763  1.00  0.00     0.134 A 
ATOM     55  C   UNL     1       5.693 -10.646   0.442  1.00  0.00     0.134 A 
ATOM     56  F   UNL     1       3.495  -8.127  -0.872  1.00  0.00    -0.206 F 
ATOM     57  C   UNL     1       5.262  -9.212  -1.888  1.00  0.00     0.040 A 
ATOM     58  C   UNL     1       6.549 -10.796  -0.658  1.00  0.00     0.040 A 
ATOM     59  F   UNL     1       6.004 -11.308   1.565  1.00  0.00    -0.206 F 
ATOM     60  C   UNL     1       6.328 -10.095  -1.838  1.00  0.00     0.006 A 
ENDBRANCH  36  53
ENDBRANCH  10  11
ENDBRANCH   3   5
ENDBRANCH   2   3
ENDBRANCH   1   2
BRANCH   1  61
ATOM     61  C   UNL     1       4.835   2.251   0.093  1.00  0.00     0.274 C 
BRANCH  61  62
ATOM     62  O   UNL     1       4.337   1.713   1.398  1.00  0.00    -0.461 OA
BRANCH  62  63
ATOM     63  C   UNL     1       3.027   1.754   1.835  1.00  0.00     0.320 C 
ATOM     64  O   UNL     1       2.320   2.716   1.555  1.00  0.00    -0.251 OA
BRANCH  63  65
ATOM     65  C   UNL     1       2.458   0.266   2.637  1.00  0.00     0.178 C 
ATOM     66  S   UNL     1       0.649   0.766   2.985  1.00  0.00    -0.091 SA
ATOM     67  C   UNL     1       2.863  -1.529   2.206  1.00  0.00     0.137 C 
ATOM     68  C   UNL     1      -0.415  -0.541   2.909  1.00  0.00     0.091 A 
ATOM     69  C   UNL     1       1.028  -2.368   1.951  1.00  0.00     0.082 C 
ATOM     70  C   UNL     1       4.207  -2.263   0.583  1.00  0.00     0.317 C 
ATOM     71  N   UNL     1      -1.728  -0.358   3.268  1.00  0.00    -0.307 N 
ATOM     72  C   UNL     1      -0.192  -1.778   2.501  1.00  0.00     0.049 A 
ATOM     73  C   UNL     1       0.883  -3.400   0.342  1.00  0.00     0.007 A 
ATOM     74  O   UNL     1       3.612  -3.285  -0.406  1.00  0.00    -0.425 OA
ATOM     75  O   UNL     1       5.330  -1.954   0.108  1.00  0.00    -0.251 OA
ATOM     76  C   UNL     1      -2.537  -1.468   3.288  1.00  0.00     0.305 A 
ATOM     77  H   UNL     1      -2.075   0.533   3.501  1.00  0.00     0.171 HD
ATOM     78  S   UNL     1      -1.522  -2.851   2.981  1.00  0.00    -0.078 S 
ATOM     79  C   UNL     1      -0.302  -3.649  -0.268  1.00  0.00     0.024 A 
ATOM     80  C   UNL     1       2.165  -3.668  -0.690  1.00  0.00     0.148 A 
ATOM     81  O   UNL     1      -3.740  -1.531   3.451  1.00  0.00    -0.257 OA
ATOM     82  C   UNL     1      -0.215  -4.049  -1.649  1.00  0.00     0.019 A 
ATOM     83  C   UNL     1       2.211  -4.056  -2.000  1.00  0.00     0.062 A 
ATOM     84  Br  UNL     1      -1.843  -4.359  -2.561  1.00  0.00    -0.051 Br
ATOM     85  C   UNL     1       0.965  -4.250  -2.479  1.00  0.00     0.035 A 
ATOM     86  Br  UNL     1       3.834  -4.515  -2.907  1.00  0.00    -0.047 Br
ENDBRANCH  63  65
ENDBRANCH  62  63
ENDBRANCH  61  62
ENDBRANCH   1  61
TORSDOF 11
