REMARK SMILES C[C@@H](NC(=O)CNC(=O)N1CC(=O)Nc2ccccc21)C(=O)OCCOC(=O)c1ccc(-c2c3nc(c(-c4c(F)cccc4F)c4ccc([nH]4)c(-c4c(F)cccc4F)c4nc(c(-c5c(F)cccc5F)c5ccc2[nH]5)C=C4)C=C3)cc1
REMARK SMILES IDX 24 1 23 2 21 3 22 4 2 5 1 6 3 7 4 8 5 10 6 11 7 12 8 13 9 15
REMARK SMILES IDX 10 16 11 17 20 18 12 19 15 20 19 21 13 22 14 23 16 24 18 25
REMARK SMILES IDX 17 27 25 28 26 29 27 30 28 31 29 32 30 33 82 34 31 35 81 36
REMARK SMILES IDX 32 37 33 38 34 39 75 40 35 41 80 42 74 43 76 44 36 45 79 46
REMARK SMILES IDX 73 47 72 48 37 50 63 51 46 52 62 53 47 54 50 55 61 56 77 57
REMARK SMILES IDX 48 58 49 59 60 61 78 62 51 63 38 64 39 65 44 66 40 67 41 68
REMARK SMILES IDX 43 69 45 70 42 71 64 72 65 73 70 74 66 75 67 76 69 77 71 78
REMARK SMILES IDX 68 79 52 80 53 81 58 82 54 83 55 84 57 85 59 86 56 87
REMARK H PARENT 3 9 7 14 14 26 76 49 50 60
REMARK Flexibility Score: inf
ROOT
ATOM      1  C   UNL     1      -3.756   1.216   1.762  1.00  0.00     0.274 C 
ENDROOT
BRANCH   1   2
ATOM      2  O   UNL     1      -2.701   0.557   3.061  1.00  0.00    -0.461 OA
BRANCH   2   3
ATOM      3  C   UNL     1      -1.492  -0.109   3.518  1.00  0.00     0.328 C 
ATOM      4  O   UNL     1      -1.587  -0.674   4.619  1.00  0.00    -0.250 OA
BRANCH   3   5
ATOM      5  C   UNL     1       0.134  -0.025   2.915  1.00  0.00     0.189 C 
ATOM      6  C   UNL     1       1.000  -0.034   1.609  1.00  0.00     0.043 C 
BRANCH   5   7
ATOM      7  N   UNL     1       0.650   1.120   3.603  1.00  0.00    -0.341 N 
ATOM      8  C   UNL     1       0.144   2.351   3.307  1.00  0.00     0.240 C 
ATOM      9  H   UNL     1       1.359   1.020   4.279  1.00  0.00     0.164 HD
ATOM     10  O   UNL     1       0.636   3.341   3.844  1.00  0.00    -0.273 OA
BRANCH   8  11
ATOM     11  C   UNL     1      -1.196   2.391   2.506  1.00  0.00     0.218 C 
BRANCH  11  12
ATOM     12  N   UNL     1      -1.487   1.315   1.306  1.00  0.00    -0.329 N 
ATOM     13  C   UNL     1      -1.747  -0.084   1.019  1.00  0.00     0.322 C 
ATOM     14  H   UNL     1      -1.483   1.804   0.451  1.00  0.00     0.165 HD
ATOM     15  O   UNL     1      -0.886  -0.396   0.200  1.00  0.00    -0.248 OA
BRANCH  13  16
ATOM     16  N   UNL     1      -3.023  -1.006   1.366  1.00  0.00    -0.283 N 
ATOM     17  C   UNL     1      -3.948  -1.399   2.648  1.00  0.00     0.227 C 
ATOM     18  C   UNL     1      -3.218  -2.277   0.677  1.00  0.00     0.070 A 
ATOM     19  C   UNL     1      -3.329  -2.529   3.498  1.00  0.00     0.244 C 
ATOM     20  C   UNL     1      -2.022  -3.072   1.565  1.00  0.00     0.065 A 
ATOM     21  C   UNL     1      -3.678  -2.639  -1.047  1.00  0.00     0.028 A 
ATOM     22  O   UNL     1      -3.818  -2.897   4.564  1.00  0.00    -0.273 OA
ATOM     23  N   UNL     1      -2.242  -3.170   2.942  1.00  0.00    -0.323 N 
ATOM     24  C   UNL     1      -0.982  -4.056   0.726  1.00  0.00     0.028 A 
ATOM     25  C   UNL     1      -2.679  -3.750  -2.055  1.00  0.00     0.002 A 
ATOM     26  H   UNL     1      -1.627  -3.690   3.508  1.00  0.00     0.170 HD
ATOM     27  C   UNL     1      -1.254  -4.504  -1.228  1.00  0.00     0.002 A 
ENDBRANCH  13  16
ENDBRANCH  11  12
ENDBRANCH   8  11
ENDBRANCH   5   7
ENDBRANCH   3   5
ENDBRANCH   2   3
ENDBRANCH   1   2
BRANCH   1  28
ATOM     28  C   UNL     1      -4.032   0.568   0.068  1.00  0.00     0.275 C 
BRANCH  28  29
ATOM     29  O   UNL     1      -2.933  -0.092  -1.054  1.00  0.00    -0.458 OA
BRANCH  29  30
ATOM     30  C   UNL     1      -1.984  -1.172  -1.466  1.00  0.00     0.338 C 
ATOM     31  O   UNL     1      -1.395  -0.993  -2.540  1.00  0.00    -0.246 OA
BRANCH  30  32
ATOM     32  C   UNL     1      -1.544  -2.716  -0.597  1.00  0.00     0.060 A 
ATOM     33  C   UNL     1       0.233  -3.048  -0.698  1.00  0.00     0.016 A 
ATOM     34  C   UNL     1      -2.719  -4.298  -0.043  1.00  0.00     0.016 A 
ATOM     35  C   UNL     1       0.837  -4.688  -0.305  1.00  0.00     0.010 A 
ATOM     36  C   UNL     1      -1.976  -5.896   0.288  1.00  0.00     0.010 A 
ATOM     37  C   UNL     1      -0.231  -6.047   0.191  1.00  0.00    -0.014 A 
BRANCH  37  38
ATOM     38  C   UNL     1       0.332  -7.318   0.740  1.00  0.00     0.031 A 
ATOM     39  C   UNL     1       0.861  -8.283  -0.261  1.00  0.00     0.074 A 
ATOM     40  C   UNL     1       0.306  -7.646   2.056  1.00  0.00     0.049 A 
ATOM     41  N   UNL     1       1.388  -9.463  -0.088  1.00  0.00    -0.248 NA
ATOM     42  C   UNL     1       0.769  -7.851  -1.661  1.00  0.00     0.031 C 
ATOM     43  C   UNL     1      -0.193  -6.811   3.152  1.00  0.00     0.029 A 
ATOM     44  N   UNL     1       0.711  -8.796   2.709  1.00  0.00    -0.354 N 
ATOM     45  C   UNL     1       1.726  -9.894  -1.361  1.00  0.00     0.074 A 
ATOM     46  C   UNL     1       1.297  -8.880  -2.294  1.00  0.00     0.031 C 
ATOM     47  C   UNL     1      -0.064  -7.465   4.323  1.00  0.00     0.029 A 
ATOM     48  C   UNL     1       0.500  -8.786   4.075  1.00  0.00     0.049 A 
ATOM     49  H   UNL     1       1.115  -9.560   2.238  1.00  0.00     0.167 HD
ATOM     50  C   UNL     1       2.348 -11.035  -1.725  1.00  0.00     0.037 A 
ATOM     51  C   UNL     1       0.727  -9.737   5.010  1.00  0.00     0.037 A 
ATOM     52  C   UNL     1       2.679 -12.086  -0.810  1.00  0.00     0.049 A 
ATOM     53  C   UNL     1       1.316 -11.055   4.561  1.00  0.00     0.074 A 
ATOM     54  C   UNL     1       3.255 -13.312  -1.077  1.00  0.00     0.029 A 
ATOM     55  N   UNL     1       2.425 -12.042   0.554  1.00  0.00    -0.354 N 
ATOM     56  N   UNL     1       1.694 -11.423   3.359  1.00  0.00    -0.248 NA
ATOM     57  C   UNL     1       1.512 -12.089   5.589  1.00  0.00     0.031 C 
ATOM     58  C   UNL     1       3.298 -14.035   0.118  1.00  0.00     0.029 A 
ATOM     59  C   UNL     1       2.812 -13.232   1.140  1.00  0.00     0.049 A 
ATOM     60  H   UNL     1       2.028 -11.278   1.032  1.00  0.00     0.167 HD
ATOM     61  C   UNL     1       2.205 -12.709   3.494  1.00  0.00     0.074 A 
ATOM     62  C   UNL     1       2.103 -13.053   4.897  1.00  0.00     0.031 C 
ATOM     63  C   UNL     1       2.713 -13.534   2.546  1.00  0.00     0.037 A 
BRANCH  50  64
ATOM     64  C   UNL     1       2.635 -11.185  -3.186  1.00  0.00     0.057 A 
ATOM     65  C   UNL     1       3.587 -10.380  -3.829  1.00  0.00     0.134 A 
ATOM     66  C   UNL     1       1.891 -12.068  -3.973  1.00  0.00     0.134 A 
ATOM     67  F   UNL     1       4.298  -9.479  -3.132  1.00  0.00    -0.206 F 
ATOM     68  C   UNL     1       3.761 -10.423  -5.212  1.00  0.00     0.040 A 
ATOM     69  C   UNL     1       2.077 -12.141  -5.353  1.00  0.00     0.040 A 
ATOM     70  F   UNL     1       0.949 -12.847  -3.421  1.00  0.00    -0.206 F 
ATOM     71  C   UNL     1       3.006 -11.309  -5.977  1.00  0.00     0.006 A 
ENDBRANCH  50  64
BRANCH  51  72
ATOM     72  C   UNL     1       0.398  -9.530   6.457  1.00  0.00     0.057 A 
ATOM     73  C   UNL     1       1.395  -9.541   7.446  1.00  0.00     0.134 A 
ATOM     74  C   UNL     1      -0.925  -9.418   6.904  1.00  0.00     0.134 A 
ATOM     75  F   UNL     1       2.684  -9.678   7.101  1.00  0.00    -0.206 F 
ATOM     76  C   UNL     1       1.090  -9.486   8.811  1.00  0.00     0.040 A 
ATOM     77  C   UNL     1      -1.244  -9.333   8.265  1.00  0.00     0.040 A 
ATOM     78  F   UNL     1      -1.937  -9.410   6.025  1.00  0.00    -0.206 F 
ATOM     79  C   UNL     1      -0.235  -9.381   9.224  1.00  0.00     0.006 A 
ENDBRANCH  51  72
BRANCH  63  80
ATOM     80  C   UNL     1       3.245 -14.863   2.998  1.00  0.00     0.057 A 
ATOM     81  C   UNL     1       2.404 -15.896   3.427  1.00  0.00     0.134 A 
ATOM     82  C   UNL     1       4.619 -15.131   2.927  1.00  0.00     0.134 A 
ATOM     83  F   UNL     1       1.080 -15.700   3.526  1.00  0.00    -0.206 F 
ATOM     84  C   UNL     1       2.913 -17.143   3.790  1.00  0.00     0.040 A 
ATOM     85  C   UNL     1       5.135 -16.384   3.254  1.00  0.00     0.040 A 
ATOM     86  F   UNL     1       5.477 -14.187   2.511  1.00  0.00    -0.206 F 
ATOM     87  C   UNL     1       4.281 -17.393   3.693  1.00  0.00     0.006 A 
ENDBRANCH  63  80
ENDBRANCH  37  38
ENDBRANCH  30  32
ENDBRANCH  29  30
ENDBRANCH  28  29
ENDBRANCH   1  28
TORSDOF 15
