REMARK SMILES O=C(C[C@@H]1C(=O)NCCN1C(=O)OCC1c2ccccc2-c2ccccc21)OCCOC(=O)c1ccc(-c2c3nc(c(-c4c(F)cccc4F)c4ccc([nH]4)c(-c4c(F)cccc4F)c4nc(c(-c5c(F)cccc5F)c5ccc2[nH]5)C=C4)C=C3)cc1
REMARK SMILES IDX 28 1 2 2 1 3 3 4 4 5 5 6 10 7 6 8 7 9 9 10 8 11 11 13 12 14
REMARK SMILES IDX 13 15 14 16 15 17 16 18 27 19 17 20 21 21 22 22 26 23 18 24
REMARK SMILES IDX 20 25 23 26 25 27 19 28 24 29 29 30 30 31 31 32 32 33 33 34
REMARK SMILES IDX 34 35 35 36 87 37 36 38 86 39 37 40 38 41 39 42 80 43 40 44
REMARK SMILES IDX 85 45 79 46 81 47 41 48 84 49 78 50 77 51 42 53 68 54 51 55
REMARK SMILES IDX 67 56 52 57 55 58 66 59 82 60 53 61 54 62 65 64 83 65 56 66
REMARK SMILES IDX 43 67 44 68 49 69 45 70 46 71 48 72 50 73 47 74 69 75 70 76
REMARK SMILES IDX 75 77 71 78 72 79 74 80 76 81 73 82 57 83 58 84 63 85 59 86
REMARK SMILES IDX 60 87 62 88 64 89 61 90
REMARK H PARENT 7 12 81 52 55 63
REMARK Flexibility Score: inf
ROOT
ATOM      1  O   UNL     1       3.164  -1.154   0.155  1.00  0.00    -0.462 OA
ENDROOT
BRANCH   1   2
ATOM      2  C   UNL     1       2.479  -0.094   0.629  1.00  0.00     0.308 C 
ATOM      3  O   UNL     1       1.377  -0.235   1.159  1.00  0.00    -0.252 OA
BRANCH   2   4
ATOM      4  C   UNL     1       3.013   1.283   0.366  1.00  0.00     0.158 C 
BRANCH   4   5
ATOM      5  C   UNL     1       3.961   1.953   1.368  1.00  0.00     0.189 C 
ATOM      6  C   UNL     1       3.833   1.311   2.768  1.00  0.00     0.243 C 
ATOM      7  N   UNL     1       3.764   3.419   1.342  1.00  0.00    -0.294 N 
ATOM      8  O   UNL     1       4.072   0.119   2.959  1.00  0.00    -0.273 OA
ATOM      9  N   UNL     1       3.457   2.107   3.816  1.00  0.00    -0.353 N 
ATOM     10  C   UNL     1       3.988   4.156   2.571  1.00  0.00     0.145 C 
ATOM     11  C   UNL     1       3.176   3.525   3.692  1.00  0.00     0.137 C 
ATOM     12  H   UNL     1       3.372   1.694   4.705  1.00  0.00     0.163 HD
BRANCH   7  13
ATOM     13  C   UNL     1       3.581   4.045   0.133  1.00  0.00     0.410 C 
ATOM     14  O   UNL     1       4.235   3.744  -0.863  1.00  0.00    -0.224 OA
BRANCH  13  15
ATOM     15  O   UNL     1       2.385   4.708   0.092  1.00  0.00    -0.448 OA
BRANCH  15  16
ATOM     16  C   UNL     1       1.643   4.377  -1.111  1.00  0.00     0.248 C 
BRANCH  16  17
ATOM     17  C   UNL     1       0.132   4.704  -1.159  1.00  0.00     0.088 C 
ATOM     18  C   UNL     1      -0.364   4.545   0.251  1.00  0.00    -0.029 A 
ATOM     19  C   UNL     1      -0.285   6.132  -1.463  1.00  0.00    -0.029 A 
ATOM     20  C   UNL     1      -0.424   3.369   0.973  1.00  0.00     0.005 A 
ATOM     21  C   UNL     1      -0.592   5.820   0.810  1.00  0.00    -0.014 A 
ATOM     22  C   UNL     1      -0.613   6.795  -0.265  1.00  0.00    -0.014 A 
ATOM     23  C   UNL     1      -0.567   6.710  -2.693  1.00  0.00     0.005 A 
ATOM     24  C   UNL     1      -0.630   3.484   2.336  1.00  0.00     0.000 A 
ATOM     25  C   UNL     1      -0.787   5.930   2.166  1.00  0.00     0.009 A 
ATOM     26  C   UNL     1      -1.077   8.100  -0.291  1.00  0.00     0.009 A 
ATOM     27  C   UNL     1      -1.075   8.009  -2.724  1.00  0.00     0.000 A 
ATOM     28  C   UNL     1      -0.782   4.752   2.929  1.00  0.00     0.001 A 
ATOM     29  C   UNL     1      -1.301   8.707  -1.534  1.00  0.00     0.001 A 
ENDBRANCH  16  17
ENDBRANCH  15  16
ENDBRANCH  13  15
ENDBRANCH   7  13
ENDBRANCH   4   5
ENDBRANCH   2   4
ENDBRANCH   1   2
BRANCH   1  30
ATOM     30  C   UNL     1       4.556  -1.115  -0.215  1.00  0.00     0.274 C 
BRANCH  30  31
ATOM     31  C   UNL     1       4.739  -1.235  -1.730  1.00  0.00     0.275 C 
BRANCH  31  32
ATOM     32  O   UNL     1       4.444   0.007  -2.410  1.00  0.00    -0.458 OA
BRANCH  32  33
ATOM     33  C   UNL     1       3.242   0.103  -3.036  1.00  0.00     0.338 C 
ATOM     34  O   UNL     1       2.380  -0.759  -3.067  1.00  0.00    -0.246 OA
BRANCH  33  35
ATOM     35  C   UNL     1       3.040   1.486  -3.572  1.00  0.00     0.060 A 
ATOM     36  C   UNL     1       1.737   1.975  -3.672  1.00  0.00     0.016 A 
ATOM     37  C   UNL     1       4.100   2.331  -3.929  1.00  0.00     0.016 A 
ATOM     38  C   UNL     1       1.514   3.315  -4.038  1.00  0.00     0.010 A 
ATOM     39  C   UNL     1       3.870   3.678  -4.302  1.00  0.00     0.010 A 
ATOM     40  C   UNL     1       2.578   4.213  -4.319  1.00  0.00    -0.014 A 
BRANCH  40  41
ATOM     41  C   UNL     1       2.269   5.675  -4.617  1.00  0.00     0.031 A 
ATOM     42  C   UNL     1       1.302   5.953  -5.745  1.00  0.00     0.074 A 
ATOM     43  C   UNL     1       2.636   6.718  -3.817  1.00  0.00     0.049 A 
ATOM     44  N   UNL     1       0.636   7.045  -6.023  1.00  0.00    -0.248 NA
ATOM     45  C   UNL     1       1.009   4.826  -6.649  1.00  0.00     0.031 C 
ATOM     46  C   UNL     1       3.481   6.625  -2.627  1.00  0.00     0.029 A 
ATOM     47  N   UNL     1       2.213   8.045  -3.777  1.00  0.00    -0.354 N 
ATOM     48  C   UNL     1      -0.134   6.743  -7.138  1.00  0.00     0.074 A 
ATOM     49  C   UNL     1       0.085   5.346  -7.441  1.00  0.00     0.031 C 
ATOM     50  C   UNL     1       3.308   7.718  -1.861  1.00  0.00     0.029 A 
ATOM     51  C   UNL     1       2.474   8.685  -2.565  1.00  0.00     0.049 A 
ATOM     52  H   UNL     1       1.769   8.490  -4.535  1.00  0.00     0.167 HD
ATOM     53  C   UNL     1      -0.908   7.562  -7.885  1.00  0.00     0.037 A 
ATOM     54  C   UNL     1       2.065   9.885  -2.070  1.00  0.00     0.037 A 
ATOM     55  C   UNL     1      -1.101   8.963  -7.637  1.00  0.00     0.049 A 
ATOM     56  C   UNL     1       1.280  10.805  -2.986  1.00  0.00     0.074 A 
ATOM     57  C   UNL     1      -1.784   9.883  -8.414  1.00  0.00     0.029 A 
ATOM     58  N   UNL     1      -0.601   9.652  -6.546  1.00  0.00    -0.354 N 
ATOM     59  N   UNL     1       0.652  10.535  -4.104  1.00  0.00    -0.248 NA
ATOM     60  C   UNL     1       1.178  12.220  -2.580  1.00  0.00     0.031 C 
ATOM     61  C   UNL     1      -1.654  11.140  -7.818  1.00  0.00     0.029 A 
ATOM     62  C   UNL     1      -0.957  10.988  -6.632  1.00  0.00     0.049 A 
ATOM     63  H   UNL     1      -0.071   9.252  -5.818  1.00  0.00     0.167 HD
ATOM     64  C   UNL     1       0.067  11.728  -4.514  1.00  0.00     0.074 A 
ATOM     65  C   UNL     1       0.366  12.716  -3.503  1.00  0.00     0.031 C 
ATOM     66  C   UNL     1      -0.640  11.983  -5.641  1.00  0.00     0.037 A 
BRANCH  53  67
ATOM     67  C   UNL     1      -1.477   6.983  -9.142  1.00  0.00     0.057 A 
ATOM     68  C   UNL     1      -2.598   6.147  -9.152  1.00  0.00     0.134 A 
ATOM     69  C   UNL     1      -0.867   7.274 -10.369  1.00  0.00     0.134 A 
ATOM     70  F   UNL     1      -3.205   5.808  -8.005  1.00  0.00    -0.206 F 
ATOM     71  C   UNL     1      -3.086   5.609 -10.345  1.00  0.00     0.040 A 
ATOM     72  C   UNL     1      -1.357   6.760 -11.567  1.00  0.00     0.040 A 
ATOM     73  F   UNL     1       0.218   8.063 -10.418  1.00  0.00    -0.206 F 
ATOM     74  C   UNL     1      -2.468   5.920 -11.556  1.00  0.00     0.006 A 
ENDBRANCH  53  67
BRANCH  54  75
ATOM     75  C   UNL     1       2.340  10.360  -0.659  1.00  0.00     0.057 A 
ATOM     76  C   UNL     1       1.304  10.862   0.159  1.00  0.00     0.134 A 
ATOM     77  C   UNL     1       3.628  10.458  -0.118  1.00  0.00     0.134 A 
ATOM     78  F   UNL     1       0.042  10.912  -0.289  1.00  0.00    -0.206 F 
ATOM     79  C   UNL     1       1.531  11.431   1.418  1.00  0.00     0.040 A 
ATOM     80  C   UNL     1       3.868  10.996   1.157  1.00  0.00     0.040 A 
ATOM     81  F   UNL     1       4.697  10.073  -0.829  1.00  0.00    -0.206 F 
ATOM     82  C   UNL     1       2.821  11.494   1.926  1.00  0.00     0.006 A 
ENDBRANCH  54  75
BRANCH  66  83
ATOM     83  C   UNL     1      -1.114  13.391  -5.875  1.00  0.00     0.057 A 
ATOM     84  C   UNL     1      -0.216  14.434  -6.141  1.00  0.00     0.134 A 
ATOM     85  C   UNL     1      -2.481  13.696  -5.916  1.00  0.00     0.134 A 
ATOM     86  F   UNL     1       1.108  14.216  -6.112  1.00  0.00    -0.206 F 
ATOM     87  C   UNL     1      -0.658  15.729  -6.421  1.00  0.00     0.040 A 
ATOM     88  C   UNL     1      -2.936  14.979  -6.228  1.00  0.00     0.040 A 
ATOM     89  F   UNL     1      -3.400  12.747  -5.681  1.00  0.00    -0.206 F 
ATOM     90  C   UNL     1      -2.023  16.001  -6.477  1.00  0.00     0.006 A 
ENDBRANCH  66  83
ENDBRANCH  40  41
ENDBRANCH  33  35
ENDBRANCH  32  33
ENDBRANCH  31  32
ENDBRANCH  30  31
ENDBRANCH   1  30
TORSDOF 16
