REMARK SMILES CC[C@H](NC(=O)c1ccc(C)nc1)C(=O)OCCOC(=O)c1ccc(-c2c3nc(c(-c4c(F)cccc4F)c4ccc([nH]4)c(-c4c(F)cccc4F)c4nc(c(-c5c(F)cccc5F)c5ccc2[nH]5)C=C4)C=C3)cc1
REMARK SMILES IDX 17 1 16 2 14 3 15 4 3 5 2 6 1 7 4 8 5 9 6 11 7 12 8 13 13 14
REMARK SMILES IDX 9 15 12 16 10 17 11 18 18 19 19 20 20 21 21 22 22 23 23 24
REMARK SMILES IDX 75 25 24 26 74 27 25 28 26 29 27 30 68 31 28 32 73 33 67 34
REMARK SMILES IDX 69 35 29 36 72 37 66 38 65 39 30 41 56 42 39 43 55 44 40 45
REMARK SMILES IDX 43 46 54 47 70 48 41 49 42 50 53 52 71 53 44 54 31 55 32 56
REMARK SMILES IDX 37 57 33 58 34 59 36 60 38 61 35 62 57 63 58 64 63 65 59 66
REMARK SMILES IDX 60 67 62 68 64 69 61 70 45 71 46 72 51 73 47 74 48 75 50 76
REMARK SMILES IDX 52 77 49 78
REMARK H PARENT 4 10 69 40 43 51
REMARK Flexibility Score: inf
ROOT
ATOM      1  C   UNL     1      -0.462  -3.194   5.035  1.00  0.00     0.274 C 
ENDROOT
BRANCH   1   2
ATOM      2  O   UNL     1      -0.484  -2.350   3.866  1.00  0.00    -0.461 OA
BRANCH   2   3
ATOM      3  C   UNL     1       0.349  -1.294   3.815  1.00  0.00     0.328 C 
ATOM      4  O   UNL     1       1.061  -0.934   4.748  1.00  0.00    -0.250 OA
BRANCH   3   5
ATOM      5  C   UNL     1       0.308  -0.537   2.463  1.00  0.00     0.192 C 
BRANCH   5   6
ATOM      6  C   UNL     1       0.100   0.971   2.684  1.00  0.00     0.033 C 
ATOM      7  C   UNL     1      -1.300   1.364   3.104  1.00  0.00     0.007 C 
ENDBRANCH   5   6
BRANCH   5   8
ATOM      8  N   UNL     1      -0.291  -1.015   1.200  1.00  0.00    -0.339 N 
ATOM      9  C   UNL     1      -1.451  -1.623   0.807  1.00  0.00     0.253 C 
ATOM     10  H   UNL     1       0.306  -0.852   0.435  1.00  0.00     0.164 HD
ATOM     11  O   UNL     1      -1.704  -1.714  -0.392  1.00  0.00    -0.269 OA
BRANCH   9  12
ATOM     12  C   UNL     1      -2.343  -2.283   1.756  1.00  0.00     0.058 A 
ATOM     13  C   UNL     1      -3.152  -1.593   2.647  1.00  0.00     0.017 A 
ATOM     14  C   UNL     1      -2.372  -3.669   1.771  1.00  0.00     0.125 A 
ATOM     15  C   UNL     1      -3.845  -2.312   3.621  1.00  0.00     0.024 A 
ATOM     16  N   UNL     1      -3.046  -4.391   2.703  1.00  0.00    -0.261 NA
ATOM     17  C   UNL     1      -3.723  -3.700   3.649  1.00  0.00     0.037 A 
ATOM     18  C   UNL     1      -4.279  -4.496   4.789  1.00  0.00     0.066 C 
ENDBRANCH   9  12
ENDBRANCH   5   8
ENDBRANCH   3   5
ENDBRANCH   2   3
ENDBRANCH   1   2
BRANCH   1  19
ATOM     19  C   UNL     1      -0.188  -4.638   4.613  1.00  0.00     0.275 C 
BRANCH  19  20
ATOM     20  O   UNL     1       1.191  -4.782   4.246  1.00  0.00    -0.458 OA
BRANCH  20  21
ATOM     21  C   UNL     1       1.501  -4.396   2.983  1.00  0.00     0.338 C 
ATOM     22  O   UNL     1       0.767  -4.074   2.078  1.00  0.00    -0.246 OA
BRANCH  21  23
ATOM     23  C   UNL     1       2.954  -4.219   2.955  1.00  0.00     0.060 A 
ATOM     24  C   UNL     1       3.456  -2.943   2.690  1.00  0.00     0.016 A 
ATOM     25  C   UNL     1       3.795  -5.293   3.232  1.00  0.00     0.016 A 
ATOM     26  C   UNL     1       4.824  -2.726   2.711  1.00  0.00     0.010 A 
ATOM     27  C   UNL     1       5.165  -5.074   3.263  1.00  0.00     0.010 A 
ATOM     28  C   UNL     1       5.680  -3.792   3.000  1.00  0.00    -0.014 A 
BRANCH  28  29
ATOM     29  C   UNL     1       7.137  -3.592   2.970  1.00  0.00     0.031 A 
ATOM     30  C   UNL     1       7.915  -4.173   1.834  1.00  0.00     0.074 A 
ATOM     31  C   UNL     1       7.731  -2.924   3.973  1.00  0.00     0.049 A 
ATOM     32  N   UNL     1       9.207  -4.262   1.678  1.00  0.00    -0.248 NA
ATOM     33  C   UNL     1       7.128  -4.748   0.730  1.00  0.00     0.031 C 
ATOM     34  C   UNL     1       7.036  -2.297   5.099  1.00  0.00     0.029 A 
ATOM     35  N   UNL     1       9.055  -2.679   4.215  1.00  0.00    -0.354 N 
ATOM     36  C   UNL     1       9.390  -4.923   0.472  1.00  0.00     0.074 A 
ATOM     37  C   UNL     1       8.079  -5.238  -0.050  1.00  0.00     0.031 C 
ATOM     38  C   UNL     1       7.945  -1.747   5.921  1.00  0.00     0.029 A 
ATOM     39  C   UNL     1       9.280  -2.031   5.404  1.00  0.00     0.049 A 
ATOM     40  H   UNL     1       9.775  -2.941   3.597  1.00  0.00     0.167 HD
ATOM     41  C   UNL     1      10.557  -5.231  -0.140  1.00  0.00     0.037 A 
ATOM     42  C   UNL     1      10.440  -1.740   6.018  1.00  0.00     0.037 A 
ATOM     43  C   UNL     1      11.846  -4.902   0.408  1.00  0.00     0.049 A 
ATOM     44  C   UNL     1      11.723  -2.141   5.343  1.00  0.00     0.074 A 
ATOM     45  C   UNL     1      13.099  -5.157  -0.116  1.00  0.00     0.029 A 
ATOM     46  N   UNL     1      12.040  -4.242   1.615  1.00  0.00    -0.354 N 
ATOM     47  N   UNL     1      11.896  -2.766   4.202  1.00  0.00    -0.248 NA
ATOM     48  C   UNL     1      12.970  -1.800   6.037  1.00  0.00     0.031 C 
ATOM     49  C   UNL     1      14.052  -4.691   0.796  1.00  0.00     0.029 A 
ATOM     50  C   UNL     1      13.394  -4.096   1.861  1.00  0.00     0.049 A 
ATOM     51  H   UNL     1      11.321  -3.925   2.208  1.00  0.00     0.167 HD
ATOM     52  C   UNL     1      13.268  -2.871   4.027  1.00  0.00     0.074 A 
ATOM     53  C   UNL     1      13.880  -2.230   5.175  1.00  0.00     0.031 C 
ATOM     54  C   UNL     1      13.965  -3.444   3.014  1.00  0.00     0.037 A 
BRANCH  41  55
ATOM     55  C   UNL     1      10.478  -5.980  -1.437  1.00  0.00     0.057 A 
ATOM     56  C   UNL     1       9.991  -5.387  -2.610  1.00  0.00     0.134 A 
ATOM     57  C   UNL     1      10.894  -7.315  -1.515  1.00  0.00     0.134 A 
ATOM     58  F   UNL     1       9.555  -4.118  -2.599  1.00  0.00    -0.206 F 
ATOM     59  C   UNL     1       9.894  -6.102  -3.805  1.00  0.00     0.040 A 
ATOM     60  C   UNL     1      10.829  -8.032  -2.711  1.00  0.00     0.040 A 
ATOM     61  F   UNL     1      11.369  -7.946  -0.431  1.00  0.00    -0.206 F 
ATOM     62  C   UNL     1      10.321  -7.428  -3.859  1.00  0.00     0.006 A 
ENDBRANCH  41  55
BRANCH  42  63
ATOM     63  C   UNL     1      10.437  -1.057   7.335  1.00  0.00     0.057 A 
ATOM     64  C   UNL     1      10.907   0.254   7.473  1.00  0.00     0.134 A 
ATOM     65  C   UNL     1       9.959  -1.693   8.488  1.00  0.00     0.134 A 
ATOM     66  F   UNL     1      11.391   0.912   6.410  1.00  0.00    -0.206 F 
ATOM     67  C   UNL     1      10.921   0.900   8.711  1.00  0.00     0.040 A 
ATOM     68  C   UNL     1       9.941  -1.050   9.727  1.00  0.00     0.040 A 
ATOM     69  F   UNL     1       9.486  -2.947   8.424  1.00  0.00    -0.206 F 
ATOM     70  C   UNL     1      10.430   0.250   9.842  1.00  0.00     0.006 A 
ENDBRANCH  42  63
BRANCH  54  71
ATOM     71  C   UNL     1      15.460  -3.362   3.090  1.00  0.00     0.057 A 
ATOM     72  C   UNL     1      16.198  -4.125   4.003  1.00  0.00     0.134 A 
ATOM     73  C   UNL     1      16.169  -2.539   2.207  1.00  0.00     0.134 A 
ATOM     74  F   UNL     1      15.575  -4.922   4.884  1.00  0.00    -0.206 F 
ATOM     75  C   UNL     1      17.591  -4.052   4.052  1.00  0.00     0.040 A 
ATOM     76  C   UNL     1      17.562  -2.481   2.225  1.00  0.00     0.040 A 
ATOM     77  F   UNL     1      15.520  -1.791   1.301  1.00  0.00    -0.206 F 
ATOM     78  C   UNL     1      18.276  -3.234   3.155  1.00  0.00     0.006 A 
ENDBRANCH  54  71
ENDBRANCH  28  29
ENDBRANCH  21  23
ENDBRANCH  20  21
ENDBRANCH  19  20
ENDBRANCH   1  19
TORSDOF 14
