REMARK SMILES O=C(/C=C/[C@@]12C=C(O)C(=O)C=C1C(=O)C1=Cc3cc(O)c(O)cc3O[C@@H](c3ccc(O)c(O)c3)[C@@H]12)OCCOC(=O)c1ccc(-c2c3nc(c(-c4c(F)cccc4F)c4ccc([nH]4)c(-c4c(F)cccc4F)c4nc(c(-c5c(F)cccc5F)c5ccc2[nH]5)C=C4)C=C3)cc1
REMARK SMILES IDX 1 1 2 2 3 3 4 4 5 5 6 6 12 7 35 8 7 9 11 10 13 11 15 12 9 14
REMARK SMILES IDX 14 15 16 16 10 17 8 18 17 20 18 21 24 22 19 23 23 24 21 25
REMARK SMILES IDX 25 26 26 27 27 29 28 30 34 31 29 32 32 33 30 34 33 35 31 37
REMARK SMILES IDX 20 39 22 41 36 43 37 44 38 45 39 46 40 47 41 48 42 49 43 50
REMARK SMILES IDX 95 51 44 52 94 53 45 54 46 55 47 56 88 57 48 58 93 59 87 60
REMARK SMILES IDX 89 61 49 62 92 63 86 64 85 65 50 67 76 68 59 69 75 70 60 71
REMARK SMILES IDX 63 72 74 73 90 74 61 75 62 76 73 78 91 79 64 80 51 81 52 82
REMARK SMILES IDX 57 83 53 84 54 85 56 86 58 87 55 88 77 89 78 90 83 91 79 92
REMARK SMILES IDX 80 93 82 94 84 95 81 96 65 97 66 98 71 99 67 100 68 101
REMARK SMILES IDX 70 102 72 103 69 104
REMARK H PARENT 8 19 33 36 31 38 20 40 22 42 89 66 63 77
REMARK Flexibility Score: 80.00
ROOT
ATOM      1  O   UNL     1       1.582   1.791   0.361  1.00  0.00    -0.247 OA
ATOM      2  C   UNL     1       2.530   1.043   0.120  1.00  0.00     0.330 C 
ENDROOT
BRANCH   2   3
ATOM      3  C   UNL     1       3.334   1.353  -1.097  1.00  0.00     0.090 C 
ATOM      4  C   UNL     1       4.232   0.627  -1.794  1.00  0.00    -0.003 C 
BRANCH   4   5
ATOM      5  C   UNL     1       5.274   1.083  -2.856  1.00  0.00     0.051 C 
ATOM      6  C   UNL     1       5.619   2.484  -2.423  1.00  0.00     0.040 C 
ATOM      7  C   UNL     1       6.422   0.118  -2.653  1.00  0.00     0.018 C 
ATOM      8  C   UNL     1       5.052   0.812  -4.412  1.00  0.00     0.087 CG0
ATOM      9  C   UNL     1       6.660   2.760  -1.627  1.00  0.00     0.160 C 
ATOM     10  C   UNL     1       7.521   0.363  -1.932  1.00  0.00     0.065 C 
ATOM     11  C   UNL     1       6.085  -1.122  -3.440  1.00  0.00     0.186 C 
ATOM     12  C   UNL     1       5.167  -0.696  -4.550  1.00  0.00     0.009 C 
ATOM     13  G   UNL     1       6.171   1.286  -5.431  1.00  0.00     0.000 G0
ATOM     14  C   UNL     1       7.671   1.704  -1.303  1.00  0.00     0.220 C 
ATOM     15  O   UNL     1       6.490  -2.241  -3.210  1.00  0.00    -0.289 OA
ATOM     16  C   UNL     1       4.729  -1.408  -5.613  1.00  0.00     0.020 C 
ATOM     17  O   UNL     1       8.623   1.984  -0.584  1.00  0.00    -0.286 OA
BRANCH   9  18
ATOM     18  O   UNL     1       6.837   4.032  -1.115  1.00  0.00    -0.504 OA
ATOM     19  H   UNL     1       6.215   4.705  -1.307  1.00  0.00     0.293 HD
ENDBRANCH   9  18
BRANCH  16  20
ATOM     20  C   UNL     1       4.153  -0.684  -6.797  1.00  0.00     0.021 A 
ATOM     21  C   UNL     1       2.851  -0.981  -7.344  1.00  0.00     0.062 A 
ATOM     22  C   UNL     1       4.846   0.416  -7.297  1.00  0.00     0.131 A 
ATOM     23  C   UNL     1       2.062  -0.027  -8.255  1.00  0.00     0.158 A 
ATOM     24  C   UNL     1       4.359   1.093  -8.409  1.00  0.00     0.097 A 
ATOM     25  C   UNL     1       3.036   0.935  -8.874  1.00  0.00     0.161 A 
BRANCH  22  26
ATOM     26  O   UNL     1       6.059   0.839  -6.816  1.00  0.00    -0.484 OA
BRANCH  26  27
ATOM     27  C   UNL     1       6.171   1.286  -5.431  1.00  0.00     0.213 CG0
ATOM     28  G   UNL     1       5.052   0.812  -4.412  1.00  0.00     0.000 G0
BRANCH  27  29
ATOM     29  C   UNL     1       6.335   2.782  -5.415  1.00  0.00    -0.003 A 
ATOM     30  C   UNL     1       7.350   3.399  -4.659  1.00  0.00     0.011 A 
ATOM     31  C   UNL     1       5.367   3.571  -6.012  1.00  0.00     0.057 A 
ATOM     32  C   UNL     1       7.251   4.750  -4.313  1.00  0.00     0.050 A 
ATOM     33  C   UNL     1       5.333   4.916  -5.719  1.00  0.00     0.157 A 
ATOM     34  C   UNL     1       6.199   5.494  -4.810  1.00  0.00     0.157 A 
BRANCH  33  35
ATOM     35  O   UNL     1       4.363   5.650  -6.284  1.00  0.00    -0.504 OA
ATOM     36  H   UNL     1       4.308   6.569  -6.109  1.00  0.00     0.293 HD
ENDBRANCH  33  35
BRANCH  34  37
ATOM     37  O   UNL     1       5.986   6.772  -4.388  1.00  0.00    -0.504 OA
ATOM     38  H   UNL     1       6.571   7.166  -3.772  1.00  0.00     0.293 HD
ENDBRANCH  34  37
ENDBRANCH  27  29
ENDBRANCH  26  27
ENDBRANCH  22  26
BRANCH  23  39
ATOM     39  O   UNL     1       0.068   0.164  -8.330  1.00  0.00    -0.504 OA
ATOM     40  H   UNL     1      -0.480  -0.476  -7.920  1.00  0.00     0.293 HD
ENDBRANCH  23  39
BRANCH  25  41
ATOM     41  O   UNL     1       2.838   1.789  -9.939  1.00  0.00    -0.504 OA
ATOM     42  H   UNL     1       2.007   1.813 -10.372  1.00  0.00     0.293 HD
ENDBRANCH  25  41
ENDBRANCH  16  20
ENDBRANCH   4   5
ENDBRANCH   2   3
BRANCH   2  43
ATOM     43  O   UNL     1       2.794   0.022   0.962  1.00  0.00    -0.459 OA
BRANCH  43  44
ATOM     44  C   UNL     1       3.888  -0.915   0.952  1.00  0.00     0.275 C 
BRANCH  44  45
ATOM     45  C   UNL     1       3.578  -2.182   0.133  1.00  0.00     0.275 C 
BRANCH  45  46
ATOM     46  O   UNL     1       2.876  -1.895  -1.095  1.00  0.00    -0.458 OA
BRANCH  46  47
ATOM     47  C   UNL     1       1.526  -1.692  -1.050  1.00  0.00     0.338 C 
ATOM     48  O   UNL     1       0.786  -1.977  -0.130  1.00  0.00    -0.246 OA
BRANCH  47  49
ATOM     49  C   UNL     1       1.157  -0.872  -2.251  1.00  0.00     0.060 A 
ATOM     50  C   UNL     1       1.874  -1.058  -3.409  1.00  0.00     0.016 A 
ATOM     51  C   UNL     1       0.246   0.203  -2.216  1.00  0.00     0.016 A 
ATOM     52  C   UNL     1       1.734  -0.131  -4.437  1.00  0.00     0.010 A 
ATOM     53  C   UNL     1       0.080   1.095  -3.332  1.00  0.00     0.010 A 
ATOM     54  C   UNL     1       0.832   0.936  -4.496  1.00  0.00    -0.014 A 
BRANCH  54  55
ATOM     55  C   UNL     1       0.775   1.698  -5.804  1.00  0.00     0.031 A 
ATOM     56  C   UNL     1       1.038   3.183  -6.029  1.00  0.00     0.074 A 
ATOM     57  C   UNL     1       0.741   0.964  -6.949  1.00  0.00     0.049 A 
ATOM     58  N   UNL     1       0.930   3.897  -7.135  1.00  0.00    -0.248 NA
ATOM     59  C   UNL     1       1.529   3.962  -4.889  1.00  0.00     0.031 C 
ATOM     60  C   UNL     1       0.527  -1.002  -7.082  1.00  0.00     0.029 A 
ATOM     61  N   UNL     1       0.826   1.605  -8.725  1.00  0.00    -0.354 N 
ATOM     62  C   UNL     1       1.394   5.182  -6.856  1.00  0.00     0.074 A 
ATOM     63  C   UNL     1       1.705   5.167  -5.434  1.00  0.00     0.031 C 
ATOM     64  C   UNL     1       0.617  -1.480  -8.749  1.00  0.00     0.029 A 
ATOM     65  C   UNL     1       0.729   0.115  -9.908  1.00  0.00     0.049 A 
ATOM     66  H   UNL     1       0.906   2.549  -8.993  1.00  0.00     0.167 HD
ATOM     67  C   UNL     1       1.606   6.242  -7.694  1.00  0.00     0.037 A 
ATOM     68  C   UNL     1       0.200   0.178 -11.157  1.00  0.00     0.037 A 
ATOM     69  C   UNL     1       1.313   6.300  -9.111  1.00  0.00     0.049 A 
ATOM     70  C   UNL     1       0.014   1.530 -11.793  1.00  0.00     0.074 A 
ATOM     71  C   UNL     1       1.380   7.429  -9.918  1.00  0.00     0.029 A 
ATOM     72  N   UNL     1       0.930   5.251  -9.935  1.00  0.00    -0.354 N 
ATOM     73  N   UNL     1       0.312   2.713 -11.315  1.00  0.00    -0.248 NA
ATOM     74  C   UNL     1      -0.579   1.565 -13.139  1.00  0.00     0.031 C 
ATOM     75  C   UNL     1       0.986   7.085 -11.206  1.00  0.00     0.029 A 
ATOM     76  C   UNL     1       0.703   5.731 -11.226  1.00  0.00     0.049 A 
ATOM     77  H   UNL     1       0.834   4.313  -9.653  1.00  0.00     0.167 HD
ATOM     78  C   UNL     1       0.037   3.618 -12.332  1.00  0.00     0.074 A 
ATOM     79  C   UNL     1      -0.490   2.853 -13.441  1.00  0.00     0.031 C 
ATOM     80  C   UNL     1       0.225   4.960 -12.348  1.00  0.00     0.037 A 
BRANCH  67  81
ATOM     81  C   UNL     1       2.199   7.527  -7.136  1.00  0.00     0.057 A 
ATOM     82  C   UNL     1       3.528   7.908  -7.410  1.00  0.00     0.134 A 
ATOM     83  C   UNL     1       1.403   8.477  -6.496  1.00  0.00     0.134 A 
ATOM     84  F   UNL     1       4.304   7.142  -8.199  1.00  0.00    -0.206 F 
ATOM     85  C   UNL     1       4.088   9.083  -6.905  1.00  0.00     0.040 A 
ATOM     86  C   UNL     1       1.928   9.698  -6.055  1.00  0.00     0.040 A 
ATOM     87  F   UNL     1       0.087   8.264  -6.345  1.00  0.00    -0.206 F 
ATOM     88  C   UNL     1       3.284   9.984  -6.219  1.00  0.00     0.006 A 
ENDBRANCH  67  81
BRANCH  68  89
ATOM     89  C   UNL     1      -0.265  -1.047 -11.837  1.00  0.00     0.057 A 
ATOM     90  C   UNL     1       0.353  -1.492 -13.011  1.00  0.00     0.134 A 
ATOM     91  C   UNL     1      -1.404  -1.741 -11.408  1.00  0.00     0.134 A 
ATOM     92  F   UNL     1       1.407  -0.829 -13.508  1.00  0.00    -0.206 F 
ATOM     93  C   UNL     1      -0.144  -2.576 -13.736  1.00  0.00     0.040 A 
ATOM     94  C   UNL     1      -1.898  -2.844 -12.109  1.00  0.00     0.040 A 
ATOM     95  F   UNL     1      -2.066  -1.345 -10.309  1.00  0.00    -0.206 F 
ATOM     96  C   UNL     1      -1.269  -3.260 -13.281  1.00  0.00     0.006 A 
ENDBRANCH  68  89
BRANCH  80  97
ATOM     97  C   UNL     1      -0.060   5.690 -13.639  1.00  0.00     0.057 A 
ATOM     98  C   UNL     1      -1.363   5.874 -14.120  1.00  0.00     0.134 A 
ATOM     99  C   UNL     1       0.982   6.258 -14.388  1.00  0.00     0.134 A 
ATOM    100  F   UNL     1      -2.409   5.353 -13.460  1.00  0.00    -0.206 F 
ATOM    101  C   UNL     1      -1.617   6.564 -15.308  1.00  0.00     0.040 A 
ATOM    102  C   UNL     1       0.738   6.981 -15.559  1.00  0.00     0.040 A 
ATOM    103  F   UNL     1       2.256   6.144 -13.982  1.00  0.00    -0.206 F 
ATOM    104  C   UNL     1      -0.565   7.128 -16.028  1.00  0.00     0.006 A 
ENDBRANCH  80  97
ENDBRANCH  54  55
ENDBRANCH  47  49
ENDBRANCH  46  47
ENDBRANCH  45  46
ENDBRANCH  44  45
ENDBRANCH  43  44
ENDBRANCH   2  43
TORSDOF 18
