REMARK SMILES O=C(OCCOC(=O)[C@H]1CC(=O)N(CCc2ccc3c(c2)OCO3)C1)c1ccc(-c2c3nc(c(-c4c(F)cccc4F)c4ccc([nH]4)c(-c4c(F)cccc4F)c4nc(c(-c5c(F)cccc5F)c5ccc2[nH]5)C=C4)C=C3)cc1
REMARK SMILES IDX 5 1 4 2 3 3 2 4 1 5 26 6 27 7 79 8 28 9 78 10 29 11 30 12
REMARK SMILES IDX 31 13 72 14 32 15 77 16 71 17 73 18 33 19 76 20 70 21 69 22
REMARK SMILES IDX 34 24 60 25 43 26 59 27 44 28 47 29 58 30 74 31 45 32 46 33
REMARK SMILES IDX 57 35 75 36 48 37 35 38 36 39 41 40 37 41 38 42 40 43 42 44
REMARK SMILES IDX 39 45 61 46 62 47 67 48 63 49 64 50 66 51 68 52 65 53 49 54
REMARK SMILES IDX 50 55 55 56 51 57 52 58 54 59 56 60 53 61 6 62 7 63 8 64
REMARK SMILES IDX 9 65 10 66 25 67 11 68 13 69 12 70 14 71 15 72 16 73 17 74
REMARK SMILES IDX 21 75 18 76 20 77 19 78 22 79 24 80 23 81
REMARK H PARENT 73 23 47 34
REMARK Flexibility Score: inf
ROOT
ATOM      1  C   UNL     1       2.380  -0.530  -4.164  1.00  0.00     0.274 C 
ENDROOT
BRANCH   1   2
ATOM      2  C   UNL     1       1.360  -0.052  -5.230  1.00  0.00     0.275 C 
BRANCH   2   3
ATOM      3  O   UNL     1       1.423   1.358  -5.476  1.00  0.00    -0.458 OA
BRANCH   3   4
ATOM      4  C   UNL     1       0.788   2.338  -4.788  1.00  0.00     0.338 C 
ATOM      5  O   UNL     1       0.824   3.483  -5.234  1.00  0.00    -0.246 OA
BRANCH   4   6
ATOM      6  C   UNL     1       0.151   2.128  -3.439  1.00  0.00     0.060 A 
ATOM      7  C   UNL     1      -0.077   0.894  -2.826  1.00  0.00     0.016 A 
ATOM      8  C   UNL     1      -0.174   3.276  -2.696  1.00  0.00     0.016 A 
ATOM      9  C   UNL     1      -0.530   0.772  -1.528  1.00  0.00     0.010 A 
ATOM     10  C   UNL     1      -0.650   3.167  -1.380  1.00  0.00     0.010 A 
ATOM     11  C   UNL     1      -0.819   1.902  -0.790  1.00  0.00    -0.014 A 
BRANCH  11  12
ATOM     12  C   UNL     1      -1.464   1.644   0.501  1.00  0.00     0.031 A 
ATOM     13  C   UNL     1      -2.833   2.122   0.706  1.00  0.00     0.074 A 
ATOM     14  C   UNL     1      -0.824   0.941   1.460  1.00  0.00     0.049 A 
ATOM     15  N   UNL     1      -3.494   2.168   1.822  1.00  0.00    -0.248 NA
ATOM     16  C   UNL     1      -3.528   2.670  -0.470  1.00  0.00     0.031 C 
ATOM     17  C   UNL     1       1.075   0.739   1.343  1.00  0.00     0.029 A 
ATOM     18  N   UNL     1      -1.265   0.485   3.102  1.00  0.00    -0.354 N 
ATOM     19  C   UNL     1      -4.717   2.679   1.468  1.00  0.00     0.074 A 
ATOM     20  C   UNL     1      -4.648   3.096   0.084  1.00  0.00     0.031 C 
ATOM     21  C   UNL     1       1.660   0.204   3.094  1.00  0.00     0.029 A 
ATOM     22  C   UNL     1       0.093   0.139   4.169  1.00  0.00     0.049 A 
ATOM     23  H   UNL     1      -2.201   0.428   3.402  1.00  0.00     0.167 HD
ATOM     24  C   UNL     1      -5.826   2.700   2.227  1.00  0.00     0.037 A 
ATOM     25  C   UNL     1       0.215   0.169   5.502  1.00  0.00     0.037 A 
ATOM     26  C   UNL     1      -5.855   2.332   3.613  1.00  0.00     0.049 A 
ATOM     27  C   UNL     1      -1.027   0.463   6.228  1.00  0.00     0.074 A 
ATOM     28  C   UNL     1      -6.948   2.342   4.452  1.00  0.00     0.029 A 
ATOM     29  N   UNL     1      -4.755   1.938   4.379  1.00  0.00    -0.354 N 
ATOM     30  N   UNL     1      -2.149   0.933   5.742  1.00  0.00    -0.248 NA
ATOM     31  C   UNL     1      -1.019   0.191   7.660  1.00  0.00     0.031 C 
ATOM     32  C   UNL     1      -6.501   2.050   5.738  1.00  0.00     0.029 A 
ATOM     33  C   UNL     1      -5.147   1.744   5.697  1.00  0.00     0.049 A 
ATOM     34  H   UNL     1      -3.840   1.817   4.036  1.00  0.00     0.167 HD
ATOM     35  C   UNL     1      -3.027   0.945   6.797  1.00  0.00     0.074 A 
ATOM     36  C   UNL     1      -2.285   0.445   7.951  1.00  0.00     0.031 C 
ATOM     37  C   UNL     1      -4.332   1.300   6.806  1.00  0.00     0.037 A 
BRANCH  24  38
ATOM     38  C   UNL     1      -7.053   3.172   1.523  1.00  0.00     0.057 A 
ATOM     39  C   UNL     1      -7.615   2.457   0.453  1.00  0.00     0.134 A 
ATOM     40  C   UNL     1      -7.597   4.418   1.840  1.00  0.00     0.134 A 
ATOM     41  F   UNL     1      -7.093   1.282   0.065  1.00  0.00    -0.206 F 
ATOM     42  C   UNL     1      -8.651   2.993  -0.308  1.00  0.00     0.040 A 
ATOM     43  C   UNL     1      -8.661   4.942   1.114  1.00  0.00     0.040 A 
ATOM     44  F   UNL     1      -7.073   5.158   2.828  1.00  0.00    -0.206 F 
ATOM     45  C   UNL     1      -9.181   4.237   0.028  1.00  0.00     0.006 A 
ENDBRANCH  24  38
BRANCH  25  46
ATOM     46  C   UNL     1       1.522  -0.132   6.123  1.00  0.00     0.057 A 
ATOM     47  C   UNL     1       1.751  -1.412   6.638  1.00  0.00     0.134 A 
ATOM     48  C   UNL     1       2.609   0.756   6.116  1.00  0.00     0.134 A 
ATOM     49  F   UNL     1       0.755  -2.310   6.663  1.00  0.00    -0.206 F 
ATOM     50  C   UNL     1       2.999  -1.800   7.126  1.00  0.00     0.040 A 
ATOM     51  C   UNL     1       3.877   0.367   6.564  1.00  0.00     0.040 A 
ATOM     52  F   UNL     1       2.480   1.989   5.608  1.00  0.00    -0.206 F 
ATOM     53  C   UNL     1       4.072  -0.914   7.078  1.00  0.00     0.006 A 
ENDBRANCH  25  46
BRANCH  37  54
ATOM     54  C   UNL     1      -5.005   1.112   8.125  1.00  0.00     0.057 A 
ATOM     55  C   UNL     1      -4.680   1.897   9.237  1.00  0.00     0.134 A 
ATOM     56  C   UNL     1      -5.955   0.097   8.284  1.00  0.00     0.134 A 
ATOM     57  F   UNL     1      -3.748   2.859   9.144  1.00  0.00    -0.206 F 
ATOM     58  C   UNL     1      -5.239   1.639  10.483  1.00  0.00     0.040 A 
ATOM     59  C   UNL     1      -6.564  -0.130   9.511  1.00  0.00     0.040 A 
ATOM     60  F   UNL     1      -6.300  -0.685   7.250  1.00  0.00    -0.206 F 
ATOM     61  C   UNL     1      -6.192   0.629  10.619  1.00  0.00     0.006 A 
ENDBRANCH  37  54
ENDBRANCH  11  12
ENDBRANCH   4   6
ENDBRANCH   3   4
ENDBRANCH   2   3
ENDBRANCH   1   2
BRANCH   1  62
ATOM     62  O   UNL     1       2.592   0.410  -3.048  1.00  0.00    -0.462 OA
BRANCH  62  63
ATOM     63  C   UNL     1       3.565   1.331  -3.252  1.00  0.00     0.311 C 
ATOM     64  O   UNL     1       4.310   1.263  -4.230  1.00  0.00    -0.252 OA
BRANCH  63  65
ATOM     65  C   UNL     1       3.733   2.497  -2.263  1.00  0.00     0.128 C 
ATOM     66  C   UNL     1       3.674   3.761  -3.116  1.00  0.00     0.117 C 
ATOM     67  C   UNL     1       2.912   2.913  -1.034  1.00  0.00     0.135 C 
ATOM     68  C   UNL     1       3.568   4.884  -2.143  1.00  0.00     0.223 C 
ATOM     69  N   UNL     1       3.018   4.394  -0.965  1.00  0.00    -0.341 N 
ATOM     70  O   UNL     1       3.890   6.038  -2.372  1.00  0.00    -0.275 OA
BRANCH  69  71
ATOM     71  C   UNL     1       2.954   5.332   0.189  1.00  0.00     0.124 C 
BRANCH  71  72
ATOM     72  C   UNL     1       1.782   5.334   1.179  1.00  0.00     0.057 C 
BRANCH  72  73
ATOM     73  C   UNL     1       1.707   4.143   2.118  1.00  0.00    -0.042 A 
ATOM     74  C   UNL     1       0.357   3.969   2.737  1.00  0.00     0.008 A 
ATOM     75  C   UNL     1       2.792   3.219   2.118  1.00  0.00     0.054 A 
ATOM     76  C   UNL     1      -0.217   2.759   3.154  1.00  0.00     0.051 A 
ATOM     77  C   UNL     1       2.331   1.988   2.385  1.00  0.00     0.166 A 
ATOM     78  C   UNL     1       0.633   1.688   2.847  1.00  0.00     0.165 A 
ATOM     79  O   UNL     1       3.092   0.533   1.655  1.00  0.00    -0.454 OA
ATOM     80  O   UNL     1       0.270  -0.310   2.347  1.00  0.00    -0.454 OA
ATOM     81  C   UNL     1       1.942  -0.974   1.601  1.00  0.00     0.468 C 
ENDBRANCH  72  73
ENDBRANCH  71  72
ENDBRANCH  69  71
ENDBRANCH  63  65
ENDBRANCH  62  63
ENDBRANCH   1  62
TORSDOF 14
