REMARK SMILES C=C(C)CN(CC)C(=O)C[N@H+]1CC[C@@H](C(=O)OCCOC(=O)c2ccc(-c3c4nc(c(-c5c(F)cccc5F)c5ccc([nH]5)c(-c5c(F)cccc5F)c5nc(c(-c6c(F)cccc6F)c6ccc3[nH]6)C=C5)C=C4)cc2)[C@@H]1C
REMARK SMILES IDX 17 1 15 2 16 3 14 4 11 5 12 6 77 7 13 9 78 10 10 11 8 12
REMARK SMILES IDX 9 13 5 14 4 15 2 16 1 17 3 18 6 19 7 20 18 21 19 22 20 23
REMARK SMILES IDX 21 24 22 25 23 26 24 27 76 28 25 29 75 30 26 31 27 32 28 33
REMARK SMILES IDX 69 34 29 35 74 36 68 37 70 38 30 39 73 40 67 41 66 42 31 44
REMARK SMILES IDX 57 45 40 46 56 47 41 48 44 49 55 50 71 51 42 52 43 53 54 55
REMARK SMILES IDX 72 56 45 57 32 58 33 59 38 60 34 61 35 62 37 63 39 64 36 65
REMARK SMILES IDX 58 66 59 67 64 68 60 69 61 70 63 71 65 72 62 73 46 74 47 75
REMARK SMILES IDX 52 76 48 77 49 78 51 79 53 80 50 81
REMARK H PARENT 11 8 70 43 44 54
REMARK Flexibility Score: inf
ROOT
ATOM      1  O   UNL     1       1.071   2.426  -4.662  1.00  0.00    -0.462 OA
ENDROOT
BRANCH   1   2
ATOM      2  C   UNL     1       2.287   2.623  -5.222  1.00  0.00     0.315 C 
ATOM      3  O   UNL     1       2.605   3.614  -5.873  1.00  0.00    -0.252 OA
BRANCH   2   4
ATOM      4  C   UNL     1       3.250   1.480  -5.000  1.00  0.00     0.162 C 
ATOM      5  N   UNL     1       3.290  -0.834  -4.286  1.00  0.00    -0.324 N 
ATOM      6  C   UNL     1       3.934  -0.686  -5.603  1.00  0.00     0.264 C 
ATOM      7  C   UNL     1       2.968   0.540  -3.817  1.00  0.00     0.195 C 
ATOM      8  H   UNL     1       3.894  -1.289  -3.602  1.00  0.00     0.348 HD
ATOM      9  C   UNL     1       3.322   0.563  -6.205  1.00  0.00     0.083 C 
ATOM     10  C   UNL     1       3.893   0.862  -2.638  1.00  0.00     0.076 C 
BRANCH   5  11
ATOM     11  C   UNL     1       2.090  -1.692  -4.419  1.00  0.00     0.364 C 
BRANCH  11  12
ATOM     12  C   UNL     1       1.257  -1.885  -3.145  1.00  0.00     0.278 C 
ATOM     13  O   UNL     1       0.029  -1.747  -3.242  1.00  0.00    -0.268 OA
BRANCH  12  14
ATOM     14  N   UNL     1       1.847  -2.292  -1.952  1.00  0.00    -0.334 N 
BRANCH  14  15
ATOM     15  C   UNL     1       0.961  -2.510  -0.809  1.00  0.00     0.149 C 
BRANCH  15  16
ATOM     16  C   UNL     1       0.422  -1.202  -0.267  1.00  0.00    -0.061 C 
ATOM     17  C   UNL     1       1.196  -0.157   0.074  1.00  0.00     0.009 C 
ATOM     18  C   UNL     1      -1.076  -1.124  -0.149  1.00  0.00     0.041 C 
ENDBRANCH  15  16
ENDBRANCH  14  15
BRANCH  14  19
ATOM     19  C   UNL     1       3.255  -2.657  -1.780  1.00  0.00     0.116 C 
ATOM     20  C   UNL     1       3.566  -4.056  -2.284  1.00  0.00     0.027 C 
ENDBRANCH  14  19
ENDBRANCH  12  14
ENDBRANCH  11  12
ENDBRANCH   5  11
ENDBRANCH   2   4
ENDBRANCH   1   2
BRANCH   1  21
ATOM     21  C   UNL     1       0.115   3.495  -4.799  1.00  0.00     0.274 C 
BRANCH  21  22
ATOM     22  C   UNL     1       0.014   4.313  -3.511  1.00  0.00     0.275 C 
BRANCH  22  23
ATOM     23  O   UNL     1       1.250   5.001  -3.240  1.00  0.00    -0.458 OA
BRANCH  23  24
ATOM     24  C   UNL     1       2.024   4.434  -2.289  1.00  0.00     0.338 C 
ATOM     25  O   UNL     1       1.779   3.449  -1.615  1.00  0.00    -0.246 OA
BRANCH  24  26
ATOM     26  C   UNL     1       3.315   5.131  -2.221  1.00  0.00     0.060 A 
ATOM     27  C   UNL     1       4.416   4.553  -2.854  1.00  0.00     0.016 A 
ATOM     28  C   UNL     1       3.471   6.264  -1.423  1.00  0.00     0.016 A 
ATOM     29  C   UNL     1       5.691   5.067  -2.652  1.00  0.00     0.010 A 
ATOM     30  C   UNL     1       4.749   6.808  -1.253  1.00  0.00     0.010 A 
ATOM     31  C   UNL     1       5.869   6.197  -1.845  1.00  0.00    -0.014 A 
BRANCH  31  32
ATOM     32  C   UNL     1       7.238   6.707  -1.595  1.00  0.00     0.031 A 
ATOM     33  C   UNL     1       7.863   6.551  -0.239  1.00  0.00     0.074 A 
ATOM     34  C   UNL     1       7.931   7.279  -2.596  1.00  0.00     0.049 A 
ATOM     35  N   UNL     1       9.004   7.015   0.203  1.00  0.00    -0.248 NA
ATOM     36  C   UNL     1       7.104   5.772   0.751  1.00  0.00     0.031 C 
ATOM     37  C   UNL     1       7.453   7.441  -3.970  1.00  0.00     0.029 A 
ATOM     38  N   UNL     1       9.187   7.830  -2.610  1.00  0.00    -0.354 N 
ATOM     39  C   UNL     1       9.089   6.609   1.528  1.00  0.00     0.074 A 
ATOM     40  C   UNL     1       7.880   5.868   1.821  1.00  0.00     0.031 C 
ATOM     41  C   UNL     1       8.408   8.044  -4.696  1.00  0.00     0.029 A 
ATOM     42  C   UNL     1       9.539   8.356  -3.828  1.00  0.00     0.049 A 
ATOM     43  H   UNL     1       9.778   7.846  -1.823  1.00  0.00     0.167 HD
ATOM     44  C   UNL     1      10.084   6.836   2.418  1.00  0.00     0.037 A 
ATOM     45  C   UNL     1      10.637   9.040  -4.196  1.00  0.00     0.037 A 
ATOM     46  C   UNL     1      11.295   7.554   2.118  1.00  0.00     0.049 A 
ATOM     47  C   UNL     1      11.708   9.316  -3.181  1.00  0.00     0.074 A 
ATOM     48  C   UNL     1      12.361   7.838   2.954  1.00  0.00     0.029 A 
ATOM     49  N   UNL     1      11.602   8.096   0.879  1.00  0.00    -0.354 N 
ATOM     50  N   UNL     1      11.760   8.962  -1.920  1.00  0.00    -0.248 NA
ATOM     51  C   UNL     1      12.867  10.097  -3.636  1.00  0.00     0.031 C 
ATOM     52  C   UNL     1      13.303   8.575   2.227  1.00  0.00     0.029 A 
ATOM     53  C   UNL     1      12.836   8.723   0.931  1.00  0.00     0.049 A 
ATOM     54  H   UNL     1      11.028   8.043   0.081  1.00  0.00     0.167 HD
ATOM     55  C   UNL     1      12.956   9.469  -1.432  1.00  0.00     0.074 A 
ATOM     56  C   UNL     1      13.608  10.141  -2.538  1.00  0.00     0.031 C 
ATOM     57  C   UNL     1      13.466   9.389  -0.180  1.00  0.00     0.037 A 
BRANCH  44  58
ATOM     58  C   UNL     1       9.885   6.325   3.812  1.00  0.00     0.057 A 
ATOM     59  C   UNL     1      10.019   4.968   4.129  1.00  0.00     0.134 A 
ATOM     60  C   UNL     1       9.570   7.206   4.854  1.00  0.00     0.134 A 
ATOM     61  F   UNL     1      10.303   4.071   3.172  1.00  0.00    -0.206 F 
ATOM     62  C   UNL     1       9.828   4.502   5.431  1.00  0.00     0.040 A 
ATOM     63  C   UNL     1       9.395   6.756   6.163  1.00  0.00     0.040 A 
ATOM     64  F   UNL     1       9.429   8.519   4.615  1.00  0.00    -0.206 F 
ATOM     65  C   UNL     1       9.519   5.398   6.453  1.00  0.00     0.006 A 
ENDBRANCH  44  58
BRANCH  45  66
ATOM     66  C   UNL     1      10.759   9.537  -5.587  1.00  0.00     0.057 A 
ATOM     67  C   UNL     1      11.651   8.950  -6.489  1.00  0.00     0.134 A 
ATOM     68  C   UNL     1       9.972  10.598  -6.049  1.00  0.00     0.134 A 
ATOM     69  F   UNL     1      12.445   7.943  -6.096  1.00  0.00    -0.206 F 
ATOM     70  C   UNL     1      11.760   9.404  -7.805  1.00  0.00     0.040 A 
ATOM     71  C   UNL     1      10.056  11.049  -7.367  1.00  0.00     0.040 A 
ATOM     72  F   UNL     1       9.097  11.199  -5.230  1.00  0.00    -0.206 F 
ATOM     73  C   UNL     1      10.955  10.452  -8.248  1.00  0.00     0.006 A 
ENDBRANCH  45  66
BRANCH  57  74
ATOM     74  C   UNL     1      14.799  10.032   0.053  1.00  0.00     0.057 A 
ATOM     75  C   UNL     1      14.928  11.419   0.187  1.00  0.00     0.134 A 
ATOM     76  C   UNL     1      15.957   9.255   0.172  1.00  0.00     0.134 A 
ATOM     77  F   UNL     1      13.857  12.217   0.068  1.00  0.00    -0.206 F 
ATOM     78  C   UNL     1      16.170  12.014   0.418  1.00  0.00     0.040 A 
ATOM     79  C   UNL     1      17.201   9.836   0.420  1.00  0.00     0.040 A 
ATOM     80  F   UNL     1      15.896   7.920   0.056  1.00  0.00    -0.206 F 
ATOM     81  C   UNL     1      17.309  11.221   0.540  1.00  0.00     0.006 A 
ENDBRANCH  57  74
ENDBRANCH  31  32
ENDBRANCH  24  26
ENDBRANCH  23  24
ENDBRANCH  22  23
ENDBRANCH  21  22
ENDBRANCH   1  21
TORSDOF 17
