REMARK SMILES CC(=O)NS(=O)(=O)c1ccc(-c2ccn(C(F)F)c(=O)c2)cc1C(=O)OCCOC(=O)c1ccc(-c2c3nc(c(-c4c(F)cccc4F)c4ccc([nH]4)c(-c4c(F)cccc4F)c4nc(c(-c5c(F)cccc5F)c5ccc2[nH]5)C=C4)C=C3)cc1
REMARK SMILES IDX 27 1 26 2 24 3 25 4 23 5 8 6 9 7 10 8 22 9 11 10 5 11 6 12
REMARK SMILES IDX 7 13 4 14 1 15 2 16 3 17 12 19 13 20 21 21 14 22 19 23 15 24
REMARK SMILES IDX 20 25 16 26 17 27 18 28 28 29 29 30 30 31 31 32 32 33 33 34
REMARK SMILES IDX 85 35 34 36 84 37 35 38 36 39 37 40 78 41 38 42 83 43 77 44
REMARK SMILES IDX 79 45 39 46 82 47 76 48 75 49 40 51 66 52 49 53 65 54 50 55
REMARK SMILES IDX 53 56 64 57 80 58 51 59 52 60 63 62 81 63 54 64 41 65 42 66
REMARK SMILES IDX 47 67 43 68 44 69 46 70 48 71 45 72 67 73 68 74 73 75 69 76
REMARK SMILES IDX 70 77 72 78 74 79 71 80 55 81 56 82 61 83 57 84 58 85 60 86
REMARK SMILES IDX 62 87 59 88
REMARK H PARENT 4 18 79 50 53 61
REMARK Flexibility Score: inf
ROOT
ATOM      1  C   UNL     1       2.654   5.864   1.365  1.00  0.00     0.275 C 
ENDROOT
BRANCH   1   2
ATOM      2  O   UNL     1       2.487   4.441   1.188  1.00  0.00    -0.458 OA
BRANCH   2   3
ATOM      3  C   UNL     1       3.291   3.645   1.912  1.00  0.00     0.339 C 
ATOM      4  O   UNL     1       4.111   4.022   2.737  1.00  0.00    -0.246 OA
BRANCH   3   5
ATOM      5  C   UNL     1       3.054   2.191   1.692  1.00  0.00     0.081 A 
ATOM      6  C   UNL     1       2.704   1.567   0.491  1.00  0.00     0.102 A 
ATOM      7  C   UNL     1       2.797   0.167   0.383  1.00  0.00     0.024 A 
ATOM      8  C   UNL     1       3.035  -0.623   1.510  1.00  0.00     0.010 A 
ATOM      9  C   UNL     1       3.312   1.375   2.813  1.00  0.00     0.025 A 
ATOM     10  C   UNL     1       3.225  -0.019   2.750  1.00  0.00    -0.017 A 
BRANCH   6  11
ATOM     11  S   UNL     1       1.986   2.481  -0.847  1.00  0.00     0.264 S 
ATOM     12  O   UNL     1       3.056   3.205  -1.494  1.00  0.00    -0.201 OA
ATOM     13  O   UNL     1       0.780   3.117  -0.368  1.00  0.00    -0.201 OA
BRANCH  11  14
ATOM     14  N   UNL     1       1.491   1.323  -1.944  1.00  0.00    -0.249 N 
ATOM     15  C   UNL     1      -0.338   0.183  -0.654  1.00  0.00     0.115 C 
ATOM     16  C   UNL     1       0.230   0.695  -1.953  1.00  0.00     0.230 C 
ATOM     17  O   UNL     1      -0.276   0.410  -3.031  1.00  0.00    -0.274 OA
ATOM     18  H   UNL     1       2.133   1.056  -2.640  1.00  0.00     0.183 HD
ENDBRANCH  11  14
ENDBRANCH   6  11
BRANCH  10  19
ATOM     19  C   UNL     1       3.270  -0.804   3.996  1.00  0.00    -0.011 A 
ATOM     20  C   UNL     1       2.220  -0.708   4.996  1.00  0.00     0.027 A 
ATOM     21  C   UNL     1       4.312  -1.620   4.221  1.00  0.00     0.080 A 
ATOM     22  C   UNL     1       2.308  -1.386   6.146  1.00  0.00     0.095 A 
ATOM     23  C   UNL     1       4.411  -2.403   5.485  1.00  0.00     0.255 A 
ATOM     24  N   UNL     1       3.389  -2.209   6.401  1.00  0.00    -0.258 N 
ATOM     25  O   UNL     1       5.375  -3.148   5.631  1.00  0.00    -0.269 OA
BRANCH  24  26
ATOM     26  C   UNL     1       3.480  -2.928   7.648  1.00  0.00     0.451 C 
ATOM     27  F   UNL     1       3.441  -4.266   7.433  1.00  0.00    -0.185 F 
ATOM     28  F   UNL     1       4.639  -2.640   8.288  1.00  0.00    -0.185 F 
ENDBRANCH  24  26
ENDBRANCH  10  19
ENDBRANCH   3   5
ENDBRANCH   2   3
ENDBRANCH   1   2
BRANCH   1  29
ATOM     29  C   UNL     1       1.534   6.434   2.231  1.00  0.00     0.275 C 
BRANCH  29  30
ATOM     30  O   UNL     1       1.631   5.878   3.554  1.00  0.00    -0.458 OA
BRANCH  30  31
ATOM     31  C   UNL     1       0.499   5.337   4.054  1.00  0.00     0.338 C 
ATOM     32  O   UNL     1      -0.613   5.326   3.557  1.00  0.00    -0.246 OA
BRANCH  31  33
ATOM     33  C   UNL     1       0.796   4.703   5.349  1.00  0.00     0.060 A 
ATOM     34  C   UNL     1       1.747   3.687   5.416  1.00  0.00     0.016 A 
ATOM     35  C   UNL     1       0.042   5.032   6.473  1.00  0.00     0.016 A 
ATOM     36  C   UNL     1       1.895   2.939   6.583  1.00  0.00     0.010 A 
ATOM     37  C   UNL     1       0.249   4.336   7.669  1.00  0.00     0.010 A 
ATOM     38  C   UNL     1       1.147   3.254   7.727  1.00  0.00    -0.014 A 
BRANCH  38  39
ATOM     39  C   UNL     1       1.248   2.418   8.957  1.00  0.00     0.031 A 
ATOM     40  C   UNL     1       0.023   1.732   9.503  1.00  0.00     0.074 A 
ATOM     41  C   UNL     1       2.429   2.247   9.585  1.00  0.00     0.049 A 
ATOM     42  N   UNL     1      -0.144   1.121  10.649  1.00  0.00    -0.248 NA
ATOM     43  C   UNL     1      -1.176   1.739   8.649  1.00  0.00     0.031 C 
ATOM     44  C   UNL     1       3.711   2.802   9.152  1.00  0.00     0.029 A 
ATOM     45  N   UNL     1       2.739   1.546  10.726  1.00  0.00    -0.354 N 
ATOM     46  C   UNL     1      -1.481   0.745  10.687  1.00  0.00     0.074 A 
ATOM     47  C   UNL     1      -2.076   1.172   9.439  1.00  0.00     0.031 C 
ATOM     48  C   UNL     1       4.675   2.389   9.989  1.00  0.00     0.029 A 
ATOM     49  C   UNL     1       4.069   1.613  11.066  1.00  0.00     0.049 A 
ATOM     50  H   UNL     1       2.073   1.045  11.248  1.00  0.00     0.167 HD
ATOM     51  C   UNL     1      -2.154   0.110  11.677  1.00  0.00     0.037 A 
ATOM     52  C   UNL     1       4.724   1.144  12.145  1.00  0.00     0.037 A 
ATOM     53  C   UNL     1      -1.554  -0.373  12.892  1.00  0.00     0.049 A 
ATOM     54  C   UNL     1       3.959   0.441  13.229  1.00  0.00     0.074 A 
ATOM     55  C   UNL     1      -2.155  -1.039  13.947  1.00  0.00     0.029 A 
ATOM     56  N   UNL     1      -0.210  -0.259  13.207  1.00  0.00    -0.354 N 
ATOM     57  N   UNL     1       2.680   0.163  13.288  1.00  0.00    -0.248 NA
ATOM     58  C   UNL     1       4.724   0.013  14.409  1.00  0.00     0.031 C 
ATOM     59  C   UNL     1      -1.175  -1.316  14.907  1.00  0.00     0.029 A 
ATOM     60  C   UNL     1       0.039  -0.846  14.436  1.00  0.00     0.049 A 
ATOM     61  H   UNL     1       0.468   0.175  12.640  1.00  0.00     0.167 HD
ATOM     62  C   UNL     1       2.486  -0.467  14.510  1.00  0.00     0.074 A 
ATOM     63  C   UNL     1       3.782  -0.554  15.149  1.00  0.00     0.031 C 
ATOM     64  C   UNL     1       1.334  -0.921  15.059  1.00  0.00     0.037 A 
BRANCH  51  65
ATOM     65  C   UNL     1      -3.632  -0.070  11.501  1.00  0.00     0.057 A 
ATOM     66  C   UNL     1      -4.167  -1.039  10.645  1.00  0.00     0.134 A 
ATOM     67  C   UNL     1      -4.531   0.722  12.228  1.00  0.00     0.134 A 
ATOM     68  F   UNL     1      -3.358  -1.814   9.907  1.00  0.00    -0.206 F 
ATOM     69  C   UNL     1      -5.547  -1.205  10.506  1.00  0.00     0.040 A 
ATOM     70  C   UNL     1      -5.911   0.552  12.113  1.00  0.00     0.040 A 
ATOM     71  F   UNL     1      -4.080   1.667  13.067  1.00  0.00    -0.206 F 
ATOM     72  C   UNL     1      -6.422  -0.412  11.247  1.00  0.00     0.006 A 
ENDBRANCH  51  65
BRANCH  52  73
ATOM     73  C   UNL     1       6.186   1.364  12.273  1.00  0.00     0.057 A 
ATOM     74  C   UNL     1       7.088   0.303  12.136  1.00  0.00     0.134 A 
ATOM     75  C   UNL     1       6.714   2.635  12.524  1.00  0.00     0.134 A 
ATOM     76  F   UNL     1       6.637  -0.942  11.925  1.00  0.00    -0.206 F 
ATOM     77  C   UNL     1       8.465   0.500  12.242  1.00  0.00     0.040 A 
ATOM     78  C   UNL     1       8.089   2.850  12.612  1.00  0.00     0.040 A 
ATOM     79  F   UNL     1       5.898   3.691  12.668  1.00  0.00    -0.206 F 
ATOM     80  C   UNL     1       8.970   1.779  12.473  1.00  0.00     0.006 A 
ENDBRANCH  52  73
BRANCH  64  81
ATOM     81  C   UNL     1       1.431  -1.564  16.407  1.00  0.00     0.057 A 
ATOM     82  C   UNL     1       1.566  -0.800  17.573  1.00  0.00     0.134 A 
ATOM     83  C   UNL     1       1.363  -2.955  16.544  1.00  0.00     0.134 A 
ATOM     84  F   UNL     1       1.650   0.537  17.504  1.00  0.00    -0.206 F 
ATOM     85  C   UNL     1       1.648  -1.401  18.830  1.00  0.00     0.040 A 
ATOM     86  C   UNL     1       1.428  -3.567  17.796  1.00  0.00     0.040 A 
ATOM     87  F   UNL     1       1.228  -3.739  15.463  1.00  0.00    -0.206 F 
ATOM     88  C   UNL     1       1.575  -2.789  18.943  1.00  0.00     0.006 A 
ENDBRANCH  64  81
ENDBRANCH  38  39
ENDBRANCH  31  33
ENDBRANCH  30  31
ENDBRANCH  29  30
ENDBRANCH   1  29
TORSDOF 15
