REMARK SMILES O=C(CSc1ccnc(C(=O)OCCOC(=O)c2ccc(-c3c4nc(c(-c5c(F)cccc5F)c5ccc([nH]5)c(-c5c(F)cccc5F)c5nc(c(-c6c(F)cccc6F)c6ccc3[nH]6)C=C5)C=C4)cc2)c1)NNc1ccccn1
REMARK SMILES IDX 12 1 10 2 11 3 9 4 5 5 6 6 72 7 7 8 8 9 4 10 3 11 2 12 1 13
REMARK SMILES IDX 73 14 74 16 75 18 76 19 80 20 77 21 79 22 78 23 13 24 14 25
REMARK SMILES IDX 15 26 16 27 17 28 18 29 19 30 71 31 20 32 70 33 21 34 22 35
REMARK SMILES IDX 23 36 64 37 24 38 69 39 63 40 65 41 25 42 68 43 62 44 61 45
REMARK SMILES IDX 26 47 52 48 35 49 51 50 36 51 39 52 50 53 66 54 37 55 38 56
REMARK SMILES IDX 49 58 67 59 40 60 27 61 28 62 33 63 29 64 30 65 32 66 34 67
REMARK SMILES IDX 31 68 53 69 54 70 59 71 55 72 56 73 58 74 60 75 57 76 41 77
REMARK SMILES IDX 42 78 47 79 43 80 44 81 46 82 48 83 45 84
REMARK H PARENT 73 15 74 17 65 46 39 57
REMARK Flexibility Score: inf
ROOT
ATOM      1  O   UNL     1       0.962  -2.429  -5.404  1.00  0.00    -0.457 OA
ENDROOT
BRANCH   1   2
ATOM      2  C   UNL     1       1.709  -1.436  -5.957  1.00  0.00     0.357 C 
ATOM      3  O   UNL     1       1.777  -1.180  -7.151  1.00  0.00    -0.244 OA
BRANCH   2   4
ATOM      4  C   UNL     1       2.382  -0.618  -4.900  1.00  0.00     0.149 A 
ATOM      5  C   UNL     1       3.504  -0.316  -2.820  1.00  0.00     0.012 A 
ATOM      6  C   UNL     1       3.596   1.047  -3.099  1.00  0.00     0.035 A 
ATOM      7  C   UNL     1       2.870  -1.172  -3.725  1.00  0.00     0.051 A 
ATOM      8  C   UNL     1       3.081   1.507  -4.291  1.00  0.00     0.113 A 
ATOM      9  N   UNL     1       2.512   0.702  -5.204  1.00  0.00    -0.249 NA
BRANCH   5  10
ATOM     10  S   UNL     1       4.308  -0.937  -1.353  1.00  0.00    -0.116 SA
BRANCH  10  11
ATOM     11  C   UNL     1       2.866  -1.202  -0.276  1.00  0.00     0.176 C 
BRANCH  11  12
ATOM     12  C   UNL     1       2.153   0.080   0.108  1.00  0.00     0.248 C 
ATOM     13  O   UNL     1       0.924   0.134   0.169  1.00  0.00    -0.272 OA
ATOM     14  N   UNL     1       2.975   1.123   0.502  1.00  0.00    -0.268 N 
ATOM     15  H   UNL     1       3.954   1.056   0.434  1.00  0.00     0.191 HD
BRANCH  14  16
ATOM     16  N   UNL     1       2.361   2.268   0.995  1.00  0.00    -0.282 N 
ATOM     17  H   UNL     1       1.379   2.310   1.052  1.00  0.00     0.190 HD
BRANCH  16  18
ATOM     18  C   UNL     1       3.124   3.357   1.409  1.00  0.00     0.144 A 
ATOM     19  C   UNL     1       4.293   3.744   0.759  1.00  0.00     0.048 A 
ATOM     20  N   UNL     1       2.646   4.045   2.468  1.00  0.00    -0.238 NA
ATOM     21  C   UNL     1       4.990   4.865   1.210  1.00  0.00     0.005 A 
ATOM     22  C   UNL     1       3.342   5.121   2.896  1.00  0.00     0.113 A 
ATOM     23  C   UNL     1       4.509   5.567   2.305  1.00  0.00     0.020 A 
ENDBRANCH  16  18
ENDBRANCH  14  16
ENDBRANCH  11  12
ENDBRANCH  10  11
ENDBRANCH   5  10
ENDBRANCH   2   4
ENDBRANCH   1   2
BRANCH   1  24
ATOM     24  C   UNL     1       0.149  -3.179  -6.331  1.00  0.00     0.275 C 
BRANCH  24  25
ATOM     25  C   UNL     1      -1.310  -2.713  -6.324  1.00  0.00     0.275 C 
BRANCH  25  26
ATOM     26  O   UNL     1      -1.450  -1.386  -6.866  1.00  0.00    -0.458 OA
BRANCH  26  27
ATOM     27  C   UNL     1      -1.579  -0.401  -5.946  1.00  0.00     0.338 C 
ATOM     28  O   UNL     1      -1.613  -0.520  -4.734  1.00  0.00    -0.246 OA
BRANCH  27  29
ATOM     29  C   UNL     1      -1.580   0.908  -6.617  1.00  0.00     0.060 A 
ATOM     30  C   UNL     1      -0.395   1.638  -6.608  1.00  0.00     0.016 A 
ATOM     31  C   UNL     1      -2.746   1.469  -7.138  1.00  0.00     0.016 A 
ATOM     32  C   UNL     1      -0.363   2.943  -7.084  1.00  0.00     0.010 A 
ATOM     33  C   UNL     1      -2.707   2.773  -7.654  1.00  0.00     0.010 A 
ATOM     34  C   UNL     1      -1.519   3.526  -7.614  1.00  0.00    -0.014 A 
BRANCH  34  35
ATOM     35  C   UNL     1      -1.470   4.932  -8.088  1.00  0.00     0.031 A 
ATOM     36  C   UNL     1      -2.198   6.010  -7.337  1.00  0.00     0.074 A 
ATOM     37  C   UNL     1      -0.725   5.252  -9.164  1.00  0.00     0.049 A 
ATOM     38  N   UNL     1      -2.337   7.278  -7.636  1.00  0.00    -0.248 NA
ATOM     39  C   UNL     1      -2.857   5.612  -6.084  1.00  0.00     0.031 C 
ATOM     40  C   UNL     1       0.079   4.310  -9.944  1.00  0.00     0.029 A 
ATOM     41  N   UNL     1      -0.514   6.461  -9.778  1.00  0.00    -0.354 N 
ATOM     42  C   UNL     1      -3.122   7.821  -6.628  1.00  0.00     0.074 A 
ATOM     43  C   UNL     1      -3.438   6.744  -5.713  1.00  0.00     0.031 C 
ATOM     44  C   UNL     1       0.713   4.980 -10.920  1.00  0.00     0.029 A 
ATOM     45  C   UNL     1       0.314   6.383 -10.870  1.00  0.00     0.049 A 
ATOM     46  H   UNL     1      -0.918   7.302  -9.466  1.00  0.00     0.167 HD
ATOM     47  C   UNL     1      -3.540   9.101  -6.480  1.00  0.00     0.037 A 
ATOM     48  C   UNL     1       0.688   7.329 -11.752  1.00  0.00     0.037 A 
ATOM     49  C   UNL     1      -3.200  10.178  -7.372  1.00  0.00     0.049 A 
ATOM     50  C   UNL     1       0.163   8.728 -11.599  1.00  0.00     0.074 A 
ATOM     51  C   UNL     1      -3.568  11.511  -7.297  1.00  0.00     0.029 A 
ATOM     52  N   UNL     1      -2.407  10.046  -8.502  1.00  0.00    -0.354 N 
ATOM     53  N   UNL     1      -0.609   9.222 -10.663  1.00  0.00    -0.248 NA
ATOM     54  C   UNL     1       0.547   9.695 -12.636  1.00  0.00     0.031 C 
ATOM     55  C   UNL     1      -3.024  12.179  -8.401  1.00  0.00     0.029 A 
ATOM     56  C   UNL     1      -2.289  11.269  -9.143  1.00  0.00     0.049 A 
ATOM     57  H   UNL     1      -1.988   9.208  -8.803  1.00  0.00     0.167 HD
ATOM     58  C   UNL     1      -0.800  10.556 -10.993  1.00  0.00     0.074 A 
ATOM     59  C   UNL     1      -0.044  10.801 -12.205  1.00  0.00     0.031 C 
ATOM     60  C   UNL     1      -1.540  11.494 -10.352  1.00  0.00     0.037 A 
BRANCH  47  61
ATOM     61  C   UNL     1      -4.444   9.398  -5.321  1.00  0.00     0.057 A 
ATOM     62  C   UNL     1      -3.967   9.472  -4.006  1.00  0.00     0.134 A 
ATOM     63  C   UNL     1      -5.809   9.634  -5.529  1.00  0.00     0.134 A 
ATOM     64  F   UNL     1      -2.672   9.243  -3.740  1.00  0.00    -0.206 F 
ATOM     65  C   UNL     1      -4.820   9.748  -2.936  1.00  0.00     0.040 A 
ATOM     66  C   UNL     1      -6.668   9.933  -4.470  1.00  0.00     0.040 A 
ATOM     67  F   UNL     1      -6.328   9.584  -6.765  1.00  0.00    -0.206 F 
ATOM     68  C   UNL     1      -6.175   9.984  -3.168  1.00  0.00     0.006 A 
ENDBRANCH  47  61
BRANCH  48  69
ATOM     69  C   UNL     1       1.583   6.973 -12.880  1.00  0.00     0.057 A 
ATOM     70  C   UNL     1       2.906   7.424 -12.924  1.00  0.00     0.134 A 
ATOM     71  C   UNL     1       1.138   6.169 -13.936  1.00  0.00     0.134 A 
ATOM     72  F   UNL     1       3.382   8.219 -11.954  1.00  0.00    -0.206 F 
ATOM     73  C   UNL     1       3.755   7.091 -13.981  1.00  0.00     0.040 A 
ATOM     74  C   UNL     1       1.982   5.809 -14.987  1.00  0.00     0.040 A 
ATOM     75  F   UNL     1      -0.122   5.708 -13.951  1.00  0.00    -0.206 F 
ATOM     76  C   UNL     1       3.295   6.275 -15.013  1.00  0.00     0.006 A 
ENDBRANCH  48  69
BRANCH  60  77
ATOM     77  C   UNL     1      -1.556  12.869 -10.947  1.00  0.00     0.057 A 
ATOM     78  C   UNL     1      -2.302  13.161 -12.096  1.00  0.00     0.134 A 
ATOM     79  C   UNL     1      -0.842  13.916 -10.353  1.00  0.00     0.134 A 
ATOM     80  F   UNL     1      -2.995  12.197 -12.720  1.00  0.00    -0.206 F 
ATOM     81  C   UNL     1      -2.322  14.444 -12.643  1.00  0.00     0.040 A 
ATOM     82  C   UNL     1      -0.870  15.207 -10.880  1.00  0.00     0.040 A 
ATOM     83  F   UNL     1      -0.112  13.701  -9.248  1.00  0.00    -0.206 F 
ATOM     84  C   UNL     1      -1.609  15.473 -12.031  1.00  0.00     0.006 A 
ENDBRANCH  60  77
ENDBRANCH  34  35
ENDBRANCH  27  29
ENDBRANCH  26  27
ENDBRANCH  25  26
ENDBRANCH  24  25
ENDBRANCH   1  24
TORSDOF 16
