REMARK SMILES COc1ccccc1[C@H]([NH3+])c1nc(C(=O)OCCOC(=O)c2ccc(-c3c4nc(c(-c5c(F)cccc5F)c5ccc([nH]5)c(-c5c(F)cccc5F)c5nc(c(-c6c(F)cccc6F)c6ccc3[nH]6)C=C5)C=C4)cc2)c[nH]1
REMARK SMILES IDX 17 1 16 2 14 3 15 4 13 5 11 6 12 7 77 8 76 9 9 11 8 12 3 13
REMARK SMILES IDX 4 14 5 15 7 16 6 17 2 18 1 19 10 20 18 24 19 25 20 26 21 27
REMARK SMILES IDX 22 28 23 29 75 30 24 31 74 32 25 33 26 34 27 35 68 36 28 37
REMARK SMILES IDX 73 38 67 39 69 40 29 41 72 42 66 43 65 44 30 46 56 47 39 48
REMARK SMILES IDX 55 49 40 50 43 51 54 52 70 53 41 54 42 55 53 57 71 58 44 59
REMARK SMILES IDX 31 60 32 61 37 62 33 63 34 64 36 65 38 66 35 67 57 68 58 69
REMARK SMILES IDX 63 70 59 71 60 72 62 73 64 74 61 75 45 76 46 77 51 78 47 79
REMARK SMILES IDX 48 80 50 81 52 82 49 83
REMARK H PARENT 77 10 10 21 10 22 10 23 69 45 43 56
REMARK Flexibility Score: inf
ROOT
ATOM      1  C   UNL     1       1.891   3.656   5.604  1.00  0.00     0.275 C 
ENDROOT
BRANCH   1   2
ATOM      2  O   UNL     1       2.142   3.169   4.274  1.00  0.00    -0.457 OA
BRANCH   2   3
ATOM      3  C   UNL     1       3.025   3.911   3.543  1.00  0.00     0.358 C 
ATOM      4  O   UNL     1       3.537   4.957   3.931  1.00  0.00    -0.244 OA
BRANCH   3   5
ATOM      5  C   UNL     1       3.381   3.303   2.260  1.00  0.00     0.166 A 
ATOM      6  C   UNL     1       3.381   2.028   0.505  1.00  0.00     0.170 A 
ATOM      7  N   UNL     1       2.741   2.234   1.648  1.00  0.00    -0.220 NA
ATOM      8  N   UNL     1       4.467   2.869   0.414  1.00  0.00    -0.342 N 
ATOM      9  C   UNL     1       4.443   3.715   1.477  1.00  0.00     0.120 A 
ATOM     10  H   UNL     1       5.145   2.860  -0.300  1.00  0.00     0.167 HD
BRANCH   6  11
ATOM     11  C   UNL     1       3.022   1.046  -0.596  1.00  0.00     0.283 C 
BRANCH  11  12
ATOM     12  C   UNL     1       4.082   1.000  -1.698  1.00  0.00     0.059 A 
ATOM     13  C   UNL     1       4.115   1.846  -2.822  1.00  0.00     0.128 A 
ATOM     14  C   UNL     1       5.199   1.820  -3.709  1.00  0.00     0.047 A 
ATOM     15  C   UNL     1       6.282   0.976  -3.476  1.00  0.00     0.004 A 
ATOM     16  C   UNL     1       5.184   0.139  -1.496  1.00  0.00     0.014 A 
ATOM     17  C   UNL     1       6.272   0.130  -2.372  1.00  0.00     0.001 A 
BRANCH  13  18
ATOM     18  O   UNL     1       3.068   2.656  -3.167  1.00  0.00    -0.496 OA
ATOM     19  C   UNL     1       3.201   3.969  -2.628  1.00  0.00     0.278 C 
ENDBRANCH  13  18
ENDBRANCH  11  12
BRANCH  11  20
ATOM     20  N   UNL     1       1.671   1.325  -1.083  1.00  0.00    -0.345 N 
ATOM     21  H   UNL     1       1.639   2.266  -1.475  1.00  0.00     0.345 HD
ATOM     22  H   UNL     1       1.011   1.257  -0.309  1.00  0.00     0.345 HD
ATOM     23  H   UNL     1       1.423   0.648  -1.803  1.00  0.00     0.345 HD
ENDBRANCH  11  20
ENDBRANCH   6  11
ENDBRANCH   3   5
ENDBRANCH   2   3
ENDBRANCH   1   2
BRANCH   1  24
ATOM     24  C   UNL     1       2.812   2.974   6.616  1.00  0.00     0.275 C 
BRANCH  24  25
ATOM     25  O   UNL     1       4.188   3.304   6.345  1.00  0.00    -0.458 OA
BRANCH  25  26
ATOM     26  C   UNL     1       5.018   2.257   6.136  1.00  0.00     0.338 C 
ATOM     27  O   UNL     1       4.758   1.069   6.194  1.00  0.00    -0.246 OA
BRANCH  26  28
ATOM     28  C   UNL     1       6.361   2.759   5.806  1.00  0.00     0.060 A 
ATOM     29  C   UNL     1       6.640   3.156   4.498  1.00  0.00     0.016 A 
ATOM     30  C   UNL     1       7.374   2.718   6.764  1.00  0.00     0.016 A 
ATOM     31  C   UNL     1       7.944   3.493   4.134  1.00  0.00     0.010 A 
ATOM     32  C   UNL     1       8.675   3.086   6.406  1.00  0.00     0.010 A 
ATOM     33  C   UNL     1       8.977   3.454   5.082  1.00  0.00    -0.014 A 
BRANCH  33  34
ATOM     34  C   UNL     1      10.380   3.727   4.673  1.00  0.00     0.031 A 
ATOM     35  C   UNL     1      11.389   2.611   4.658  1.00  0.00     0.074 A 
ATOM     36  C   UNL     1      10.752   4.963   4.291  1.00  0.00     0.049 A 
ATOM     37  N   UNL     1      12.679   2.662   4.438  1.00  0.00    -0.248 NA
ATOM     38  C   UNL     1      10.878   1.258   4.929  1.00  0.00     0.031 C 
ATOM     39  C   UNL     1       9.869   6.126   4.211  1.00  0.00     0.029 A 
ATOM     40  N   UNL     1      11.975   5.443   3.892  1.00  0.00    -0.354 N 
ATOM     41  C   UNL     1      13.139   1.359   4.580  1.00  0.00     0.074 A 
ATOM     42  C   UNL     1      11.992   0.539   4.908  1.00  0.00     0.031 C 
ATOM     43  C   UNL     1      10.574   7.181   3.769  1.00  0.00     0.029 A 
ATOM     44  C   UNL     1      11.967   6.782   3.587  1.00  0.00     0.049 A 
ATOM     45  H   UNL     1      12.781   4.881   3.830  1.00  0.00     0.167 HD
ATOM     46  C   UNL     1      14.402   0.888   4.449  1.00  0.00     0.037 A 
ATOM     47  C   UNL     1      12.973   7.603   3.228  1.00  0.00     0.037 A 
ATOM     48  C   UNL     1      15.541   1.690   4.088  1.00  0.00     0.049 A 
ATOM     49  C   UNL     1      14.372   7.064   3.127  1.00  0.00     0.074 A 
ATOM     50  C   UNL     1      16.859   1.296   3.923  1.00  0.00     0.029 A 
ATOM     51  N   UNL     1      15.496   3.050   3.824  1.00  0.00    -0.354 N 
ATOM     52  N   UNL     1      14.801   5.839   3.303  1.00  0.00    -0.248 NA
ATOM     53  C   UNL     1      15.431   8.030   2.796  1.00  0.00     0.031 C 
ATOM     54  C   UNL     1      17.615   2.423   3.584  1.00  0.00     0.029 A 
ATOM     55  C   UNL     1      16.763   3.513   3.509  1.00  0.00     0.049 A 
ATOM     56  H   UNL     1      14.684   3.605   3.857  1.00  0.00     0.167 HD
ATOM     57  C   UNL     1      16.173   5.883   3.095  1.00  0.00     0.074 A 
ATOM     58  C   UNL     1      16.505   7.252   2.763  1.00  0.00     0.031 C 
ATOM     59  C   UNL     1      17.078   4.878   3.178  1.00  0.00     0.037 A 
BRANCH  46  60
ATOM     60  C   UNL     1      14.625  -0.568   4.728  1.00  0.00     0.057 A 
ATOM     61  C   UNL     1      14.249  -1.562   3.817  1.00  0.00     0.134 A 
ATOM     62  C   UNL     1      15.250  -0.975   5.913  1.00  0.00     0.134 A 
ATOM     63  F   UNL     1      13.633  -1.237   2.671  1.00  0.00    -0.206 F 
ATOM     64  C   UNL     1      14.472  -2.915   4.085  1.00  0.00     0.040 A 
ATOM     65  C   UNL     1      15.495  -2.322   6.183  1.00  0.00     0.040 A 
ATOM     66  F   UNL     1      15.637  -0.070   6.824  1.00  0.00    -0.206 F 
ATOM     67  C   UNL     1      15.101  -3.297   5.268  1.00  0.00     0.006 A 
ENDBRANCH  46  60
BRANCH  47  68
ATOM     68  C   UNL     1      12.697   9.035   2.957  1.00  0.00     0.057 A 
ATOM     69  C   UNL     1      12.755   9.546   1.656  1.00  0.00     0.134 A 
ATOM     70  C   UNL     1      12.380   9.924   3.990  1.00  0.00     0.134 A 
ATOM     71  F   UNL     1      13.080   8.746   0.630  1.00  0.00    -0.206 F 
ATOM     72  C   UNL     1      12.511  10.895   1.391  1.00  0.00     0.040 A 
ATOM     73  C   UNL     1      12.112  11.270   3.737  1.00  0.00     0.040 A 
ATOM     74  F   UNL     1      12.313   9.493   5.258  1.00  0.00    -0.206 F 
ATOM     75  C   UNL     1      12.182  11.759   2.434  1.00  0.00     0.006 A 
ENDBRANCH  47  68
BRANCH  59  76
ATOM     76  C   UNL     1      18.507   5.220   2.886  1.00  0.00     0.057 A 
ATOM     77  C   UNL     1      19.304   5.897   3.817  1.00  0.00     0.134 A 
ATOM     78  C   UNL     1      19.099   4.843   1.675  1.00  0.00     0.134 A 
ATOM     79  F   UNL     1      18.789   6.296   4.989  1.00  0.00    -0.206 F 
ATOM     80  C   UNL     1      20.639   6.202   3.546  1.00  0.00     0.040 A 
ATOM     81  C   UNL     1      20.438   5.127   1.399  1.00  0.00     0.040 A 
ATOM     82  F   UNL     1      18.389   4.188   0.744  1.00  0.00    -0.206 F 
ATOM     83  C   UNL     1      21.210   5.812   2.335  1.00  0.00     0.006 A 
ENDBRANCH  59  76
ENDBRANCH  33  34
ENDBRANCH  26  28
ENDBRANCH  25  26
ENDBRANCH  24  25
ENDBRANCH   1  24
TORSDOF 15
