REMARK SMILES COc1cccc(-c2ccc(=O)n(CC(=O)N[C@@H](C(=O)OCCOC(=O)c3ccc(-c4c5nc(c(-c6c(F)cccc6F)c6ccc([nH]6)c(-c6c(F)cccc6F)c6nc(c(-c7c(F)cccc7F)c7ccc4[nH]7)C=C6)C=C5)cc3)C(C)C)n2)c1
REMARK SMILES IDX 21 1 19 2 20 3 18 4 17 5 15 6 16 7 14 9 13 10 8 11 9 12
REMARK SMILES IDX 84 13 10 14 11 15 12 16 7 17 3 18 4 19 85 20 5 21 6 22 2 23
REMARK SMILES IDX 1 24 81 25 82 26 83 27 22 28 23 29 24 30 25 31 26 32 27 33
REMARK SMILES IDX 28 34 80 35 29 36 79 37 30 38 31 39 32 40 73 41 33 42 78 43
REMARK SMILES IDX 72 44 74 45 34 46 77 47 71 48 70 49 35 51 61 52 44 53 60 54
REMARK SMILES IDX 45 55 48 56 59 57 75 58 46 59 47 60 58 62 76 63 49 64 36 65
REMARK SMILES IDX 37 66 42 67 38 68 39 69 41 70 43 71 40 72 62 73 63 74 68 75
REMARK SMILES IDX 64 76 65 77 67 78 69 79 66 80 50 81 51 82 56 83 52 84 53 85
REMARK SMILES IDX 55 86 57 87 54 88
REMARK H PARENT 17 8 74 50 48 61
REMARK Flexibility Score: inf
ROOT
ATOM      1  O   UNL     1       5.822   5.366   4.817  1.00  0.00    -0.461 OA
ENDROOT
BRANCH   1   2
ATOM      2  C   UNL     1       5.047   5.550   3.707  1.00  0.00     0.329 C 
ATOM      3  O   UNL     1       3.831   5.700   3.753  1.00  0.00    -0.250 OA
BRANCH   2   4
ATOM      4  C   UNL     1       5.868   5.532   2.388  1.00  0.00     0.194 C 
BRANCH   4   5
ATOM      5  N   UNL     1       7.300   5.366   2.659  1.00  0.00    -0.341 N 
ATOM      6  C   UNL     1       8.069   4.245   2.538  1.00  0.00     0.242 C 
ATOM      7  O   UNL     1       9.289   4.384   2.661  1.00  0.00    -0.273 OA
ATOM      8  H   UNL     1       7.770   6.173   2.970  1.00  0.00     0.164 HD
BRANCH   6   9
ATOM      9  C   UNL     1       7.457   2.909   2.099  1.00  0.00     0.248 C 
BRANCH   9  10
ATOM     10  N   UNL     1       6.395   2.458   2.994  1.00  0.00    -0.220 N 
ATOM     11  C   UNL     1       4.144   2.207   3.344  1.00  0.00     0.091 A 
ATOM     12  C   UNL     1       4.349   1.738   4.728  1.00  0.00     0.036 A 
ATOM     13  N   UNL     1       5.098   2.508   2.520  1.00  0.00    -0.169 NA
ATOM     14  C   UNL     1       5.613   1.615   5.134  1.00  0.00     0.075 A 
ATOM     15  C   UNL     1       6.740   1.980   4.250  1.00  0.00     0.267 A 
ATOM     16  O   UNL     1       7.885   1.869   4.674  1.00  0.00    -0.268 OA
BRANCH  11  17
ATOM     17  C   UNL     1       2.737   2.348   2.906  1.00  0.00     0.006 A 
ATOM     18  C   UNL     1       0.993   1.853   1.313  1.00  0.00     0.119 A 
ATOM     19  C   UNL     1       0.133   2.707   2.010  1.00  0.00     0.046 A 
ATOM     20  C   UNL     1       2.311   1.694   1.745  1.00  0.00     0.056 A 
ATOM     21  C   UNL     1       0.564   3.370   3.158  1.00  0.00     0.005 A 
ATOM     22  C   UNL     1       1.866   3.183   3.615  1.00  0.00     0.011 A 
BRANCH  18  23
ATOM     23  O   UNL     1       0.447   1.257   0.210  1.00  0.00    -0.497 OA
ATOM     24  C   UNL     1       1.042   0.025  -0.182  1.00  0.00     0.278 C 
ENDBRANCH  18  23
ENDBRANCH  11  17
ENDBRANCH   9  10
ENDBRANCH   6   9
ENDBRANCH   4   5
BRANCH   4  25
ATOM     25  C   UNL     1       5.633   6.762   1.472  1.00  0.00     0.017 C 
ATOM     26  C   UNL     1       6.529   6.707   0.224  1.00  0.00     0.010 C 
ATOM     27  C   UNL     1       4.176   6.865   0.999  1.00  0.00     0.010 C 
ENDBRANCH   4  25
ENDBRANCH   2   4
ENDBRANCH   1   2
BRANCH   1  28
ATOM     28  C   UNL     1       5.144   5.300   6.093  1.00  0.00     0.274 C 
BRANCH  28  29
ATOM     29  C   UNL     1       5.472   6.528   6.936  1.00  0.00     0.275 C 
BRANCH  29  30
ATOM     30  O   UNL     1       4.959   7.683   6.256  1.00  0.00    -0.458 OA
BRANCH  30  31
ATOM     31  C   UNL     1       5.805   8.726   6.119  1.00  0.00     0.338 C 
ATOM     32  O   UNL     1       6.904   8.873   6.631  1.00  0.00    -0.246 OA
BRANCH  31  33
ATOM     33  C   UNL     1       5.202   9.689   5.183  1.00  0.00     0.060 A 
ATOM     34  C   UNL     1       4.680   9.226   3.975  1.00  0.00     0.016 A 
ATOM     35  C   UNL     1       5.214  11.054   5.459  1.00  0.00     0.016 A 
ATOM     36  C   UNL     1       4.225  10.120   3.014  1.00  0.00     0.010 A 
ATOM     37  C   UNL     1       4.663  11.946   4.532  1.00  0.00     0.010 A 
ATOM     38  C   UNL     1       4.176  11.489   3.293  1.00  0.00    -0.014 A 
BRANCH  38  39
ATOM     39  C   UNL     1       3.625  12.437   2.290  1.00  0.00     0.031 A 
ATOM     40  C   UNL     1       4.484  13.548   1.756  1.00  0.00     0.074 A 
ATOM     41  C   UNL     1       2.361  12.300   1.841  1.00  0.00     0.049 A 
ATOM     42  N   UNL     1       4.134  14.606   1.072  1.00  0.00    -0.248 NA
ATOM     43  C   UNL     1       5.926  13.458   2.034  1.00  0.00     0.031 C 
ATOM     44  C   UNL     1       1.438  11.223   2.206  1.00  0.00     0.029 A 
ATOM     45  N   UNL     1       1.633  13.076   0.973  1.00  0.00    -0.354 N 
ATOM     46  C   UNL     1       5.300  15.337   0.886  1.00  0.00     0.074 A 
ATOM     47  C   UNL     1       6.371  14.596   1.518  1.00  0.00     0.031 C 
ATOM     48  C   UNL     1       0.283  11.387   1.545  1.00  0.00     0.029 A 
ATOM     49  C   UNL     1       0.345  12.635   0.792  1.00  0.00     0.049 A 
ATOM     50  H   UNL     1       1.999  13.872   0.524  1.00  0.00     0.167 HD
ATOM     51  C   UNL     1       5.456  16.523   0.252  1.00  0.00     0.037 A 
ATOM     52  C   UNL     1      -0.694  13.199   0.149  1.00  0.00     0.037 A 
ATOM     53  C   UNL     1       4.396  17.231  -0.416  1.00  0.00     0.049 A 
ATOM     54  C   UNL     1      -0.519  14.553  -0.474  1.00  0.00     0.074 A 
ATOM     55  C   UNL     1       4.454  18.438  -1.092  1.00  0.00     0.029 A 
ATOM     56  N   UNL     1       3.087  16.784  -0.506  1.00  0.00    -0.354 N 
ATOM     57  N   UNL     1       0.562  15.287  -0.561  1.00  0.00    -0.248 NA
ATOM     58  C   UNL     1      -1.720  15.176  -1.047  1.00  0.00     0.031 C 
ATOM     59  C   UNL     1       3.170  18.735  -1.565  1.00  0.00     0.029 A 
ATOM     60  C   UNL     1       2.322  17.700  -1.208  1.00  0.00     0.049 A 
ATOM     61  H   UNL     1       2.751  15.939  -0.127  1.00  0.00     0.167 HD
ATOM     62  C   UNL     1       0.173  16.463  -1.185  1.00  0.00     0.074 A 
ATOM     63  C   UNL     1      -1.239  16.333  -1.483  1.00  0.00     0.031 C 
ATOM     64  C   UNL     1       0.915  17.558  -1.475  1.00  0.00     0.037 A 
BRANCH  51  65
ATOM     65  C   UNL     1       6.814  17.152   0.292  1.00  0.00     0.057 A 
ATOM     66  C   UNL     1       7.865  16.706  -0.516  1.00  0.00     0.134 A 
ATOM     67  C   UNL     1       7.061  18.243   1.136  1.00  0.00     0.134 A 
ATOM     68  F   UNL     1       7.696  15.655  -1.333  1.00  0.00    -0.206 F 
ATOM     69  C   UNL     1       9.121  17.315  -0.477  1.00  0.00     0.040 A 
ATOM     70  C   UNL     1       8.306  18.872   1.171  1.00  0.00     0.040 A 
ATOM     71  F   UNL     1       6.094  18.718   1.935  1.00  0.00    -0.206 F 
ATOM     72  C   UNL     1       9.342  18.405   0.364  1.00  0.00     0.006 A 
ENDBRANCH  51  65
BRANCH  52  73
ATOM     73  C   UNL     1      -2.015  12.523   0.142  1.00  0.00     0.057 A 
ATOM     74  C   UNL     1      -2.539  11.973  -1.032  1.00  0.00     0.134 A 
ATOM     75  C   UNL     1      -2.779  12.406   1.310  1.00  0.00     0.134 A 
ATOM     76  F   UNL     1      -1.865  12.078  -2.186  1.00  0.00    -0.206 F 
ATOM     77  C   UNL     1      -3.777  11.327  -1.044  1.00  0.00     0.040 A 
ATOM     78  C   UNL     1      -4.006  11.742   1.317  1.00  0.00     0.040 A 
ATOM     79  F   UNL     1      -2.332  12.916   2.467  1.00  0.00    -0.206 F 
ATOM     80  C   UNL     1      -4.509  11.203   0.136  1.00  0.00     0.006 A 
ENDBRANCH  52  73
BRANCH  64  81
ATOM     81  C   UNL     1       0.206  18.699  -2.136  1.00  0.00     0.057 A 
ATOM     82  C   UNL     1      -0.616  19.565  -1.405  1.00  0.00     0.134 A 
ATOM     83  C   UNL     1       0.364  18.948  -3.504  1.00  0.00     0.134 A 
ATOM     84  F   UNL     1      -0.818  19.366  -0.094  1.00  0.00    -0.206 F 
ATOM     85  C   UNL     1      -1.268  20.636  -2.017  1.00  0.00     0.040 A 
ATOM     86  C   UNL     1      -0.270  20.025  -4.124  1.00  0.00     0.040 A 
ATOM     87  F   UNL     1       1.141  18.154  -4.256  1.00  0.00    -0.206 F 
ATOM     88  C   UNL     1      -1.091  20.871  -3.380  1.00  0.00     0.006 A 
ENDBRANCH  64  81
ENDBRANCH  38  39
ENDBRANCH  31  33
ENDBRANCH  30  31
ENDBRANCH  29  30
ENDBRANCH  28  29
ENDBRANCH   1  28
TORSDOF 17
