REMARK SMILES Cc1cc(C)cc(-c2ccc([C@@H](C)C(=O)OCCOC(=O)c3ccc(-c4c5nc(c(-c6c(F)cccc6F)c6ccc([nH]6)c(-c6c(F)cccc6F)c6nc(c(-c7c(F)cccc7F)c7ccc4[nH]7)C=C6)C=C5)cc3)cc2F)c1
REMARK SMILES IDX 17 1 16 2 14 3 15 4 12 5 13 6 11 7 8 8 9 9 77 10 10 11 76 12
REMARK SMILES IDX 78 13 7 14 1 15 2 16 3 17 79 18 4 19 5 20 6 21 18 22 19 23
REMARK SMILES IDX 20 24 21 25 22 26 23 27 75 28 24 29 74 30 25 31 26 32 27 33
REMARK SMILES IDX 68 34 28 35 73 36 67 37 69 38 29 39 72 40 66 41 65 42 30 44
REMARK SMILES IDX 56 45 39 46 55 47 40 48 43 49 54 50 70 51 41 52 42 53 53 55
REMARK SMILES IDX 71 56 44 57 31 58 32 59 37 60 33 61 34 62 36 63 38 64 35 65
REMARK SMILES IDX 57 66 58 67 63 68 59 69 60 70 62 71 64 72 61 73 45 74 46 75
REMARK SMILES IDX 51 76 47 77 48 78 50 79 52 80 49 81
REMARK H PARENT 69 43 43 54
REMARK Flexibility Score: inf
ROOT
ATOM      1  C   UNL     1       1.032  -8.270  -3.429  1.00  0.00     0.274 C 
ENDROOT
BRANCH   1   2
ATOM      2  O   UNL     1       0.268  -7.612  -2.400  1.00  0.00    -0.462 OA
BRANCH   2   3
ATOM      3  C   UNL     1       0.075  -8.301  -1.244  1.00  0.00     0.313 C 
ATOM      4  O   UNL     1       0.459  -9.451  -1.053  1.00  0.00    -0.252 OA
BRANCH   3   5
ATOM      5  C   UNL     1      -0.724  -7.532  -0.199  1.00  0.00     0.126 C 
ATOM      6  C   UNL     1      -2.194  -7.944  -0.266  1.00  0.00     0.025 C 
BRANCH   5   7
ATOM      7  C   UNL     1      -0.539  -6.022  -0.199  1.00  0.00    -0.031 A 
ATOM      8  C   UNL     1      -0.217  -3.193  -0.121  1.00  0.00     0.017 A 
ATOM      9  C   UNL     1      -0.930  -3.818  -1.157  1.00  0.00     0.012 A 
ATOM     10  C   UNL     1       0.351  -4.016   0.856  1.00  0.00     0.131 A 
ATOM     11  C   UNL     1      -1.089  -5.207  -1.197  1.00  0.00     0.005 A 
ATOM     12  C   UNL     1       0.188  -5.402   0.829  1.00  0.00     0.044 A 
ATOM     13  F   UNL     1       1.043  -3.483   1.876  1.00  0.00    -0.206 F 
BRANCH   8  14
ATOM     14  C   UNL     1      -0.120  -1.727  -0.061  1.00  0.00    -0.015 A 
ATOM     15  C   UNL     1       2.522   1.032   0.042  1.00  0.00     0.044 C 
ATOM     16  C   UNL     1       1.196   0.331   0.015  1.00  0.00    -0.050 A 
ATOM     17  C   UNL     1       0.013   1.082   0.025  1.00  0.00     0.006 A 
ATOM     18  C   UNL     1       1.119  -1.069  -0.024  1.00  0.00     0.012 A 
ATOM     19  C   UNL     1      -1.235   0.452   0.000  1.00  0.00    -0.050 A 
ATOM     20  C   UNL     1      -2.493   1.267   0.012  1.00  0.00     0.044 C 
ATOM     21  C   UNL     1      -1.289  -0.946  -0.045  1.00  0.00     0.012 A 
ENDBRANCH   8  14
ENDBRANCH   5   7
ENDBRANCH   3   5
ENDBRANCH   2   3
ENDBRANCH   1   2
BRANCH   1  22
ATOM     22  C   UNL     1       2.480  -7.773  -3.458  1.00  0.00     0.275 C 
BRANCH  22  23
ATOM     23  O   UNL     1       3.204  -8.199  -2.288  1.00  0.00    -0.458 OA
BRANCH  23  24
ATOM     24  C   UNL     1       3.269  -7.285  -1.294  1.00  0.00     0.338 C 
ATOM     25  O   UNL     1       2.838  -6.145  -1.303  1.00  0.00    -0.246 OA
BRANCH  24  26
ATOM     26  C   UNL     1       3.841  -7.904  -0.090  1.00  0.00     0.060 A 
ATOM     27  C   UNL     1       3.012  -8.040   1.024  1.00  0.00     0.016 A 
ATOM     28  C   UNL     1       5.189  -8.257  -0.019  1.00  0.00     0.016 A 
ATOM     29  C   UNL     1       3.527  -8.505   2.228  1.00  0.00     0.010 A 
ATOM     30  C   UNL     1       5.707  -8.737   1.190  1.00  0.00     0.010 A 
ATOM     31  C   UNL     1       4.882  -8.846   2.324  1.00  0.00    -0.014 A 
BRANCH  31  32
ATOM     32  C   UNL     1       5.428  -9.269   3.635  1.00  0.00     0.031 A 
ATOM     33  C   UNL     1       6.257  -8.316   4.446  1.00  0.00     0.074 A 
ATOM     34  C   UNL     1       5.124 -10.486   4.122  1.00  0.00     0.049 A 
ATOM     35  N   UNL     1       6.838  -8.507   5.603  1.00  0.00    -0.248 NA
ATOM     36  C   UNL     1       6.455  -6.971   3.884  1.00  0.00     0.031 C 
ATOM     37  C   UNL     1       4.284 -11.477   3.450  1.00  0.00     0.029 A 
ATOM     38  N   UNL     1       5.476 -11.087   5.304  1.00  0.00    -0.354 N 
ATOM     39  C   UNL     1       7.481  -7.314   5.903  1.00  0.00     0.074 A 
ATOM     40  C   UNL     1       7.233  -6.409   4.800  1.00  0.00     0.031 C 
ATOM     41  C   UNL     1       4.171 -12.559   4.239  1.00  0.00     0.029 A 
ATOM     42  C   UNL     1       4.960 -12.351   5.450  1.00  0.00     0.049 A 
ATOM     43  H   UNL     1       6.043 -10.654   5.982  1.00  0.00     0.167 HD
ATOM     44  C   UNL     1       8.206  -7.001   7.003  1.00  0.00     0.037 A 
ATOM     45  C   UNL     1       5.118 -13.246   6.443  1.00  0.00     0.037 A 
ATOM     46  C   UNL     1       8.437  -7.894   8.107  1.00  0.00     0.049 A 
ATOM     47  C   UNL     1       5.970 -12.893   7.629  1.00  0.00     0.074 A 
ATOM     48  C   UNL     1       9.161  -7.664   9.264  1.00  0.00     0.029 A 
ATOM     49  N   UNL     1       7.941  -9.185   8.195  1.00  0.00    -0.354 N 
ATOM     50  N   UNL     1       6.597 -11.771   7.888  1.00  0.00    -0.248 NA
ATOM     51  C   UNL     1       6.145 -13.931   8.655  1.00  0.00     0.031 C 
ATOM     52  C   UNL     1       9.130  -8.829  10.038  1.00  0.00     0.029 A 
ATOM     53  C   UNL     1       8.356  -9.770   9.380  1.00  0.00     0.049 A 
ATOM     54  H   UNL     1       7.378  -9.622   7.516  1.00  0.00     0.167 HD
ATOM     55  C   UNL     1       7.233 -11.964   9.107  1.00  0.00     0.074 A 
ATOM     56  C   UNL     1       6.902 -13.304   9.546  1.00  0.00     0.031 C 
ATOM     57  C   UNL     1       8.023 -11.107   9.798  1.00  0.00     0.037 A 
BRANCH  44  58
ATOM     58  C   UNL     1       8.822  -5.636   7.059  1.00  0.00     0.057 A 
ATOM     59  C   UNL     1      10.200  -5.469   6.875  1.00  0.00     0.134 A 
ATOM     60  C   UNL     1       8.061  -4.496   7.345  1.00  0.00     0.134 A 
ATOM     61  F   UNL     1      10.983  -6.523   6.602  1.00  0.00    -0.206 F 
ATOM     62  C   UNL     1      10.802  -4.215   6.982  1.00  0.00     0.040 A 
ATOM     63  C   UNL     1       8.650  -3.233   7.436  1.00  0.00     0.040 A 
ATOM     64  F   UNL     1       6.734  -4.590   7.519  1.00  0.00    -0.206 F 
ATOM     65  C   UNL     1      10.025  -3.092   7.261  1.00  0.00     0.006 A 
ENDBRANCH  44  58
BRANCH  45  66
ATOM     66  C   UNL     1       4.456 -14.569   6.349  1.00  0.00     0.057 A 
ATOM     67  C   UNL     1       4.890 -15.537   5.436  1.00  0.00     0.134 A 
ATOM     68  C   UNL     1       3.360 -14.887   7.158  1.00  0.00     0.134 A 
ATOM     69  F   UNL     1       5.936 -15.290   4.634  1.00  0.00    -0.206 F 
ATOM     70  C   UNL     1       4.247 -16.769   5.317  1.00  0.00     0.040 A 
ATOM     71  C   UNL     1       2.719 -16.123   7.064  1.00  0.00     0.040 A 
ATOM     72  F   UNL     1       2.913 -14.007   8.066  1.00  0.00    -0.206 F 
ATOM     73  C   UNL     1       3.158 -17.066   6.135  1.00  0.00     0.006 A 
ENDBRANCH  45  66
BRANCH  57  74
ATOM     74  C   UNL     1       8.580 -11.587  11.104  1.00  0.00     0.057 A 
ATOM     75  C   UNL     1       8.078 -11.104  12.318  1.00  0.00     0.134 A 
ATOM     76  C   UNL     1       9.653 -12.485  11.155  1.00  0.00     0.134 A 
ATOM     77  F   UNL     1       7.056 -10.235  12.335  1.00  0.00    -0.206 F 
ATOM     78  C   UNL     1       8.630 -11.491  13.540  1.00  0.00     0.040 A 
ATOM     79  C   UNL     1      10.201 -12.895  12.371  1.00  0.00     0.040 A 
ATOM     80  F   UNL     1      10.170 -12.992  10.025  1.00  0.00    -0.206 F 
ATOM     81  C   UNL     1       9.694 -12.391  13.568  1.00  0.00     0.006 A 
ENDBRANCH  57  74
ENDBRANCH  31  32
ENDBRANCH  24  26
ENDBRANCH  23  24
ENDBRANCH  22  23
ENDBRANCH   1  22
TORSDOF 13
