REMARK SMILES COc1ccc(CCNC(=O)c2cccnc2C(=O)OCCOC(=O)c2ccc(-c3c4nc(c(-c5c(F)cccc5F)c5ccc([nH]5)c(-c5c(F)cccc5F)c5nc(c(-c6c(F)cccc6F)c6ccc3[nH]6)C=C5)C=C4)cc2)cc1OC
REMARK SMILES IDX 20 1 18 2 19 3 17 4 12 5 13 6 14 7 16 8 15 9 10 10 9 11
REMARK SMILES IDX 11 13 8 14 7 15 6 16 3 17 4 18 81 19 5 20 80 21 2 22 1 23
REMARK SMILES IDX 82 24 83 25 21 26 22 27 23 28 24 29 25 30 26 31 27 32 79 33
REMARK SMILES IDX 28 34 78 35 29 36 30 37 31 38 72 39 32 40 77 41 71 42 73 43
REMARK SMILES IDX 33 44 76 45 70 46 69 47 34 49 60 50 43 51 59 52 44 53 47 54
REMARK SMILES IDX 58 55 74 56 45 57 46 58 57 60 75 61 48 62 35 63 36 64 41 65
REMARK SMILES IDX 37 66 38 67 40 68 42 69 39 70 61 71 62 72 67 73 63 74 64 75
REMARK SMILES IDX 66 76 68 77 65 78 49 79 50 80 55 81 51 82 52 83 54 84 56 85
REMARK SMILES IDX 53 86
REMARK H PARENT 9 12 73 48 47 59
REMARK Flexibility Score: inf
ROOT
ATOM      1  O   UNL     1      -1.980  -6.648   6.184  1.00  0.00    -0.457 OA
ENDROOT
BRANCH   1   2
ATOM      2  C   UNL     1      -1.864  -7.045   7.479  1.00  0.00     0.357 C 
ATOM      3  O   UNL     1      -2.772  -7.477   8.176  1.00  0.00    -0.244 OA
BRANCH   2   4
ATOM      4  C   UNL     1      -0.437  -7.036   7.920  1.00  0.00     0.161 A 
ATOM      5  C   UNL     1       0.457  -6.008   7.647  1.00  0.00     0.073 A 
ATOM      6  C   UNL     1       1.758  -6.114   8.162  1.00  0.00     0.018 A 
ATOM      7  C   UNL     1       2.142  -7.254   8.862  1.00  0.00     0.021 A 
ATOM      8  N   UNL     1      -0.077  -8.147   8.639  1.00  0.00    -0.248 NA
ATOM      9  C   UNL     1       1.196  -8.236   9.076  1.00  0.00     0.112 A 
BRANCH   5  10
ATOM     10  C   UNL     1       0.038  -4.761   6.991  1.00  0.00     0.253 C 
ATOM     11  N   UNL     1       0.801  -4.206   5.995  1.00  0.00    -0.352 N 
ATOM     12  H   UNL     1       0.541  -3.292   5.738  1.00  0.00     0.163 HD
ATOM     13  O   UNL     1      -0.975  -4.190   7.384  1.00  0.00    -0.269 OA
BRANCH  11  14
ATOM     14  C   UNL     1       1.935  -4.751   5.255  1.00  0.00     0.121 C 
BRANCH  14  15
ATOM     15  C   UNL     1       1.627  -4.946   3.767  1.00  0.00     0.057 C 
BRANCH  15  16
ATOM     16  C   UNL     1       1.445  -3.644   3.026  1.00  0.00    -0.042 A 
ATOM     17  C   UNL     1       1.128  -1.201   1.669  1.00  0.00     0.160 A 
ATOM     18  C   UNL     1       0.025  -1.841   2.250  1.00  0.00     0.051 A 
ATOM     19  C   UNL     1       2.403  -1.768   1.782  1.00  0.00     0.160 A 
ATOM     20  C   UNL     1       0.180  -3.061   2.910  1.00  0.00     0.008 A 
ATOM     21  C   UNL     1       2.549  -2.981   2.471  1.00  0.00     0.054 A 
BRANCH  17  22
ATOM     22  O   UNL     1       0.965   0.024   1.077  1.00  0.00    -0.493 OA
ATOM     23  C   UNL     1       0.005   0.003   0.022  1.00  0.00     0.278 C 
ENDBRANCH  17  22
BRANCH  19  24
ATOM     24  O   UNL     1       3.588  -1.271   1.307  1.00  0.00    -0.493 OA
ATOM     25  C   UNL     1       3.523  -0.378   0.203  1.00  0.00     0.278 C 
ENDBRANCH  19  24
ENDBRANCH  15  16
ENDBRANCH  14  15
ENDBRANCH  11  14
ENDBRANCH   5  10
ENDBRANCH   2   4
ENDBRANCH   1   2
BRANCH   1  26
ATOM     26  C   UNL     1      -3.314  -6.675   5.638  1.00  0.00     0.275 C 
BRANCH  26  27
ATOM     27  C   UNL     1      -3.430  -7.694   4.500  1.00  0.00     0.275 C 
BRANCH  27  28
ATOM     28  O   UNL     1      -3.240  -9.041   4.973  1.00  0.00    -0.458 OA
BRANCH  28  29
ATOM     29  C   UNL     1      -1.967  -9.494   4.892  1.00  0.00     0.338 C 
ATOM     30  O   UNL     1      -1.004  -8.916   4.415  1.00  0.00    -0.246 OA
BRANCH  29  31
ATOM     31  C   UNL     1      -1.846 -10.778   5.602  1.00  0.00     0.060 A 
ATOM     32  C   UNL     1      -0.989 -10.811   6.700  1.00  0.00     0.016 A 
ATOM     33  C   UNL     1      -2.472 -11.945   5.160  1.00  0.00     0.016 A 
ATOM     34  C   UNL     1      -0.737 -12.008   7.361  1.00  0.00     0.010 A 
ATOM     35  C   UNL     1      -2.219 -13.154   5.827  1.00  0.00     0.010 A 
ATOM     36  C   UNL     1      -1.337 -13.195   6.922  1.00  0.00    -0.014 A 
BRANCH  36  37
ATOM     37  C   UNL     1      -0.969 -14.468   7.593  1.00  0.00     0.031 A 
ATOM     38  C   UNL     1      -0.047 -15.441   6.912  1.00  0.00     0.074 A 
ATOM     39  C   UNL     1      -1.388 -14.709   8.850  1.00  0.00     0.049 A 
ATOM     40  N   UNL     1       0.407 -16.591   7.343  1.00  0.00    -0.248 NA
ATOM     41  C   UNL     1       0.431 -15.069   5.572  1.00  0.00     0.031 C 
ATOM     42  C   UNL     1      -2.246 -13.823   9.637  1.00  0.00     0.029 A 
ATOM     43  N   UNL     1      -1.128 -15.761   9.692  1.00  0.00    -0.354 N 
ATOM     44  C   UNL     1       1.210 -17.088   6.324  1.00  0.00     0.074 A 
ATOM     45  C   UNL     1       1.168 -16.122   5.246  1.00  0.00     0.031 C 
ATOM     46  C   UNL     1      -2.423 -14.357  10.856  1.00  0.00     0.029 A 
ATOM     47  C   UNL     1      -1.723 -15.637  10.924  1.00  0.00     0.049 A 
ATOM     48  H   UNL     1      -0.570 -16.530   9.438  1.00  0.00     0.167 HD
ATOM     49  C   UNL     1       1.922 -18.240   6.292  1.00  0.00     0.037 A 
ATOM     50  C   UNL     1      -1.711 -16.465  11.986  1.00  0.00     0.037 A 
ATOM     51  C   UNL     1       1.982 -19.194   7.369  1.00  0.00     0.049 A 
ATOM     52  C   UNL     1      -0.937 -17.752  11.911  1.00  0.00     0.074 A 
ATOM     53  C   UNL     1       2.671 -20.394   7.423  1.00  0.00     0.029 A 
ATOM     54  N   UNL     1       1.335 -19.051   8.586  1.00  0.00    -0.354 N 
ATOM     55  N   UNL     1      -0.199 -18.218  10.933  1.00  0.00    -0.248 NA
ATOM     56  C   UNL     1      -0.999 -18.630  13.089  1.00  0.00     0.031 C 
ATOM     57  C   UNL     1       2.418 -20.991   8.663  1.00  0.00     0.029 A 
ATOM     58  C   UNL     1       1.600 -20.145   9.395  1.00  0.00     0.049 A 
ATOM     59  H   UNL     1       0.769 -18.286   8.839  1.00  0.00     0.167 HD
ATOM     60  C   UNL     1       0.301 -19.433  11.381  1.00  0.00     0.074 A 
ATOM     61  C   UNL     1      -0.198 -19.622  12.727  1.00  0.00     0.031 C 
ATOM     62  C   UNL     1       1.097 -20.318  10.732  1.00  0.00     0.037 A 
BRANCH  49  63
ATOM     63  C   UNL     1       2.681 -18.545   5.035  1.00  0.00     0.057 A 
ATOM     64  C   UNL     1       3.872 -17.883   4.712  1.00  0.00     0.134 A 
ATOM     65  C   UNL     1       2.232 -19.538   4.156  1.00  0.00     0.134 A 
ATOM     66  F   UNL     1       4.347 -16.911   5.506  1.00  0.00    -0.206 F 
ATOM     67  C   UNL     1       4.582 -18.188   3.549  1.00  0.00     0.040 A 
ATOM     68  C   UNL     1       2.944 -19.866   3.001  1.00  0.00     0.040 A 
ATOM     69  F   UNL     1       1.101 -20.212   4.410  1.00  0.00    -0.206 F 
ATOM     70  C   UNL     1       4.121 -19.186   2.693  1.00  0.00     0.006 A 
ENDBRANCH  49  63
BRANCH  50  71
ATOM     71  C   UNL     1      -2.467 -16.112  13.212  1.00  0.00     0.057 A 
ATOM     72  C   UNL     1      -1.808 -15.773  14.399  1.00  0.00     0.134 A 
ATOM     73  C   UNL     1      -3.867 -16.128  13.232  1.00  0.00     0.134 A 
ATOM     74  F   UNL     1      -0.468 -15.767  14.449  1.00  0.00    -0.206 F 
ATOM     75  C   UNL     1      -2.513 -15.476  15.567  1.00  0.00     0.040 A 
ATOM     76  C   UNL     1      -4.585 -15.809  14.385  1.00  0.00     0.040 A 
ATOM     77  F   UNL     1      -4.556 -16.448  12.127  1.00  0.00    -0.206 F 
ATOM     78  C   UNL     1      -3.907 -15.489  15.559  1.00  0.00     0.006 A 
ENDBRANCH  50  71
BRANCH  62  79
ATOM     79  C   UNL     1       1.490 -21.554  11.484  1.00  0.00     0.057 A 
ATOM     80  C   UNL     1       0.583 -22.597  11.710  1.00  0.00     0.134 A 
ATOM     81  C   UNL     1       2.791 -21.707  11.979  1.00  0.00     0.134 A 
ATOM     82  F   UNL     1      -0.682 -22.504  11.274  1.00  0.00    -0.206 F 
ATOM     83  C   UNL     1       0.948 -23.737  12.427  1.00  0.00     0.040 A 
ATOM     84  C   UNL     1       3.174 -22.852  12.679  1.00  0.00     0.040 A 
ATOM     85  F   UNL     1       3.709 -20.748  11.790  1.00  0.00    -0.206 F 
ATOM     86  C   UNL     1       2.249 -23.868  12.911  1.00  0.00     0.006 A 
ENDBRANCH  62  79
ENDBRANCH  36  37
ENDBRANCH  29  31
ENDBRANCH  28  29
ENDBRANCH  27  28
ENDBRANCH  26  27
ENDBRANCH   1  26
TORSDOF 17
