REMARK SMILES C[C@@H](CCO)SCc1cccc(/C=C/C(=O)OCCOC(=O)c2ccc(-c3c4nc(c(-c5c(F)cccc5F)c5ccc([nH]5)c(-c5c(F)cccc5F)c5nc(c(-c6c(F)cccc6F)c6ccc3[nH]6)C=C5)C=C4)cc2)c1
REMARK SMILES IDX 15 1 16 2 14 3 13 4 12 5 8 6 9 7 77 8 10 9 11 10 7 11 6 12
REMARK SMILES IDX 2 13 1 14 3 15 4 16 5 17 17 19 18 20 19 21 20 22 21 23 22 24
REMARK SMILES IDX 23 25 24 26 76 27 25 28 75 29 26 30 27 31 28 32 69 33 29 34
REMARK SMILES IDX 74 35 68 36 70 37 30 38 73 39 67 40 66 41 31 43 57 44 40 45
REMARK SMILES IDX 56 46 41 47 44 48 55 49 71 50 42 51 43 52 54 54 72 55 45 56
REMARK SMILES IDX 32 57 33 58 38 59 34 60 35 61 37 62 39 63 36 64 58 65 59 66
REMARK SMILES IDX 64 67 60 68 61 69 63 70 65 71 62 72 46 73 47 74 52 75 48 76
REMARK SMILES IDX 49 77 51 78 53 79 50 80
REMARK H PARENT 5 18 70 42 44 53
REMARK Flexibility Score: inf
ROOT
ATOM      1  C   UNL     1      -3.601   8.391  -2.223  1.00  0.00     0.330 C 
ATOM      2  O   UNL     1      -3.721   9.308  -3.024  1.00  0.00    -0.247 OA
ENDROOT
BRANCH   1   3
ATOM      3  C   UNL     1      -3.055   7.086  -2.647  1.00  0.00     0.094 C 
ATOM      4  C   UNL     1      -2.832   6.025  -1.856  1.00  0.00     0.015 C 
BRANCH   4   5
ATOM      5  C   UNL     1      -2.203   4.771  -2.318  1.00  0.00    -0.025 A 
ATOM      6  C   UNL     1      -1.723   2.402  -1.897  1.00  0.00    -0.037 A 
ATOM      7  C   UNL     1      -0.897   2.374  -3.026  1.00  0.00     0.004 A 
ATOM      8  C   UNL     1      -2.404   3.596  -1.580  1.00  0.00     0.012 A 
ATOM      9  C   UNL     1      -0.692   3.532  -3.771  1.00  0.00     0.001 A 
ATOM     10  C   UNL     1      -1.321   4.725  -3.406  1.00  0.00     0.008 A 
BRANCH   6  11
ATOM     11  C   UNL     1      -1.845   1.190  -1.009  1.00  0.00     0.105 C 
BRANCH  11  12
ATOM     12  S   UNL     1      -1.249   1.511   0.695  1.00  0.00    -0.154 SA
BRANCH  12  13
ATOM     13  C   UNL     1       0.515   0.975   0.706  1.00  0.00     0.046 C 
ATOM     14  C   UNL     1       0.883  -0.145  -0.262  1.00  0.00     0.019 C 
BRANCH  13  15
ATOM     15  C   UNL     1       1.531   2.136   0.706  1.00  0.00     0.042 C 
BRANCH  15  16
ATOM     16  C   UNL     1       1.639   2.964  -0.567  1.00  0.00     0.157 C 
BRANCH  16  17
ATOM     17  O   UNL     1       0.835   4.128  -0.474  1.00  0.00    -0.396 OA
ATOM     18  H   UNL     1      -0.093   3.872  -0.353  1.00  0.00     0.210 HD
ENDBRANCH  16  17
ENDBRANCH  15  16
ENDBRANCH  13  15
ENDBRANCH  12  13
ENDBRANCH  11  12
ENDBRANCH   6  11
ENDBRANCH   4   5
ENDBRANCH   1   3
BRANCH   1  19
ATOM     19  O   UNL     1      -3.897   8.442  -0.903  1.00  0.00    -0.459 OA
BRANCH  19  20
ATOM     20  C   UNL     1      -4.364   9.716  -0.420  1.00  0.00     0.275 C 
BRANCH  20  21
ATOM     21  C   UNL     1      -3.251  10.520   0.261  1.00  0.00     0.275 C 
BRANCH  21  22
ATOM     22  O   UNL     1      -2.216  10.908  -0.662  1.00  0.00    -0.458 OA
BRANCH  22  23
ATOM     23  C   UNL     1      -1.184  10.035  -0.758  1.00  0.00     0.338 C 
ATOM     24  O   UNL     1      -1.038   9.000  -0.132  1.00  0.00    -0.246 OA
BRANCH  23  25
ATOM     25  C   UNL     1      -0.269  10.451  -1.837  1.00  0.00     0.060 A 
ATOM     26  C   UNL     1       0.093   9.496  -2.792  1.00  0.00     0.016 A 
ATOM     27  C   UNL     1       0.284  11.734  -1.875  1.00  0.00     0.016 A 
ATOM     28  C   UNL     1       1.012   9.820  -3.789  1.00  0.00     0.010 A 
ATOM     29  C   UNL     1       1.210  12.056  -2.873  1.00  0.00     0.010 A 
ATOM     30  C   UNL     1       1.587  11.098  -3.830  1.00  0.00    -0.014 A 
BRANCH  30  31
ATOM     31  C   UNL     1       2.616  11.415  -4.851  1.00  0.00     0.031 A 
ATOM     32  C   UNL     1       4.067  11.456  -4.468  1.00  0.00     0.074 A 
ATOM     33  C   UNL     1       2.249  11.657  -6.122  1.00  0.00     0.049 A 
ATOM     34  N   UNL     1       5.109  11.761  -5.200  1.00  0.00    -0.248 NA
ATOM     35  C   UNL     1       4.389  11.109  -3.075  1.00  0.00     0.031 C 
ATOM     36  C   UNL     1       0.876  11.621  -6.625  1.00  0.00     0.029 A 
ATOM     37  N   UNL     1       3.002  11.988  -7.221  1.00  0.00    -0.354 N 
ATOM     38  C   UNL     1       6.208  11.651  -4.358  1.00  0.00     0.074 A 
ATOM     39  C   UNL     1       5.704  11.274  -3.054  1.00  0.00     0.031 C 
ATOM     40  C   UNL     1       0.884  11.921  -7.935  1.00  0.00     0.029 A 
ATOM     41  C   UNL     1       2.255  12.205  -8.353  1.00  0.00     0.049 A 
ATOM     42  H   UNL     1       3.983  12.063  -7.200  1.00  0.00     0.167 HD
ATOM     43  C   UNL     1       7.518  11.840  -4.649  1.00  0.00     0.037 A 
ATOM     44  C   UNL     1       2.631  12.610  -9.581  1.00  0.00     0.037 A 
ATOM     45  C   UNL     1       8.020  12.209  -5.947  1.00  0.00     0.049 A 
ATOM     46  C   UNL     1       4.085  12.873  -9.862  1.00  0.00     0.074 A 
ATOM     47  C   UNL     1       9.333  12.402  -6.342  1.00  0.00     0.029 A 
ATOM     48  N   UNL     1       7.229  12.447  -7.061  1.00  0.00    -0.354 N 
ATOM     49  N   UNL     1       5.118  12.746  -9.064  1.00  0.00    -0.248 NA
ATOM     50  C   UNL     1       4.426  13.338 -11.214  1.00  0.00     0.031 C 
ATOM     51  C   UNL     1       9.334  12.797  -7.684  1.00  0.00     0.029 A 
ATOM     52  C   UNL     1       8.024  12.807  -8.137  1.00  0.00     0.049 A 
ATOM     53  H   UNL     1       6.248  12.371  -7.084  1.00  0.00     0.167 HD
ATOM     54  C   UNL     1       6.229  13.091  -9.822  1.00  0.00     0.074 A 
ATOM     55  C   UNL     1       5.747  13.424 -11.146  1.00  0.00     0.031 C 
ATOM     56  C   UNL     1       7.533  13.129  -9.452  1.00  0.00     0.037 A 
BRANCH  43  57
ATOM     57  C   UNL     1       8.504  11.671  -3.531  1.00  0.00     0.057 A 
ATOM     58  C   UNL     1       8.840  10.409  -3.026  1.00  0.00     0.134 A 
ATOM     59  C   UNL     1       9.152  12.783  -2.978  1.00  0.00     0.134 A 
ATOM     60  F   UNL     1       8.248   9.305  -3.506  1.00  0.00    -0.206 F 
ATOM     61  C   UNL     1       9.771  10.260  -1.996  1.00  0.00     0.040 A 
ATOM     62  C   UNL     1      10.101  12.645  -1.964  1.00  0.00     0.040 A 
ATOM     63  F   UNL     1       8.881  14.020  -3.422  1.00  0.00    -0.206 F 
ATOM     64  C   UNL     1      10.409  11.380  -1.467  1.00  0.00     0.006 A 
ENDBRANCH  43  57
BRANCH  44  65
ATOM     65  C   UNL     1       1.610  12.805 -10.640  1.00  0.00     0.057 A 
ATOM     66  C   UNL     1       1.531  11.942 -11.738  1.00  0.00     0.134 A 
ATOM     67  C   UNL     1       0.698  13.865 -10.583  1.00  0.00     0.134 A 
ATOM     68  F   UNL     1       2.394  10.923 -11.860  1.00  0.00    -0.206 F 
ATOM     69  C   UNL     1       0.588  12.132 -12.749  1.00  0.00     0.040 A 
ATOM     70  C   UNL     1      -0.266  14.053 -11.575  1.00  0.00     0.040 A 
ATOM     71  F   UNL     1       0.724  14.728  -9.557  1.00  0.00    -0.206 F 
ATOM     72  C   UNL     1      -0.319  13.188 -12.665  1.00  0.00     0.006 A 
ENDBRANCH  44  65
BRANCH  56  73
ATOM     73  C   UNL     1       8.534  13.511 -10.501  1.00  0.00     0.057 A 
ATOM     74  C   UNL     1       8.678  14.833 -10.939  1.00  0.00     0.134 A 
ATOM     75  C   UNL     1       9.394  12.550 -11.050  1.00  0.00     0.134 A 
ATOM     76  F   UNL     1       7.876  15.798 -10.463  1.00  0.00    -0.206 F 
ATOM     77  C   UNL     1       9.631  15.184 -11.897  1.00  0.00     0.040 A 
ATOM     78  C   UNL     1      10.365  12.893 -11.991  1.00  0.00     0.040 A 
ATOM     79  F   UNL     1       9.313  11.267 -10.668  1.00  0.00    -0.206 F 
ATOM     80  C   UNL     1      10.482  14.213 -12.421  1.00  0.00     0.006 A 
ENDBRANCH  56  73
ENDBRANCH  30  31
ENDBRANCH  23  25
ENDBRANCH  22  23
ENDBRANCH  21  22
ENDBRANCH  20  21
ENDBRANCH  19  20
ENDBRANCH   1  19
TORSDOF 18
