REMARK SMILES COc1cccc(N2/C(=[NH+]/C(=O)CCC(=O)OCCOC(=O)c3ccc(-c4c5nc(c(-c6c(F)cccc6F)c6ccc([nH]6)c(-c6c(F)cccc6F)c6nc(c(-c7c(F)cccc7F)c7ccc4[nH]7)C=C6)C=C5)cc3)S[C@@H]3CS(=O)(=O)C[C@H]32)c1
REMARK SMILES IDX 18 1 17 2 15 3 16 4 14 5 13 6 11 7 8 8 9 9 84 10 10 11 77 12
REMARK SMILES IDX 78 13 83 14 79 16 80 17 12 18 81 19 82 20 7 21 3 22 4 23
REMARK SMILES IDX 85 24 5 25 6 26 2 27 1 28 19 29 20 30 21 31 22 32 23 33
REMARK SMILES IDX 24 34 76 35 25 36 75 37 26 38 27 39 28 40 69 41 29 42 74 43
REMARK SMILES IDX 68 44 70 45 30 46 73 47 67 48 66 49 31 51 57 52 40 53 56 54
REMARK SMILES IDX 41 55 44 56 55 57 71 58 42 59 43 60 54 62 72 63 45 64 32 65
REMARK SMILES IDX 33 66 38 67 34 68 35 69 37 70 39 71 36 72 58 73 59 74 64 75
REMARK SMILES IDX 60 76 61 77 63 78 65 79 62 80 46 81 47 82 52 83 48 84 49 85
REMARK SMILES IDX 51 86 53 87 50 88
REMARK H PARENT 10 15 70 50 44 61
REMARK Flexibility Score: inf
ROOT
ATOM      1  C   UNL     1       3.032  -1.391  -0.205  1.00  0.00     0.274 C 
ENDROOT
BRANCH   1   2
ATOM      2  O   UNL     1       4.387  -1.791  -0.418  1.00  0.00    -0.462 OA
BRANCH   2   3
ATOM      3  C   UNL     1       5.110  -2.220   0.632  1.00  0.00     0.306 C 
ATOM      4  O   UNL     1       4.799  -2.101   1.808  1.00  0.00    -0.252 OA
BRANCH   3   5
ATOM      5  C   UNL     1       6.377  -2.867   0.142  1.00  0.00     0.135 C 
BRANCH   5   6
ATOM      6  C   UNL     1       6.102  -3.981  -0.861  1.00  0.00     0.139 C 
BRANCH   6   7
ATOM      7  C   UNL     1       6.029  -3.574  -2.330  1.00  0.00     0.308 C 
ATOM      8  N   UNL     1       3.929  -1.253  -4.264  1.00  0.00    -0.216 N 
ATOM      9  C   UNL     1       4.963  -1.972  -3.636  1.00  0.00     0.319 C 
ATOM     10  C   UNL     1       4.391  -0.300  -5.277  1.00  0.00     0.212 C 
ATOM     11  N   UNL     1       4.894  -2.900  -2.739  1.00  0.00    -0.204 N 
ATOM     12  S   UNL     1       6.524  -1.371  -4.326  1.00  0.00    -0.029 SA
ATOM     13  C   UNL     1       5.656  -0.957  -5.840  1.00  0.00     0.120 C 
ATOM     14  C   UNL     1       3.550  -0.046  -6.510  1.00  0.00     0.188 C 
ATOM     15  H   UNL     1       4.023  -3.130  -2.343  1.00  0.00     0.316 HD
ATOM     16  C   UNL     1       6.244  -0.004  -6.841  1.00  0.00     0.156 C 
ATOM     17  S   UNL     1       4.768   0.614  -7.662  1.00  0.00     0.155 S 
ATOM     18  O   UNL     1       6.904  -3.985  -3.092  1.00  0.00    -0.247 OA
ATOM     19  O   UNL     1       4.619  -0.069  -8.929  1.00  0.00    -0.229 OA
ATOM     20  O   UNL     1       4.766   2.057  -7.550  1.00  0.00    -0.229 OA
BRANCH   8  21
ATOM     21  C   UNL     1       2.560  -1.278  -3.968  1.00  0.00     0.132 A 
ATOM     22  C   UNL     1       0.576  -0.285  -2.935  1.00  0.00     0.123 A 
ATOM     23  C   UNL     1      -0.224  -1.274  -3.502  1.00  0.00     0.047 A 
ATOM     24  C   UNL     1       1.950  -0.256  -3.215  1.00  0.00     0.098 A 
ATOM     25  C   UNL     1       0.354  -2.257  -4.305  1.00  0.00     0.008 A 
ATOM     26  C   UNL     1       1.737  -2.268  -4.520  1.00  0.00     0.052 A 
BRANCH  22  27
ATOM     27  O   UNL     1      -0.065   0.673  -2.195  1.00  0.00    -0.497 OA
ATOM     28  C   UNL     1       0.438   0.845  -0.870  1.00  0.00     0.278 C 
ENDBRANCH  22  27
ENDBRANCH   8  21
ENDBRANCH   6   7
ENDBRANCH   5   6
ENDBRANCH   3   5
ENDBRANCH   2   3
ENDBRANCH   1   2
BRANCH   1  29
ATOM     29  C   UNL     1       2.085  -2.491  -0.683  1.00  0.00     0.275 C 
BRANCH  29  30
ATOM     30  O   UNL     1       1.910  -3.415   0.390  1.00  0.00    -0.458 OA
BRANCH  30  31
ATOM     31  C   UNL     1       2.445  -4.637   0.209  1.00  0.00     0.338 C 
ATOM     32  O   UNL     1       2.917  -5.141  -0.785  1.00  0.00    -0.246 OA
BRANCH  31  33
ATOM     33  C   UNL     1       2.492  -5.217   1.545  1.00  0.00     0.060 A 
ATOM     34  C   UNL     1       3.705  -5.193   2.235  1.00  0.00     0.016 A 
ATOM     35  C   UNL     1       1.323  -5.721   2.112  1.00  0.00     0.016 A 
ATOM     36  C   UNL     1       3.762  -5.716   3.513  1.00  0.00     0.010 A 
ATOM     37  C   UNL     1       1.378  -6.233   3.399  1.00  0.00     0.010 A 
ATOM     38  C   UNL     1       2.604  -6.255   4.086  1.00  0.00    -0.014 A 
BRANCH  38  39
ATOM     39  C   UNL     1       2.712  -6.961   5.371  1.00  0.00     0.031 A 
ATOM     40  C   UNL     1       2.666  -8.457   5.368  1.00  0.00     0.074 A 
ATOM     41  C   UNL     1       2.888  -6.254   6.498  1.00  0.00     0.049 A 
ATOM     42  N   UNL     1       2.705  -9.287   6.374  1.00  0.00    -0.248 NA
ATOM     43  C   UNL     1       2.550  -9.106   4.051  1.00  0.00     0.031 C 
ATOM     44  C   UNL     1       2.974  -4.795   6.573  1.00  0.00     0.029 A 
ATOM     45  N   UNL     1       3.027  -6.670   7.792  1.00  0.00    -0.354 N 
ATOM     46  C   UNL     1       2.612 -10.554   5.814  1.00  0.00     0.074 A 
ATOM     47  C   UNL     1       2.465 -10.383   4.386  1.00  0.00     0.031 C 
ATOM     48  C   UNL     1       3.154  -4.436   7.854  1.00  0.00     0.029 A 
ATOM     49  C   UNL     1       3.151  -5.636   8.684  1.00  0.00     0.049 A 
ATOM     50  H   UNL     1       3.038  -7.618   8.058  1.00  0.00     0.167 HD
ATOM     51  C   UNL     1       2.659 -11.750   6.444  1.00  0.00     0.037 A 
ATOM     52  C   UNL     1       3.228  -5.666  10.025  1.00  0.00     0.037 A 
ATOM     53  C   UNL     1       2.794 -11.885   7.870  1.00  0.00     0.049 A 
ATOM     54  C   UNL     1       3.225  -7.005  10.707  1.00  0.00     0.074 A 
ATOM     55  C   UNL     1       2.842 -13.037   8.631  1.00  0.00     0.029 A 
ATOM     56  N   UNL     1       2.898 -10.816   8.753  1.00  0.00    -0.354 N 
ATOM     57  N   UNL     1       3.138  -8.203  10.177  1.00  0.00    -0.248 NA
ATOM     58  C   UNL     1       3.340  -6.999  12.169  1.00  0.00     0.031 C 
ATOM     59  C   UNL     1       2.924 -12.664   9.978  1.00  0.00     0.029 A 
ATOM     60  C   UNL     1       2.990 -11.281  10.053  1.00  0.00     0.049 A 
ATOM     61  H   UNL     1       2.904  -9.867   8.491  1.00  0.00     0.167 HD
ATOM     62  C   UNL     1       3.204  -9.096  11.236  1.00  0.00     0.074 A 
ATOM     63  C   UNL     1       3.366  -8.297  12.436  1.00  0.00     0.031 C 
ATOM     64  C   UNL     1       3.135 -10.452  11.226  1.00  0.00     0.037 A 
BRANCH  51  65
ATOM     65  C   UNL     1       2.523 -12.979   5.590  1.00  0.00     0.057 A 
ATOM     66  C   UNL     1       3.511 -13.360   4.671  1.00  0.00     0.134 A 
ATOM     67  C   UNL     1       1.377 -13.780   5.669  1.00  0.00     0.134 A 
ATOM     68  F   UNL     1       4.625 -12.626   4.525  1.00  0.00    -0.206 F 
ATOM     69  C   UNL     1       3.349 -14.470   3.839  1.00  0.00     0.040 A 
ATOM     70  C   UNL     1       1.217 -14.910   4.865  1.00  0.00     0.040 A 
ATOM     71  F   UNL     1       0.389 -13.473   6.523  1.00  0.00    -0.206 F 
ATOM     72  C   UNL     1       2.200 -15.252   3.939  1.00  0.00     0.006 A 
ENDBRANCH  51  65
BRANCH  52  73
ATOM     73  C   UNL     1       3.300  -4.396  10.788  1.00  0.00     0.057 A 
ATOM     74  C   UNL     1       4.458  -4.021  11.478  1.00  0.00     0.134 A 
ATOM     75  C   UNL     1       2.215  -3.509  10.822  1.00  0.00     0.134 A 
ATOM     76  F   UNL     1       5.526  -4.832  11.495  1.00  0.00    -0.206 F 
ATOM     77  C   UNL     1       4.530  -2.820  12.186  1.00  0.00     0.040 A 
ATOM     78  C   UNL     1       2.284  -2.292  11.501  1.00  0.00     0.040 A 
ATOM     79  F   UNL     1       1.079  -3.804  10.173  1.00  0.00    -0.206 F 
ATOM     80  C   UNL     1       3.443  -1.948  12.192  1.00  0.00     0.006 A 
ENDBRANCH  52  73
BRANCH  64  81
ATOM     81  C   UNL     1       3.260 -11.139  12.555  1.00  0.00     0.057 A 
ATOM     82  C   UNL     1       2.254 -11.061  13.527  1.00  0.00     0.134 A 
ATOM     83  C   UNL     1       4.400 -11.892  12.861  1.00  0.00     0.134 A 
ATOM     84  F   UNL     1       1.143 -10.344  13.300  1.00  0.00    -0.206 F 
ATOM     85  C   UNL     1       2.397 -11.673  14.773  1.00  0.00     0.040 A 
ATOM     86  C   UNL     1       4.539 -12.538  14.090  1.00  0.00     0.040 A 
ATOM     87  F   UNL     1       5.395 -12.018  11.970  1.00  0.00    -0.206 F 
ATOM     88  C   UNL     1       3.541 -12.418  15.054  1.00  0.00     0.006 A 
ENDBRANCH  64  81
ENDBRANCH  38  39
ENDBRANCH  31  33
ENDBRANCH  30  31
ENDBRANCH  29  30
ENDBRANCH   1  29
TORSDOF 15
