REMARK SMILES Cn1ccnc1[C@@H]1[C@@H](C(=O)OCCOC(=O)c2ccc(-c3c4nc(c(-c5c(F)cccc5F)c5ccc([nH]5)c(-c5c(F)cccc5F)c5nc(c(-c6c(F)cccc6F)c6ccc3[nH]6)C=C5)C=C4)cc2)CC(=O)N1CCCOC1CCCCC1
REMARK SMILES IDX 11 1 9 2 10 3 8 4 7 5 74 6 71 7 72 8 73 9 6 10 1 11 2 12
REMARK SMILES IDX 3 13 4 14 5 15 75 16 76 17 77 18 78 19 79 20 80 21 84 22
REMARK SMILES IDX 81 23 83 24 82 25 12 26 13 27 14 28 15 29 16 30 17 31 18 32
REMARK SMILES IDX 70 33 19 34 69 35 20 36 21 37 22 38 63 39 23 40 68 41 62 42
REMARK SMILES IDX 64 43 24 44 67 45 61 46 60 47 25 49 51 50 34 51 50 52 35 53
REMARK SMILES IDX 38 54 49 55 65 56 36 57 37 58 48 60 66 61 39 62 26 63 27 64
REMARK SMILES IDX 32 65 28 66 29 67 31 68 33 69 30 70 52 71 53 72 58 73 54 74
REMARK SMILES IDX 55 75 57 76 59 77 56 78 40 79 41 80 46 81 42 82 43 83 45 84
REMARK SMILES IDX 47 85 44 86
REMARK H PARENT 64 48 38 59
REMARK Flexibility Score: inf
ROOT
ATOM      1  O   UNL     1      -0.724   5.080  -2.236  1.00  0.00    -0.462 OA
ENDROOT
BRANCH   1   2
ATOM      2  C   UNL     1      -0.055   3.908  -2.184  1.00  0.00     0.312 C 
ATOM      3  O   UNL     1       0.058   3.115  -3.113  1.00  0.00    -0.252 OA
BRANCH   2   4
ATOM      4  C   UNL     1       0.594   3.650  -0.863  1.00  0.00     0.139 C 
ATOM      5  C   UNL     1      -0.357   2.933   0.072  1.00  0.00     0.166 C 
ATOM      6  N   UNL     1       0.243   3.145   1.385  1.00  0.00    -0.331 N 
ATOM      7  C   UNL     1       1.129   4.813  -0.065  1.00  0.00     0.118 C 
ATOM      8  C   UNL     1       1.132   4.240   1.326  1.00  0.00     0.224 C 
ATOM      9  O   UNL     1       1.738   4.730   2.268  1.00  0.00    -0.275 OA
BRANCH   5  10
ATOM     10  C   UNL     1      -0.589   1.507  -0.375  1.00  0.00     0.132 A 
ATOM     11  C   UNL     1       1.768   0.603  -0.919  1.00  0.00     0.151 C 
ATOM     12  N   UNL     1       0.326   0.571  -0.840  1.00  0.00    -0.336 N 
ATOM     13  C   UNL     1      -0.377  -0.513  -1.310  1.00  0.00     0.107 A 
ATOM     14  C   UNL     1      -1.695  -0.200  -1.129  1.00  0.00     0.131 A 
ATOM     15  N   UNL     1      -1.817   1.038  -0.560  1.00  0.00    -0.239 NA
ENDBRANCH   5  10
BRANCH   6  16
ATOM     16  C   UNL     1      -0.353   2.915   2.706  1.00  0.00     0.122 C 
BRANCH  16  17
ATOM     17  C   UNL     1      -1.523   1.973   2.955  1.00  0.00     0.050 C 
BRANCH  17  18
ATOM     18  C   UNL     1      -1.424   0.472   2.702  1.00  0.00     0.162 C 
BRANCH  18  19
ATOM     19  O   UNL     1      -0.388  -0.209   3.404  1.00  0.00    -0.378 OA
BRANCH  19  20
ATOM     20  C   UNL     1       0.746  -0.568   2.602  1.00  0.00     0.118 C 
ATOM     21  C   UNL     1       1.836   0.472   2.837  1.00  0.00     0.032 C 
ATOM     22  C   UNL     1       1.208  -1.977   2.983  1.00  0.00     0.032 C 
ATOM     23  C   UNL     1       3.239   0.100   2.401  1.00  0.00     0.003 C 
ATOM     24  C   UNL     1       2.564  -2.308   2.363  1.00  0.00     0.003 C 
ATOM     25  C   UNL     1       3.621  -1.307   2.812  1.00  0.00     0.000 C 
ENDBRANCH  19  20
ENDBRANCH  18  19
ENDBRANCH  17  18
ENDBRANCH  16  17
ENDBRANCH   6  16
ENDBRANCH   2   4
ENDBRANCH   1   2
BRANCH   1  26
ATOM     26  C   UNL     1      -1.233   5.418  -3.538  1.00  0.00     0.274 C 
BRANCH  26  27
ATOM     27  C   UNL     1      -0.221   6.247  -4.341  1.00  0.00     0.275 C 
BRANCH  27  28
ATOM     28  O   UNL     1       0.952   5.495  -4.726  1.00  0.00    -0.458 OA
BRANCH  28  29
ATOM     29  C   UNL     1       1.993   5.562  -3.862  1.00  0.00     0.338 C 
ATOM     30  O   UNL     1       2.034   6.177  -2.809  1.00  0.00    -0.246 OA
BRANCH  29  31
ATOM     31  C   UNL     1       3.072   4.642  -4.266  1.00  0.00     0.060 A 
ATOM     32  C   UNL     1       3.380   3.584  -3.407  1.00  0.00     0.016 A 
ATOM     33  C   UNL     1       3.852   4.869  -5.398  1.00  0.00     0.016 A 
ATOM     34  C   UNL     1       4.457   2.745  -3.662  1.00  0.00     0.010 A 
ATOM     35  C   UNL     1       4.937   4.021  -5.661  1.00  0.00     0.010 A 
ATOM     36  C   UNL     1       5.249   2.958  -4.793  1.00  0.00    -0.014 A 
BRANCH  36  37
ATOM     37  C   UNL     1       6.428   2.091  -5.025  1.00  0.00     0.031 A 
ATOM     38  C   UNL     1       7.810   2.644  -4.839  1.00  0.00     0.074 A 
ATOM     39  C   UNL     1       6.256   0.800  -5.367  1.00  0.00     0.049 A 
ATOM     40  N   UNL     1       8.965   2.095  -5.115  1.00  0.00    -0.248 NA
ATOM     41  C   UNL     1       7.904   3.995  -4.266  1.00  0.00     0.031 C 
ATOM     42  C   UNL     1       4.964   0.128  -5.508  1.00  0.00     0.029 A 
ATOM     43  N   UNL     1       7.175  -0.174  -5.666  1.00  0.00    -0.354 N 
ATOM     44  C   UNL     1       9.922   3.046  -4.786  1.00  0.00     0.074 A 
ATOM     45  C   UNL     1       9.212   4.207  -4.291  1.00  0.00     0.031 C 
ATOM     46  C   UNL     1       5.171  -1.147  -5.873  1.00  0.00     0.029 A 
ATOM     47  C   UNL     1       6.604  -1.362  -6.053  1.00  0.00     0.049 A 
ATOM     48  H   UNL     1       8.148  -0.035  -5.609  1.00  0.00     0.167 HD
ATOM     49  C   UNL     1      11.269   2.956  -4.894  1.00  0.00     0.037 A 
ATOM     50  C   UNL     1       7.170  -2.481  -6.543  1.00  0.00     0.037 A 
ATOM     51  C   UNL     1      11.967   1.788  -5.364  1.00  0.00     0.049 A 
ATOM     52  C   UNL     1       8.662  -2.532  -6.718  1.00  0.00     0.074 A 
ATOM     53  C   UNL     1      13.330   1.591  -5.495  1.00  0.00     0.029 A 
ATOM     54  N   UNL     1      11.352   0.616  -5.780  1.00  0.00    -0.354 N 
ATOM     55  N   UNL     1       9.559  -1.620  -6.430  1.00  0.00    -0.248 NA
ATOM     56  C   UNL     1       9.219  -3.762  -7.298  1.00  0.00     0.031 C 
ATOM     57  C   UNL     1      13.538   0.317  -6.034  1.00  0.00     0.029 A 
ATOM     58  C   UNL     1      12.307  -0.299  -6.193  1.00  0.00     0.049 A 
ATOM     59  H   UNL     1      10.380   0.458  -5.783  1.00  0.00     0.167 HD
ATOM     60  C   UNL     1      10.786  -2.170  -6.777  1.00  0.00     0.074 A 
ATOM     61  C   UNL     1      10.519  -3.502  -7.281  1.00  0.00     0.031 C 
ATOM     62  C   UNL     1      12.022  -1.621  -6.690  1.00  0.00     0.037 A 
BRANCH  49  63
ATOM     63  C   UNL     1      12.073   4.172  -4.539  1.00  0.00     0.057 A 
ATOM     64  C   UNL     1      12.245   4.594  -3.215  1.00  0.00     0.134 A 
ATOM     65  C   UNL     1      12.704   4.919  -5.542  1.00  0.00     0.134 A 
ATOM     66  F   UNL     1      11.655   3.932  -2.208  1.00  0.00    -0.206 F 
ATOM     67  C   UNL     1      12.998   5.729  -2.903  1.00  0.00     0.040 A 
ATOM     68  C   UNL     1      13.479   6.040  -5.242  1.00  0.00     0.040 A 
ATOM     69  F   UNL     1      12.582   4.568  -6.831  1.00  0.00    -0.206 F 
ATOM     70  C   UNL     1      13.622   6.452  -3.918  1.00  0.00     0.006 A 
ENDBRANCH  49  63
BRANCH  50  71
ATOM     71  C   UNL     1       6.316  -3.626  -6.950  1.00  0.00     0.057 A 
ATOM     72  C   UNL     1       6.331  -4.832  -6.241  1.00  0.00     0.134 A 
ATOM     73  C   UNL     1       5.467  -3.541  -8.061  1.00  0.00     0.134 A 
ATOM     74  F   UNL     1       7.139  -4.982  -5.182  1.00  0.00    -0.206 F 
ATOM     75  C   UNL     1       5.541  -5.916  -6.628  1.00  0.00     0.040 A 
ATOM     76  C   UNL     1       4.653  -4.607  -8.444  1.00  0.00     0.040 A 
ATOM     77  F   UNL     1       5.406  -2.412  -8.782  1.00  0.00    -0.206 F 
ATOM     78  C   UNL     1       4.694  -5.802  -7.729  1.00  0.00     0.006 A 
ENDBRANCH  50  71
BRANCH  62  79
ATOM     79  C   UNL     1      13.180  -2.472  -7.122  1.00  0.00     0.057 A 
ATOM     80  C   UNL     1      13.436  -2.739  -8.473  1.00  0.00     0.134 A 
ATOM     81  C   UNL     1      14.067  -3.001  -6.177  1.00  0.00     0.134 A 
ATOM     82  F   UNL     1      12.614  -2.273  -9.426  1.00  0.00    -0.206 F 
ATOM     83  C   UNL     1      14.523  -3.520  -8.867  1.00  0.00     0.040 A 
ATOM     84  C   UNL     1      15.172  -3.761  -6.560  1.00  0.00     0.040 A 
ATOM     85  F   UNL     1      13.882  -2.776  -4.867  1.00  0.00    -0.206 F 
ATOM     86  C   UNL     1      15.399  -4.027  -7.909  1.00  0.00     0.006 A 
ENDBRANCH  62  79
ENDBRANCH  36  37
ENDBRANCH  29  31
ENDBRANCH  28  29
ENDBRANCH  27  28
ENDBRANCH  26  27
ENDBRANCH   1  26
TORSDOF 17
