REMARK SMILES Cc1c(-c2nn(-c3ccccc3)cc2/C=N/O)nnn1-c1ccc(C(=O)OCCOC(=O)c2ccc(-c3c4nc(c(-c5c(F)cccc5F)c5ccc([nH]5)c(-c5c(F)cccc5F)c5nc(c(-c6c(F)cccc6F)c6ccc3[nH]6)C=C5)C=C4)cc2)cc1
REMARK SMILES IDX 28 1 27 2 25 3 26 4 24 5 21 6 22 7 88 8 23 9 87 10 20 11
REMARK SMILES IDX 1 12 2 13 3 14 18 15 19 16 4 17 5 18 14 19 6 20 13 21 15 22
REMARK SMILES IDX 16 23 17 24 7 26 8 27 12 28 9 29 11 30 10 31 29 32 30 33
REMARK SMILES IDX 31 34 32 35 33 36 34 37 86 38 35 39 85 40 36 41 37 42 38 43
REMARK SMILES IDX 79 44 39 45 84 46 78 47 80 48 40 49 83 50 77 51 76 52 41 54
REMARK SMILES IDX 67 55 50 56 66 57 51 58 54 59 65 60 81 61 52 62 53 63 64 65
REMARK SMILES IDX 82 66 55 67 42 68 43 69 48 70 44 71 45 72 47 73 49 74 46 75
REMARK SMILES IDX 68 76 69 77 74 78 70 79 71 80 73 81 75 82 72 83 56 84 57 85
REMARK SMILES IDX 62 86 58 87 59 88 61 89 63 90 60 91
REMARK H PARENT 17 25 80 53 54 64
REMARK Flexibility Score: inf
ROOT
ATOM      1  C   UNL     1      -4.645   4.141   4.266  1.00  0.00     0.275 C 
ENDROOT
BRANCH   1   2
ATOM      2  O   UNL     1      -3.874   3.173   3.528  1.00  0.00    -0.458 OA
BRANCH   2   3
ATOM      3  C   UNL     1      -2.799   2.659   4.181  1.00  0.00     0.338 C 
ATOM      4  O   UNL     1      -2.370   3.032   5.267  1.00  0.00    -0.246 OA
BRANCH   3   5
ATOM      5  C   UNL     1      -2.234   1.488   3.465  1.00  0.00     0.060 A 
ATOM      6  C   UNL     1      -0.914  -0.622   2.191  1.00  0.00     0.067 A 
ATOM      7  C   UNL     1      -0.925  -0.557   3.588  1.00  0.00     0.029 A 
ATOM      8  C   UNL     1      -1.644   0.308   1.435  1.00  0.00     0.029 A 
ATOM      9  C   UNL     1      -1.556   0.517   4.219  1.00  0.00     0.018 A 
ATOM     10  C   UNL     1      -2.325   1.350   2.077  1.00  0.00     0.018 A 
BRANCH   6  11
ATOM     11  N   UNL     1      -0.123  -1.613   1.562  1.00  0.00    -0.217 N 
ATOM     12  C   UNL     1       1.071  -0.235  -0.225  1.00  0.00     0.069 C 
ATOM     13  C   UNL     1       0.698  -1.499   0.452  1.00  0.00     0.071 A 
ATOM     14  C   UNL     1       1.138  -2.794   0.251  1.00  0.00     0.137 A 
ATOM     15  N   UNL     1       0.692  -3.604   1.252  1.00  0.00    -0.128 NA
ATOM     16  N   UNL     1      -0.015  -2.856   2.092  1.00  0.00    -0.061 NA
BRANCH  14  17
ATOM     17  C   UNL     1       2.002  -3.308  -0.809  1.00  0.00     0.124 A 
ATOM     18  N   UNL     1       3.313  -3.031  -0.872  1.00  0.00    -0.165 NA
ATOM     19  C   UNL     1       1.566  -4.107  -1.894  1.00  0.00     0.044 A 
ATOM     20  N   UNL     1       3.707  -3.553  -2.055  1.00  0.00    -0.240 N 
ATOM     21  C   UNL     1       2.680  -4.195  -2.706  1.00  0.00     0.125 A 
BRANCH  19  22
ATOM     22  C   UNL     1       0.293  -4.721  -2.176  1.00  0.00     0.166 C 
ATOM     23  N   UNL     1      -0.722  -4.481  -1.414  1.00  0.00    -0.097 NA
BRANCH  23  24
ATOM     24  O   UNL     1      -1.822  -5.224  -1.853  1.00  0.00    -0.411 OA
ATOM     25  H   UNL     1      -2.641  -5.160  -1.402  1.00  0.00     0.330 HD
ENDBRANCH  23  24
ENDBRANCH  19  22
BRANCH  20  26
ATOM     26  C   UNL     1       5.027  -3.383  -2.526  1.00  0.00     0.065 A 
ATOM     27  C   UNL     1       6.100  -3.543  -1.642  1.00  0.00     0.028 A 
ATOM     28  C   UNL     1       5.253  -3.047  -3.866  1.00  0.00     0.028 A 
ATOM     29  C   UNL     1       7.406  -3.393  -2.112  1.00  0.00     0.002 A 
ATOM     30  C   UNL     1       6.561  -2.838  -4.310  1.00  0.00     0.002 A 
ATOM     31  C   UNL     1       7.634  -3.024  -3.438  1.00  0.00     0.000 A 
ENDBRANCH  20  26
ENDBRANCH  14  17
ENDBRANCH   6  11
ENDBRANCH   3   5
ENDBRANCH   2   3
ENDBRANCH   1   2
BRANCH   1  32
ATOM     32  C   UNL     1      -5.724   3.484   5.118  1.00  0.00     0.275 C 
BRANCH  32  33
ATOM     33  O   UNL     1      -5.147   2.737   6.185  1.00  0.00    -0.458 OA
BRANCH  33  34
ATOM     34  C   UNL     1      -4.916   1.437   5.899  1.00  0.00     0.338 C 
ATOM     35  O   UNL     1      -4.950   0.898   4.805  1.00  0.00    -0.246 OA
BRANCH  34  36
ATOM     36  C   UNL     1      -4.879   0.675   7.146  1.00  0.00     0.060 A 
ATOM     37  C   UNL     1      -4.582  -0.686   7.035  1.00  0.00     0.016 A 
ATOM     38  C   UNL     1      -5.545   1.214   8.253  1.00  0.00     0.016 A 
ATOM     39  C   UNL     1      -5.194  -1.549   7.913  1.00  0.00     0.010 A 
ATOM     40  C   UNL     1      -6.161   0.353   9.119  1.00  0.00     0.010 A 
ATOM     41  C   UNL     1      -6.061  -1.014   8.873  1.00  0.00    -0.014 A 
BRANCH  41  42
ATOM     42  C   UNL     1      -6.735  -1.907   9.792  1.00  0.00     0.031 A 
ATOM     43  C   UNL     1      -5.748  -2.505  10.729  1.00  0.00     0.074 A 
ATOM     44  C   UNL     1      -8.085  -1.982   9.822  1.00  0.00     0.049 A 
ATOM     45  N   UNL     1      -5.429  -3.749  10.856  1.00  0.00    -0.248 NA
ATOM     46  C   UNL     1      -4.821  -1.588  11.432  1.00  0.00     0.031 C 
ATOM     47  C   UNL     1      -9.047  -1.196   9.035  1.00  0.00     0.029 A 
ATOM     48  N   UNL     1      -8.899  -2.694  10.656  1.00  0.00    -0.354 N 
ATOM     49  C   UNL     1      -4.455  -3.777  11.852  1.00  0.00     0.074 A 
ATOM     50  C   UNL     1      -3.956  -2.441  11.979  1.00  0.00     0.031 C 
ATOM     51  C   UNL     1     -10.275  -1.280   9.598  1.00  0.00     0.029 A 
ATOM     52  C   UNL     1     -10.222  -2.228  10.691  1.00  0.00     0.049 A 
ATOM     53  H   UNL     1      -8.586  -3.464  11.184  1.00  0.00     0.167 HD
ATOM     54  C   UNL     1      -4.409  -4.819  12.725  1.00  0.00     0.037 A 
ATOM     55  C   UNL     1     -11.153  -2.567  11.626  1.00  0.00     0.037 A 
ATOM     56  C   UNL     1      -5.084  -5.963  12.167  1.00  0.00     0.049 A 
ATOM     57  C   UNL     1     -10.662  -3.806  12.283  1.00  0.00     0.074 A 
ATOM     58  C   UNL     1      -4.877  -6.784  11.079  1.00  0.00     0.029 A 
ATOM     59  N   UNL     1      -6.399  -6.112  12.526  1.00  0.00    -0.354 N 
ATOM     60  N   UNL     1     -10.519  -4.943  11.657  1.00  0.00    -0.248 NA
ATOM     61  C   UNL     1      -9.833  -3.626  13.464  1.00  0.00     0.031 C 
ATOM     62  C   UNL     1      -6.180  -7.067  10.576  1.00  0.00     0.029 A 
ATOM     63  C   UNL     1      -7.124  -6.498  11.434  1.00  0.00     0.049 A 
ATOM     64  H   UNL     1      -6.763  -5.964  13.428  1.00  0.00     0.167 HD
ATOM     65  C   UNL     1      -9.287  -5.422  12.084  1.00  0.00     0.074 A 
ATOM     66  C   UNL     1      -8.932  -4.583  13.230  1.00  0.00     0.031 C 
ATOM     67  C   UNL     1      -8.541  -6.246  11.290  1.00  0.00     0.037 A 
BRANCH  54  68
ATOM     68  C   UNL     1      -4.227  -4.641  14.217  1.00  0.00     0.057 A 
ATOM     69  C   UNL     1      -4.169  -5.789  15.026  1.00  0.00     0.134 A 
ATOM     70  C   UNL     1      -4.419  -3.430  14.920  1.00  0.00     0.134 A 
ATOM     71  F   UNL     1      -4.006  -7.005  14.483  1.00  0.00    -0.206 F 
ATOM     72  C   UNL     1      -4.367  -5.744  16.412  1.00  0.00     0.040 A 
ATOM     73  C   UNL     1      -4.570  -3.369  16.307  1.00  0.00     0.040 A 
ATOM     74  F   UNL     1      -4.573  -2.249  14.313  1.00  0.00    -0.206 F 
ATOM     75  C   UNL     1      -4.577  -4.531  17.056  1.00  0.00     0.006 A 
ENDBRANCH  54  68
BRANCH  55  76
ATOM     76  C   UNL     1     -12.168  -1.691  12.268  1.00  0.00     0.057 A 
ATOM     77  C   UNL     1     -13.274  -2.213  12.959  1.00  0.00     0.134 A 
ATOM     78  C   UNL     1     -11.921  -0.320  12.463  1.00  0.00     0.134 A 
ATOM     79  F   UNL     1     -13.554  -3.523  12.900  1.00  0.00    -0.206 F 
ATOM     80  C   UNL     1     -14.089  -1.417  13.783  1.00  0.00     0.040 A 
ATOM     81  C   UNL     1     -12.725   0.484  13.280  1.00  0.00     0.040 A 
ATOM     82  F   UNL     1     -10.834   0.263  11.938  1.00  0.00    -0.206 F 
ATOM     83  C   UNL     1     -13.812  -0.064  13.949  1.00  0.00     0.006 A 
ENDBRANCH  55  76
BRANCH  67  84
ATOM     84  C   UNL     1      -9.189  -6.832  10.064  1.00  0.00     0.057 A 
ATOM     85  C   UNL     1      -9.539  -6.106   8.915  1.00  0.00     0.134 A 
ATOM     86  C   UNL     1      -9.262  -8.227   9.979  1.00  0.00     0.134 A 
ATOM     87  F   UNL     1      -9.430  -4.771   8.879  1.00  0.00    -0.206 F 
ATOM     88  C   UNL     1      -9.946  -6.747   7.738  1.00  0.00     0.040 A 
ATOM     89  C   UNL     1      -9.634  -8.877   8.803  1.00  0.00     0.040 A 
ATOM     90  F   UNL     1      -8.896  -8.983  11.027  1.00  0.00    -0.206 F 
ATOM     91  C   UNL     1      -9.980  -8.138   7.677  1.00  0.00     0.006 A 
ENDBRANCH  67  84
ENDBRANCH  41  42
ENDBRANCH  34  36
ENDBRANCH  33  34
ENDBRANCH  32  33
ENDBRANCH   1  32
TORSDOF 16
