REMARK SMILES Cc1cc(Cl)cc2c1O[C@H](C(F)(F)F)C(C(=O)OCCOC(=O)c1ccc(-c3c4nc(c(-c5c(F)cccc5F)c5ccc([nH]5)c(-c5c(F)cccc5F)c5nc(c(-c6c(F)cccc6F)c6ccc3[nH]6)C=C5)C=C4)cc1)=C2
REMARK SMILES IDX 20 1 19 2 18 3 16 4 17 5 15 6 1 7 2 8 3 9 8 10 4 11 7 12
REMARK SMILES IDX 9 13 5 14 6 15 78 16 10 17 11 18 12 19 13 20 14 21 21 22
REMARK SMILES IDX 22 23 23 24 24 25 25 26 77 27 26 28 76 29 27 30 28 31 29 32
REMARK SMILES IDX 70 33 30 34 75 35 69 36 71 37 31 38 74 39 68 40 67 41 32 43
REMARK SMILES IDX 58 44 41 45 57 46 42 47 45 48 56 49 72 50 43 51 44 52 55 54
REMARK SMILES IDX 73 55 46 56 33 57 34 58 39 59 35 60 36 61 38 62 40 63 37 64
REMARK SMILES IDX 59 65 60 66 65 67 61 68 62 69 64 70 66 71 63 72 47 73 48 74
REMARK SMILES IDX 53 75 49 76 50 77 52 78 54 79 51 80
REMARK H PARENT 71 42 45 53
REMARK Flexibility Score: inf
ROOT
ATOM      1  C   UNL     1      -7.806   2.712   0.046  1.00  0.00     0.275 C 
ENDROOT
BRANCH   1   2
ATOM      2  C   UNL     1      -7.131   1.792  -0.973  1.00  0.00     0.275 C 
BRANCH   2   3
ATOM      3  O   UNL     1      -5.749   1.546  -0.629  1.00  0.00    -0.459 OA
BRANCH   3   4
ATOM      4  C   UNL     1      -4.839   2.241  -1.348  1.00  0.00     0.338 C 
ATOM      5  O   UNL     1      -5.072   3.029  -2.253  1.00  0.00    -0.246 OA
BRANCH   4   6
ATOM      6  C   UNL     1      -3.471   1.948  -0.883  1.00  0.00     0.087 C 
ATOM      7  C   UNL     1       1.083  -0.240   0.012  1.00  0.00     0.048 C 
ATOM      8  C   UNL     1       0.557   1.165  -0.055  1.00  0.00    -0.007 A 
ATOM      9  C   UNL     1       1.437   2.248   0.106  1.00  0.00     0.027 A 
ATOM     10  C   UNL     1      -0.807   1.413  -0.273  1.00  0.00     0.131 A 
ATOM     11  C   UNL     1       0.961   3.557   0.052  1.00  0.00     0.042 A 
ATOM     12  C   UNL     1      -1.269   2.729  -0.343  1.00  0.00     0.019 A 
ATOM     13  O   UNL     1      -1.637   0.330  -0.391  1.00  0.00    -0.475 OA
ATOM     14  Cl  UNL     1       2.048   4.876   0.244  1.00  0.00    -0.084 Cl
ATOM     15  C   UNL     1      -0.388   3.803  -0.170  1.00  0.00     0.032 A 
ATOM     16  C   UNL     1      -2.663   2.984  -0.638  1.00  0.00     0.027 C 
ATOM     17  C   UNL     1      -3.002   0.523  -0.858  1.00  0.00     0.316 C 
BRANCH  17  18
ATOM     18  C   UNL     1      -3.153  -0.136  -2.238  1.00  0.00     0.430 C 
ATOM     19  F   UNL     1      -2.706  -1.415  -2.227  1.00  0.00    -0.167 F 
ATOM     20  F   UNL     1      -4.450  -0.184  -2.627  1.00  0.00    -0.167 F 
ATOM     21  F   UNL     1      -2.467   0.526  -3.197  1.00  0.00    -0.167 F 
ENDBRANCH  17  18
ENDBRANCH   4   6
ENDBRANCH   3   4
ENDBRANCH   2   3
ENDBRANCH   1   2
BRANCH   1  22
ATOM     22  O   UNL     1      -7.236   4.033  -0.012  1.00  0.00    -0.458 OA
BRANCH  22  23
ATOM     23  C   UNL     1      -6.406   4.344   1.008  1.00  0.00     0.338 C 
ATOM     24  O   UNL     1      -6.120   3.653   1.971  1.00  0.00    -0.246 OA
BRANCH  23  25
ATOM     25  C   UNL     1      -5.774   5.651   0.774  1.00  0.00     0.060 A 
ATOM     26  C   UNL     1      -4.837   5.755  -0.244  1.00  0.00     0.016 A 
ATOM     27  C   UNL     1      -5.928   6.691   1.686  1.00  0.00     0.016 A 
ATOM     28  C   UNL     1      -3.924   6.803  -0.245  1.00  0.00     0.010 A 
ATOM     29  C   UNL     1      -5.117   7.828   1.578  1.00  0.00     0.010 A 
ATOM     30  C   UNL     1      -4.061   7.874   0.648  1.00  0.00    -0.014 A 
BRANCH  30  31
ATOM     31  C   UNL     1      -3.091   9.011   0.619  1.00  0.00     0.031 A 
ATOM     32  C   UNL     1      -2.371   9.436   1.876  1.00  0.00     0.074 A 
ATOM     33  C   UNL     1      -2.825   9.652  -0.539  1.00  0.00     0.049 A 
ATOM     34  N   UNL     1      -1.649  10.507   2.094  1.00  0.00    -0.248 NA
ATOM     35  C   UNL     1      -2.488   8.551   3.047  1.00  0.00     0.031 C 
ATOM     36  C   UNL     1      -3.395   9.319  -1.847  1.00  0.00     0.029 A 
ATOM     37  N   UNL     1      -1.991  10.710  -0.811  1.00  0.00    -0.354 N 
ATOM     38  C   UNL     1      -1.276  10.452   3.433  1.00  0.00     0.074 A 
ATOM     39  C   UNL     1      -1.861   9.249   3.984  1.00  0.00     0.031 C 
ATOM     40  C   UNL     1      -2.849  10.104  -2.785  1.00  0.00     0.029 A 
ATOM     41  C   UNL     1      -1.986  11.081  -2.136  1.00  0.00     0.049 A 
ATOM     42  H   UNL     1      -1.450  11.160  -0.123  1.00  0.00     0.167 HD
ATOM     43  C   UNL     1      -0.512  11.323   4.135  1.00  0.00     0.037 A 
ATOM     44  C   UNL     1      -1.401  12.120  -2.761  1.00  0.00     0.037 A 
ATOM     45  C   UNL     1       0.119  12.486   3.565  1.00  0.00     0.049 A 
ATOM     46  C   UNL     1      -0.614  13.107  -1.950  1.00  0.00     0.074 A 
ATOM     47  C   UNL     1       0.915  13.429   4.194  1.00  0.00     0.029 A 
ATOM     48  N   UNL     1       0.046  12.852   2.229  1.00  0.00    -0.354 N 
ATOM     49  N   UNL     1      -0.336  13.086  -0.670  1.00  0.00    -0.248 NA
ATOM     50  C   UNL     1      -0.085  14.278  -2.663  1.00  0.00     0.031 C 
ATOM     51  C   UNL     1       1.289  14.387   3.248  1.00  0.00     0.029 A 
ATOM     52  C   UNL     1       0.768  14.015   2.019  1.00  0.00     0.049 A 
ATOM     53  H   UNL     1      -0.445  12.358   1.534  1.00  0.00     0.167 HD
ATOM     54  C   UNL     1       0.409  14.230  -0.424  1.00  0.00     0.074 A 
ATOM     55  C   UNL     1       0.559  14.913  -1.693  1.00  0.00     0.031 C 
ATOM     56  C   UNL     1       0.915  14.679   0.749  1.00  0.00     0.037 A 
BRANCH  43  57
ATOM     57  C   UNL     1      -0.323  11.075   5.605  1.00  0.00     0.057 A 
ATOM     58  C   UNL     1       0.492  10.044   6.088  1.00  0.00     0.134 A 
ATOM     59  C   UNL     1      -0.905  11.932   6.550  1.00  0.00     0.134 A 
ATOM     60  F   UNL     1       1.071   9.181   5.240  1.00  0.00    -0.206 F 
ATOM     61  C   UNL     1       0.711   9.867   7.457  1.00  0.00     0.040 A 
ATOM     62  C   UNL     1      -0.672  11.782   7.918  1.00  0.00     0.040 A 
ATOM     63  F   UNL     1      -1.690  12.947   6.157  1.00  0.00    -0.206 F 
ATOM     64  C   UNL     1       0.137  10.744   8.375  1.00  0.00     0.006 A 
ENDBRANCH  43  57
BRANCH  44  65
ATOM     65  C   UNL     1      -1.581  12.300  -4.225  1.00  0.00     0.057 A 
ATOM     66  C   UNL     1      -0.504  12.159  -5.107  1.00  0.00     0.134 A 
ATOM     67  C   UNL     1      -2.833  12.592  -4.782  1.00  0.00     0.134 A 
ATOM     68  F   UNL     1       0.726  11.905  -4.636  1.00  0.00    -0.206 F 
ATOM     69  C   UNL     1      -0.664  12.302  -6.487  1.00  0.00     0.040 A 
ATOM     70  C   UNL     1      -3.015  12.705  -6.161  1.00  0.00     0.040 A 
ATOM     71  F   UNL     1      -3.909  12.738  -3.993  1.00  0.00    -0.206 F 
ATOM     72  C   UNL     1      -1.926  12.564  -7.018  1.00  0.00     0.006 A 
ENDBRANCH  44  65
BRANCH  56  73
ATOM     73  C   UNL     1       1.701  15.955   0.718  1.00  0.00     0.057 A 
ATOM     74  C   UNL     1       1.078  17.199   0.558  1.00  0.00     0.134 A 
ATOM     75  C   UNL     1       3.088  15.945   0.915  1.00  0.00     0.134 A 
ATOM     76  F   UNL     1      -0.246  17.274   0.352  1.00  0.00    -0.206 F 
ATOM     77  C   UNL     1       1.808  18.387   0.582  1.00  0.00     0.040 A 
ATOM     78  C   UNL     1       3.825  17.128   0.967  1.00  0.00     0.040 A 
ATOM     79  F   UNL     1       3.744  14.786   1.083  1.00  0.00    -0.206 F 
ATOM     80  C   UNL     1       3.185  18.354   0.798  1.00  0.00     0.006 A 
ENDBRANCH  56  73
ENDBRANCH  30  31
ENDBRANCH  23  25
ENDBRANCH  22  23
ENDBRANCH   1  22
TORSDOF 12
