REMARK SMILES O=C(OCCOC(=O)c1ccccc1-c1ccc(/C=C2/SC(=S)N(Cc3ccccc3)C2=O)o1)c1ccc(-c2c3nc(c(-c4c(F)cccc4F)c4ccc([nH]4)c(-c4c(F)cccc4F)c4nc(c(-c5c(F)cccc5F)c5ccc2[nH]5)C=C4)C=C3)cc1
REMARK SMILES IDX 5 1 4 2 3 3 2 4 1 5 35 6 36 7 88 8 37 9 87 10 38 11 39 12
REMARK SMILES IDX 40 13 81 14 41 15 86 16 80 17 82 18 42 19 85 20 79 21 78 22
REMARK SMILES IDX 43 24 69 25 52 26 68 27 53 28 56 29 67 30 83 31 54 32 55 33
REMARK SMILES IDX 66 35 84 36 57 37 44 38 45 39 50 40 46 41 47 42 49 43 51 44
REMARK SMILES IDX 48 45 70 46 71 47 76 48 72 49 73 50 75 51 77 52 74 53 58 54
REMARK SMILES IDX 59 55 64 56 60 57 61 58 63 59 65 60 62 61 6 62 7 63 8 64
REMARK SMILES IDX 9 65 10 66 14 67 11 68 13 69 12 70 15 71 16 72 34 73 17 74
REMARK SMILES IDX 18 75 19 76 20 77 21 78 32 79 22 80 24 81 33 82 23 83 25 84
REMARK SMILES IDX 26 85 27 86 31 87 28 88 30 89 29 90
REMARK H PARENT 82 23 56 34
REMARK Flexibility Score: inf
ROOT
ATOM      1  C   UNL     1       4.062   0.440   1.869  1.00  0.00     0.275 C 
ENDROOT
BRANCH   1   2
ATOM      2  C   UNL     1       4.281   1.297   0.624  1.00  0.00     0.275 C 
BRANCH   2   3
ATOM      3  O   UNL     1       3.194   1.233  -0.318  1.00  0.00    -0.458 OA
BRANCH   3   4
ATOM      4  C   UNL     1       2.903   0.343  -1.294  1.00  0.00     0.338 C 
ATOM      5  O   UNL     1       1.911   0.567  -1.990  1.00  0.00    -0.246 OA
BRANCH   4   6
ATOM      6  C   UNL     1       3.650  -0.935  -1.570  1.00  0.00     0.060 A 
ATOM      7  C   UNL     1       4.895  -1.304  -1.058  1.00  0.00     0.016 A 
ATOM      8  C   UNL     1       3.004  -1.862  -2.418  1.00  0.00     0.016 A 
ATOM      9  C   UNL     1       5.457  -2.555  -1.339  1.00  0.00     0.010 A 
ATOM     10  C   UNL     1       3.557  -3.118  -2.700  1.00  0.00     0.010 A 
ATOM     11  C   UNL     1       4.794  -3.471  -2.158  1.00  0.00    -0.014 A 
BRANCH  11  12
ATOM     12  C   UNL     1       5.454  -4.755  -2.493  1.00  0.00     0.031 A 
ATOM     13  C   UNL     1       6.179  -4.873  -3.784  1.00  0.00     0.074 A 
ATOM     14  C   UNL     1       5.484  -5.769  -1.609  1.00  0.00     0.049 A 
ATOM     15  N   UNL     1       6.875  -5.879  -4.234  1.00  0.00    -0.248 NA
ATOM     16  C   UNL     1       6.139  -3.703  -4.674  1.00  0.00     0.031 C 
ATOM     17  C   UNL     1       4.867  -5.690  -0.304  1.00  0.00     0.029 A 
ATOM     18  N   UNL     1       6.041  -7.020  -1.622  1.00  0.00    -0.354 N 
ATOM     19  C   UNL     1       7.371  -5.462  -5.455  1.00  0.00     0.074 A 
ATOM     20  C   UNL     1       6.872  -4.125  -5.692  1.00  0.00     0.031 C 
ATOM     21  C   UNL     1       5.073  -6.820   0.384  1.00  0.00     0.029 A 
ATOM     22  C   UNL     1       5.800  -7.740  -0.469  1.00  0.00     0.049 A 
ATOM     23  H   UNL     1       6.562  -7.371  -2.379  1.00  0.00     0.167 HD
ATOM     24  C   UNL     1       8.180  -6.148  -6.289  1.00  0.00     0.037 A 
ATOM     25  C   UNL     1       6.111  -9.009  -0.148  1.00  0.00     0.037 A 
ATOM     26  C   UNL     1       8.630  -7.490  -6.037  1.00  0.00     0.049 A 
ATOM     27  C   UNL     1       6.905  -9.787  -1.154  1.00  0.00     0.074 A 
ATOM     28  C   UNL     1       9.427  -8.293  -6.831  1.00  0.00     0.029 A 
ATOM     29  N   UNL     1       8.305  -8.235  -4.909  1.00  0.00    -0.354 N 
ATOM     30  N   UNL     1       7.383  -9.379  -2.306  1.00  0.00    -0.248 NA
ATOM     31  C   UNL     1       7.211 -11.185  -0.833  1.00  0.00     0.031 C 
ATOM     32  C   UNL     1       9.536  -9.542  -6.211  1.00  0.00     0.029 A 
ATOM     33  C   UNL     1       8.856  -9.502  -5.002  1.00  0.00     0.049 A 
ATOM     34  H   UNL     1       7.762  -7.909  -4.155  1.00  0.00     0.167 HD
ATOM     35  C   UNL     1       8.068 -10.457  -2.838  1.00  0.00     0.074 A 
ATOM     36  C   UNL     1       7.960 -11.533  -1.870  1.00  0.00     0.031 C 
ATOM     37  C   UNL     1       8.725 -10.549  -4.019  1.00  0.00     0.037 A 
BRANCH  24  38
ATOM     38  C   UNL     1       8.560  -5.464  -7.563  1.00  0.00     0.057 A 
ATOM     39  C   UNL     1       9.463  -4.393  -7.589  1.00  0.00     0.134 A 
ATOM     40  C   UNL     1       7.984  -5.860  -8.775  1.00  0.00     0.134 A 
ATOM     41  F   UNL     1      10.018  -3.942  -6.453  1.00  0.00    -0.206 F 
ATOM     42  C   UNL     1       9.767  -3.728  -8.777  1.00  0.00     0.040 A 
ATOM     43  C   UNL     1       8.298  -5.218  -9.972  1.00  0.00     0.040 A 
ATOM     44  F   UNL     1       7.098  -6.866  -8.811  1.00  0.00    -0.206 F 
ATOM     45  C   UNL     1       9.187  -4.145  -9.974  1.00  0.00     0.006 A 
ENDBRANCH  24  38
BRANCH  25  46
ATOM     46  C   UNL     1       5.644  -9.625   1.126  1.00  0.00     0.057 A 
ATOM     47  C   UNL     1       6.539 -10.074   2.104  1.00  0.00     0.134 A 
ATOM     48  C   UNL     1       4.279  -9.829   1.375  1.00  0.00     0.134 A 
ATOM     49  F   UNL     1       7.861  -9.923   1.932  1.00  0.00    -0.206 F 
ATOM     50  C   UNL     1       6.102 -10.737   3.256  1.00  0.00     0.040 A 
ATOM     51  C   UNL     1       3.825 -10.461   2.536  1.00  0.00     0.040 A 
ATOM     52  F   UNL     1       3.358  -9.422   0.488  1.00  0.00    -0.206 F 
ATOM     53  C   UNL     1       4.740 -10.931   3.474  1.00  0.00     0.006 A 
ENDBRANCH  25  46
BRANCH  37  54
ATOM     54  C   UNL     1       9.397 -11.857  -4.303  1.00  0.00     0.057 A 
ATOM     55  C   UNL     1       8.666 -13.008  -4.622  1.00  0.00     0.134 A 
ATOM     56  C   UNL     1      10.793 -11.953  -4.282  1.00  0.00     0.134 A 
ATOM     57  F   UNL     1       7.325 -12.980  -4.636  1.00  0.00    -0.206 F 
ATOM     58  C   UNL     1       9.303 -14.219  -4.888  1.00  0.00     0.040 A 
ATOM     59  C   UNL     1      11.442 -13.150  -4.578  1.00  0.00     0.040 A 
ATOM     60  F   UNL     1      11.547 -10.883  -3.987  1.00  0.00    -0.206 F 
ATOM     61  C   UNL     1      10.696 -14.289  -4.875  1.00  0.00     0.006 A 
ENDBRANCH  37  54
ENDBRANCH  11  12
ENDBRANCH   4   6
ENDBRANCH   3   4
ENDBRANCH   2   3
ENDBRANCH   1   2
BRANCH   1  62
ATOM     62  O   UNL     1       3.589  -0.868   1.535  1.00  0.00    -0.458 OA
BRANCH  62  63
ATOM     63  C   UNL     1       2.262  -1.086   1.715  1.00  0.00     0.338 C 
ATOM     64  O   UNL     1       1.438  -0.295   2.127  1.00  0.00    -0.246 OA
BRANCH  63  65
ATOM     65  C   UNL     1       1.921  -2.442   1.243  1.00  0.00     0.071 A 
ATOM     66  C   UNL     1       0.924  -2.541   0.259  1.00  0.00     0.016 A 
ATOM     67  C   UNL     1       2.566  -3.587   1.730  1.00  0.00     0.032 A 
ATOM     68  C   UNL     1       0.586  -3.785  -0.273  1.00  0.00     0.001 A 
ATOM     69  C   UNL     1       2.137  -4.838   1.253  1.00  0.00     0.013 A 
ATOM     70  C   UNL     1       1.183  -4.935   0.234  1.00  0.00     0.001 A 
BRANCH  67  71
ATOM     71  C   UNL     1       3.726  -3.502   2.609  1.00  0.00     0.135 A 
ATOM     72  C   UNL     1       3.975  -2.966   3.849  1.00  0.00     0.051 A 
ATOM     73  O   UNL     1       4.898  -3.921   2.054  1.00  0.00    -0.457 OA
ATOM     74  C   UNL     1       5.377  -3.059   4.041  1.00  0.00     0.051 A 
ATOM     75  C   UNL     1       5.921  -3.690   2.929  1.00  0.00     0.128 A 
BRANCH  75  76
ATOM     76  C   UNL     1       7.274  -4.061   2.694  1.00  0.00     0.068 C 
ATOM     77  C   UNL     1       7.805  -5.106   3.340  1.00  0.00     0.084 C 
ATOM     78  S   UNL     1       9.486  -5.349   3.607  1.00  0.00    -0.054 SA
ATOM     79  C   UNL     1       7.050  -6.069   4.176  1.00  0.00     0.266 C 
ATOM     80  C   UNL     1       9.169  -6.184   5.141  1.00  0.00     0.148 C 
ATOM     81  N   UNL     1       7.818  -6.430   5.263  1.00  0.00    -0.288 N 
ATOM     82  O   UNL     1       5.939  -6.498   3.900  1.00  0.00    -0.268 OA
ATOM     83  S   UNL     1      10.390  -6.565   6.210  1.00  0.00    -0.052 S 
BRANCH  81  84
ATOM     84  C   UNL     1       7.158  -7.108   6.377  1.00  0.00     0.163 C 
BRANCH  84  85
ATOM     85  C   UNL     1       6.409  -6.160   7.303  1.00  0.00    -0.028 A 
ATOM     86  C   UNL     1       6.715  -6.110   8.670  1.00  0.00     0.005 A 
ATOM     87  C   UNL     1       5.343  -5.369   6.840  1.00  0.00     0.005 A 
ATOM     88  C   UNL     1       5.980  -5.295   9.539  1.00  0.00     0.000 A 
ATOM     89  C   UNL     1       4.626  -4.535   7.701  1.00  0.00     0.000 A 
ATOM     90  C   UNL     1       4.941  -4.503   9.054  1.00  0.00     0.000 A 
ENDBRANCH  84  85
ENDBRANCH  81  84
ENDBRANCH  75  76
ENDBRANCH  67  71
ENDBRANCH  63  65
ENDBRANCH  62  63
ENDBRANCH   1  62
TORSDOF 15
