REMARK SMILES Cc1csc([C@H](C)Nc2cc(C)c(N)c(C(=O)OCCOC(=O)c3ccc(-c4c5nc(c(-c6c(F)cccc6F)c6ccc([nH]6)c(-c6c(F)cccc6F)c6nc(c(-c7c(F)cccc7F)c7ccc4[nH]7)C=C6)C=C5)cc3)c2)n1
REMARK SMILES IDX 19 1 18 2 16 3 17 4 15 5 9 6 10 7 78 8 11 9 12 10 13 11 8 12
REMARK SMILES IDX 6 14 7 15 5 16 1 17 2 18 3 19 79 20 4 21 14 22 20 25 21 26
REMARK SMILES IDX 22 27 23 28 24 29 25 30 77 31 26 32 76 33 27 34 28 35 29 36
REMARK SMILES IDX 70 37 30 38 75 39 69 40 71 41 31 42 74 43 68 44 67 45 32 47
REMARK SMILES IDX 58 48 41 49 57 50 42 51 45 52 56 53 72 54 43 55 44 56 55 58
REMARK SMILES IDX 73 59 46 60 33 61 34 62 39 63 35 64 36 65 38 66 40 67 37 68
REMARK SMILES IDX 59 69 60 70 65 71 61 72 62 73 64 74 66 75 63 76 47 77 48 78
REMARK SMILES IDX 53 79 49 80 50 81 52 82 54 83 51 84
REMARK H PARENT 8 13 14 23 14 24 71 46 45 57
REMARK Flexibility Score: inf
ROOT
ATOM      1  C   UNL     1       1.228   3.299   7.381  1.00  0.00     0.275 C 
ENDROOT
BRANCH   1   2
ATOM      2  O   UNL     1       1.463   3.404   5.960  1.00  0.00    -0.458 OA
BRANCH   2   3
ATOM      3  C   UNL     1       2.040   4.557   5.521  1.00  0.00     0.340 C 
ATOM      4  O   UNL     1       2.335   5.521   6.206  1.00  0.00    -0.246 OA
BRANCH   3   5
ATOM      5  C   UNL     1       2.361   4.443   4.069  1.00  0.00     0.085 A 
ATOM      6  C   UNL     1       1.790   3.529   1.875  1.00  0.00     0.036 A 
ATOM      7  C   UNL     1       3.017   4.002   1.409  1.00  0.00     0.031 A 
ATOM      8  C   UNL     1       1.502   3.715   3.230  1.00  0.00     0.043 A 
ATOM      9  C   UNL     1       3.882   4.763   2.220  1.00  0.00    -0.025 A 
ATOM     10  C   UNL     1       5.199   5.212   1.644  1.00  0.00     0.047 C 
ATOM     11  C   UNL     1       3.509   5.071   3.541  1.00  0.00     0.049 A 
BRANCH   6  12
ATOM     12  N   UNL     1       0.897   2.813   1.105  1.00  0.00    -0.376 N 
ATOM     13  H   UNL     1      -0.004   2.674   1.476  1.00  0.00     0.161 HD
BRANCH  12  14
ATOM     14  C   UNL     1       1.170   2.241  -0.221  1.00  0.00     0.135 C 
ATOM     15  C   UNL     1       0.275   0.994  -0.320  1.00  0.00     0.039 C 
BRANCH  14  16
ATOM     16  C   UNL     1       0.998   3.187  -1.413  1.00  0.00     0.115 A 
ATOM     17  C   UNL     1       1.144   6.543  -2.746  1.00  0.00     0.067 C 
ATOM     18  C   UNL     1       0.995   5.072  -2.611  1.00  0.00     0.049 A 
ATOM     19  C   UNL     1       0.767   4.171  -3.630  1.00  0.00     0.090 A 
ATOM     20  N   UNL     1       1.108   4.504  -1.353  1.00  0.00    -0.244 NA
ATOM     21  S   UNL     1       0.752   2.578  -3.014  1.00  0.00    -0.125 S 
ENDBRANCH  14  16
ENDBRANCH  12  14
ENDBRANCH   6  12
BRANCH  11  22
ATOM     22  N   UNL     1       4.347   5.858   4.335  1.00  0.00    -0.398 N 
ATOM     23  H   UNL     1       5.141   6.284   3.941  1.00  0.00     0.156 HD
ATOM     24  H   UNL     1       4.142   5.986   5.290  1.00  0.00     0.156 HD
ENDBRANCH  11  22
ENDBRANCH   3   5
ENDBRANCH   2   3
ENDBRANCH   1   2
BRANCH   1  25
ATOM     25  C   UNL     1       2.261   2.371   8.020  1.00  0.00     0.275 C 
BRANCH  25  26
ATOM     26  O   UNL     1       3.559   2.975   7.898  1.00  0.00    -0.458 OA
BRANCH  26  27
ATOM     27  C   UNL     1       4.607   2.126   7.788  1.00  0.00     0.338 C 
ATOM     28  O   UNL     1       4.582   0.910   7.899  1.00  0.00    -0.246 OA
BRANCH  27  29
ATOM     29  C   UNL     1       5.835   2.904   7.508  1.00  0.00     0.060 A 
ATOM     30  C   UNL     1       5.779   4.031   6.690  1.00  0.00     0.016 A 
ATOM     31  C   UNL     1       7.068   2.473   7.996  1.00  0.00     0.016 A 
ATOM     32  C   UNL     1       6.948   4.695   6.314  1.00  0.00     0.010 A 
ATOM     33  C   UNL     1       8.233   3.190   7.683  1.00  0.00     0.010 A 
ATOM     34  C   UNL     1       8.194   4.296   6.812  1.00  0.00    -0.014 A 
BRANCH  34  35
ATOM     35  C   UNL     1       9.451   4.970   6.364  1.00  0.00     0.031 A 
ATOM     36  C   UNL     1      10.551   4.158   5.728  1.00  0.00     0.074 A 
ATOM     37  C   UNL     1       9.622   6.304   6.481  1.00  0.00     0.049 A 
ATOM     38  N   UNL     1      11.796   4.486   5.487  1.00  0.00    -0.248 NA
ATOM     39  C   UNL     1      10.206   2.787   5.321  1.00  0.00     0.031 C 
ATOM     40  C   UNL     1       8.636   7.250   7.003  1.00  0.00     0.029 A 
ATOM     41  N   UNL     1      10.695   7.100   6.149  1.00  0.00    -0.354 N 
ATOM     42  C   UNL     1      12.399   3.342   4.978  1.00  0.00     0.074 A 
ATOM     43  C   UNL     1      11.381   2.314   4.932  1.00  0.00     0.031 C 
ATOM     44  C   UNL     1       9.124   8.496   6.905  1.00  0.00     0.029 A 
ATOM     45  C   UNL     1      10.495   8.435   6.409  1.00  0.00     0.049 A 
ATOM     46  H   UNL     1      11.527   6.746   5.760  1.00  0.00     0.167 HD
ATOM     47  C   UNL     1      13.685   3.163   4.589  1.00  0.00     0.037 A 
ATOM     48  C   UNL     1      11.330   9.488   6.308  1.00  0.00     0.037 A 
ATOM     49  C   UNL     1      14.680   4.203   4.556  1.00  0.00     0.049 A 
ATOM     50  C   UNL     1      12.757   9.266   5.890  1.00  0.00     0.074 A 
ATOM     51  C   UNL     1      16.014   4.112   4.193  1.00  0.00     0.029 A 
ATOM     52  N   UNL     1      14.440   5.532   4.863  1.00  0.00    -0.354 N 
ATOM     53  N   UNL     1      13.350   8.154   5.530  1.00  0.00    -0.248 NA
ATOM     54  C   UNL     1      13.641  10.441   5.899  1.00  0.00     0.031 C 
ATOM     55  C   UNL     1      16.585   5.386   4.297  1.00  0.00     0.029 A 
ATOM     56  C   UNL     1      15.598   6.273   4.692  1.00  0.00     0.049 A 
ATOM     57  H   UNL     1      13.574   5.897   5.158  1.00  0.00     0.167 HD
ATOM     58  C   UNL     1      14.671   8.495   5.271  1.00  0.00     0.074 A 
ATOM     59  C   UNL     1      14.789   9.921   5.486  1.00  0.00     0.031 C 
ATOM     60  C   UNL     1      15.700   7.693   4.902  1.00  0.00     0.037 A 
BRANCH  47  61
ATOM     61  C   UNL     1      14.102   1.775   4.199  1.00  0.00     0.057 A 
ATOM     62  C   UNL     1      13.725   1.194   2.983  1.00  0.00     0.134 A 
ATOM     63  C   UNL     1      14.927   1.023   5.048  1.00  0.00     0.134 A 
ATOM     64  F   UNL     1      12.924   1.855   2.134  1.00  0.00    -0.206 F 
ATOM     65  C   UNL     1      14.136  -0.094   2.633  1.00  0.00     0.040 A 
ATOM     66  C   UNL     1      15.364  -0.255   4.698  1.00  0.00     0.040 A 
ATOM     67  F   UNL     1      15.331   1.525   6.225  1.00  0.00    -0.206 F 
ATOM     68  C   UNL     1      14.963  -0.819   3.489  1.00  0.00     0.006 A 
ENDBRANCH  47  61
BRANCH  48  69
ATOM     69  C   UNL     1      10.858  10.852   6.662  1.00  0.00     0.057 A 
ATOM     70  C   UNL     1      10.720  11.845   5.686  1.00  0.00     0.134 A 
ATOM     71  C   UNL     1      10.549  11.200   7.983  1.00  0.00     0.134 A 
ATOM     72  F   UNL     1      11.032  11.584   4.408  1.00  0.00    -0.206 F 
ATOM     73  C   UNL     1      10.296  13.136   6.010  1.00  0.00     0.040 A 
ATOM     74  C   UNL     1      10.096  12.477   8.317  1.00  0.00     0.040 A 
ATOM     75  F   UNL     1      10.667  10.296   8.967  1.00  0.00    -0.206 F 
ATOM     76  C   UNL     1       9.974  13.451   7.328  1.00  0.00     0.006 A 
ENDBRANCH  48  69
BRANCH  60  77
ATOM     77  C   UNL     1      17.030   8.347   4.682  1.00  0.00     0.057 A 
ATOM     78  C   UNL     1      17.831   8.762   5.753  1.00  0.00     0.134 A 
ATOM     79  C   UNL     1      17.525   8.541   3.387  1.00  0.00     0.134 A 
ATOM     80  F   UNL     1      17.406   8.615   7.017  1.00  0.00    -0.206 F 
ATOM     81  C   UNL     1      19.071   9.367   5.542  1.00  0.00     0.040 A 
ATOM     82  C   UNL     1      18.772   9.127   3.164  1.00  0.00     0.040 A 
ATOM     83  F   UNL     1      16.808   8.161   2.319  1.00  0.00    -0.206 F 
ATOM     84  C   UNL     1      19.547   9.547   4.245  1.00  0.00     0.006 A 
ENDBRANCH  60  77
ENDBRANCH  34  35
ENDBRANCH  27  29
ENDBRANCH  26  27
ENDBRANCH  25  26
ENDBRANCH   1  25
TORSDOF 15
