REMARK SMILES COC(=O)c1sc(SCC(=O)OCCOC(=O)c2ccc(-c3c4nc(c(-c5c(F)cccc5F)c5ccc([nH]5)c(-c5c(F)cccc5F)c5nc(c(-c6c(F)cccc6F)c6ccc3[nH]6)C=C5)C=C4)cc2)c(NC(=O)c2ccccc2)c1O
REMARK SMILES IDX 13 1 12 2 10 3 11 4 9 5 8 6 7 7 5 8 6 9 82 10 72 11 3 12
REMARK SMILES IDX 4 13 2 14 1 15 83 16 73 18 74 19 75 21 76 22 77 23 81 24
REMARK SMILES IDX 78 25 80 26 79 27 14 28 15 29 16 30 17 31 18 32 19 33 71 34
REMARK SMILES IDX 20 35 70 36 21 37 22 38 23 39 64 40 24 41 69 42 63 43 65 44
REMARK SMILES IDX 25 45 68 46 62 47 61 48 26 50 52 51 35 52 51 53 36 54 39 55
REMARK SMILES IDX 50 56 66 57 37 58 38 59 49 61 67 62 40 63 27 64 28 65 33 66
REMARK SMILES IDX 29 67 30 68 32 69 34 70 31 71 53 72 54 73 59 74 55 75 56 76
REMARK SMILES IDX 58 77 60 78 57 79 41 80 42 81 47 82 43 83 44 84 46 85 48 86
REMARK SMILES IDX 45 87
REMARK H PARENT 83 17 73 20 65 49 39 60
REMARK Flexibility Score: inf
ROOT
ATOM      1  C   UNL     1      -1.808  -8.027  -6.090  1.00  0.00     0.274 C 
ENDROOT
BRANCH   1   2
ATOM      2  O   UNL     1      -0.986  -7.081  -6.822  1.00  0.00    -0.461 OA
BRANCH   2   3
ATOM      3  C   UNL     1      -1.628  -6.151  -7.616  1.00  0.00     0.316 C 
ATOM      4  O   UNL     1      -2.847  -6.121  -7.773  1.00  0.00    -0.251 OA
BRANCH   3   5
ATOM      5  C   UNL     1      -0.512  -5.266  -8.586  1.00  0.00     0.198 C 
BRANCH   5   6
ATOM      6  S   UNL     1       0.586  -2.957  -8.217  1.00  0.00    -0.101 SA
BRANCH   6   7
ATOM      7  C   UNL     1       0.592  -2.213  -6.523  1.00  0.00     0.089 A 
ATOM      8  C   UNL     1       1.363  -1.199  -4.366  1.00  0.00     0.157 A 
ATOM      9  S   UNL     1       2.097  -1.697  -5.837  1.00  0.00    -0.116 S 
ATOM     10  C   UNL     1      -0.003  -1.355  -4.434  1.00  0.00     0.166 A 
ATOM     11  C   UNL     1      -0.458  -1.902  -5.664  1.00  0.00     0.109 A 
BRANCH   8  12
ATOM     12  C   UNL     1       2.164  -0.683  -3.277  1.00  0.00     0.352 C 
ATOM     13  O   UNL     1       3.324  -0.291  -3.333  1.00  0.00    -0.245 OA
BRANCH  12  14
ATOM     14  O   UNL     1       1.401  -0.671  -2.144  1.00  0.00    -0.465 OA
ATOM     15  C   UNL     1       1.948  -0.038  -0.989  1.00  0.00     0.282 C 
ENDBRANCH  12  14
ENDBRANCH   8  12
BRANCH  10  16
ATOM     16  O   UNL     1      -0.858  -1.059  -3.427  1.00  0.00    -0.504 OA
ATOM     17  H   UNL     1      -0.531  -0.700  -2.626  1.00  0.00     0.293 HD
ENDBRANCH  10  16
BRANCH  11  18
ATOM     18  N   UNL     1      -1.816  -2.110  -5.851  1.00  0.00    -0.317 N 
ATOM     19  C   UNL     1      -2.387  -2.902  -6.799  1.00  0.00     0.255 C 
ATOM     20  H   UNL     1      -2.426  -1.638  -5.238  1.00  0.00     0.170 HD
ATOM     21  O   UNL     1      -3.583  -2.885  -7.059  1.00  0.00    -0.269 OA
BRANCH  19  22
ATOM     22  C   UNL     1      -1.459  -3.757  -7.537  1.00  0.00     0.040 A 
ATOM     23  C   UNL     1      -1.432  -3.486  -9.305  1.00  0.00     0.014 A 
ATOM     24  C   UNL     1      -0.050  -4.607  -6.713  1.00  0.00     0.014 A 
ATOM     25  C   UNL     1      -0.005  -4.011 -10.257  1.00  0.00     0.001 A 
ATOM     26  C   UNL     1       1.374  -5.115  -7.685  1.00  0.00     0.001 A 
ATOM     27  C   UNL     1       1.383  -4.808  -9.459  1.00  0.00     0.000 A 
ENDBRANCH  19  22
ENDBRANCH  11  18
ENDBRANCH   6   7
ENDBRANCH   5   6
ENDBRANCH   3   5
ENDBRANCH   2   3
ENDBRANCH   1   2
BRANCH   1  28
ATOM     28  C   UNL     1      -1.714  -7.841  -4.566  1.00  0.00     0.275 C 
BRANCH  28  29
ATOM     29  O   UNL     1      -2.836  -7.165  -3.960  1.00  0.00    -0.458 OA
BRANCH  29  30
ATOM     30  C   UNL     1      -2.851  -5.846  -4.216  1.00  0.00     0.338 C 
ATOM     31  O   UNL     1      -2.175  -5.290  -5.066  1.00  0.00    -0.246 OA
BRANCH  30  32
ATOM     32  C   UNL     1      -3.509  -5.012  -3.211  1.00  0.00     0.060 A 
ATOM     33  C   UNL     1      -3.805  -3.708  -3.618  1.00  0.00     0.016 A 
ATOM     34  C   UNL     1      -3.381  -5.328  -1.861  1.00  0.00     0.016 A 
ATOM     35  C   UNL     1      -3.707  -2.673  -2.709  1.00  0.00     0.010 A 
ATOM     36  C   UNL     1      -3.377  -4.291  -0.935  1.00  0.00     0.010 A 
ATOM     37  C   UNL     1      -3.418  -2.956  -1.372  1.00  0.00    -0.014 A 
BRANCH  37  38
ATOM     38  C   UNL     1      -3.238  -1.819  -0.450  1.00  0.00     0.031 A 
ATOM     39  C   UNL     1      -4.351  -0.816  -0.399  1.00  0.00     0.074 A 
ATOM     40  C   UNL     1      -2.217  -1.768   0.434  1.00  0.00     0.049 A 
ATOM     41  N   UNL     1      -4.287   0.467  -0.198  1.00  0.00    -0.248 NA
ATOM     42  C   UNL     1      -5.718  -1.319  -0.634  1.00  0.00     0.031 C 
ATOM     43  C   UNL     1      -1.173  -2.779   0.632  1.00  0.00     0.029 A 
ATOM     44  N   UNL     1      -2.006  -0.898   1.474  1.00  0.00    -0.354 N 
ATOM     45  C   UNL     1      -5.610   0.895  -0.114  1.00  0.00     0.074 A 
ATOM     46  C   UNL     1      -6.444  -0.214  -0.495  1.00  0.00     0.031 C 
ATOM     47  C   UNL     1      -0.659  -2.639   1.870  1.00  0.00     0.029 A 
ATOM     48  C   UNL     1      -1.266  -1.476   2.498  1.00  0.00     0.049 A 
ATOM     49  H   UNL     1      -2.340   0.028   1.492  1.00  0.00     0.167 HD
ATOM     50  C   UNL     1      -5.990   2.065   0.464  1.00  0.00     0.037 A 
ATOM     51  C   UNL     1      -1.240  -1.129   3.808  1.00  0.00     0.037 A 
ATOM     52  C   UNL     1      -4.973   3.069   0.459  1.00  0.00     0.049 A 
ATOM     53  C   UNL     1      -1.815   0.223   3.971  1.00  0.00     0.074 A 
ATOM     54  C   UNL     1      -4.235   3.695  -0.527  1.00  0.00     0.029 A 
ATOM     55  N   UNL     1      -4.399   3.454   1.642  1.00  0.00    -0.354 N 
ATOM     56  N   UNL     1      -1.216   1.337   3.665  1.00  0.00    -0.248 NA
ATOM     57  C   UNL     1      -3.249   0.326   4.196  1.00  0.00     0.031 C 
ATOM     58  C   UNL     1      -2.995   4.030   0.082  1.00  0.00     0.029 A 
ATOM     59  C   UNL     1      -3.055   3.576   1.398  1.00  0.00     0.049 A 
ATOM     60  H   UNL     1      -4.860   3.611   2.498  1.00  0.00     0.167 HD
ATOM     61  C   UNL     1      -2.235   2.178   3.249  1.00  0.00     0.074 A 
ATOM     62  C   UNL     1      -3.462   1.554   3.724  1.00  0.00     0.031 C 
ATOM     63  C   UNL     1      -2.023   3.149   2.313  1.00  0.00     0.037 A 
BRANCH  50  64
ATOM     64  C   UNL     1      -7.248   2.155   1.278  1.00  0.00     0.057 A 
ATOM     65  C   UNL     1      -7.870   3.385   1.518  1.00  0.00     0.134 A 
ATOM     66  C   UNL     1      -7.740   1.065   2.027  1.00  0.00     0.134 A 
ATOM     67  F   UNL     1      -7.437   4.502   0.916  1.00  0.00    -0.206 F 
ATOM     68  C   UNL     1      -8.920   3.517   2.434  1.00  0.00     0.040 A 
ATOM     69  C   UNL     1      -8.819   1.172   2.902  1.00  0.00     0.040 A 
ATOM     70  F   UNL     1      -7.139  -0.133   2.000  1.00  0.00    -0.206 F 
ATOM     71  C   UNL     1      -9.405   2.408   3.120  1.00  0.00     0.006 A 
ENDBRANCH  50  64
BRANCH  51  72
ATOM     72  C   UNL     1      -0.963  -2.010   4.964  1.00  0.00     0.057 A 
ATOM     73  C   UNL     1      -0.473  -1.502   6.172  1.00  0.00     0.134 A 
ATOM     74  C   UNL     1      -1.358  -3.361   4.976  1.00  0.00     0.134 A 
ATOM     75  F   UNL     1      -0.133  -0.210   6.280  1.00  0.00    -0.206 F 
ATOM     76  C   UNL     1      -0.353  -2.300   7.318  1.00  0.00     0.040 A 
ATOM     77  C   UNL     1      -1.226  -4.173   6.105  1.00  0.00     0.040 A 
ATOM     78  F   UNL     1      -1.950  -3.918   3.909  1.00  0.00    -0.206 F 
ATOM     79  C   UNL     1      -0.724  -3.641   7.284  1.00  0.00     0.006 A 
ENDBRANCH  51  72
BRANCH  63  80
ATOM     80  C   UNL     1      -0.613   3.555   1.982  1.00  0.00     0.057 A 
ATOM     81  C   UNL     1       0.381   2.674   1.533  1.00  0.00     0.134 A 
ATOM     82  C   UNL     1      -0.297   4.922   1.961  1.00  0.00     0.134 A 
ATOM     83  F   UNL     1       0.143   1.362   1.389  1.00  0.00    -0.206 F 
ATOM     84  C   UNL     1       1.645   3.129   1.142  1.00  0.00     0.040 A 
ATOM     85  C   UNL     1       0.943   5.390   1.520  1.00  0.00     0.040 A 
ATOM     86  F   UNL     1      -1.214   5.835   2.322  1.00  0.00    -0.206 F 
ATOM     87  C   UNL     1       1.924   4.491   1.120  1.00  0.00     0.006 A 
ENDBRANCH  63  80
ENDBRANCH  37  38
ENDBRANCH  30  32
ENDBRANCH  29  30
ENDBRANCH  28  29
ENDBRANCH   1  28
TORSDOF 18
