REMARK SMILES Cc1ccc(-c2c(C(=O)OCCOC(=O)c3ccc(-c4c5nc(c(-c6c(F)cccc6F)c6ccc([nH]6)c(-c6c(F)cccc6F)c6nc(c(-c7c(F)cccc7F)c7ccc4[nH]7)C=C6)C=C5)cc3)nnn2Cc2c(F)cccc2Cl)cc1
REMARK SMILES IDX 11 1 10 2 8 3 9 4 7 5 6 6 72 7 70 8 71 9 5 10 1 11 2 12 3 13
REMARK SMILES IDX 83 14 4 15 82 16 73 17 74 18 75 19 80 20 76 21 77 22 79 23
REMARK SMILES IDX 81 24 78 25 12 26 13 27 14 28 15 29 16 30 17 31 69 32 18 33
REMARK SMILES IDX 68 34 19 35 20 36 21 37 62 38 22 39 67 40 61 41 63 42 23 43
REMARK SMILES IDX 66 44 60 45 59 46 24 48 50 49 33 50 49 51 34 52 37 53 48 54
REMARK SMILES IDX 64 55 35 56 36 57 47 59 65 60 38 61 25 62 26 63 31 64 27 65
REMARK SMILES IDX 28 66 30 67 32 68 29 69 51 70 52 71 57 72 53 73 54 74 56 75
REMARK SMILES IDX 58 76 55 77 39 78 40 79 45 80 41 81 42 82 44 83 46 84 43 85
REMARK H PARENT 63 47 37 58
REMARK Flexibility Score: inf
ROOT
ATOM      1  C   UNL     1      -2.452   0.525   4.588  1.00  0.00     0.275 C 
ENDROOT
BRANCH   1   2
ATOM      2  O   UNL     1      -3.009   0.988   3.360  1.00  0.00    -0.457 OA
BRANCH   2   3
ATOM      3  C   UNL     1      -2.469   0.410   2.251  1.00  0.00     0.361 C 
ATOM      4  O   UNL     1      -1.523  -0.377   2.283  1.00  0.00    -0.244 OA
BRANCH   3   5
ATOM      5  C   UNL     1      -3.132   0.819   1.029  1.00  0.00     0.198 A 
ATOM      6  C   UNL     1      -2.543   0.951  -0.221  1.00  0.00     0.104 A 
ATOM      7  N   UNL     1      -3.609   1.205  -1.047  1.00  0.00    -0.239 N 
ATOM      8  N   UNL     1      -4.462   1.130   0.942  1.00  0.00    -0.122 NA
ATOM      9  N   UNL     1      -4.744   1.369  -0.330  1.00  0.00    -0.066 NA
BRANCH   6  10
ATOM     10  C   UNL     1      -1.129   0.844  -0.538  1.00  0.00     0.002 A 
ATOM     11  C   UNL     1       3.120   0.317  -0.136  1.00  0.00     0.044 C 
ATOM     12  C   UNL     1       1.657   0.529  -0.386  1.00  0.00    -0.051 A 
ATOM     13  C   UNL     1       0.832  -0.575  -0.621  1.00  0.00     0.004 A 
ATOM     14  C   UNL     1       1.083   1.802  -0.294  1.00  0.00     0.004 A 
ATOM     15  C   UNL     1      -0.550  -0.416  -0.700  1.00  0.00     0.011 A 
ATOM     16  C   UNL     1      -0.304   1.960  -0.372  1.00  0.00     0.011 A 
ENDBRANCH   6  10
BRANCH   7  17
ATOM     17  C   UNL     1      -3.688   1.363  -2.493  1.00  0.00     0.187 C 
BRANCH  17  18
ATOM     18  C   UNL     1      -2.880   0.379  -3.295  1.00  0.00     0.028 A 
ATOM     19  C   UNL     1      -2.040   0.886  -4.295  1.00  0.00     0.129 A 
ATOM     20  C   UNL     1      -2.940  -1.015  -3.147  1.00  0.00     0.049 A 
ATOM     21  F   UNL     1      -2.005   2.206  -4.526  1.00  0.00    -0.207 F 
ATOM     22  C   UNL     1      -1.239   0.060  -5.078  1.00  0.00     0.040 A 
ATOM     23  C   UNL     1      -2.112  -1.851  -3.909  1.00  0.00     0.021 A 
ATOM     24  Cl  UNL     1      -4.020  -1.784  -2.039  1.00  0.00    -0.084 Cl
ATOM     25  C   UNL     1      -1.257  -1.314  -4.870  1.00  0.00     0.005 A 
ENDBRANCH  17  18
ENDBRANCH   7  17
ENDBRANCH   3   5
ENDBRANCH   2   3
ENDBRANCH   1   2
BRANCH   1  26
ATOM     26  C   UNL     1      -3.469   0.648   5.725  1.00  0.00     0.275 C 
BRANCH  26  27
ATOM     27  O   UNL     1      -4.891   0.666   5.387  1.00  0.00    -0.458 OA
BRANCH  27  28
ATOM     28  C   UNL     1      -5.630  -0.092   4.535  1.00  0.00     0.338 C 
ATOM     29  O   UNL     1      -6.797   0.175   4.277  1.00  0.00    -0.246 OA
BRANCH  28  30
ATOM     30  C   UNL     1      -5.007  -1.277   3.924  1.00  0.00     0.060 A 
ATOM     31  C   UNL     1      -5.269  -1.627   2.587  1.00  0.00     0.016 A 
ATOM     32  C   UNL     1      -4.135  -2.034   4.688  1.00  0.00     0.016 A 
ATOM     33  C   UNL     1      -4.598  -2.708   2.005  1.00  0.00     0.010 A 
ATOM     34  C   UNL     1      -3.338  -2.959   4.066  1.00  0.00     0.010 A 
ATOM     35  C   UNL     1      -3.621  -3.365   2.754  1.00  0.00    -0.014 A 
BRANCH  35  36
ATOM     36  C   UNL     1      -2.998  -4.638   2.397  1.00  0.00     0.031 A 
ATOM     37  C   UNL     1      -2.060  -4.820   1.284  1.00  0.00     0.074 A 
ATOM     38  C   UNL     1      -3.273  -5.646   3.253  1.00  0.00     0.049 A 
ATOM     39  N   UNL     1      -1.916  -5.918   0.622  1.00  0.00    -0.248 NA
ATOM     40  C   UNL     1      -1.173  -3.757   0.840  1.00  0.00     0.031 C 
ATOM     41  C   UNL     1      -2.691  -6.969   3.379  1.00  0.00     0.029 A 
ATOM     42  N   UNL     1      -4.343  -5.658   4.158  1.00  0.00    -0.354 N 
ATOM     43  C   UNL     1      -0.737  -5.817  -0.089  1.00  0.00     0.074 A 
ATOM     44  C   UNL     1      -0.387  -4.416  -0.021  1.00  0.00     0.031 C 
ATOM     45  C   UNL     1      -3.563  -7.748   4.050  1.00  0.00     0.029 A 
ATOM     46  C   UNL     1      -4.789  -6.974   4.226  1.00  0.00     0.049 A 
ATOM     47  H   UNL     1      -4.707  -4.886   4.649  1.00  0.00     0.167 HD
ATOM     48  C   UNL     1      -0.083  -6.954  -0.477  1.00  0.00     0.037 A 
ATOM     49  C   UNL     1      -6.015  -7.263   3.699  1.00  0.00     0.037 A 
ATOM     50  C   UNL     1      -0.803  -8.140  -0.007  1.00  0.00     0.049 A 
ATOM     51  C   UNL     1      -5.900  -8.245   2.564  1.00  0.00     0.074 A 
ATOM     52  C   UNL     1      -0.612  -8.941   1.108  1.00  0.00     0.029 A 
ATOM     53  N   UNL     1      -2.073  -8.437  -0.492  1.00  0.00    -0.354 N 
ATOM     54  N   UNL     1      -4.847  -8.361   1.803  1.00  0.00    -0.248 NA
ATOM     55  C   UNL     1      -6.948  -9.200   2.233  1.00  0.00     0.031 C 
ATOM     56  C   UNL     1      -1.806  -9.664   1.341  1.00  0.00     0.029 A 
ATOM     57  C   UNL     1      -2.714  -9.327   0.351  1.00  0.00     0.049 A 
ATOM     58  H   UNL     1      -2.461  -8.066  -1.317  1.00  0.00     0.167 HD
ATOM     59  C   UNL     1      -5.027  -9.408   0.940  1.00  0.00     0.074 A 
ATOM     60  C   UNL     1      -6.361  -9.896   1.245  1.00  0.00     0.031 C 
ATOM     61  C   UNL     1      -4.058  -9.804   0.064  1.00  0.00     0.037 A 
BRANCH  48  62
ATOM     62  C   UNL     1       1.369  -6.999  -0.931  1.00  0.00     0.057 A 
ATOM     63  C   UNL     1       2.171  -8.140  -0.707  1.00  0.00     0.134 A 
ATOM     64  C   UNL     1       2.052  -5.942  -1.558  1.00  0.00     0.134 A 
ATOM     65  F   UNL     1       1.654  -9.291  -0.256  1.00  0.00    -0.206 F 
ATOM     66  C   UNL     1       3.553  -8.172  -0.943  1.00  0.00     0.040 A 
ATOM     67  C   UNL     1       3.443  -5.943  -1.764  1.00  0.00     0.040 A 
ATOM     68  F   UNL     1       1.398  -4.883  -2.053  1.00  0.00    -0.206 F 
ATOM     69  C   UNL     1       4.204  -7.054  -1.435  1.00  0.00     0.006 A 
ENDBRANCH  48  62
BRANCH  49  70
ATOM     70  C   UNL     1      -6.995  -6.126   3.761  1.00  0.00     0.057 A 
ATOM     71  C   UNL     1      -7.257  -5.506   5.003  1.00  0.00     0.134 A 
ATOM     72  C   UNL     1      -7.448  -5.447   2.625  1.00  0.00     0.134 A 
ATOM     73  F   UNL     1      -6.847  -6.084   6.145  1.00  0.00    -0.206 F 
ATOM     74  C   UNL     1      -7.847  -4.241   5.104  1.00  0.00     0.040 A 
ATOM     75  C   UNL     1      -8.057  -4.185   2.715  1.00  0.00     0.040 A 
ATOM     76  F   UNL     1      -7.251  -5.955   1.401  1.00  0.00    -0.206 F 
ATOM     77  C   UNL     1      -8.231  -3.565   3.953  1.00  0.00     0.006 A 
ENDBRANCH  49  70
BRANCH  61  78
ATOM     78  C   UNL     1      -4.249 -10.772  -1.075  1.00  0.00     0.057 A 
ATOM     79  C   UNL     1      -5.469 -10.977  -1.732  1.00  0.00     0.134 A 
ATOM     80  C   UNL     1      -3.138 -11.426  -1.656  1.00  0.00     0.134 A 
ATOM     81  F   UNL     1      -6.582 -10.325  -1.371  1.00  0.00    -0.206 F 
ATOM     82  C   UNL     1      -5.591 -11.822  -2.841  1.00  0.00     0.040 A 
ATOM     83  C   UNL     1      -3.238 -12.221  -2.799  1.00  0.00     0.040 A 
ATOM     84  F   UNL     1      -1.899 -11.300  -1.158  1.00  0.00    -0.206 F 
ATOM     85  C   UNL     1      -4.472 -12.437  -3.388  1.00  0.00     0.006 A 
ENDBRANCH  61  78
ENDBRANCH  35  36
ENDBRANCH  28  30
ENDBRANCH  27  28
ENDBRANCH  26  27
ENDBRANCH   1  26
TORSDOF 14
