REMARK SMILES CC1(C)S[C@H](c2ccc(-c3cccc([N+](=O)[O-])c3)o2)[NH2+][C@@H]1C(=O)OCCOC(=O)c1ccc(-c2c3nc(c(-c4c(F)cccc4F)c4ccc([nH]4)c(-c4c(F)cccc4F)c4nc(c(-c5c(F)cccc5F)c5ccc2[nH]5)C=C4)C=C3)cc1
REMARK SMILES IDX 25 1 24 2 22 3 23 4 21 5 1 6 2 7 3 8 4 9 5 10 20 11 6 14
REMARK SMILES IDX 7 15 19 16 8 17 9 18 10 19 11 20 18 21 12 22 14 23 13 24
REMARK SMILES IDX 15 25 16 26 17 27 26 28 27 29 28 30 29 31 30 32 31 33 83 34
REMARK SMILES IDX 32 35 82 36 33 37 34 38 35 39 76 40 36 41 81 42 75 43 77 44
REMARK SMILES IDX 37 45 80 46 74 47 73 48 38 50 64 51 47 52 63 53 48 54 51 55
REMARK SMILES IDX 62 56 78 57 49 58 50 59 61 61 79 62 52 63 39 64 40 65 45 66
REMARK SMILES IDX 41 67 42 68 44 69 46 70 43 71 65 72 66 73 71 74 67 75 68 76
REMARK SMILES IDX 70 77 72 78 69 79 53 80 54 81 59 82 55 83 56 84 58 85 60 86
REMARK SMILES IDX 57 87
REMARK H PARENT 20 12 20 13 77 49 51 60
REMARK Flexibility Score: inf
ROOT
ATOM      1  C   UNL     1      -0.958   1.956  -4.003  1.00  0.00     0.274 C 
ENDROOT
BRANCH   1   2
ATOM      2  O   UNL     1      -0.799   1.943  -2.579  1.00  0.00    -0.458 OA
BRANCH   2   3
ATOM      3  C   UNL     1      -0.247   0.809  -2.041  1.00  0.00     0.366 C 
ATOM      4  O   UNL     1       0.270  -0.084  -2.694  1.00  0.00    -0.245 OA
BRANCH   3   5
ATOM      5  C   UNL     1      -0.345   0.877  -0.503  1.00  0.00     0.310 C 
ATOM      6  C   UNL     1       0.723   0.311   1.727  1.00  0.00     0.030 C 
ATOM      7  C   UNL     1       0.302  -0.247   0.349  1.00  0.00     0.079 C 
ATOM      8  C   UNL     1       1.502  -0.999  -0.230  1.00  0.00     0.030 C 
ATOM      9  S   UNL     1      -1.058  -1.433   0.634  1.00  0.00    -0.078 SA
ATOM     10  C   UNL     1      -2.353  -0.346  -0.046  1.00  0.00     0.311 C 
ATOM     11  N   UNL     1      -1.780   1.004  -0.099  1.00  0.00    -0.316 N 
ATOM     12  H   UNL     1      -1.844   1.444   0.819  1.00  0.00     0.348 HD
ATOM     13  H   UNL     1      -2.289   1.580  -0.769  1.00  0.00     0.348 HD
BRANCH  10  14
ATOM     14  C   UNL     1      -2.904  -0.890  -1.338  1.00  0.00     0.172 A 
ATOM     15  C   UNL     1      -3.220  -2.182  -1.727  1.00  0.00     0.054 A 
ATOM     16  O   UNL     1      -3.264  -0.021  -2.344  1.00  0.00    -0.454 OA
ATOM     17  C   UNL     1      -3.774  -2.105  -3.022  1.00  0.00     0.051 A 
ATOM     18  C   UNL     1      -3.781  -0.772  -3.363  1.00  0.00     0.134 A 
BRANCH  18  19
ATOM     19  C   UNL     1      -4.233  -0.068  -4.550  1.00  0.00     0.024 A 
ATOM     20  C   UNL     1      -3.336   0.213  -5.590  1.00  0.00     0.012 A 
ATOM     21  C   UNL     1      -5.583   0.258  -4.713  1.00  0.00     0.097 A 
ATOM     22  C   UNL     1      -3.750   0.893  -6.739  1.00  0.00     0.008 A 
ATOM     23  C   UNL     1      -6.008   0.885  -5.895  1.00  0.00     0.270 A 
ATOM     24  C   UNL     1      -5.091   1.232  -6.897  1.00  0.00     0.085 A 
BRANCH  23  25
ATOM     25  N   UNL     1      -7.438   1.135  -6.111  1.00  0.00     0.062 N 
ATOM     26  O   UNL     1      -7.767   1.744  -7.139  1.00  0.00    -0.258 OA
ATOM     27  O   UNL     1      -8.233   0.704  -5.264  1.00  0.00    -0.258 OA
ENDBRANCH  23  25
ENDBRANCH  18  19
ENDBRANCH  10  14
ENDBRANCH   3   5
ENDBRANCH   2   3
ENDBRANCH   1   2
BRANCH   1  28
ATOM     28  C   UNL     1      -0.026   2.942  -4.702  1.00  0.00     0.275 C 
BRANCH  28  29
ATOM     29  O   UNL     1       1.347   2.631  -4.427  1.00  0.00    -0.458 OA
BRANCH  29  30
ATOM     30  C   UNL     1       1.826   3.224  -3.308  1.00  0.00     0.338 C 
ATOM     31  O   UNL     1       1.278   4.063  -2.616  1.00  0.00    -0.246 OA
BRANCH  30  32
ATOM     32  C   UNL     1       3.070   2.556  -2.904  1.00  0.00     0.060 A 
ATOM     33  C   UNL     1       3.150   2.114  -1.581  1.00  0.00     0.016 A 
ATOM     34  C   UNL     1       4.149   2.404  -3.776  1.00  0.00     0.016 A 
ATOM     35  C   UNL     1       4.308   1.505  -1.119  1.00  0.00     0.010 A 
ATOM     36  C   UNL     1       5.324   1.815  -3.304  1.00  0.00     0.010 A 
ATOM     37  C   UNL     1       5.407   1.370  -1.973  1.00  0.00    -0.014 A 
BRANCH  37  38
ATOM     38  C   UNL     1       6.687   0.897  -1.411  1.00  0.00     0.031 A 
ATOM     39  C   UNL     1       7.674   1.915  -0.929  1.00  0.00     0.074 A 
ATOM     40  C   UNL     1       6.931  -0.417  -1.276  1.00  0.00     0.049 A 
ATOM     41  N   UNL     1       8.883   1.743  -0.463  1.00  0.00    -0.248 NA
ATOM     42  C   UNL     1       7.232   3.319  -0.965  1.00  0.00     0.031 C 
ATOM     43  C   UNL     1       5.997  -1.490  -1.616  1.00  0.00     0.029 A 
ATOM     44  N   UNL     1       8.045  -1.069  -0.816  1.00  0.00    -0.354 N 
ATOM     45  C   UNL     1       9.350   3.014  -0.160  1.00  0.00     0.074 A 
ATOM     46  C   UNL     1       8.302   3.949  -0.503  1.00  0.00     0.031 C 
ATOM     47  C   UNL     1       6.589  -2.672  -1.371  1.00  0.00     0.029 A 
ATOM     48  C   UNL     1       7.953  -2.436  -0.903  1.00  0.00     0.049 A 
ATOM     49  H   UNL     1       8.835  -0.602  -0.458  1.00  0.00     0.167 HD
ATOM     50  C   UNL     1      10.552   3.365   0.354  1.00  0.00     0.037 A 
ATOM     51  C   UNL     1       8.884  -3.380  -0.669  1.00  0.00     0.037 A 
ATOM     52  C   UNL     1      11.593   2.425   0.673  1.00  0.00     0.049 A 
ATOM     53  C   UNL     1      10.258  -2.955  -0.216  1.00  0.00     0.074 A 
ATOM     54  C   UNL     1      12.858   2.676   1.173  1.00  0.00     0.029 A 
ATOM     55  N   UNL     1      11.491   1.051   0.510  1.00  0.00    -0.354 N 
ATOM     56  N   UNL     1      10.707  -1.751   0.050  1.00  0.00    -0.248 NA
ATOM     57  C   UNL     1      11.256  -4.018  -0.039  1.00  0.00     0.031 C 
ATOM     58  C   UNL     1      13.541   1.459   1.258  1.00  0.00     0.029 A 
ATOM     59  C   UNL     1      12.681   0.443   0.872  1.00  0.00     0.049 A 
ATOM     60  H   UNL     1      10.691   0.578   0.184  1.00  0.00     0.167 HD
ATOM     61  C   UNL     1      12.026  -1.915   0.455  1.00  0.00     0.074 A 
ATOM     62  C   UNL     1      12.301  -3.337   0.409  1.00  0.00     0.031 C 
ATOM     63  C   UNL     1      12.929  -0.977   0.831  1.00  0.00     0.037 A 
BRANCH  50  64
ATOM     64  C   UNL     1      10.816   4.828   0.540  1.00  0.00     0.057 A 
ATOM     65  C   UNL     1      10.183   5.580   1.538  1.00  0.00     0.134 A 
ATOM     66  C   UNL     1      11.723   5.494  -0.294  1.00  0.00     0.134 A 
ATOM     67  F   UNL     1       9.287   5.007   2.356  1.00  0.00    -0.206 F 
ATOM     68  C   UNL     1      10.425   6.948   1.684  1.00  0.00     0.040 A 
ATOM     69  C   UNL     1      11.993   6.854  -0.141  1.00  0.00     0.040 A 
ATOM     70  F   UNL     1      12.361   4.833  -1.272  1.00  0.00    -0.206 F 
ATOM     71  C   UNL     1      11.337   7.587   0.846  1.00  0.00     0.006 A 
ENDBRANCH  50  64
BRANCH  51  72
ATOM     72  C   UNL     1       8.575  -4.814  -0.905  1.00  0.00     0.057 A 
ATOM     73  C   UNL     1       8.545  -5.736   0.147  1.00  0.00     0.134 A 
ATOM     74  C   UNL     1       8.344  -5.305  -2.197  1.00  0.00     0.134 A 
ATOM     75  F   UNL     1       8.784  -5.334   1.404  1.00  0.00    -0.206 F 
ATOM     76  C   UNL     1       8.317  -7.096  -0.077  1.00  0.00     0.040 A 
ATOM     77  C   UNL     1       8.086  -6.656  -2.432  1.00  0.00     0.040 A 
ATOM     78  F   UNL     1       8.362  -4.476  -3.251  1.00  0.00    -0.206 F 
ATOM     79  C   UNL     1       8.083  -7.558  -1.371  1.00  0.00     0.006 A 
ENDBRANCH  51  72
BRANCH  63  80
ATOM     80  C   UNL     1      14.283  -1.456   1.270  1.00  0.00     0.057 A 
ATOM     81  C   UNL     1      15.221  -1.967   0.365  1.00  0.00     0.134 A 
ATOM     82  C   UNL     1      14.671  -1.353   2.613  1.00  0.00     0.134 A 
ATOM     83  F   UNL     1      14.910  -2.104  -0.933  1.00  0.00    -0.206 F 
ATOM     84  C   UNL     1      16.489  -2.377   0.783  1.00  0.00     0.040 A 
ATOM     85  C   UNL     1      15.945  -1.730   3.037  1.00  0.00     0.040 A 
ATOM     86  F   UNL     1      13.824  -0.862   3.531  1.00  0.00    -0.206 F 
ATOM     87  C   UNL     1      16.856  -2.250   2.121  1.00  0.00     0.006 A 
ENDBRANCH  63  80
ENDBRANCH  37  38
ENDBRANCH  30  32
ENDBRANCH  29  30
ENDBRANCH  28  29
ENDBRANCH   1  28
TORSDOF 14
