REMARK SMILES CS(=O)(=O)c1ccc(C2=NN(c3ccc(C(=O)OCCOC(=O)c4ccc(-c5c6nc(c(-c7c(F)cccc7F)c7ccc([nH]7)c(-c7c(F)cccc7F)c7nc(c(-c8c(F)cccc8F)c8ccc5[nH]8)C=C7)C=C6)cc4)cc3)[C@H](c3cccs3)C2)cc1
REMARK SMILES IDX 19 1 18 2 16 3 17 4 15 5 12 6 13 7 79 8 14 9 78 10 11 11
REMARK SMILES IDX 9 12 10 13 86 14 80 15 8 16 5 17 6 18 88 19 7 20 87 21 2 22
REMARK SMILES IDX 1 23 3 24 4 25 81 26 82 27 85 28 83 29 84 30 20 31 21 32
REMARK SMILES IDX 22 33 23 34 24 35 25 36 77 37 26 38 76 39 27 40 28 41 29 42
REMARK SMILES IDX 70 43 30 44 75 45 69 46 71 47 31 48 74 49 68 50 67 51 32 53
REMARK SMILES IDX 58 54 41 55 57 56 42 57 45 58 56 59 72 60 43 61 44 62 55 64
REMARK SMILES IDX 73 65 46 66 33 67 34 68 39 69 35 70 36 71 38 72 40 73 37 74
REMARK SMILES IDX 59 75 60 76 65 77 61 78 62 79 64 80 66 81 63 82 47 83 48 84
REMARK SMILES IDX 53 85 49 86 50 87 52 88 54 89 51 90
REMARK H PARENT 71 52 45 63
REMARK Flexibility Score: inf
ROOT
ATOM      1  C   UNL     1       8.994  12.716  -5.054  1.00  0.00     0.275 C 
ENDROOT
BRANCH   1   2
ATOM      2  O   UNL     1       8.206  11.773  -4.303  1.00  0.00    -0.458 OA
BRANCH   2   3
ATOM      3  C   UNL     1       6.874  11.784  -4.551  1.00  0.00     0.338 C 
ATOM      4  O   UNL     1       6.286  12.530  -5.320  1.00  0.00    -0.246 OA
BRANCH   3   5
ATOM      5  C   UNL     1       6.186  10.701  -3.806  1.00  0.00     0.060 A 
ATOM      6  C   UNL     1       4.737   8.745  -2.402  1.00  0.00     0.060 A 
ATOM      7  C   UNL     1       4.259   9.235  -3.619  1.00  0.00     0.029 A 
ATOM      8  C   UNL     1       5.971   9.208  -1.922  1.00  0.00     0.029 A 
ATOM      9  C   UNL     1       4.959  10.231  -4.297  1.00  0.00     0.018 A 
ATOM     10  C   UNL     1       6.702  10.173  -2.621  1.00  0.00     0.018 A 
BRANCH   6  11
ATOM     11  N   UNL     1       3.945   7.928  -1.597  1.00  0.00    -0.257 N 
ATOM     12  C   UNL     1       2.518   6.365  -1.391  1.00  0.00     0.071 C 
ATOM     13  N   UNL     1       3.623   6.674  -1.996  1.00  0.00    -0.176 NA
ATOM     14  C   UNL     1       1.873   7.467  -0.594  1.00  0.00     0.091 C 
ATOM     15  C   UNL     1       2.918   8.572  -0.767  1.00  0.00     0.154 C 
BRANCH  12  16
ATOM     16  C   UNL     1       1.938   5.011  -1.445  1.00  0.00    -0.002 A 
ATOM     17  C   UNL     1       0.946   2.412  -1.485  1.00  0.00     0.067 A 
ATOM     18  C   UNL     1       2.327   2.620  -1.456  1.00  0.00     0.021 A 
ATOM     19  C   UNL     1       0.058   3.493  -1.516  1.00  0.00     0.021 A 
ATOM     20  C   UNL     1       2.821   3.924  -1.439  1.00  0.00     0.011 A 
ATOM     21  C   UNL     1       0.556   4.800  -1.486  1.00  0.00     0.011 A 
BRANCH  17  22
ATOM     22  S   UNL     1       0.328   0.745  -1.506  1.00  0.00     0.175 S 
ATOM     23  C   UNL     1       0.889   0.060   0.032  1.00  0.00     0.163 C 
ATOM     24  O   UNL     1       1.005   0.057  -2.587  1.00  0.00    -0.224 OA
ATOM     25  O   UNL     1      -1.120   0.812  -1.448  1.00  0.00    -0.224 OA
ENDBRANCH  17  22
ENDBRANCH  12  16
BRANCH  15  26
ATOM     26  C   UNL     1       3.479   9.197   0.492  1.00  0.00     0.030 A 
ATOM     27  C   UNL     1       3.957  10.494   0.612  1.00  0.00     0.017 A 
ATOM     28  S   UNL     1       3.761   8.308   1.929  1.00  0.00    -0.147 S 
ATOM     29  C   UNL     1       4.576  10.739   1.869  1.00  0.00     0.012 A 
ATOM     30  C   UNL     1       4.522   9.636   2.688  1.00  0.00     0.065 A 
ENDBRANCH  15  26
ENDBRANCH   6  11
ENDBRANCH   3   5
ENDBRANCH   2   3
ENDBRANCH   1   2
BRANCH   1  31
ATOM     31  C   UNL     1       9.690  12.029  -6.228  1.00  0.00     0.275 C 
BRANCH  31  32
ATOM     32  O   UNL     1       8.717  11.579  -7.189  1.00  0.00    -0.458 OA
BRANCH  32  33
ATOM     33  C   UNL     1       8.584  10.238  -7.303  1.00  0.00     0.338 C 
ATOM     34  O   UNL     1       9.225   9.371  -6.737  1.00  0.00    -0.246 OA
BRANCH  33  35
ATOM     35  C   UNL     1       7.487   9.936  -8.233  1.00  0.00     0.060 A 
ATOM     36  C   UNL     1       6.174  10.081  -7.794  1.00  0.00     0.016 A 
ATOM     37  C   UNL     1       7.751   9.386  -9.485  1.00  0.00     0.016 A 
ATOM     38  C   UNL     1       5.116   9.614  -8.569  1.00  0.00     0.010 A 
ATOM     39  C   UNL     1       6.684   8.989 -10.298  1.00  0.00     0.010 A 
ATOM     40  C   UNL     1       5.355   9.070  -9.836  1.00  0.00    -0.014 A 
BRANCH  40  41
ATOM     41  C   UNL     1       4.233   8.539 -10.659  1.00  0.00     0.031 A 
ATOM     42  C   UNL     1       4.223   7.090 -11.069  1.00  0.00     0.074 A 
ATOM     43  C   UNL     1       3.220   9.342 -11.042  1.00  0.00     0.049 A 
ATOM     44  N   UNL     1       3.470   6.483 -11.951  1.00  0.00    -0.248 NA
ATOM     45  C   UNL     1       5.201   6.212 -10.408  1.00  0.00     0.031 C 
ATOM     46  C   UNL     1       3.065  10.749 -10.673  1.00  0.00     0.029 A 
ATOM     47  N   UNL     1       2.127   9.085 -11.834  1.00  0.00    -0.354 N 
ATOM     48  C   UNL     1       3.924   5.170 -11.996  1.00  0.00     0.074 A 
ATOM     49  C   UNL     1       5.015   5.068 -11.051  1.00  0.00     0.031 C 
ATOM     50  C   UNL     1       1.935  11.226 -11.218  1.00  0.00     0.029 A 
ATOM     51  C   UNL     1       1.331  10.186 -12.044  1.00  0.00     0.049 A 
ATOM     52  H   UNL     1       1.933   8.198 -12.215  1.00  0.00     0.167 HD
ATOM     53  C   UNL     1       3.473   4.147 -12.760  1.00  0.00     0.037 A 
ATOM     54  C   UNL     1       0.265  10.358 -12.849  1.00  0.00     0.037 A 
ATOM     55  C   UNL     1       2.346   4.236 -13.653  1.00  0.00     0.049 A 
ATOM     56  C   UNL     1      -0.200   9.218 -13.710  1.00  0.00     0.074 A 
ATOM     57  C   UNL     1       1.800   3.248 -14.454  1.00  0.00     0.029 A 
ATOM     58  N   UNL     1       1.581   5.376 -13.845  1.00  0.00    -0.354 N 
ATOM     59  N   UNL     1       0.275   7.999 -13.792  1.00  0.00    -0.248 NA
ATOM     60  C   UNL     1      -1.335   9.483 -14.605  1.00  0.00     0.031 C 
ATOM     61  C   UNL     1       0.723   3.800 -15.156  1.00  0.00     0.029 A 
ATOM     62  C   UNL     1       0.574   5.119 -14.761  1.00  0.00     0.049 A 
ATOM     63  H   UNL     1       1.731   6.239 -13.397  1.00  0.00     0.167 HD
ATOM     64  C   UNL     1      -0.509   7.349 -14.736  1.00  0.00     0.074 A 
ATOM     65  C   UNL     1      -1.501   8.303 -15.187  1.00  0.00     0.031 C 
ATOM     66  C   UNL     1      -0.411   6.077 -15.191  1.00  0.00     0.037 A 
BRANCH  53  67
ATOM     67  C   UNL     1       4.220   2.847 -12.693  1.00  0.00     0.057 A 
ATOM     68  C   UNL     1       4.130   1.989 -11.591  1.00  0.00     0.134 A 
ATOM     69  C   UNL     1       5.012   2.433 -13.773  1.00  0.00     0.134 A 
ATOM     70  F   UNL     1       3.399   2.332 -10.521  1.00  0.00    -0.206 F 
ATOM     71  C   UNL     1       4.819   0.775 -11.555  1.00  0.00     0.040 A 
ATOM     72  C   UNL     1       5.686   1.210 -13.759  1.00  0.00     0.040 A 
ATOM     73  F   UNL     1       5.135   3.204 -14.863  1.00  0.00    -0.206 F 
ATOM     74  C   UNL     1       5.594   0.380 -12.644  1.00  0.00     0.006 A 
ENDBRANCH  53  67
BRANCH  54  75
ATOM     75  C   UNL     1      -0.404  11.682 -12.914  1.00  0.00     0.057 A 
ATOM     76  C   UNL     1      -1.690  11.869 -12.397  1.00  0.00     0.134 A 
ATOM     77  C   UNL     1       0.230  12.792 -13.487  1.00  0.00     0.134 A 
ATOM     78  F   UNL     1      -2.358  10.838 -11.859  1.00  0.00    -0.206 F 
ATOM     79  C   UNL     1      -2.325  13.111 -12.451  1.00  0.00     0.040 A 
ATOM     80  C   UNL     1      -0.382  14.045 -13.524  1.00  0.00     0.040 A 
ATOM     81  F   UNL     1       1.464  12.677 -14.001  1.00  0.00    -0.206 F 
ATOM     82  C   UNL     1      -1.666  14.206 -13.008  1.00  0.00     0.006 A 
ENDBRANCH  54  75
BRANCH  66  83
ATOM     83  C   UNL     1      -1.424   5.632 -16.203  1.00  0.00     0.057 A 
ATOM     84  C   UNL     1      -1.355   6.037 -17.541  1.00  0.00     0.134 A 
ATOM     85  C   UNL     1      -2.454   4.755 -15.841  1.00  0.00     0.134 A 
ATOM     86  F   UNL     1      -0.401   6.888 -17.946  1.00  0.00    -0.206 F 
ATOM     87  C   UNL     1      -2.286   5.596 -18.483  1.00  0.00     0.040 A 
ATOM     88  C   UNL     1      -3.377   4.291 -16.777  1.00  0.00     0.040 A 
ATOM     89  F   UNL     1      -2.570   4.326 -14.575  1.00  0.00    -0.206 F 
ATOM     90  C   UNL     1      -3.297   4.715 -18.102  1.00  0.00     0.006 A 
ENDBRANCH  66  83
ENDBRANCH  40  41
ENDBRANCH  33  35
ENDBRANCH  32  33
ENDBRANCH  31  32
ENDBRANCH   1  31
TORSDOF 15
