REMARK SMILES [NH3+][C@@]1(C(=O)OCCOC(=O)c2ccc(-c3c4nc(c(-c5c(F)cccc5F)c5ccc([nH]5)c(-c5c(F)cccc5F)c5nc(c(-c6c(F)cccc6F)c6ccc3[nH]6)C=C5)C=C4)cc2)CC[N@H+](Cc2ccc(OCC(=O)N3CCCCC3)cc2)C1
REMARK SMILES IDX 5 1 3 2 4 3 2 4 65 5 85 6 66 7 67 8 1 10 68 14 69 15 70 16
REMARK SMILES IDX 84 17 71 18 83 19 72 20 73 21 74 22 75 23 76 24 77 25 78 26
REMARK SMILES IDX 82 27 79 28 81 29 80 30 6 31 7 32 8 33 9 34 10 35 11 36
REMARK SMILES IDX 12 37 64 38 13 39 63 40 14 41 15 42 16 43 57 44 17 45 62 46
REMARK SMILES IDX 56 47 58 48 18 49 61 50 55 51 54 52 19 54 45 55 28 56 44 57
REMARK SMILES IDX 29 58 32 59 43 60 59 61 30 62 31 63 42 65 60 66 33 67 20 68
REMARK SMILES IDX 21 69 26 70 22 71 23 72 25 73 27 74 24 75 46 76 47 77 52 78
REMARK SMILES IDX 48 79 49 80 51 81 53 82 50 83 34 84 35 85 40 86 36 87 37 88
REMARK SMILES IDX 39 89 41 90 38 91
REMARK H PARENT 67 9 1 11 1 12 1 13 58 53 32 64
REMARK Flexibility Score: inf
ROOT
ATOM      1  O   UNL     1       0.490   2.002  -1.851  1.00  0.00    -0.457 OA
ENDROOT
BRANCH   1   2
ATOM      2  C   UNL     1      -0.085   1.414  -0.774  1.00  0.00     0.374 C 
ATOM      3  O   UNL     1      -0.817   0.430  -0.827  1.00  0.00    -0.244 OA
BRANCH   2   4
ATOM      4  C   UNL     1       0.437   2.025   0.547  1.00  0.00     0.246 C 
ATOM      5  C   UNL     1      -0.728   2.362   1.471  1.00  0.00     0.148 C 
ATOM      6  C   UNL     1       1.093   3.402   0.330  1.00  0.00     0.344 C 
ATOM      7  C   UNL     1      -1.181   3.731   0.984  1.00  0.00     0.270 C 
ATOM      8  N   UNL     1       0.007   4.378   0.448  1.00  0.00    -0.325 N 
ATOM      9  H   UNL     1       0.297   5.062   1.147  1.00  0.00     0.348 HD
BRANCH   4  10
ATOM     10  N   UNL     1       1.310   1.029   1.217  1.00  0.00    -0.338 N 
ATOM     11  H   UNL     1       0.805   0.150   1.322  1.00  0.00     0.345 HD
ATOM     12  H   UNL     1       1.581   1.378   2.136  1.00  0.00     0.345 HD
ATOM     13  H   UNL     1       2.146   0.875   0.652  1.00  0.00     0.345 HD
ENDBRANCH   4  10
BRANCH   8  14
ATOM     14  C   UNL     1      -0.137   5.404  -0.587  1.00  0.00     0.299 C 
BRANCH  14  15
ATOM     15  C   UNL     1      -0.718   5.007  -1.938  1.00  0.00     0.006 A 
ATOM     16  C   UNL     1       0.067   5.061  -3.098  1.00  0.00     0.013 A 
ATOM     17  C   UNL     1      -2.057   4.617  -2.094  1.00  0.00     0.013 A 
ATOM     18  C   UNL     1      -0.427   4.582  -4.320  1.00  0.00     0.047 A 
ATOM     19  C   UNL     1      -2.533   4.077  -3.301  1.00  0.00     0.047 A 
ATOM     20  C   UNL     1      -1.685   3.977  -4.396  1.00  0.00     0.120 A 
BRANCH  20  21
ATOM     21  O   UNL     1      -1.889   3.230  -5.525  1.00  0.00    -0.484 OA
BRANCH  21  22
ATOM     22  C   UNL     1      -2.973   2.320  -5.575  1.00  0.00     0.329 C 
BRANCH  22  23
ATOM     23  C   UNL     1      -3.105   1.064  -4.665  1.00  0.00     0.260 C 
ATOM     24  O   UNL     1      -3.890   1.104  -3.711  1.00  0.00    -0.271 OA
ATOM     25  N   UNL     1      -2.443  -0.117  -5.004  1.00  0.00    -0.340 N 
ATOM     26  C   UNL     1      -2.982  -1.381  -4.500  1.00  0.00     0.119 C 
ATOM     27  C   UNL     1      -1.321  -0.253  -5.932  1.00  0.00     0.119 C 
ATOM     28  C   UNL     1      -1.913  -2.212  -3.808  1.00  0.00     0.022 C 
ATOM     29  C   UNL     1      -0.238  -1.220  -5.418  1.00  0.00     0.022 C 
ATOM     30  C   UNL     1      -0.761  -2.497  -4.764  1.00  0.00     0.004 C 
ENDBRANCH  22  23
ENDBRANCH  21  22
ENDBRANCH  20  21
ENDBRANCH  14  15
ENDBRANCH   8  14
ENDBRANCH   2   4
ENDBRANCH   1   2
BRANCH   1  31
ATOM     31  C   UNL     1       0.168   1.463  -3.131  1.00  0.00     0.274 C 
BRANCH  31  32
ATOM     32  C   UNL     1       1.301   1.796  -4.115  1.00  0.00     0.275 C 
BRANCH  32  33
ATOM     33  O   UNL     1       2.227   0.695  -4.153  1.00  0.00    -0.458 OA
BRANCH  33  34
ATOM     34  C   UNL     1       2.954   0.588  -3.022  1.00  0.00     0.338 C 
ATOM     35  O   UNL     1       3.273   1.480  -2.255  1.00  0.00    -0.246 OA
BRANCH  34  36
ATOM     36  C   UNL     1       2.998  -0.832  -2.653  1.00  0.00     0.060 A 
ATOM     37  C   UNL     1       2.419  -1.154  -1.427  1.00  0.00     0.016 A 
ATOM     38  C   UNL     1       3.621  -1.807  -3.424  1.00  0.00     0.016 A 
ATOM     39  C   UNL     1       2.590  -2.410  -0.880  1.00  0.00     0.010 A 
ATOM     40  C   UNL     1       3.750  -3.096  -2.897  1.00  0.00     0.010 A 
ATOM     41  C   UNL     1       3.295  -3.382  -1.593  1.00  0.00    -0.014 A 
BRANCH  41  42
ATOM     42  C   UNL     1       3.687  -4.620  -0.881  1.00  0.00     0.031 A 
ATOM     43  C   UNL     1       5.139  -4.845  -0.556  1.00  0.00     0.074 A 
ATOM     44  C   UNL     1       2.745  -5.462  -0.417  1.00  0.00     0.049 A 
ATOM     45  N   UNL     1       5.712  -5.870   0.020  1.00  0.00    -0.248 NA
ATOM     46  C   UNL     1       6.074  -3.773  -0.936  1.00  0.00     0.031 C 
ATOM     47  C   UNL     1       1.300  -5.294  -0.592  1.00  0.00     0.029 A 
ATOM     48  N   UNL     1       2.861  -6.608   0.325  1.00  0.00    -0.354 N 
ATOM     49  C   UNL     1       7.072  -5.584   0.032  1.00  0.00     0.074 A 
ATOM     50  C   UNL     1       7.244  -4.301  -0.612  1.00  0.00     0.031 C 
ATOM     51  C   UNL     1       0.664  -6.283   0.056  1.00  0.00     0.029 A 
ATOM     52  C   UNL     1       1.654  -7.188   0.629  1.00  0.00     0.049 A 
ATOM     53  H   UNL     1       3.726  -6.980   0.613  1.00  0.00     0.167 HD
ATOM     54  C   UNL     1       8.085  -6.324   0.541  1.00  0.00     0.037 A 
ATOM     55  C   UNL     1       1.382  -8.338   1.274  1.00  0.00     0.037 A 
ATOM     56  C   UNL     1       7.896  -7.580   1.218  1.00  0.00     0.049 A 
ATOM     57  C   UNL     1       2.527  -9.165   1.786  1.00  0.00     0.074 A 
ATOM     58  C   UNL     1       8.849  -8.422   1.762  1.00  0.00     0.029 A 
ATOM     59  N   UNL     1       6.660  -8.166   1.456  1.00  0.00    -0.354 N 
ATOM     60  N   UNL     1       3.815  -8.917   1.738  1.00  0.00    -0.248 NA
ATOM     61  C   UNL     1       2.183 -10.438   2.432  1.00  0.00     0.031 C 
ATOM     62  C   UNL     1       8.192  -9.539   2.290  1.00  0.00     0.029 A 
ATOM     63  C   UNL     1       6.827  -9.368   2.123  1.00  0.00     0.049 A 
ATOM     64  H   UNL     1       5.793  -7.784   1.189  1.00  0.00     0.167 HD
ATOM     65  C   UNL     1       4.433  -9.993   2.360  1.00  0.00     0.074 A 
ATOM     66  C   UNL     1       3.376 -10.880   2.802  1.00  0.00     0.031 C 
ATOM     67  C   UNL     1       5.755 -10.234   2.545  1.00  0.00     0.037 A 
BRANCH  54  68
ATOM     68  C   UNL     1       9.483  -5.813   0.339  1.00  0.00     0.057 A 
ATOM     69  C   UNL     1       9.978  -4.690   1.015  1.00  0.00     0.134 A 
ATOM     70  C   UNL     1      10.350  -6.462  -0.551  1.00  0.00     0.134 A 
ATOM     71  F   UNL     1       9.195  -4.007   1.864  1.00  0.00    -0.206 F 
ATOM     72  C   UNL     1      11.273  -4.215   0.793  1.00  0.00     0.040 A 
ATOM     73  C   UNL     1      11.655  -6.014  -0.760  1.00  0.00     0.040 A 
ATOM     74  F   UNL     1       9.942  -7.543  -1.232  1.00  0.00    -0.206 F 
ATOM     75  C   UNL     1      12.118  -4.882  -0.093  1.00  0.00     0.006 A 
ENDBRANCH  54  68
BRANCH  55  76
ATOM     76  C   UNL     1      -0.025  -8.787   1.437  1.00  0.00     0.057 A 
ATOM     77  C   UNL     1      -0.624  -8.868   2.699  1.00  0.00     0.134 A 
ATOM     78  C   UNL     1      -0.802  -9.159   0.332  1.00  0.00     0.134 A 
ATOM     79  F   UNL     1       0.073  -8.549   3.800  1.00  0.00    -0.206 F 
ATOM     80  C   UNL     1      -1.937  -9.316   2.858  1.00  0.00     0.040 A 
ATOM     81  C   UNL     1      -2.125  -9.578   0.473  1.00  0.00     0.040 A 
ATOM     82  F   UNL     1      -0.289  -9.103  -0.906  1.00  0.00    -0.206 F 
ATOM     83  C   UNL     1      -2.694  -9.665   1.741  1.00  0.00     0.006 A 
ENDBRANCH  55  76
BRANCH  67  84
ATOM     84  C   UNL     1       6.114 -11.493   3.278  1.00  0.00     0.057 A 
ATOM     85  C   UNL     1       5.949 -12.758   2.698  1.00  0.00     0.134 A 
ATOM     86  C   UNL     1       6.631 -11.438   4.578  1.00  0.00     0.134 A 
ATOM     87  F   UNL     1       5.447 -12.879   1.460  1.00  0.00    -0.206 F 
ATOM     88  C   UNL     1       6.249 -13.925   3.402  1.00  0.00     0.040 A 
ATOM     89  C   UNL     1       6.963 -12.597   5.280  1.00  0.00     0.040 A 
ATOM     90  F   UNL     1       6.824 -10.258   5.186  1.00  0.00    -0.206 F 
ATOM     91  C   UNL     1       6.761 -13.846   4.695  1.00  0.00     0.006 A 
ENDBRANCH  67  84
ENDBRANCH  41  42
ENDBRANCH  34  36
ENDBRANCH  33  34
ENDBRANCH  32  33
ENDBRANCH  31  32
ENDBRANCH   1  31
TORSDOF 17
