REMARK SMILES C=CCN(CC(=O)OCCOC(=O)c1ccc(-c2c3nc(c(-c4c(F)cccc4F)c4ccc([nH]4)c(-c4c(F)cccc4F)c4nc(c(-c5c(F)cccc5F)c5ccc2[nH]5)C=C4)C=C3)cc1)C(=O)NC[C@@H]1CCC(=O)N1
REMARK SMILES IDX 9 1 8 2 6 3 7 4 5 5 4 6 3 7 2 8 1 9 68 10 69 11 70 12 71 14
REMARK SMILES IDX 72 15 73 16 77 17 74 18 75 19 76 21 10 22 11 23 12 24 13 25
REMARK SMILES IDX 14 26 15 27 67 28 16 29 66 30 17 31 18 32 19 33 60 34 20 35
REMARK SMILES IDX 65 36 59 37 61 38 21 39 64 40 58 41 57 42 22 44 48 45 31 46
REMARK SMILES IDX 47 47 32 48 35 49 46 50 62 51 33 52 34 53 45 55 63 56 36 57
REMARK SMILES IDX 23 58 24 59 29 60 25 61 26 62 28 63 30 64 27 65 49 66 50 67
REMARK SMILES IDX 55 68 51 69 52 70 54 71 56 72 53 73 37 74 38 75 43 76 39 77
REMARK SMILES IDX 40 78 42 79 44 80 41 81
REMARK H PARENT 70 13 77 20 61 43 35 54
REMARK Flexibility Score: inf
ROOT
ATOM      1  C   UNL     1      -5.589   1.157  -2.071  1.00  0.00     0.274 C 
ENDROOT
BRANCH   1   2
ATOM      2  O   UNL     1      -4.298   0.938  -1.475  1.00  0.00    -0.461 OA
BRANCH   2   3
ATOM      3  C   UNL     1      -3.279   0.875  -2.368  1.00  0.00     0.325 C 
ATOM      4  O   UNL     1      -3.425   0.671  -3.571  1.00  0.00    -0.250 OA
BRANCH   3   5
ATOM      5  C   UNL     1      -1.923   1.165  -1.741  1.00  0.00     0.244 C 
BRANCH   5   6
ATOM      6  N   UNL     1      -1.786   1.441  -0.289  1.00  0.00    -0.310 N 
BRANCH   6   7
ATOM      7  C   UNL     1      -0.932   0.485   0.407  1.00  0.00     0.149 C 
BRANCH   7   8
ATOM      8  C   UNL     1       0.466   0.440  -0.162  1.00  0.00    -0.013 C 
ATOM      9  C   UNL     1       1.520  -0.079   0.480  1.00  0.00     0.006 C 
ENDBRANCH   7   8
ENDBRANCH   6   7
BRANCH   6  10
ATOM     10  C   UNL     1      -1.758   2.765   0.170  1.00  0.00     0.318 C 
ATOM     11  O   UNL     1      -0.714   3.329   0.488  1.00  0.00    -0.249 OA
ATOM     12  N   UNL     1      -2.995   3.385   0.302  1.00  0.00    -0.336 N 
ATOM     13  H   UNL     1      -3.815   2.846   0.384  1.00  0.00     0.165 HD
BRANCH  12  14
ATOM     14  C   UNL     1      -3.068   4.854   0.316  1.00  0.00     0.142 C 
BRANCH  14  15
ATOM     15  C   UNL     1      -4.408   5.617   0.582  1.00  0.00     0.101 C 
ATOM     16  C   UNL     1      -5.601   5.377  -0.341  1.00  0.00     0.036 C 
ATOM     17  N   UNL     1      -4.218   7.050   0.418  1.00  0.00    -0.352 N 
ATOM     18  C   UNL     1      -6.343   6.708  -0.476  1.00  0.00     0.102 C 
ATOM     19  C   UNL     1      -5.276   7.709  -0.161  1.00  0.00     0.220 C 
ATOM     20  H   UNL     1      -3.395   7.511   0.700  1.00  0.00     0.163 HD
ATOM     21  O   UNL     1      -5.336   8.912  -0.364  1.00  0.00    -0.275 OA
ENDBRANCH  14  15
ENDBRANCH  12  14
ENDBRANCH   6  10
ENDBRANCH   5   6
ENDBRANCH   3   5
ENDBRANCH   2   3
ENDBRANCH   1   2
BRANCH   1  22
ATOM     22  C   UNL     1      -5.843   2.663  -2.182  1.00  0.00     0.275 C 
BRANCH  22  23
ATOM     23  O   UNL     1      -5.284   3.377  -3.324  1.00  0.00    -0.458 OA
BRANCH  23  24
ATOM     24  C   UNL     1      -4.011   3.789  -3.160  1.00  0.00     0.338 C 
ATOM     25  O   UNL     1      -3.273   3.423  -2.255  1.00  0.00    -0.246 OA
BRANCH  24  26
ATOM     26  C   UNL     1      -3.470   4.888  -3.947  1.00  0.00     0.060 A 
ATOM     27  C   UNL     1      -2.400   4.620  -4.808  1.00  0.00     0.016 A 
ATOM     28  C   UNL     1      -3.649   6.176  -3.430  1.00  0.00     0.016 A 
ATOM     29  C   UNL     1      -1.538   5.656  -5.183  1.00  0.00     0.010 A 
ATOM     30  C   UNL     1      -2.782   7.201  -3.781  1.00  0.00     0.010 A 
ATOM     31  C   UNL     1      -1.738   6.955  -4.680  1.00  0.00    -0.014 A 
BRANCH  31  32
ATOM     32  C   UNL     1      -1.106   8.142  -5.294  1.00  0.00     0.031 A 
ATOM     33  C   UNL     1      -0.116   9.004  -4.573  1.00  0.00     0.074 A 
ATOM     34  C   UNL     1      -1.696   8.560  -6.429  1.00  0.00     0.049 A 
ATOM     35  N   UNL     1       0.381  10.159  -4.940  1.00  0.00    -0.248 NA
ATOM     36  C   UNL     1       0.352   8.538  -3.260  1.00  0.00     0.031 C 
ATOM     37  C   UNL     1      -2.790   7.852  -7.107  1.00  0.00     0.029 A 
ATOM     38  N   UNL     1      -1.533   9.700  -7.162  1.00  0.00    -0.354 N 
ATOM     39  C   UNL     1       1.211  10.568  -3.903  1.00  0.00     0.074 A 
ATOM     40  C   UNL     1       1.129   9.547  -2.878  1.00  0.00     0.031 C 
ATOM     41  C   UNL     1      -3.227   8.594  -8.130  1.00  0.00     0.029 A 
ATOM     42  C   UNL     1      -2.445   9.820  -8.180  1.00  0.00     0.049 A 
ATOM     43  H   UNL     1      -0.832  10.367  -6.980  1.00  0.00     0.167 HD
ATOM     44  C   UNL     1       1.968  11.692  -3.833  1.00  0.00     0.037 A 
ATOM     45  C   UNL     1      -2.639  10.811  -9.063  1.00  0.00     0.037 A 
ATOM     46  C   UNL     1       2.016  12.689  -4.878  1.00  0.00     0.049 A 
ATOM     47  C   UNL     1      -1.720  11.985  -9.024  1.00  0.00     0.074 A 
ATOM     48  C   UNL     1       2.842  13.796  -4.983  1.00  0.00     0.029 A 
ATOM     49  N   UNL     1       1.185  12.707  -5.991  1.00  0.00    -0.354 N 
ATOM     50  N   UNL     1      -0.811  12.283  -8.129  1.00  0.00    -0.248 NA
ATOM     51  C   UNL     1      -1.816  12.935 -10.136  1.00  0.00     0.031 C 
ATOM     52  C   UNL     1       2.485  14.502  -6.137  1.00  0.00     0.029 A 
ATOM     53  C   UNL     1       1.470  13.811  -6.779  1.00  0.00     0.049 A 
ATOM     54  H   UNL     1       0.495  12.035  -6.190  1.00  0.00     0.167 HD
ATOM     55  C   UNL     1      -0.196  13.436  -8.586  1.00  0.00     0.074 A 
ATOM     56  C   UNL     1      -0.840  13.782  -9.839  1.00  0.00     0.031 C 
ATOM     57  C   UNL     1       0.819  14.135  -8.023  1.00  0.00     0.037 A 
BRANCH  44  58
ATOM     58  C   UNL     1       2.825  11.908  -2.615  1.00  0.00     0.057 A 
ATOM     59  C   UNL     1       3.940  11.103  -2.345  1.00  0.00     0.134 A 
ATOM     60  C   UNL     1       2.600  12.993  -1.755  1.00  0.00     0.134 A 
ATOM     61  F   UNL     1       4.225  10.052  -3.130  1.00  0.00    -0.206 F 
ATOM     62  C   UNL     1       4.785  11.354  -1.260  1.00  0.00     0.040 A 
ATOM     63  C   UNL     1       3.451  13.270  -0.681  1.00  0.00     0.040 A 
ATOM     64  F   UNL     1       1.564  13.821  -1.958  1.00  0.00    -0.206 F 
ATOM     65  C   UNL     1       4.546  12.447  -0.429  1.00  0.00     0.006 A 
ENDBRANCH  44  58
BRANCH  45  66
ATOM     66  C   UNL     1      -3.672  10.637 -10.107  1.00  0.00     0.057 A 
ATOM     67  C   UNL     1      -3.309  10.223 -11.392  1.00  0.00     0.134 A 
ATOM     68  C   UNL     1      -5.037  10.746  -9.817  1.00  0.00     0.134 A 
ATOM     69  F   UNL     1      -2.015  10.087 -11.715  1.00  0.00    -0.206 F 
ATOM     70  C   UNL     1      -4.268   9.930 -12.360  1.00  0.00     0.040 A 
ATOM     71  C   UNL     1      -6.007  10.440 -10.772  1.00  0.00     0.040 A 
ATOM     72  F   UNL     1      -5.444  11.098  -8.589  1.00  0.00    -0.206 F 
ATOM     73  C   UNL     1      -5.622  10.031 -12.048  1.00  0.00     0.006 A 
ENDBRANCH  45  66
BRANCH  57  74
ATOM     74  C   UNL     1       1.319  15.321  -8.786  1.00  0.00     0.057 A 
ATOM     75  C   UNL     1       0.597  16.518  -8.848  1.00  0.00     0.134 A 
ATOM     76  C   UNL     1       2.554  15.269  -9.444  1.00  0.00     0.134 A 
ATOM     77  F   UNL     1      -0.601  16.622  -8.253  1.00  0.00    -0.206 F 
ATOM     78  C   UNL     1       1.079  17.620  -9.555  1.00  0.00     0.040 A 
ATOM     79  C   UNL     1       3.056  16.370 -10.135  1.00  0.00     0.040 A 
ATOM     80  F   UNL     1       3.293  14.149  -9.420  1.00  0.00    -0.206 F 
ATOM     81  C   UNL     1       2.315  17.549 -10.196  1.00  0.00     0.006 A 
ENDBRANCH  57  74
ENDBRANCH  31  32
ENDBRANCH  24  26
ENDBRANCH  23  24
ENDBRANCH  22  23
ENDBRANCH   1  22
TORSDOF 17
