REMARK SMILES CS(=O)(=O)c1ccc(/C=C(/C(=O)OCCOC(=O)c2ccc(-c3c4nc(c(-c5c(F)cccc5F)c5ccc([nH]5)c(-c5c(F)cccc5F)c5nc(c(-c6c(F)cccc6F)c6ccc3[nH]6)C=C5)C=C4)cc2)c2cccc(-c3ccc(S(C)(=O)=O)cc3)c2)cc1
REMARK SMILES IDX 14 1 13 2 11 3 12 4 10 5 9 6 8 7 5 8 6 9 90 10 7 11 89 12
REMARK SMILES IDX 2 13 1 14 3 15 4 16 73 17 74 18 88 19 75 20 77 21 76 22
REMARK SMILES IDX 78 23 79 24 87 25 80 26 86 27 81 28 82 29 83 30 84 31 85 32
REMARK SMILES IDX 15 33 16 34 17 35 18 36 19 37 20 38 72 39 21 40 71 41 22 42
REMARK SMILES IDX 23 43 24 44 65 45 25 46 70 47 64 48 66 49 26 50 69 51 63 52
REMARK SMILES IDX 62 53 27 55 53 56 36 57 52 58 37 59 40 60 51 61 67 62 38 63
REMARK SMILES IDX 39 64 50 66 68 67 41 68 28 69 29 70 34 71 30 72 31 73 33 74
REMARK SMILES IDX 35 75 32 76 54 77 55 78 60 79 56 80 57 81 59 82 61 83 58 84
REMARK SMILES IDX 42 85 43 86 48 87 44 88 45 89 47 90 49 91 46 92
REMARK H PARENT 66 54 40 65
REMARK Flexibility Score: inf
ROOT
ATOM      1  C   UNL     1       2.839   5.906  -8.825  1.00  0.00     0.275 C 
ENDROOT
BRANCH   1   2
ATOM      2  O   UNL     1       2.824   5.030  -7.678  1.00  0.00    -0.458 OA
BRANCH   2   3
ATOM      3  C   UNL     1       2.557   3.726  -7.946  1.00  0.00     0.338 C 
ATOM      4  O   UNL     1       2.298   3.263  -9.049  1.00  0.00    -0.246 OA
BRANCH   3   5
ATOM      5  C   UNL     1       2.652   2.876  -6.723  1.00  0.00     0.067 C 
ATOM      6  C   UNL     1       2.040   3.300  -5.593  1.00  0.00     0.024 C 
BRANCH   6   7
ATOM      7  C   UNL     1       1.734   2.494  -4.386  1.00  0.00    -0.025 A 
ATOM      8  C   UNL     1       0.823   0.748  -2.390  1.00  0.00     0.067 A 
ATOM      9  C   UNL     1       2.098   0.581  -2.922  1.00  0.00     0.021 A 
ATOM     10  C   UNL     1       0.026   1.822  -2.783  1.00  0.00     0.021 A 
ATOM     11  C   UNL     1       2.563   1.484  -3.879  1.00  0.00     0.009 A 
ATOM     12  C   UNL     1       0.484   2.690  -3.779  1.00  0.00     0.009 A 
BRANCH   8  13
ATOM     13  S   UNL     1       0.192  -0.479  -1.274  1.00  0.00     0.175 S 
ATOM     14  C   UNL     1       0.942  -0.046   0.271  1.00  0.00     0.163 C 
ATOM     15  O   UNL     1       0.722  -1.758  -1.692  1.00  0.00    -0.224 OA
ATOM     16  O   UNL     1      -1.241  -0.264  -1.150  1.00  0.00    -0.224 OA
ENDBRANCH   8  13
ENDBRANCH   6   7
BRANCH   5  17
ATOM     17  C   UNL     1       3.260   1.538  -6.851  1.00  0.00    -0.010 A 
ATOM     18  C   UNL     1       4.641   1.397  -6.651  1.00  0.00     0.009 A 
ATOM     19  C   UNL     1       2.467   0.393  -7.008  1.00  0.00     0.017 A 
ATOM     20  C   UNL     1       5.219   0.131  -6.619  1.00  0.00     0.001 A 
ATOM     21  C   UNL     1       3.024  -0.896  -6.916  1.00  0.00    -0.018 A 
ATOM     22  C   UNL     1       4.417  -1.003  -6.758  1.00  0.00     0.009 A 
BRANCH  21  23
ATOM     23  C   UNL     1       2.155  -2.087  -6.840  1.00  0.00    -0.018 A 
ATOM     24  C   UNL     1       2.369  -3.047  -5.832  1.00  0.00     0.010 A 
ATOM     25  C   UNL     1       1.045  -2.258  -7.686  1.00  0.00     0.010 A 
ATOM     26  C   UNL     1       1.503  -4.126  -5.656  1.00  0.00     0.021 A 
ATOM     27  C   UNL     1       0.170  -3.339  -7.520  1.00  0.00     0.021 A 
ATOM     28  C   UNL     1       0.407  -4.266  -6.505  1.00  0.00     0.067 A 
BRANCH  28  29
ATOM     29  S   UNL     1      -0.713  -5.618  -6.241  1.00  0.00     0.175 S 
ATOM     30  C   UNL     1       0.252  -7.047  -6.656  1.00  0.00     0.163 C 
ATOM     31  O   UNL     1      -1.006  -5.666  -4.823  1.00  0.00    -0.224 OA
ATOM     32  O   UNL     1      -1.779  -5.511  -7.221  1.00  0.00    -0.224 OA
ENDBRANCH  28  29
ENDBRANCH  21  23
ENDBRANCH   5  17
ENDBRANCH   3   5
ENDBRANCH   2   3
ENDBRANCH   1   2
BRANCH   1  33
ATOM     33  C   UNL     1       4.274   6.195  -9.263  1.00  0.00     0.275 C 
BRANCH  33  34
ATOM     34  O   UNL     1       4.901   4.982  -9.717  1.00  0.00    -0.458 OA
BRANCH  34  35
ATOM     35  C   UNL     1       5.974   4.569  -9.006  1.00  0.00     0.338 C 
ATOM     36  O   UNL     1       6.507   5.140  -8.068  1.00  0.00    -0.246 OA
BRANCH  35  37
ATOM     37  C   UNL     1       6.435   3.253  -9.488  1.00  0.00     0.060 A 
ATOM     38  C   UNL     1       5.530   2.207  -9.616  1.00  0.00     0.016 A 
ATOM     39  C   UNL     1       7.801   3.005  -9.630  1.00  0.00     0.016 A 
ATOM     40  C   UNL     1       5.998   0.899  -9.734  1.00  0.00     0.010 A 
ATOM     41  C   UNL     1       8.255   1.702  -9.881  1.00  0.00     0.010 A 
ATOM     42  C   UNL     1       7.365   0.614  -9.875  1.00  0.00    -0.014 A 
BRANCH  42  43
ATOM     43  C   UNL     1       7.852  -0.802  -9.960  1.00  0.00     0.031 A 
ATOM     44  C   UNL     1       8.981  -1.292  -9.077  1.00  0.00     0.074 A 
ATOM     45  C   UNL     1       7.276  -1.685 -10.803  1.00  0.00     0.049 A 
ATOM     46  N   UNL     1       9.683  -2.396  -9.165  1.00  0.00    -0.248 NA
ATOM     47  C   UNL     1       9.385  -0.424  -7.960  1.00  0.00     0.031 C 
ATOM     48  C   UNL     1       6.145  -1.406 -11.689  1.00  0.00     0.029 A 
ATOM     49  N   UNL     1       7.556  -3.011 -11.043  1.00  0.00    -0.354 N 
ATOM     50  C   UNL     1      10.661  -2.312  -8.179  1.00  0.00     0.074 A 
ATOM     51  C   UNL     1      10.451  -1.058  -7.489  1.00  0.00     0.031 C 
ATOM     52  C   UNL     1       5.779  -2.534 -12.312  1.00  0.00     0.029 A 
ATOM     53  C   UNL     1       6.731  -3.586 -11.981  1.00  0.00     0.049 A 
ATOM     54  H   UNL     1       8.277  -3.502 -10.587  1.00  0.00     0.167 HD
ATOM     55  C   UNL     1      11.647  -3.195  -7.883  1.00  0.00     0.037 A 
ATOM     56  C   UNL     1       6.761  -4.796 -12.569  1.00  0.00     0.037 A 
ATOM     57  C   UNL     1      11.804  -4.486  -8.505  1.00  0.00     0.049 A 
ATOM     58  C   UNL     1       7.868  -5.750 -12.241  1.00  0.00     0.074 A 
ATOM     59  C   UNL     1      12.757  -5.458  -8.246  1.00  0.00     0.029 A 
ATOM     60  N   UNL     1      10.974  -4.997  -9.491  1.00  0.00    -0.354 N 
ATOM     61  N   UNL     1       8.847  -5.613 -11.382  1.00  0.00    -0.248 NA
ATOM     62  C   UNL     1       7.898  -7.012 -12.995  1.00  0.00     0.031 C 
ATOM     63  C   UNL     1      12.522  -6.544  -9.097  1.00  0.00     0.029 A 
ATOM     64  C   UNL     1      11.399  -6.264  -9.857  1.00  0.00     0.049 A 
ATOM     65  H   UNL     1      10.198  -4.528  -9.874  1.00  0.00     0.167 HD
ATOM     66  C   UNL     1       9.614  -6.764 -11.497  1.00  0.00     0.074 A 
ATOM     67  C   UNL     1       8.968  -7.604 -12.485  1.00  0.00     0.031 C 
ATOM     68  C   UNL     1      10.759  -7.088 -10.849  1.00  0.00     0.037 A 
BRANCH  55  69
ATOM     69  C   UNL     1      12.671  -2.788  -6.860  1.00  0.00     0.057 A 
ATOM     70  C   UNL     1      12.393  -2.755  -5.489  1.00  0.00     0.134 A 
ATOM     71  C   UNL     1      13.981  -2.488  -7.260  1.00  0.00     0.134 A 
ATOM     72  F   UNL     1      11.158  -3.021  -5.039  1.00  0.00    -0.206 F 
ATOM     73  C   UNL     1      13.377  -2.422  -4.553  1.00  0.00     0.040 A 
ATOM     74  C   UNL     1      14.978  -2.179  -6.334  1.00  0.00     0.040 A 
ATOM     75  F   UNL     1      14.318  -2.512  -8.559  1.00  0.00    -0.206 F 
ATOM     76  C   UNL     1      14.676  -2.141  -4.975  1.00  0.00     0.006 A 
ENDBRANCH  55  69
BRANCH  56  77
ATOM     77  C   UNL     1       5.740  -5.138 -13.592  1.00  0.00     0.057 A 
ATOM     78  C   UNL     1       4.758  -6.101 -13.342  1.00  0.00     0.134 A 
ATOM     79  C   UNL     1       5.706  -4.486 -14.832  1.00  0.00     0.134 A 
ATOM     80  F   UNL     1       4.756  -6.779 -12.184  1.00  0.00    -0.206 F 
ATOM     81  C   UNL     1       3.774  -6.401 -14.285  1.00  0.00     0.040 A 
ATOM     82  C   UNL     1       4.710  -4.753 -15.771  1.00  0.00     0.040 A 
ATOM     83  F   UNL     1       6.621  -3.553 -15.133  1.00  0.00    -0.206 F 
ATOM     84  C   UNL     1       3.741  -5.716 -15.499  1.00  0.00     0.006 A 
ENDBRANCH  56  77
BRANCH  68  85
ATOM     85  C   UNL     1      11.375  -8.413 -11.182  1.00  0.00     0.057 A 
ATOM     86  C   UNL     1      12.054  -8.623 -12.389  1.00  0.00     0.134 A 
ATOM     87  C   UNL     1      11.296  -9.485 -10.286  1.00  0.00     0.134 A 
ATOM     88  F   UNL     1      12.148  -7.639 -13.296  1.00  0.00    -0.206 F 
ATOM     89  C   UNL     1      12.613  -9.863 -12.704  1.00  0.00     0.040 A 
ATOM     90  C   UNL     1      11.870 -10.723 -10.580  1.00  0.00     0.040 A 
ATOM     91  F   UNL     1      10.664  -9.347  -9.111  1.00  0.00    -0.206 F 
ATOM     92  C   UNL     1      12.525 -10.916 -11.795  1.00  0.00     0.006 A 
ENDBRANCH  68  85
ENDBRANCH  42  43
ENDBRANCH  35  37
ENDBRANCH  34  35
ENDBRANCH  33  34
ENDBRANCH   1  33
TORSDOF 16
