REMARK SMILES CC(C)(Cn1ccnc1C(N)=S)C(=O)OCCOC(=O)c1ccc(-c2c3nc(c(-c4c(F)cccc4F)c4ccc([nH]4)c(-c4c(F)cccc4F)c4nc(c(-c5c(F)cccc5F)c5ccc2[nH]5)C=C4)C=C3)cc1
REMARK SMILES IDX 16 1 15 2 13 3 14 4 2 5 1 6 3 7 4 8 5 9 6 10 9 11 7 12 8 13
REMARK SMILES IDX 10 14 12 15 11 16 17 19 18 20 19 21 20 22 21 23 22 24 74 25
REMARK SMILES IDX 23 26 73 27 24 28 25 29 26 30 67 31 27 32 72 33 66 34 68 35
REMARK SMILES IDX 28 36 71 37 65 38 64 39 29 41 55 42 38 43 54 44 39 45 42 46
REMARK SMILES IDX 53 47 69 48 40 49 41 50 52 52 70 53 43 54 30 55 31 56 36 57
REMARK SMILES IDX 32 58 33 59 35 60 37 61 34 62 56 63 57 64 62 65 58 66 59 67
REMARK SMILES IDX 61 68 63 69 60 70 44 71 45 72 50 73 46 74 47 75 49 76 51 77
REMARK SMILES IDX 48 78
REMARK H PARENT 11 17 11 18 68 40 42 51
REMARK Flexibility Score: inf
ROOT
ATOM      1  C   UNL     1       1.068  -4.525  -1.713  1.00  0.00     0.274 C 
ENDROOT
BRANCH   1   2
ATOM      2  O   UNL     1       0.424  -3.663  -0.744  1.00  0.00    -0.462 OA
BRANCH   2   3
ATOM      3  C   UNL     1       1.228  -2.717  -0.177  1.00  0.00     0.313 C 
ATOM      4  O   UNL     1       2.453  -2.721  -0.284  1.00  0.00    -0.252 OA
BRANCH   3   5
ATOM      5  C   UNL     1       0.468  -1.659   0.647  1.00  0.00     0.080 C 
ATOM      6  C   UNL     1       1.150  -0.289   0.449  1.00  0.00     0.025 C 
ATOM      7  C   UNL     1       0.734  -2.111   2.099  1.00  0.00     0.025 C 
BRANCH   5   8
ATOM      8  C   UNL     1      -1.085  -1.588   0.464  1.00  0.00     0.142 C 
BRANCH   8   9
ATOM      9  N   UNL     1      -1.700  -0.919  -0.677  1.00  0.00    -0.328 N 
ATOM     10  C   UNL     1      -2.333  -1.605  -1.695  1.00  0.00     0.108 A 
ATOM     11  C   UNL     1      -1.928   0.432  -0.910  1.00  0.00     0.167 A 
ATOM     12  C   UNL     1      -2.775  -0.653  -2.575  1.00  0.00     0.131 A 
ATOM     13  N   UNL     1      -2.485   0.594  -2.107  1.00  0.00    -0.235 NA
BRANCH  11  14
ATOM     14  C   UNL     1      -1.626   1.619  -0.134  1.00  0.00     0.140 C 
ATOM     15  S   UNL     1      -1.826   1.738   1.512  1.00  0.00    -0.057 S 
BRANCH  14  16
ATOM     16  N   UNL     1      -1.256   2.716  -0.867  1.00  0.00    -0.387 N 
ATOM     17  H   UNL     1      -1.139   2.641  -1.841  1.00  0.00     0.157 HD
ATOM     18  H   UNL     1      -1.108   3.581  -0.419  1.00  0.00     0.157 HD
ENDBRANCH  14  16
ENDBRANCH  11  14
ENDBRANCH   8   9
ENDBRANCH   5   8
ENDBRANCH   3   5
ENDBRANCH   2   3
ENDBRANCH   1   2
BRANCH   1  19
ATOM     19  C   UNL     1       0.676  -4.157  -3.147  1.00  0.00     0.275 C 
BRANCH  19  20
ATOM     20  O   UNL     1       1.435  -3.090  -3.742  1.00  0.00    -0.458 OA
BRANCH  20  21
ATOM     21  C   UNL     1       1.083  -1.863  -3.307  1.00  0.00     0.338 C 
ATOM     22  O   UNL     1       0.635  -1.580  -2.217  1.00  0.00    -0.246 OA
BRANCH  21  23
ATOM     23  C   UNL     1       0.940  -0.885  -4.372  1.00  0.00     0.060 A 
ATOM     24  C   UNL     1       0.374   0.339  -3.976  1.00  0.00     0.016 A 
ATOM     25  C   UNL     1       1.039  -1.262  -5.708  1.00  0.00     0.016 A 
ATOM     26  C   UNL     1      -0.259   1.116  -4.909  1.00  0.00     0.010 A 
ATOM     27  C   UNL     1       0.446  -0.455  -6.651  1.00  0.00     0.010 A 
ATOM     28  C   UNL     1      -0.251   0.687  -6.232  1.00  0.00    -0.014 A 
BRANCH  28  29
ATOM     29  C   UNL     1      -0.854   1.576  -7.204  1.00  0.00     0.031 A 
ATOM     30  C   UNL     1      -0.148   2.885  -7.333  1.00  0.00     0.074 A 
ATOM     31  C   UNL     1      -1.819   1.135  -8.028  1.00  0.00     0.049 A 
ATOM     32  N   UNL     1      -0.641   4.080  -7.364  1.00  0.00    -0.248 NA
ATOM     33  C   UNL     1       1.330   2.850  -7.310  1.00  0.00     0.031 C 
ATOM     34  C   UNL     1      -2.355  -0.225  -8.140  1.00  0.00     0.029 A 
ATOM     35  N   UNL     1      -2.399   1.777  -9.070  1.00  0.00    -0.354 N 
ATOM     36  C   UNL     1       0.449   4.931  -7.540  1.00  0.00     0.074 A 
ATOM     37  C   UNL     1       1.637   4.143  -7.355  1.00  0.00     0.031 C 
ATOM     38  C   UNL     1      -2.938  -0.362  -9.351  1.00  0.00     0.029 A 
ATOM     39  C   UNL     1      -2.900   0.920 -10.035  1.00  0.00     0.049 A 
ATOM     40  H   UNL     1      -2.458   2.757  -9.136  1.00  0.00     0.167 HD
ATOM     41  C   UNL     1       0.319   6.185  -8.045  1.00  0.00     0.037 A 
ATOM     42  C   UNL     1      -3.122   1.234 -11.334  1.00  0.00     0.037 A 
ATOM     43  C   UNL     1      -1.011   6.697  -7.889  1.00  0.00     0.049 A 
ATOM     44  C   UNL     1      -3.133   2.720 -11.438  1.00  0.00     0.074 A 
ATOM     45  C   UNL     1      -1.826   6.925  -6.795  1.00  0.00     0.029 A 
ATOM     46  N   UNL     1      -1.844   6.714  -8.981  1.00  0.00    -0.354 N 
ATOM     47  N   UNL     1      -4.061   3.484 -10.930  1.00  0.00    -0.248 NA
ATOM     48  C   UNL     1      -1.866   3.386 -11.716  1.00  0.00     0.031 C 
ATOM     49  C   UNL     1      -3.131   6.551  -7.227  1.00  0.00     0.029 A 
ATOM     50  C   UNL     1      -3.034   6.170  -8.565  1.00  0.00     0.049 A 
ATOM     51  H   UNL     1      -1.630   7.049  -9.881  1.00  0.00     0.167 HD
ATOM     52  C   UNL     1      -3.386   4.597 -10.447  1.00  0.00     0.074 A 
ATOM     53  C   UNL     1      -2.051   4.520 -11.035  1.00  0.00     0.031 C 
ATOM     54  C   UNL     1      -3.861   5.322  -9.391  1.00  0.00     0.037 A 
BRANCH  41  55
ATOM     55  C   UNL     1       1.338   6.792  -8.966  1.00  0.00     0.057 A 
ATOM     56  C   UNL     1       1.311   8.167  -9.239  1.00  0.00     0.134 A 
ATOM     57  C   UNL     1       2.180   6.024  -9.800  1.00  0.00     0.134 A 
ATOM     58  F   UNL     1       0.515   8.990  -8.541  1.00  0.00    -0.206 F 
ATOM     59  C   UNL     1       2.046   8.732 -10.289  1.00  0.00     0.040 A 
ATOM     60  C   UNL     1       2.959   6.584 -10.812  1.00  0.00     0.040 A 
ATOM     61  F   UNL     1       2.216   4.686  -9.739  1.00  0.00    -0.206 F 
ATOM     62  C   UNL     1       2.874   7.940 -11.078  1.00  0.00     0.006 A 
ENDBRANCH  41  55
BRANCH  42  63
ATOM     63  C   UNL     1      -2.982   0.345 -12.512  1.00  0.00     0.057 A 
ATOM     64  C   UNL     1      -3.512   0.709 -13.756  1.00  0.00     0.134 A 
ATOM     65  C   UNL     1      -2.135  -0.780 -12.514  1.00  0.00     0.134 A 
ATOM     66  F   UNL     1      -4.288   1.797 -13.872  1.00  0.00    -0.206 F 
ATOM     67  C   UNL     1      -3.219   0.000 -14.929  1.00  0.00     0.040 A 
ATOM     68  C   UNL     1      -1.848  -1.508 -13.673  1.00  0.00     0.040 A 
ATOM     69  F   UNL     1      -1.485  -1.171 -11.408  1.00  0.00    -0.206 F 
ATOM     70  C   UNL     1      -2.382  -1.112 -14.890  1.00  0.00     0.006 A 
ENDBRANCH  42  63
BRANCH  54  71
ATOM     71  C   UNL     1      -5.236   5.011  -8.868  1.00  0.00     0.057 A 
ATOM     72  C   UNL     1      -5.598   3.767  -8.327  1.00  0.00     0.134 A 
ATOM     73  C   UNL     1      -6.165   6.047  -8.732  1.00  0.00     0.134 A 
ATOM     74  F   UNL     1      -4.736   2.746  -8.300  1.00  0.00    -0.206 F 
ATOM     75  C   UNL     1      -6.840   3.552  -7.724  1.00  0.00     0.040 A 
ATOM     76  C   UNL     1      -7.397   5.856  -8.100  1.00  0.00     0.040 A 
ATOM     77  F   UNL     1      -5.868   7.283  -9.164  1.00  0.00    -0.206 F 
ATOM     78  C   UNL     1      -7.742   4.602  -7.602  1.00  0.00     0.006 A 
ENDBRANCH  54  71
ENDBRANCH  28  29
ENDBRANCH  21  23
ENDBRANCH  20  21
ENDBRANCH  19  20
ENDBRANCH   1  19
TORSDOF 15
