REMARK SMILES O=C(OCCOC(=O)c1cc(/C=C/c2cc(O)cc(O)c2)ccc1O)c1ccc(-c2c3nc(c(-c4c(F)cccc4F)c4ccc([nH]4)c(-c4c(F)cccc4F)c4nc(c(-c5c(F)cccc5F)c5ccc2[nH]5)C=C4)C=C3)cc1
REMARK SMILES IDX 5 1 4 2 3 3 2 4 1 5 26 6 27 7 79 8 28 9 78 10 29 11 30 12
REMARK SMILES IDX 31 13 72 14 32 15 77 16 71 17 73 18 33 19 76 20 70 21 69 22
REMARK SMILES IDX 34 24 60 25 43 26 59 27 44 28 47 29 58 30 74 31 45 32 46 33
REMARK SMILES IDX 57 35 75 36 48 37 35 38 36 39 41 40 37 41 38 42 40 43 42 44
REMARK SMILES IDX 39 45 61 46 62 47 67 48 63 49 64 50 66 51 68 52 65 53 49 54
REMARK SMILES IDX 50 55 55 56 51 57 52 58 54 59 56 60 53 61 6 62 7 63 8 64
REMARK SMILES IDX 9 65 10 66 24 67 11 68 23 69 22 70 25 71 12 73 13 74 14 75
REMARK SMILES IDX 15 76 21 77 16 78 19 79 18 80 17 81 20 83
REMARK H PARENT 73 23 47 34 25 72 17 82 20 84
REMARK Flexibility Score: inf
ROOT
ATOM      1  C   UNL     1       3.821   1.481   1.755  1.00  0.00     0.275 C 
ENDROOT
BRANCH   1   2
ATOM      2  C   UNL     1       4.033   1.662   0.252  1.00  0.00     0.275 C 
BRANCH   2   3
ATOM      3  O   UNL     1       2.998   1.100  -0.576  1.00  0.00    -0.458 OA
BRANCH   3   4
ATOM      4  C   UNL     1       2.854  -0.147  -1.079  1.00  0.00     0.338 C 
ATOM      5  O   UNL     1       1.970  -0.348  -1.912  1.00  0.00    -0.246 OA
BRANCH   4   6
ATOM      6  C   UNL     1       3.623  -1.341  -0.603  1.00  0.00     0.060 A 
ATOM      7  C   UNL     1       4.917  -1.340  -0.081  1.00  0.00     0.016 A 
ATOM      8  C   UNL     1       2.966  -2.582  -0.718  1.00  0.00     0.016 A 
ATOM      9  C   UNL     1       5.509  -2.519   0.383  1.00  0.00     0.010 A 
ATOM     10  C   UNL     1       3.544  -3.762  -0.244  1.00  0.00     0.010 A 
ATOM     11  C   UNL     1       4.825  -3.734   0.311  1.00  0.00    -0.014 A 
BRANCH  11  12
ATOM     12  C   UNL     1       5.507  -4.985   0.705  1.00  0.00     0.031 A 
ATOM     13  C   UNL     1       6.061  -5.870  -0.368  1.00  0.00     0.074 A 
ATOM     14  C   UNL     1       5.668  -5.296   2.003  1.00  0.00     0.049 A 
ATOM     15  N   UNL     1       6.747  -6.975  -0.249  1.00  0.00    -0.248 NA
ATOM     16  C   UNL     1       5.842  -5.437  -1.758  1.00  0.00     0.031 C 
ATOM     17  C   UNL     1       5.244  -4.464   3.126  1.00  0.00     0.029 A 
ATOM     18  N   UNL     1       6.223  -6.397   2.601  1.00  0.00    -0.354 N 
ATOM     19  C   UNL     1       7.088  -7.339  -1.544  1.00  0.00     0.074 A 
ATOM     20  C   UNL     1       6.468  -6.385  -2.436  1.00  0.00     0.031 C 
ATOM     21  C   UNL     1       5.490  -5.111   4.277  1.00  0.00     0.029 A 
ATOM     22  C   UNL     1       6.108  -6.396   3.970  1.00  0.00     0.049 A 
ATOM     23  H   UNL     1       6.663  -7.120   2.098  1.00  0.00     0.167 HD
ATOM     24  C   UNL     1       7.883  -8.356  -1.946  1.00  0.00     0.037 A 
ATOM     25  C   UNL     1       6.463  -7.331   4.871  1.00  0.00     0.037 A 
ATOM     26  C   UNL     1       8.459  -9.322  -1.052  1.00  0.00     0.049 A 
ATOM     27  C   UNL     1       7.206  -8.545   4.385  1.00  0.00     0.074 A 
ATOM     28  C   UNL     1       9.265 -10.405  -1.350  1.00  0.00     0.029 A 
ATOM     29  N   UNL     1       8.267  -9.328   0.323  1.00  0.00    -0.354 N 
ATOM     30  N   UNL     1       7.574  -8.849   3.163  1.00  0.00    -0.248 NA
ATOM     31  C   UNL     1       7.617  -9.524   5.399  1.00  0.00     0.031 C 
ATOM     32  C   UNL     1       9.523 -11.093  -0.158  1.00  0.00     0.029 A 
ATOM     33  C   UNL     1       8.914 -10.414   0.886  1.00  0.00     0.049 A 
ATOM     34  H   UNL     1       7.747  -8.659   0.823  1.00  0.00     0.167 HD
ATOM     35  C   UNL     1       8.304 -10.025   3.267  1.00  0.00     0.074 A 
ATOM     36  C   UNL     1       8.320 -10.381   4.672  1.00  0.00     0.031 C 
ATOM     37  C   UNL     1       8.919 -10.738   2.291  1.00  0.00     0.037 A 
BRANCH  24  38
ATOM     38  C   UNL     1       8.151  -8.458  -3.417  1.00  0.00     0.057 A 
ATOM     39  C   UNL     1       8.981  -7.539  -4.074  1.00  0.00     0.134 A 
ATOM     40  C   UNL     1       7.551  -9.457  -4.190  1.00  0.00     0.134 A 
ATOM     41  F   UNL     1       9.566  -6.542  -3.391  1.00  0.00    -0.206 F 
ATOM     42  C   UNL     1       9.181  -7.593  -5.454  1.00  0.00     0.040 A 
ATOM     43  C   UNL     1       7.760  -9.534  -5.568  1.00  0.00     0.040 A 
ATOM     44  F   UNL     1       6.741 -10.363  -3.623  1.00  0.00    -0.206 F 
ATOM     45  C   UNL     1       8.571  -8.595  -6.205  1.00  0.00     0.006 A 
ENDBRANCH  24  38
BRANCH  25  46
ATOM     46  C   UNL     1       6.138  -7.152   6.309  1.00  0.00     0.057 A 
ATOM     47  C   UNL     1       7.133  -6.922   7.264  1.00  0.00     0.134 A 
ATOM     48  C   UNL     1       4.815  -7.234   6.766  1.00  0.00     0.134 A 
ATOM     49  F   UNL     1       8.419  -6.844   6.892  1.00  0.00    -0.206 F 
ATOM     50  C   UNL     1       6.832  -6.805   8.623  1.00  0.00     0.040 A 
ATOM     51  C   UNL     1       4.497  -7.101   8.119  1.00  0.00     0.040 A 
ATOM     52  F   UNL     1       3.811  -7.438   5.900  1.00  0.00    -0.206 F 
ATOM     53  C   UNL     1       5.509  -6.894   9.053  1.00  0.00     0.006 A 
ENDBRANCH  25  46
BRANCH  37  54
ATOM     54  C   UNL     1       9.693 -11.947   2.721  1.00  0.00     0.057 A 
ATOM     55  C   UNL     1       9.057 -13.124   3.131  1.00  0.00     0.134 A 
ATOM     56  C   UNL     1      11.094 -11.941   2.686  1.00  0.00     0.134 A 
ATOM     57  F   UNL     1       7.719 -13.185   3.202  1.00  0.00    -0.206 F 
ATOM     58  C   UNL     1       9.789 -14.250   3.511  1.00  0.00     0.040 A 
ATOM     59  C   UNL     1      11.835 -13.068   3.038  1.00  0.00     0.040 A 
ATOM     60  F   UNL     1      11.761 -10.844   2.296  1.00  0.00    -0.206 F 
ATOM     61  C   UNL     1      11.182 -14.225   3.457  1.00  0.00     0.006 A 
ENDBRANCH  37  54
ENDBRANCH  11  12
ENDBRANCH   4   6
ENDBRANCH   3   4
ENDBRANCH   2   3
ENDBRANCH   1   2
BRANCH   1  62
ATOM     62  O   UNL     1       3.400   0.158   2.108  1.00  0.00    -0.458 OA
BRANCH  62  63
ATOM     63  C   UNL     1       2.068   0.019   2.342  1.00  0.00     0.342 C 
ATOM     64  O   UNL     1       1.215   0.887   2.253  1.00  0.00    -0.246 OA
BRANCH  63  65
ATOM     65  C   UNL     1       1.746  -1.403   2.552  1.00  0.00     0.102 A 
ATOM     66  C   UNL     1       0.801  -1.983   1.690  1.00  0.00     0.027 A 
ATOM     67  C   UNL     1       2.341  -2.167   3.554  1.00  0.00     0.130 A 
ATOM     68  C   UNL     1       0.508  -3.351   1.768  1.00  0.00    -0.025 A 
ATOM     69  C   UNL     1       2.017  -3.517   3.677  1.00  0.00     0.048 A 
ATOM     70  C   UNL     1       1.124  -4.106   2.777  1.00  0.00     0.012 A 
BRANCH  67  71
ATOM     71  O   UNL     1       3.234  -1.602   4.420  1.00  0.00    -0.507 OA
ATOM     72  H   UNL     1       3.454  -0.695   4.340  1.00  0.00     0.293 HD
ENDBRANCH  67  71
BRANCH  68  73
ATOM     73  C   UNL     1      -0.431  -4.034   0.862  1.00  0.00     0.009 C 
ATOM     74  C   UNL     1      -0.894  -3.555  -0.306  1.00  0.00     0.009 C 
BRANCH  74  75
ATOM     75  C   UNL     1      -1.869  -4.272  -1.145  1.00  0.00    -0.018 A 
ATOM     76  C   UNL     1      -2.937  -4.986  -0.580  1.00  0.00     0.054 A 
ATOM     77  C   UNL     1      -1.781  -4.171  -2.541  1.00  0.00     0.054 A 
ATOM     78  C   UNL     1      -3.878  -5.603  -1.402  1.00  0.00     0.119 A 
ATOM     79  C   UNL     1      -2.735  -4.796  -3.345  1.00  0.00     0.119 A 
ATOM     80  C   UNL     1      -3.783  -5.516  -2.783  1.00  0.00     0.092 A 
BRANCH  78  81
ATOM     81  O   UNL     1      -4.928  -6.298  -0.876  1.00  0.00    -0.508 OA
ATOM     82  H   UNL     1      -5.020  -6.375   0.054  1.00  0.00     0.293 HD
ENDBRANCH  78  81
BRANCH  79  83
ATOM     83  O   UNL     1      -2.680  -4.716  -4.706  1.00  0.00    -0.508 OA
ATOM     84  H   UNL     1      -3.331  -5.143  -5.227  1.00  0.00     0.293 HD
ENDBRANCH  79  83
ENDBRANCH  74  75
ENDBRANCH  68  73
ENDBRANCH  63  65
ENDBRANCH  62  63
ENDBRANCH   1  62
TORSDOF 16
