REMARK SMILES CC[C@@H](C)[C@@H](NC(=O)Cn1nc(-c2ccc3ccccc3c2)ccc1=O)C(=O)OCCOC(=O)c1ccc(-c2c3nc(c(-c4c(F)cccc4F)c4ccc([nH]4)c(-c4c(F)cccc4F)c4nc(c(-c5c(F)cccc5F)c5ccc2[nH]5)C=C4)C=C3)cc1
REMARK SMILES IDX 30 1 29 2 27 3 28 4 5 5 3 6 4 7 2 8 1 9 6 10 7 11 8 13 9 14
REMARK SMILES IDX 10 15 11 16 25 17 12 18 24 19 26 20 23 21 13 22 14 23 22 24
REMARK SMILES IDX 15 25 21 26 16 27 20 28 17 29 19 30 18 31 31 32 32 33 33 34
REMARK SMILES IDX 34 35 35 36 36 37 88 38 37 39 87 40 38 41 39 42 40 43 81 44
REMARK SMILES IDX 41 45 86 46 80 47 82 48 42 49 85 50 79 51 78 52 43 54 69 55
REMARK SMILES IDX 52 56 68 57 53 58 56 59 67 60 83 61 54 62 55 63 66 65 84 66
REMARK SMILES IDX 57 67 44 68 45 69 50 70 46 71 47 72 49 73 51 74 48 75 70 76
REMARK SMILES IDX 71 77 76 78 72 79 73 80 75 81 77 82 74 83 58 84 59 85 64 86
REMARK SMILES IDX 60 87 61 88 63 89 65 90 62 91
REMARK H PARENT 6 12 82 53 56 64
REMARK Flexibility Score: inf
ROOT
ATOM      1  C   UNL     1       1.915  -4.579   4.912  1.00  0.00     0.274 C 
ENDROOT
BRANCH   1   2
ATOM      2  O   UNL     1       1.510  -3.743   3.792  1.00  0.00    -0.461 OA
BRANCH   2   3
ATOM      3  C   UNL     1       0.613  -4.284   2.932  1.00  0.00     0.329 C 
ATOM      4  O   UNL     1       0.025  -5.343   3.154  1.00  0.00    -0.250 OA
BRANCH   3   5
ATOM      5  C   UNL     1       0.486  -3.590   1.553  1.00  0.00     0.195 C 
BRANCH   5   6
ATOM      6  C   UNL     1       0.573  -2.056   1.297  1.00  0.00     0.019 C 
ATOM      7  C   UNL     1      -0.492  -1.268   2.067  1.00  0.00     0.010 C 
BRANCH   6   8
ATOM      8  C   UNL     1       0.419  -1.716  -0.216  1.00  0.00     0.002 C 
ATOM      9  C   UNL     1       0.867  -0.307  -0.588  1.00  0.00     0.004 C 
ENDBRANCH   6   8
ENDBRANCH   5   6
BRANCH   5  10
ATOM     10  N   UNL     1       1.214  -4.386   0.555  1.00  0.00    -0.341 N 
ATOM     11  C   UNL     1       2.529  -4.710   0.419  1.00  0.00     0.242 C 
ATOM     12  H   UNL     1       0.639  -4.756  -0.153  1.00  0.00     0.164 HD
ATOM     13  O   UNL     1       2.860  -5.138  -0.695  1.00  0.00    -0.273 OA
BRANCH  11  14
ATOM     14  C   UNL     1       3.509  -4.796   1.595  1.00  0.00     0.248 C 
BRANCH  14  15
ATOM     15  N   UNL     1       4.129  -3.677   2.306  1.00  0.00    -0.220 N 
ATOM     16  N   UNL     1       3.561  -2.422   2.252  1.00  0.00    -0.169 NA
ATOM     17  C   UNL     1       5.133  -4.011   3.213  1.00  0.00     0.267 A 
ATOM     18  C   UNL     1       3.973  -1.524   3.100  1.00  0.00     0.091 A 
ATOM     19  C   UNL     1       5.646  -2.921   4.065  1.00  0.00     0.075 A 
ATOM     20  O   UNL     1       5.575  -5.145   3.386  1.00  0.00    -0.268 OA
ATOM     21  C   UNL     1       5.090  -1.711   4.042  1.00  0.00     0.036 A 
BRANCH  18  22
ATOM     22  C   UNL     1       3.222  -0.249   3.259  1.00  0.00     0.003 A 
ATOM     23  C   UNL     1       2.433  -0.114   4.400  1.00  0.00     0.011 A 
ATOM     24  C   UNL     1       3.125   0.697   2.239  1.00  0.00     0.019 A 
ATOM     25  C   UNL     1       1.430   0.856   4.454  1.00  0.00     0.009 A 
ATOM     26  C   UNL     1       2.147   1.717   2.307  1.00  0.00    -0.018 A 
ATOM     27  C   UNL     1       1.236   1.736   3.389  1.00  0.00    -0.018 A 
ATOM     28  C   UNL     1       2.002   2.684   1.300  1.00  0.00     0.009 A 
ATOM     29  C   UNL     1       0.130   2.601   3.362  1.00  0.00     0.009 A 
ATOM     30  C   UNL     1       0.921   3.572   1.307  1.00  0.00     0.001 A 
ATOM     31  C   UNL     1      -0.038   3.502   2.313  1.00  0.00     0.001 A 
ENDBRANCH  18  22
ENDBRANCH  14  15
ENDBRANCH  11  14
ENDBRANCH   5  10
ENDBRANCH   3   5
ENDBRANCH   2   3
ENDBRANCH   1   2
BRANCH   1  32
ATOM     32  C   UNL     1       1.718  -3.874   6.251  1.00  0.00     0.275 C 
BRANCH  32  33
ATOM     33  O   UNL     1       0.314  -3.761   6.509  1.00  0.00    -0.458 OA
BRANCH  33  34
ATOM     34  C   UNL     1      -0.242  -2.665   5.955  1.00  0.00     0.338 C 
ATOM     35  O   UNL     1       0.312  -1.681   5.518  1.00  0.00    -0.246 OA
BRANCH  34  36
ATOM     36  C   UNL     1      -1.663  -2.895   5.778  1.00  0.00     0.060 A 
ATOM     37  C   UNL     1      -2.501  -2.868   6.880  1.00  0.00     0.016 A 
ATOM     38  C   UNL     1      -2.148  -3.079   4.481  1.00  0.00     0.016 A 
ATOM     39  C   UNL     1      -3.851  -3.075   6.669  1.00  0.00     0.010 A 
ATOM     40  C   UNL     1      -3.497  -3.239   4.259  1.00  0.00     0.010 A 
ATOM     41  C   UNL     1      -4.342  -3.267   5.363  1.00  0.00    -0.014 A 
BRANCH  41  42
ATOM     42  C   UNL     1      -5.772  -3.497   5.170  1.00  0.00     0.031 A 
ATOM     43  C   UNL     1      -6.259  -4.874   4.869  1.00  0.00     0.074 A 
ATOM     44  C   UNL     1      -6.589  -2.448   5.340  1.00  0.00     0.049 A 
ATOM     45  N   UNL     1      -7.481  -5.329   4.901  1.00  0.00    -0.248 NA
ATOM     46  C   UNL     1      -5.248  -5.872   4.480  1.00  0.00     0.031 C 
ATOM     47  C   UNL     1      -6.149  -1.068   5.566  1.00  0.00     0.029 A 
ATOM     48  N   UNL     1      -7.949  -2.385   5.397  1.00  0.00    -0.354 N 
ATOM     49  C   UNL     1      -7.382  -6.674   4.576  1.00  0.00     0.074 A 
ATOM     50  C   UNL     1      -5.996  -6.945   4.271  1.00  0.00     0.031 C 
ATOM     51  C   UNL     1      -7.224  -0.304   5.808  1.00  0.00     0.029 A 
ATOM     52  C   UNL     1      -8.415  -1.139   5.729  1.00  0.00     0.049 A 
ATOM     53  H   UNL     1      -8.536  -3.155   5.217  1.00  0.00     0.167 HD
ATOM     54  C   UNL     1      -8.370  -7.596   4.572  1.00  0.00     0.037 A 
ATOM     55  C   UNL     1      -9.675  -0.742   5.968  1.00  0.00     0.037 A 
ATOM     56  C   UNL     1      -9.743  -7.271   4.851  1.00  0.00     0.049 A 
ATOM     57  C   UNL     1     -10.756  -1.783   5.917  1.00  0.00     0.074 A 
ATOM     58  C   UNL     1     -10.843  -8.105   4.888  1.00  0.00     0.029 A 
ATOM     59  N   UNL     1     -10.202  -5.986   5.124  1.00  0.00    -0.354 N 
ATOM     60  N   UNL     1     -10.653  -3.074   5.700  1.00  0.00    -0.248 NA
ATOM     61  C   UNL     1     -12.124  -1.315   6.152  1.00  0.00     0.031 C 
ATOM     62  C   UNL     1     -11.975  -7.317   5.130  1.00  0.00     0.029 A 
ATOM     63  C   UNL     1     -11.573  -6.000   5.303  1.00  0.00     0.049 A 
ATOM     64  H   UNL     1      -9.633  -5.185   5.182  1.00  0.00     0.167 HD
ATOM     65  C   UNL     1     -11.941  -3.579   5.787  1.00  0.00     0.074 A 
ATOM     66  C   UNL     1     -12.800  -2.454   6.112  1.00  0.00     0.031 C 
ATOM     67  C   UNL     1     -12.386  -4.848   5.611  1.00  0.00     0.037 A 
BRANCH  54  68
ATOM     68  C   UNL     1      -7.989  -9.011   4.249  1.00  0.00     0.057 A 
ATOM     69  C   UNL     1      -8.416  -9.618   3.062  1.00  0.00     0.134 A 
ATOM     70  C   UNL     1      -7.189  -9.776   5.111  1.00  0.00     0.134 A 
ATOM     71  F   UNL     1      -9.181  -8.946   2.189  1.00  0.00    -0.206 F 
ATOM     72  C   UNL     1      -8.063 -10.932   2.745  1.00  0.00     0.040 A 
ATOM     73  C   UNL     1      -6.806 -11.080   4.792  1.00  0.00     0.040 A 
ATOM     74  F   UNL     1      -6.729  -9.251   6.258  1.00  0.00    -0.206 F 
ATOM     75  C   UNL     1      -7.248 -11.663   3.607  1.00  0.00     0.006 A 
ENDBRANCH  54  68
BRANCH  55  76
ATOM     76  C   UNL     1      -9.962   0.674   6.297  1.00  0.00     0.057 A 
ATOM     77  C   UNL     1      -9.765   1.691   5.354  1.00  0.00     0.134 A 
ATOM     78  C   UNL     1     -10.445   1.049   7.556  1.00  0.00     0.134 A 
ATOM     79  F   UNL     1      -9.284   1.401   4.136  1.00  0.00    -0.206 F 
ATOM     80  C   UNL     1     -10.044   3.026   5.647  1.00  0.00     0.040 A 
ATOM     81  C   UNL     1     -10.757   2.377   7.853  1.00  0.00     0.040 A 
ATOM     82  F   UNL     1     -10.653   0.123   8.503  1.00  0.00    -0.206 F 
ATOM     83  C   UNL     1     -10.555   3.370   6.896  1.00  0.00     0.006 A 
ENDBRANCH  55  76
BRANCH  67  84
ATOM     84  C   UNL     1     -13.860  -5.064   5.782  1.00  0.00     0.057 A 
ATOM     85  C   UNL     1     -14.353  -5.776   6.881  1.00  0.00     0.134 A 
ATOM     86  C   UNL     1     -14.789  -4.569   4.857  1.00  0.00     0.134 A 
ATOM     87  F   UNL     1     -13.514  -6.285   7.796  1.00  0.00    -0.206 F 
ATOM     88  C   UNL     1     -15.719  -5.985   7.059  1.00  0.00     0.040 A 
ATOM     89  C   UNL     1     -16.161  -4.740   5.043  1.00  0.00     0.040 A 
ATOM     90  F   UNL     1     -14.380  -3.864   3.791  1.00  0.00    -0.206 F 
ATOM     91  C   UNL     1     -16.628  -5.455   6.144  1.00  0.00     0.006 A 
ENDBRANCH  67  84
ENDBRANCH  41  42
ENDBRANCH  34  36
ENDBRANCH  33  34
ENDBRANCH  32  33
ENDBRANCH   1  32
TORSDOF 17
