REMARK SMILES Cc1cc2cc(-c3ccc([C@@H](C)C(=O)OCCOC(=O)c4ccc(-c5c6nc(c(-c7c(F)cccc7F)c7ccc([nH]7)c(-c7c(F)cccc7F)c7nc(c(-c8c(F)cccc8F)c8ccc5[nH]8)C=C7)C=C6)cc4)cc3)ccc2[nH]1
REMARK SMILES IDX 16 1 15 2 13 3 14 4 11 5 12 6 10 7 7 8 8 9 76 10 9 11 75 12
REMARK SMILES IDX 6 13 1 14 2 15 3 16 80 17 4 18 79 19 5 21 78 22 77 23 17 24
REMARK SMILES IDX 18 25 19 26 20 27 21 28 22 29 74 30 23 31 73 32 24 33 25 34
REMARK SMILES IDX 26 35 67 36 27 37 72 38 66 39 68 40 28 41 71 42 65 43 64 44
REMARK SMILES IDX 29 46 55 47 38 48 54 49 39 50 42 51 53 52 69 53 40 54 41 55
REMARK SMILES IDX 52 57 70 58 43 59 30 60 31 61 36 62 32 63 33 64 35 65 37 66
REMARK SMILES IDX 34 67 56 68 57 69 62 70 58 71 59 72 61 73 63 74 60 75 44 76
REMARK SMILES IDX 45 77 50 78 46 79 47 80 49 81 51 82 48 83
REMARK H PARENT 80 20 68 45 42 56
REMARK Flexibility Score: inf
ROOT
ATOM      1  C   UNL     1       8.479  -3.370  -3.633  1.00  0.00     0.274 C 
ENDROOT
BRANCH   1   2
ATOM      2  O   UNL     1       7.596  -3.641  -2.529  1.00  0.00    -0.462 OA
BRANCH   2   3
ATOM      3  C   UNL     1       8.167  -4.064  -1.371  1.00  0.00     0.313 C 
ATOM      4  O   UNL     1       9.365  -4.295  -1.235  1.00  0.00    -0.252 OA
BRANCH   3   5
ATOM      5  C   UNL     1       7.167  -4.286  -0.242  1.00  0.00     0.126 C 
ATOM      6  C   UNL     1       6.768  -5.760  -0.185  1.00  0.00     0.025 C 
BRANCH   5   7
ATOM      7  C   UNL     1       5.962  -3.358  -0.234  1.00  0.00    -0.034 A 
ATOM      8  C   UNL     1       3.681  -1.668  -0.137  1.00  0.00    -0.018 A 
ATOM      9  C   UNL     1       3.830  -2.632  -1.146  1.00  0.00     0.009 A 
ATOM     10  C   UNL     1       4.708  -1.541   0.806  1.00  0.00     0.009 A 
ATOM     11  C   UNL     1       4.948  -3.467  -1.193  1.00  0.00     0.005 A 
ATOM     12  C   UNL     1       5.830  -2.377   0.761  1.00  0.00     0.005 A 
BRANCH   8  13
ATOM     13  C   UNL     1       2.451  -0.866  -0.057  1.00  0.00    -0.018 A 
ATOM     14  C   UNL     1      -3.570   0.242   0.041  1.00  0.00     0.064 C 
ATOM     15  C   UNL     1      -2.103   0.031   0.043  1.00  0.00     0.013 A 
ATOM     16  C   UNL     1      -1.365  -1.133   0.042  1.00  0.00     0.031 A 
ATOM     17  N   UNL     1      -1.212   1.079   0.042  1.00  0.00    -0.359 N 
ATOM     18  C   UNL     1       0.010  -0.779   0.019  1.00  0.00     0.000 A 
ATOM     19  C   UNL     1       0.083   0.611   0.022  1.00  0.00     0.046 A 
ATOM     20  H   UNL     1      -1.465   2.030   0.054  1.00  0.00     0.166 HD
ATOM     21  C   UNL     1       1.204  -1.519  -0.013  1.00  0.00     0.019 A 
ATOM     22  C   UNL     1       1.301   1.299   0.003  1.00  0.00     0.027 A 
ATOM     23  C   UNL     1       2.478   0.536  -0.039  1.00  0.00     0.011 A 
ENDBRANCH   8  13
ENDBRANCH   5   7
ENDBRANCH   3   5
ENDBRANCH   2   3
ENDBRANCH   1   2
BRANCH   1  24
ATOM     24  C   UNL     1       8.764  -1.873  -3.760  1.00  0.00     0.275 C 
BRANCH  24  25
ATOM     25  O   UNL     1       9.577  -1.410  -2.666  1.00  0.00    -0.458 OA
BRANCH  25  26
ATOM     26  C   UNL     1       8.904  -0.787  -1.673  1.00  0.00     0.338 C 
ATOM     27  O   UNL     1       7.718  -0.517  -1.629  1.00  0.00    -0.246 OA
BRANCH  26  28
ATOM     28  C   UNL     1       9.811  -0.553  -0.541  1.00  0.00     0.060 A 
ATOM     29  C   UNL     1       9.604  -1.286   0.629  1.00  0.00     0.016 A 
ATOM     30  C   UNL     1      10.783   0.445  -0.594  1.00  0.00     0.016 A 
ATOM     31  C   UNL     1      10.353  -1.008   1.768  1.00  0.00     0.010 A 
ATOM     32  C   UNL     1      11.542   0.719   0.548  1.00  0.00     0.010 A 
ATOM     33  C   UNL     1      11.316   0.008   1.740  1.00  0.00    -0.014 A 
BRANCH  33  34
ATOM     34  C   UNL     1      12.028   0.369   2.988  1.00  0.00     0.031 A 
ATOM     35  C   UNL     1      11.642   1.615   3.731  1.00  0.00     0.074 A 
ATOM     36  C   UNL     1      12.991  -0.437   3.470  1.00  0.00     0.049 A 
ATOM     37  N   UNL     1      12.170   2.131   4.811  1.00  0.00    -0.248 NA
ATOM     38  C   UNL     1      10.510   2.381   3.186  1.00  0.00     0.031 C 
ATOM     39  C   UNL     1      13.425  -1.693   2.860  1.00  0.00     0.029 A 
ATOM     40  N   UNL     1      13.775  -0.317   4.588  1.00  0.00    -0.354 N 
ATOM     41  C   UNL     1      11.450   3.291   5.065  1.00  0.00     0.074 A 
ATOM     42  C   UNL     1      10.457   3.411   4.019  1.00  0.00     0.031 C 
ATOM     43  C   UNL     1      14.398  -2.231   3.614  1.00  0.00     0.029 A 
ATOM     44  C   UNL     1      14.677  -1.341   4.738  1.00  0.00     0.049 A 
ATOM     45  H   UNL     1      13.699   0.432   5.223  1.00  0.00     0.167 HD
ATOM     46  C   UNL     1      11.602   4.173   6.081  1.00  0.00     0.037 A 
ATOM     47  C   UNL     1      15.632  -1.528   5.667  1.00  0.00     0.037 A 
ATOM     48  C   UNL     1      12.579   4.045   7.130  1.00  0.00     0.049 A 
ATOM     49  C   UNL     1      15.803  -0.517   6.766  1.00  0.00     0.074 A 
ATOM     50  C   UNL     1      12.808   4.887   8.205  1.00  0.00     0.029 A 
ATOM     51  N   UNL     1      13.486   3.003   7.238  1.00  0.00    -0.354 N 
ATOM     52  N   UNL     1      15.124   0.582   6.989  1.00  0.00    -0.248 NA
ATOM     53  C   UNL     1      16.874  -0.771   7.739  1.00  0.00     0.031 C 
ATOM     54  C   UNL     1      13.875   4.368   8.948  1.00  0.00     0.029 A 
ATOM     55  C   UNL     1      14.285   3.185   8.355  1.00  0.00     0.049 A 
ATOM     56  H   UNL     1      13.553   2.245   6.613  1.00  0.00     0.167 HD
ATOM     57  C   UNL     1      15.671   1.140   8.137  1.00  0.00     0.074 A 
ATOM     58  C   UNL     1      16.730   0.251   8.571  1.00  0.00     0.031 C 
ATOM     59  C   UNL     1      15.329   2.286   8.774  1.00  0.00     0.037 A 
BRANCH  46  60
ATOM     60  C   UNL     1      10.703   5.372   6.088  1.00  0.00     0.057 A 
ATOM     61  C   UNL     1       9.355   5.282   6.456  1.00  0.00     0.134 A 
ATOM     62  C   UNL     1      11.198   6.636   5.744  1.00  0.00     0.134 A 
ATOM     63  F   UNL     1       8.816   4.097   6.781  1.00  0.00    -0.206 F 
ATOM     64  C   UNL     1       8.525   6.406   6.464  1.00  0.00     0.040 A 
ATOM     65  C   UNL     1      10.384   7.769   5.767  1.00  0.00     0.040 A 
ATOM     66  F   UNL     1      12.481   6.789   5.384  1.00  0.00    -0.206 F 
ATOM     67  C   UNL     1       9.042   7.655   6.123  1.00  0.00     0.006 A 
ENDBRANCH  46  60
BRANCH  47  68
ATOM     68  C   UNL     1      16.511  -2.721   5.593  1.00  0.00     0.057 A 
ATOM     69  C   UNL     1      16.392  -3.765   6.515  1.00  0.00     0.134 A 
ATOM     70  C   UNL     1      17.492  -2.839   4.602  1.00  0.00     0.134 A 
ATOM     71  F   UNL     1      15.485  -3.696   7.500  1.00  0.00    -0.206 F 
ATOM     72  C   UNL     1      17.227  -4.883   6.463  1.00  0.00     0.040 A 
ATOM     73  C   UNL     1      18.319  -3.960   4.524  1.00  0.00     0.040 A 
ATOM     74  F   UNL     1      17.654  -1.870   3.690  1.00  0.00    -0.206 F 
ATOM     75  C   UNL     1      18.190  -4.984   5.460  1.00  0.00     0.006 A 
ENDBRANCH  47  68
BRANCH  59  76
ATOM     76  C   UNL     1      16.089   2.625  10.020  1.00  0.00     0.057 A 
ATOM     77  C   UNL     1      17.397   3.122   9.973  1.00  0.00     0.134 A 
ATOM     78  C   UNL     1      15.494   2.478  11.280  1.00  0.00     0.134 A 
ATOM     79  F   UNL     1      18.025   3.273   8.797  1.00  0.00    -0.206 F 
ATOM     80  C   UNL     1      18.096   3.442  11.138  1.00  0.00     0.040 A 
ATOM     81  C   UNL     1      16.176   2.813  12.450  1.00  0.00     0.040 A 
ATOM     82  F   UNL     1      14.241   2.012  11.391  1.00  0.00    -0.206 F 
ATOM     83  C   UNL     1      17.483   3.292  12.381  1.00  0.00     0.006 A 
ENDBRANCH  59  76
ENDBRANCH  33  34
ENDBRANCH  26  28
ENDBRANCH  25  26
ENDBRANCH  24  25
ENDBRANCH   1  24
TORSDOF 13
