REMARK SMILES CCCN(CC(=O)OCCOC(=O)c1ccc(-c2c3nc(c(-c4c(F)cccc4F)c4ccc([nH]4)c(-c4c(F)cccc4F)c4nc(c(-c5c(F)cccc5F)c5ccc2[nH]5)C=C4)C=C3)cc1)C(=O)Cc1ccc(F)c(F)c1
REMARK SMILES IDX 9 1 8 2 6 3 7 4 5 5 4 6 3 7 2 8 1 9 68 10 69 11 70 12 71 13
REMARK SMILES IDX 72 14 78 15 73 16 76 17 74 18 77 19 75 20 10 21 11 22 12 23
REMARK SMILES IDX 13 24 14 25 15 26 67 27 16 28 66 29 17 30 18 31 19 32 60 33
REMARK SMILES IDX 20 34 65 35 59 36 61 37 21 38 64 39 58 40 57 41 22 43 48 44
REMARK SMILES IDX 31 45 47 46 32 47 35 48 46 49 62 50 33 51 34 52 45 54 63 55
REMARK SMILES IDX 36 56 23 57 24 58 29 59 25 60 26 61 28 62 30 63 27 64 49 65
REMARK SMILES IDX 50 66 55 67 51 68 52 69 54 70 56 71 53 72 37 73 38 74 43 75
REMARK SMILES IDX 39 76 40 77 42 78 44 79 41 80
REMARK H PARENT 61 42 35 53
REMARK Flexibility Score: inf
ROOT
ATOM      1  C   UNL     1       2.013  -5.541  -3.325  1.00  0.00     0.274 C 
ENDROOT
BRANCH   1   2
ATOM      2  O   UNL     1       1.496  -4.351  -2.696  1.00  0.00    -0.461 OA
BRANCH   2   3
ATOM      3  C   UNL     1       0.189  -4.069  -2.941  1.00  0.00     0.325 C 
ATOM      4  O   UNL     1      -0.539  -4.713  -3.689  1.00  0.00    -0.250 OA
BRANCH   3   5
ATOM      5  C   UNL     1      -0.344  -2.905  -2.102  1.00  0.00     0.242 C 
BRANCH   5   6
ATOM      6  N   UNL     1       0.640  -2.128  -1.334  1.00  0.00    -0.331 N 
BRANCH   6   7
ATOM      7  C   UNL     1       1.444  -1.163  -2.088  1.00  0.00     0.120 C 
BRANCH   7   8
ATOM      8  C   UNL     1       0.923   0.275  -1.937  1.00  0.00     0.018 C 
ATOM      9  C   UNL     1       1.314   0.943  -0.624  1.00  0.00     0.006 C 
ENDBRANCH   7   8
ENDBRANCH   6   7
BRANCH   6  10
ATOM     10  C   UNL     1       0.900  -2.279   0.024  1.00  0.00     0.227 C 
ATOM     11  O   UNL     1       1.919  -1.810   0.539  1.00  0.00    -0.275 OA
BRANCH  10  12
ATOM     12  C   UNL     1      -0.098  -3.018   0.902  1.00  0.00     0.135 C 
BRANCH  12  13
ATOM     13  C   UNL     1      -1.530  -2.511   0.912  1.00  0.00    -0.036 A 
ATOM     14  C   UNL     1      -1.914  -1.236   0.470  1.00  0.00     0.007 A 
ATOM     15  C   UNL     1      -2.530  -3.372   1.385  1.00  0.00     0.046 A 
ATOM     16  C   UNL     1      -3.264  -0.869   0.416  1.00  0.00     0.043 A 
ATOM     17  C   UNL     1      -3.873  -3.004   1.329  1.00  0.00     0.159 A 
ATOM     18  C   UNL     1      -4.239  -1.764   0.834  1.00  0.00     0.158 A 
ATOM     19  F   UNL     1      -4.809  -3.872   1.730  1.00  0.00    -0.204 F 
ATOM     20  F   UNL     1      -5.530  -1.421   0.748  1.00  0.00    -0.204 F 
ENDBRANCH  12  13
ENDBRANCH  10  12
ENDBRANCH   6  10
ENDBRANCH   5   6
ENDBRANCH   3   5
ENDBRANCH   2   3
ENDBRANCH   1   2
BRANCH   1  21
ATOM     21  C   UNL     1       2.098  -6.677  -2.308  1.00  0.00     0.275 C 
BRANCH  21  22
ATOM     22  O   UNL     1       0.788  -6.944  -1.771  1.00  0.00    -0.458 OA
BRANCH  22  23
ATOM     23  C   UNL     1       0.680  -6.862  -0.425  1.00  0.00     0.338 C 
ATOM     24  O   UNL     1       1.570  -6.638   0.376  1.00  0.00    -0.246 OA
BRANCH  23  25
ATOM     25  C   UNL     1      -0.722  -7.059  -0.003  1.00  0.00     0.060 A 
ATOM     26  C   UNL     1      -1.766  -6.395  -0.646  1.00  0.00     0.016 A 
ATOM     27  C   UNL     1      -0.975  -7.804   1.153  1.00  0.00     0.016 A 
ATOM     28  C   UNL     1      -3.041  -6.402  -0.076  1.00  0.00     0.010 A 
ATOM     29  C   UNL     1      -2.272  -7.875   1.673  1.00  0.00     0.010 A 
ATOM     30  C   UNL     1      -3.313  -7.132   1.097  1.00  0.00    -0.014 A 
BRANCH  30  31
ATOM     31  C   UNL     1      -4.662  -7.068   1.736  1.00  0.00     0.031 A 
ATOM     32  C   UNL     1      -4.838  -6.550   3.147  1.00  0.00     0.074 A 
ATOM     33  C   UNL     1      -5.759  -7.410   1.032  1.00  0.00     0.049 A 
ATOM     34  N   UNL     1      -5.932  -6.457   3.865  1.00  0.00    -0.248 NA
ATOM     35  C   UNL     1      -3.634  -6.063   3.840  1.00  0.00     0.031 C 
ATOM     36  C   UNL     1      -5.763  -7.886  -0.352  1.00  0.00     0.029 A 
ATOM     37  N   UNL     1      -7.089  -7.386   1.377  1.00  0.00    -0.354 N 
ATOM     38  C   UNL     1      -5.551  -5.898   5.079  1.00  0.00     0.074 A 
ATOM     39  C   UNL     1      -4.120  -5.698   5.018  1.00  0.00     0.031 C 
ATOM     40  C   UNL     1      -7.031  -8.050  -0.756  1.00  0.00     0.029 A 
ATOM     41  C   UNL     1      -7.928  -7.776   0.362  1.00  0.00     0.049 A 
ATOM     42  H   UNL     1      -7.410  -7.115   2.268  1.00  0.00     0.167 HD
ATOM     43  C   UNL     1      -6.316  -5.570   6.147  1.00  0.00     0.037 A 
ATOM     44  C   UNL     1      -9.265  -7.932   0.333  1.00  0.00     0.037 A 
ATOM     45  C   UNL     1      -7.742  -5.751   6.228  1.00  0.00     0.049 A 
ATOM     46  C   UNL     1     -10.074  -7.686   1.570  1.00  0.00     0.074 A 
ATOM     47  C   UNL     1      -8.591  -5.451   7.281  1.00  0.00     0.029 A 
ATOM     48  N   UNL     1      -8.528  -6.277   5.218  1.00  0.00    -0.354 N 
ATOM     49  N   UNL     1      -9.686  -7.223   2.731  1.00  0.00    -0.248 NA
ATOM     50  C   UNL     1     -11.504  -8.022   1.502  1.00  0.00     0.031 C 
ATOM     51  C   UNL     1      -9.888  -5.835   6.922  1.00  0.00     0.029 A 
ATOM     52  C   UNL     1      -9.849  -6.343   5.634  1.00  0.00     0.049 A 
ATOM     53  H   UNL     1      -8.199  -6.561   4.335  1.00  0.00     0.167 HD
ATOM     54  C   UNL     1     -10.816  -7.223   3.536  1.00  0.00     0.074 A 
ATOM     55  C   UNL     1     -11.913  -7.706   2.724  1.00  0.00     0.031 C 
ATOM     56  C   UNL     1     -10.929  -6.860   4.836  1.00  0.00     0.037 A 
BRANCH  43  57
ATOM     57  C   UNL     1      -5.621  -4.997   7.345  1.00  0.00     0.057 A 
ATOM     58  C   UNL     1      -5.228  -3.655   7.395  1.00  0.00     0.134 A 
ATOM     59  C   UNL     1      -5.396  -5.784   8.481  1.00  0.00     0.134 A 
ATOM     60  F   UNL     1      -5.405  -2.853   6.334  1.00  0.00    -0.206 F 
ATOM     61  C   UNL     1      -4.628  -3.115   8.535  1.00  0.00     0.040 A 
ATOM     62  C   UNL     1      -4.811  -5.253   9.631  1.00  0.00     0.040 A 
ATOM     63  F   UNL     1      -5.753  -7.077   8.495  1.00  0.00    -0.206 F 
ATOM     64  C   UNL     1      -4.425  -3.914   9.660  1.00  0.00     0.006 A 
ENDBRANCH  43  57
BRANCH  44  65
ATOM     65  C   UNL     1      -9.912  -8.402  -0.916  1.00  0.00     0.057 A 
ATOM     66  C   UNL     1     -10.694  -7.544  -1.693  1.00  0.00     0.134 A 
ATOM     67  C   UNL     1      -9.733  -9.713  -1.375  1.00  0.00     0.134 A 
ATOM     68  F   UNL     1     -10.923  -6.285  -1.289  1.00  0.00    -0.206 F 
ATOM     69  C   UNL     1     -11.269  -7.969  -2.891  1.00  0.00     0.040 A 
ATOM     70  C   UNL     1     -10.281 -10.145  -2.581  1.00  0.00     0.040 A 
ATOM     71  F   UNL     1      -8.995 -10.583  -0.669  1.00  0.00    -0.206 F 
ATOM     72  C   UNL     1     -11.053  -9.270  -3.344  1.00  0.00     0.006 A 
ENDBRANCH  44  65
BRANCH  56  73
ATOM     73  C   UNL     1     -12.278  -7.002   5.470  1.00  0.00     0.057 A 
ATOM     74  C   UNL     1     -12.773  -8.255   5.851  1.00  0.00     0.134 A 
ATOM     75  C   UNL     1     -13.081  -5.883   5.721  1.00  0.00     0.134 A 
ATOM     76  F   UNL     1     -12.056  -9.367   5.624  1.00  0.00    -0.206 F 
ATOM     77  C   UNL     1     -14.028  -8.393   6.445  1.00  0.00     0.040 A 
ATOM     78  C   UNL     1     -14.331  -6.006   6.330  1.00  0.00     0.040 A 
ATOM     79  F   UNL     1     -12.662  -4.654   5.384  1.00  0.00    -0.206 F 
ATOM     80  C   UNL     1     -14.809  -7.265   6.690  1.00  0.00     0.006 A 
ENDBRANCH  56  73
ENDBRANCH  30  31
ENDBRANCH  23  25
ENDBRANCH  22  23
ENDBRANCH  21  22
ENDBRANCH   1  21
TORSDOF 17
