REMARK SMILES COc1cc(OC(F)(F)F)cc2c1O[C@@H](C(F)(F)F)C(C(=O)OCCOC(=O)c1ccc(-c3c4nc(c(-c5c(F)cccc5F)c5ccc([nH]5)c(-c5c(F)cccc5F)c5nc(c(-c6c(F)cccc6F)c6ccc3[nH]6)C=C5)C=C4)cc1)=C2
REMARK SMILES IDX 24 1 23 2 21 3 22 4 20 5 3 6 4 7 13 8 5 9 12 10 14 11 11 12
REMARK SMILES IDX 83 13 15 14 2 15 1 16 6 17 7 18 8 19 9 20 10 21 16 22 17 23
REMARK SMILES IDX 18 24 19 25 25 26 26 27 27 28 28 29 29 30 30 31 82 32 31 33
REMARK SMILES IDX 81 34 32 35 33 36 34 37 75 38 35 39 80 40 74 41 76 42 36 43
REMARK SMILES IDX 79 44 73 45 72 46 37 48 63 49 46 50 62 51 47 52 50 53 61 54
REMARK SMILES IDX 77 55 48 56 49 57 60 59 78 60 51 61 38 62 39 63 44 64 40 65
REMARK SMILES IDX 41 66 43 67 45 68 42 69 64 70 65 71 70 72 66 73 67 74 69 75
REMARK SMILES IDX 71 76 68 77 52 78 53 79 58 80 54 81 55 82 57 83 59 84 56 85
REMARK H PARENT 76 47 50 58
REMARK Flexibility Score: inf
ROOT
ATOM      1  C   UNL     1       8.008   3.841  -3.023  1.00  0.00     0.275 C 
ENDROOT
BRANCH   1   2
ATOM      2  O   UNL     1       6.609   3.487  -2.968  1.00  0.00    -0.459 OA
BRANCH   2   3
ATOM      3  C   UNL     1       6.340   2.162  -2.857  1.00  0.00     0.338 C 
ATOM      4  O   UNL     1       7.174   1.275  -2.804  1.00  0.00    -0.246 OA
BRANCH   3   5
ATOM      5  C   UNL     1       4.887   1.903  -2.741  1.00  0.00     0.087 C 
ATOM      6  C   UNL     1       0.837   0.968  -2.324  1.00  0.00     0.165 A 
ATOM      7  C   UNL     1      -0.144   1.798  -2.865  1.00  0.00     0.097 A 
ATOM      8  C   UNL     1       2.190   1.231  -2.553  1.00  0.00     0.170 A 
ATOM      9  C   UNL     1       0.227   2.921  -3.605  1.00  0.00     0.134 A 
ATOM     10  C   UNL     1       2.578   2.386  -3.235  1.00  0.00     0.025 A 
ATOM     11  O   UNL     1       3.103   0.284  -2.184  1.00  0.00    -0.471 OA
ATOM     12  C   UNL     1       1.589   3.230  -3.756  1.00  0.00     0.059 A 
ATOM     13  C   UNL     1       4.004   2.663  -3.416  1.00  0.00     0.027 C 
ATOM     14  C   UNL     1       4.418   0.783  -1.830  1.00  0.00     0.316 C 
BRANCH   6  15
ATOM     15  O   UNL     1       0.405  -0.124  -1.616  1.00  0.00    -0.493 OA
ATOM     16  C   UNL     1       0.771  -0.025  -0.237  1.00  0.00     0.278 C 
ENDBRANCH   6  15
BRANCH   9  17
ATOM     17  O   UNL     1      -0.632   3.794  -4.214  1.00  0.00    -0.406 OA
BRANCH  17  18
ATOM     18  C   UNL     1      -1.978   3.371  -4.384  1.00  0.00     0.573 C 
ATOM     19  F   UNL     1      -2.045   2.164  -4.984  1.00  0.00    -0.132 F 
ATOM     20  F   UNL     1      -2.620   3.324  -3.197  1.00  0.00    -0.132 F 
ATOM     21  F   UNL     1      -2.616   4.265  -5.171  1.00  0.00    -0.132 F 
ENDBRANCH  17  18
ENDBRANCH   9  17
BRANCH  14  22
ATOM     22  C   UNL     1       5.328  -0.445  -1.625  1.00  0.00     0.430 C 
ATOM     23  F   UNL     1       6.416  -0.147  -0.878  1.00  0.00    -0.167 F 
ATOM     24  F   UNL     1       4.667  -1.408  -0.926  1.00  0.00    -0.167 F 
ATOM     25  F   UNL     1       5.727  -1.006  -2.784  1.00  0.00    -0.167 F 
ENDBRANCH  14  22
ENDBRANCH   3   5
ENDBRANCH   2   3
ENDBRANCH   1   2
BRANCH   1  26
ATOM     26  C   UNL     1       8.474   4.523  -1.734  1.00  0.00     0.275 C 
BRANCH  26  27
ATOM     27  O   UNL     1       8.279   3.670  -0.591  1.00  0.00    -0.458 OA
BRANCH  27  28
ATOM     28  C   UNL     1       7.136   3.904   0.098  1.00  0.00     0.338 C 
ATOM     29  O   UNL     1       6.324   4.791  -0.114  1.00  0.00    -0.246 OA
BRANCH  28  30
ATOM     30  C   UNL     1       6.881   2.815   1.063  1.00  0.00     0.060 A 
ATOM     31  C   UNL     1       5.555   2.390   1.188  1.00  0.00     0.016 A 
ATOM     32  C   UNL     1       7.882   2.228   1.844  1.00  0.00     0.016 A 
ATOM     33  C   UNL     1       5.227   1.350   2.053  1.00  0.00     0.010 A 
ATOM     34  C   UNL     1       7.545   1.212   2.750  1.00  0.00     0.010 A 
ATOM     35  C   UNL     1       6.216   0.770   2.857  1.00  0.00    -0.014 A 
BRANCH  35  36
ATOM     36  C   UNL     1       5.789  -0.190   3.900  1.00  0.00     0.031 A 
ATOM     37  C   UNL     1       5.263   0.346   5.200  1.00  0.00     0.074 A 
ATOM     38  C   UNL     1       5.770  -1.513   3.663  1.00  0.00     0.049 A 
ATOM     39  N   UNL     1       4.675  -0.286   6.183  1.00  0.00    -0.248 NA
ATOM     40  C   UNL     1       5.400   1.796   5.405  1.00  0.00     0.031 C 
ATOM     41  C   UNL     1       6.201  -2.159   2.425  1.00  0.00     0.029 A 
ATOM     42  N   UNL     1       5.345  -2.549   4.456  1.00  0.00    -0.354 N 
ATOM     43  C   UNL     1       4.342   0.692   7.110  1.00  0.00     0.074 A 
ATOM     44  C   UNL     1       4.827   1.953   6.588  1.00  0.00     0.031 C 
ATOM     45  C   UNL     1       6.011  -3.485   2.539  1.00  0.00     0.029 A 
ATOM     46  C   UNL     1       5.453  -3.780   3.859  1.00  0.00     0.049 A 
ATOM     47  H   UNL     1       4.995  -2.421   5.368  1.00  0.00     0.167 HD
ATOM     48  C   UNL     1       3.683   0.556   8.285  1.00  0.00     0.037 A 
ATOM     49  C   UNL     1       5.130  -5.001   4.325  1.00  0.00     0.037 A 
ATOM     50  C   UNL     1       3.251  -0.700   8.836  1.00  0.00     0.049 A 
ATOM     51  C   UNL     1       4.508  -5.139   5.691  1.00  0.00     0.074 A 
ATOM     52  C   UNL     1       2.593  -0.940  10.030  1.00  0.00     0.029 A 
ATOM     53  N   UNL     1       3.461  -1.935   8.241  1.00  0.00    -0.354 N 
ATOM     54  N   UNL     1       4.146  -4.205   6.537  1.00  0.00    -0.248 NA
ATOM     55  C   UNL     1       4.241  -6.507   6.158  1.00  0.00     0.031 C 
ATOM     56  C   UNL     1       2.452  -2.325  10.181  1.00  0.00     0.029 A 
ATOM     57  C   UNL     1       2.973  -2.944   9.056  1.00  0.00     0.049 A 
ATOM     58  H   UNL     1       3.893  -2.075   7.367  1.00  0.00     0.167 HD
ATOM     59  C   UNL     1       3.568  -4.869   7.614  1.00  0.00     0.074 A 
ATOM     60  C   UNL     1       3.629  -6.284   7.313  1.00  0.00     0.031 C 
ATOM     61  C   UNL     1       3.027  -4.351   8.745  1.00  0.00     0.037 A 
BRANCH  48  62
ATOM     62  C   UNL     1       3.438   1.813   9.066  1.00  0.00     0.057 A 
ATOM     63  C   UNL     1       2.501   2.768   8.649  1.00  0.00     0.134 A 
ATOM     64  C   UNL     1       4.164   2.082  10.232  1.00  0.00     0.134 A 
ATOM     65  F   UNL     1       1.788   2.578   7.529  1.00  0.00    -0.206 F 
ATOM     66  C   UNL     1       2.320   3.963   9.347  1.00  0.00     0.040 A 
ATOM     67  C   UNL     1       3.975   3.263  10.951  1.00  0.00     0.040 A 
ATOM     68  F   UNL     1       5.077   1.209  10.683  1.00  0.00    -0.206 F 
ATOM     69  C   UNL     1       3.058   4.212  10.503  1.00  0.00     0.006 A 
ENDBRANCH  48  62
BRANCH  49  70
ATOM     70  C   UNL     1       5.362  -6.205   3.488  1.00  0.00     0.057 A 
ATOM     71  C   UNL     1       4.292  -6.933   2.955  1.00  0.00     0.134 A 
ATOM     72  C   UNL     1       6.654  -6.679   3.238  1.00  0.00     0.134 A 
ATOM     73  F   UNL     1       3.029  -6.544   3.186  1.00  0.00    -0.206 F 
ATOM     74  C   UNL     1       4.497  -8.100   2.217  1.00  0.00     0.040 A 
ATOM     75  C   UNL     1       6.876  -7.832   2.483  1.00  0.00     0.040 A 
ATOM     76  F   UNL     1       7.721  -6.031   3.728  1.00  0.00    -0.206 F 
ATOM     77  C   UNL     1       5.794  -8.550   1.976  1.00  0.00     0.006 A 
ENDBRANCH  49  70
BRANCH  61  78
ATOM     78  C   UNL     1       2.408  -5.314   9.717  1.00  0.00     0.057 A 
ATOM     79  C   UNL     1       3.177  -6.188  10.496  1.00  0.00     0.134 A 
ATOM     80  C   UNL     1       1.017  -5.350   9.892  1.00  0.00     0.134 A 
ATOM     81  F   UNL     1       4.512  -6.214  10.371  1.00  0.00    -0.206 F 
ATOM     82  C   UNL     1       2.585  -7.082  11.391  1.00  0.00     0.040 A 
ATOM     83  C   UNL     1       0.416  -6.219  10.803  1.00  0.00     0.040 A 
ATOM     84  F   UNL     1       0.221  -4.533   9.185  1.00  0.00    -0.206 F 
ATOM     85  C   UNL     1       1.200  -7.095  11.550  1.00  0.00     0.006 A 
ENDBRANCH  61  78
ENDBRANCH  35  36
ENDBRANCH  28  30
ENDBRANCH  27  28
ENDBRANCH  26  27
ENDBRANCH   1  26
TORSDOF 15
