REMARK SMILES CC[N@@H+]1CC[C@H](C[NH2+]Cc2cc(C(=O)OCCOC(=O)c3ccc(-c4c5nc(c(-c6c(F)cccc6F)c6ccc([nH]6)c(-c6c(F)cccc6F)c6nc(c(-c7c(F)cccc7F)c7ccc4[nH]7)C=C6)C=C5)cc3)cs2)C1
REMARK SMILES IDX 15 1 13 2 14 3 12 4 10 5 11 6 76 7 75 8 9 9 8 10 7 13 6 14
REMARK SMILES IDX 3 15 4 16 77 17 5 19 2 20 1 21 16 22 17 23 18 24 19 25 20 26
REMARK SMILES IDX 21 27 22 28 74 29 23 30 73 31 24 32 25 33 26 34 67 35 27 36
REMARK SMILES IDX 72 37 66 38 68 39 28 40 71 41 65 42 64 43 29 45 55 46 38 47
REMARK SMILES IDX 54 48 39 49 42 50 53 51 69 52 40 53 41 54 52 56 70 57 43 58
REMARK SMILES IDX 30 59 31 60 36 61 32 62 33 63 35 64 37 65 34 66 56 67 57 68
REMARK SMILES IDX 62 69 58 70 59 71 61 72 63 73 60 74 44 75 45 76 50 77 46 78
REMARK SMILES IDX 47 79 49 80 51 81 48 82
REMARK H PARENT 8 11 8 12 3 18 68 44 42 55
REMARK Flexibility Score: inf
ROOT
ATOM      1  O   UNL     1       3.193   0.705   5.039  1.00  0.00    -0.458 OA
ENDROOT
BRANCH   1   2
ATOM      2  C   UNL     1       2.033   1.375   5.307  1.00  0.00     0.339 C 
ATOM      3  O   UNL     1       1.005   0.849   5.700  1.00  0.00    -0.246 OA
BRANCH   2   4
ATOM      4  C   UNL     1       2.150   2.821   5.111  1.00  0.00     0.071 A 
ATOM      5  C   UNL     1       2.913   4.884   4.312  1.00  0.00     0.059 A 
ATOM      6  C   UNL     1       3.212   3.541   4.472  1.00  0.00     0.037 A 
ATOM      7  S   UNL     1       1.528   5.328   5.213  1.00  0.00    -0.142 S 
ATOM      8  C   UNL     1       1.164   3.696   5.537  1.00  0.00     0.081 A 
BRANCH   5   9
ATOM      9  C   UNL     1       3.548   5.885   3.390  1.00  0.00     0.308 C 
BRANCH   9  10
ATOM     10  N   UNL     1       3.584   5.385   2.003  1.00  0.00    -0.341 N 
ATOM     11  H   UNL     1       3.970   6.115   1.404  1.00  0.00     0.346 HD
ATOM     12  H   UNL     1       4.161   4.545   1.995  1.00  0.00     0.346 HD
BRANCH  10  13
ATOM     13  C   UNL     1       2.252   5.014   1.496  1.00  0.00     0.270 C 
BRANCH  13  14
ATOM     14  C   UNL     1       2.336   4.200   0.202  1.00  0.00     0.105 C 
ATOM     15  N   UNL     1       1.181   2.217  -0.623  1.00  0.00    -0.335 N 
ATOM     16  C   UNL     1       2.635   2.067  -0.771  1.00  0.00     0.262 C 
ATOM     17  C   UNL     1       0.970   3.631  -0.224  1.00  0.00     0.271 C 
ATOM     18  H   UNL     1       0.717   1.977  -1.498  1.00  0.00     0.348 HD
ATOM     19  C   UNL     1       3.222   2.963   0.296  1.00  0.00     0.076 C 
BRANCH  15  20
ATOM     20  C   UNL     1       0.589   1.304   0.371  1.00  0.00     0.258 C 
ATOM     21  C   UNL     1       0.763  -0.174   0.029  1.00  0.00     0.071 C 
ENDBRANCH  15  20
ENDBRANCH  13  14
ENDBRANCH  10  13
ENDBRANCH   9  10
ENDBRANCH   5   9
ENDBRANCH   2   4
ENDBRANCH   1   2
BRANCH   1  22
ATOM     22  C   UNL     1       3.167  -0.709   5.310  1.00  0.00     0.275 C 
BRANCH  22  23
ATOM     23  C   UNL     1       3.775  -1.029   6.679  1.00  0.00     0.275 C 
BRANCH  23  24
ATOM     24  O   UNL     1       2.961  -0.511   7.750  1.00  0.00    -0.458 OA
BRANCH  24  25
ATOM     25  C   UNL     1       3.428   0.613   8.342  1.00  0.00     0.338 C 
ATOM     26  O   UNL     1       4.465   1.204   8.093  1.00  0.00    -0.246 OA
BRANCH  25  27
ATOM     27  C   UNL     1       2.419   1.147   9.269  1.00  0.00     0.060 A 
ATOM     28  C   UNL     1       1.615   2.184   8.804  1.00  0.00     0.016 A 
ATOM     29  C   UNL     1       2.346   0.751  10.603  1.00  0.00     0.016 A 
ATOM     30  C   UNL     1       0.745   2.849   9.659  1.00  0.00     0.010 A 
ATOM     31  C   UNL     1       1.446   1.402  11.463  1.00  0.00     0.010 A 
ATOM     32  C   UNL     1       0.651   2.469  11.002  1.00  0.00    -0.014 A 
BRANCH  32  33
ATOM     33  C   UNL     1      -0.237   3.250  11.905  1.00  0.00     0.031 A 
ATOM     34  C   UNL     1       0.350   4.096  13.002  1.00  0.00     0.074 A 
ATOM     35  C   UNL     1      -1.567   3.268  11.690  1.00  0.00     0.049 A 
ATOM     36  N   UNL     1      -0.260   4.814  13.911  1.00  0.00    -0.248 NA
ATOM     37  C   UNL     1       1.818   4.136  13.091  1.00  0.00     0.031 C 
ATOM     38  C   UNL     1      -2.261   2.536  10.630  1.00  0.00     0.029 A 
ATOM     39  N   UNL     1      -2.571   3.944  12.339  1.00  0.00    -0.354 N 
ATOM     40  C   UNL     1       0.744   5.359  14.702  1.00  0.00     0.074 A 
ATOM     41  C   UNL     1       2.003   4.878  14.173  1.00  0.00     0.031 C 
ATOM     42  C   UNL     1      -3.571   2.828  10.680  1.00  0.00     0.029 A 
ATOM     43  C   UNL     1      -3.818   3.715  11.812  1.00  0.00     0.049 A 
ATOM     44  H   UNL     1      -2.412   4.536  13.110  1.00  0.00     0.167 HD
ATOM     45  C   UNL     1       0.627   6.188  15.768  1.00  0.00     0.037 A 
ATOM     46  C   UNL     1      -5.030   4.149  12.208  1.00  0.00     0.037 A 
ATOM     47  C   UNL     1      -0.623   6.699  16.270  1.00  0.00     0.049 A 
ATOM     48  C   UNL     1      -5.135   5.040  13.412  1.00  0.00     0.074 A 
ATOM     49  C   UNL     1      -0.840   7.556  17.335  1.00  0.00     0.029 A 
ATOM     50  N   UNL     1      -1.869   6.406  15.735  1.00  0.00    -0.354 N 
ATOM     51  N   UNL     1      -4.180   5.524  14.169  1.00  0.00    -0.248 NA
ATOM     52  C   UNL     1      -6.488   5.438  13.825  1.00  0.00     0.031 C 
ATOM     53  C   UNL     1      -2.219   7.749  17.471  1.00  0.00     0.029 A 
ATOM     54  C   UNL     1      -2.860   7.050  16.461  1.00  0.00     0.049 A 
ATOM     55  H   UNL     1      -2.027   5.826  14.956  1.00  0.00     0.167 HD
ATOM     56  C   UNL     1      -4.814   6.289  15.139  1.00  0.00     0.074 A 
ATOM     57  C   UNL     1      -6.233   6.228  14.857  1.00  0.00     0.031 C 
ATOM     58  C   UNL     1      -4.270   6.973  16.175  1.00  0.00     0.037 A 
BRANCH  45  59
ATOM     59  C   UNL     1       1.889   6.564  16.491  1.00  0.00     0.057 A 
ATOM     60  C   UNL     1       2.831   7.443  15.943  1.00  0.00     0.134 A 
ATOM     61  C   UNL     1       2.151   6.052  17.769  1.00  0.00     0.134 A 
ATOM     62  F   UNL     1       2.649   7.958  14.718  1.00  0.00    -0.206 F 
ATOM     63  C   UNL     1       4.001   7.779  16.629  1.00  0.00     0.040 A 
ATOM     64  C   UNL     1       3.303   6.401  18.475  1.00  0.00     0.040 A 
ATOM     65  F   UNL     1       1.288   5.209  18.355  1.00  0.00    -0.206 F 
ATOM     66  C   UNL     1       4.236   7.262  17.902  1.00  0.00     0.006 A 
ENDBRANCH  45  59
BRANCH  46  67
ATOM     67  C   UNL     1      -6.248   3.718  11.474  1.00  0.00     0.057 A 
ATOM     68  C   UNL     1      -7.009   4.627  10.731  1.00  0.00     0.134 A 
ATOM     69  C   UNL     1      -6.682   2.387  11.505  1.00  0.00     0.134 A 
ATOM     70  F   UNL     1      -6.660   5.921  10.684  1.00  0.00    -0.206 F 
ATOM     71  C   UNL     1      -8.164   4.231  10.053  1.00  0.00     0.040 A 
ATOM     72  C   UNL     1      -7.818   1.971  10.809  1.00  0.00     0.040 A 
ATOM     73  F   UNL     1      -5.997   1.467  12.200  1.00  0.00    -0.206 F 
ATOM     74  C   UNL     1      -8.566   2.897  10.085  1.00  0.00     0.006 A 
ENDBRANCH  46  67
BRANCH  58  75
ATOM     75  C   UNL     1      -5.218   7.724  17.064  1.00  0.00     0.057 A 
ATOM     76  C   UNL     1      -6.077   7.064  17.953  1.00  0.00     0.134 A 
ATOM     77  C   UNL     1      -5.270   9.124  17.035  1.00  0.00     0.134 A 
ATOM     78  F   UNL     1      -6.088   5.724  18.018  1.00  0.00    -0.206 F 
ATOM     79  C   UNL     1      -6.977   7.767  18.756  1.00  0.00     0.040 A 
ATOM     80  C   UNL     1      -6.146   9.839  17.854  1.00  0.00     0.040 A 
ATOM     81  F   UNL     1      -4.468   9.819  16.214  1.00  0.00    -0.206 F 
ATOM     82  C   UNL     1      -7.010   9.159  18.710  1.00  0.00     0.006 A 
ENDBRANCH  58  75
ENDBRANCH  32  33
ENDBRANCH  25  27
ENDBRANCH  24  25
ENDBRANCH  23  24
ENDBRANCH  22  23
ENDBRANCH   1  22
TORSDOF 16
