REMARK SMILES Cc1cc(C(=O)OCCOC(=O)c2ccc(-c3c4nc(c(-c5c(F)cccc5F)c5ccc([nH]5)c(-c5c(F)cccc5F)c5nc(c(-c6c(F)cccc6F)c6ccc3[nH]6)C=C5)C=C4)cc2)c(O)c(S(=O)(=O)N2CCCc3cc(F)cc(F)c32)c1
REMARK SMILES IDX 8 1 7 2 5 3 6 4 4 5 1 6 2 7 3 8 85 9 69 10 67 11 70 12 71 13
REMARK SMILES IDX 72 14 73 15 74 16 84 17 75 18 77 19 82 20 76 21 78 22 81 23
REMARK SMILES IDX 83 24 79 25 80 26 68 27 9 29 10 30 11 31 12 32 13 33 14 34
REMARK SMILES IDX 66 35 15 36 65 37 16 38 17 39 18 40 59 41 19 42 64 43 58 44
REMARK SMILES IDX 60 45 20 46 63 47 57 48 56 49 21 51 47 52 30 53 46 54 31 55
REMARK SMILES IDX 34 56 45 57 61 58 32 59 33 60 44 62 62 63 35 64 22 65 23 66
REMARK SMILES IDX 28 67 24 68 25 69 27 70 29 71 26 72 48 73 49 74 54 75 50 76
REMARK SMILES IDX 51 77 53 78 55 79 52 80 36 81 37 82 42 83 38 84 39 85 41 86
REMARK SMILES IDX 43 87 40 88
REMARK H PARENT 68 28 60 50 34 61
REMARK Flexibility Score: inf
ROOT
ATOM      1  C   UNL     1      -3.136   3.469  -0.162  1.00  0.00     0.275 C 
ENDROOT
BRANCH   1   2
ATOM      2  O   UNL     1      -2.350   2.281   0.046  1.00  0.00    -0.458 OA
BRANCH   2   3
ATOM      3  C   UNL     1      -1.317   2.076  -0.806  1.00  0.00     0.342 C 
ATOM      4  O   UNL     1      -0.875   2.870  -1.625  1.00  0.00    -0.246 OA
BRANCH   3   5
ATOM      5  C   UNL     1      -0.721   0.736  -0.607  1.00  0.00     0.103 A 
ATOM      6  C   UNL     1       2.716  -0.799  -0.123  1.00  0.00     0.044 C 
ATOM      7  C   UNL     1       1.238  -0.716  -0.383  1.00  0.00    -0.049 A 
ATOM      8  C   UNL     1       0.659   0.565  -0.472  1.00  0.00     0.023 A 
ATOM      9  C   UNL     1       0.433  -1.857  -0.544  1.00  0.00     0.029 A 
ATOM     10  C   UNL     1      -0.941  -1.682  -0.697  1.00  0.00     0.130 A 
ATOM     11  C   UNL     1      -1.521  -0.390  -0.670  1.00  0.00     0.150 A 
BRANCH  10  12
ATOM     12  S   UNL     1      -2.121  -2.939  -0.993  1.00  0.00     0.268 S 
ATOM     13  O   UNL     1      -3.100  -2.660   0.051  1.00  0.00    -0.201 OA
ATOM     14  O   UNL     1      -2.499  -2.763  -2.381  1.00  0.00    -0.201 OA
BRANCH  12  15
ATOM     15  N   UNL     1      -1.628  -4.610  -0.803  1.00  0.00    -0.263 N 
ATOM     16  C   UNL     1      -0.877  -4.986   0.427  1.00  0.00     0.136 C 
ATOM     17  C   UNL     1      -2.897  -5.366  -0.980  1.00  0.00     0.091 A 
ATOM     18  C   UNL     1      -1.688  -5.797   1.439  1.00  0.00     0.028 C 
ATOM     19  C   UNL     1      -3.749  -5.372   0.147  1.00  0.00    -0.018 A 
ATOM     20  C   UNL     1      -3.456  -5.463  -2.264  1.00  0.00     0.150 A 
ATOM     21  C   UNL     1      -3.136  -5.330   1.523  1.00  0.00     0.040 C 
ATOM     22  C   UNL     1      -5.120  -5.169  -0.047  1.00  0.00     0.045 A 
ATOM     23  C   UNL     1      -4.824  -5.314  -2.451  1.00  0.00     0.080 A 
ATOM     24  F   UNL     1      -2.657  -5.536  -3.340  1.00  0.00    -0.205 F 
ATOM     25  C   UNL     1      -5.631  -5.094  -1.341  1.00  0.00     0.126 A 
ATOM     26  F   UNL     1      -6.916  -4.758  -1.519  1.00  0.00    -0.207 F 
ENDBRANCH  12  15
ENDBRANCH  10  12
BRANCH  11  27
ATOM     27  O   UNL     1      -2.879  -0.190  -0.755  1.00  0.00    -0.506 OA
ATOM     28  H   UNL     1      -3.227   0.680  -0.734  1.00  0.00     0.293 HD
ENDBRANCH  11  27
ENDBRANCH   3   5
ENDBRANCH   2   3
ENDBRANCH   1   2
BRANCH   1  29
ATOM     29  C   UNL     1      -2.940   4.461   0.982  1.00  0.00     0.275 C 
BRANCH  29  30
ATOM     30  O   UNL     1      -1.585   4.942   0.992  1.00  0.00    -0.458 OA
BRANCH  30  31
ATOM     31  C   UNL     1      -0.774   4.317   1.873  1.00  0.00     0.338 C 
ATOM     32  O   UNL     1      -1.070   3.483   2.710  1.00  0.00    -0.246 OA
BRANCH  31  33
ATOM     33  C   UNL     1       0.619   4.699   1.618  1.00  0.00     0.060 A 
ATOM     34  C   UNL     1       1.308   3.992   0.642  1.00  0.00     0.016 A 
ATOM     35  C   UNL     1       1.293   5.585   2.448  1.00  0.00     0.016 A 
ATOM     36  C   UNL     1       2.691   4.055   0.567  1.00  0.00     0.010 A 
ATOM     37  C   UNL     1       2.675   5.746   2.289  1.00  0.00     0.010 A 
ATOM     38  C   UNL     1       3.396   4.949   1.377  1.00  0.00    -0.014 A 
BRANCH  38  39
ATOM     39  C   UNL     1       4.880   5.015   1.289  1.00  0.00     0.031 A 
ATOM     40  C   UNL     1       5.722   4.782   2.515  1.00  0.00     0.074 A 
ATOM     41  C   UNL     1       5.479   5.261   0.106  1.00  0.00     0.049 A 
ATOM     42  N   UNL     1       7.007   4.965   2.686  1.00  0.00    -0.248 NA
ATOM     43  C   UNL     1       5.024   4.291   3.714  1.00  0.00     0.031 C 
ATOM     44  C   UNL     1       4.791   5.448  -1.174  1.00  0.00     0.029 A 
ATOM     45  N   UNL     1       6.808   5.390  -0.216  1.00  0.00    -0.354 N 
ATOM     46  C   UNL     1       7.257   4.678   4.022  1.00  0.00     0.074 A 
ATOM     47  C   UNL     1       5.991   4.312   4.620  1.00  0.00     0.031 C 
ATOM     48  C   UNL     1       5.699   5.624  -2.144  1.00  0.00     0.029 A 
ATOM     49  C   UNL     1       7.025   5.672  -1.543  1.00  0.00     0.049 A 
ATOM     50  H   UNL     1       7.535   5.290   0.441  1.00  0.00     0.167 HD
ATOM     51  C   UNL     1       8.437   4.719   4.688  1.00  0.00     0.037 A 
ATOM     52  C   UNL     1       8.155   5.990  -2.200  1.00  0.00     0.037 A 
ATOM     53  C   UNL     1       9.700   5.038   4.071  1.00  0.00     0.049 A 
ATOM     54  C   UNL     1       9.440   6.083  -1.431  1.00  0.00     0.074 A 
ATOM     55  C   UNL     1      10.956   5.083   4.651  1.00  0.00     0.029 A 
ATOM     56  N   UNL     1       9.866   5.359   2.732  1.00  0.00    -0.354 N 
ATOM     57  N   UNL     1       9.661   5.851  -0.160  1.00  0.00    -0.248 NA
ATOM     58  C   UNL     1      10.630   6.501  -2.183  1.00  0.00     0.031 C 
ATOM     59  C   UNL     1      11.874   5.481   3.674  1.00  0.00     0.029 A 
ATOM     60  C   UNL     1      11.201   5.627   2.471  1.00  0.00     0.049 A 
ATOM     61  H   UNL     1       9.143   5.392   2.064  1.00  0.00     0.167 HD
ATOM     62  C   UNL     1      11.016   6.076   0.038  1.00  0.00     0.074 A 
ATOM     63  C   UNL     1      11.569   6.445  -1.250  1.00  0.00     0.031 C 
ATOM     64  C   UNL     1      11.736   5.988   1.183  1.00  0.00     0.037 A 
BRANCH  51  65
ATOM     65  C   UNL     1       8.410   4.460   6.168  1.00  0.00     0.057 A 
ATOM     66  C   UNL     1       8.153   3.193   6.707  1.00  0.00     0.134 A 
ATOM     67  C   UNL     1       8.669   5.501   7.071  1.00  0.00     0.134 A 
ATOM     68  F   UNL     1       7.884   2.153   5.902  1.00  0.00    -0.206 F 
ATOM     69  C   UNL     1       8.123   2.977   8.087  1.00  0.00     0.040 A 
ATOM     70  C   UNL     1       8.672   5.292   8.451  1.00  0.00     0.040 A 
ATOM     71  F   UNL     1       8.930   6.739   6.626  1.00  0.00    -0.206 F 
ATOM     72  C   UNL     1       8.389   4.028   8.963  1.00  0.00     0.006 A 
ENDBRANCH  51  65
BRANCH  52  73
ATOM     73  C   UNL     1       8.108   6.288  -3.655  1.00  0.00     0.057 A 
ATOM     74  C   UNL     1       8.713   5.438  -4.587  1.00  0.00     0.134 A 
ATOM     75  C   UNL     1       7.446   7.420  -4.149  1.00  0.00     0.134 A 
ATOM     76  F   UNL     1       9.380   4.351  -4.174  1.00  0.00    -0.206 F 
ATOM     77  C   UNL     1       8.668   5.706  -5.956  1.00  0.00     0.040 A 
ATOM     78  C   UNL     1       7.367   7.683  -5.517  1.00  0.00     0.040 A 
ATOM     79  F   UNL     1       6.843   8.274  -3.309  1.00  0.00    -0.206 F 
ATOM     80  C   UNL     1       7.985   6.826  -6.425  1.00  0.00     0.006 A 
ENDBRANCH  52  73
BRANCH  64  81
ATOM     81  C   UNL     1      13.209   6.253   1.082  1.00  0.00     0.057 A 
ATOM     82  C   UNL     1      13.719   7.541   0.874  1.00  0.00     0.134 A 
ATOM     83  C   UNL     1      14.130   5.207   1.219  1.00  0.00     0.134 A 
ATOM     84  F   UNL     1      12.890   8.584   0.718  1.00  0.00    -0.206 F 
ATOM     85  C   UNL     1      15.092   7.774   0.781  1.00  0.00     0.040 A 
ATOM     86  C   UNL     1      15.505   5.432   1.157  1.00  0.00     0.040 A 
ATOM     87  F   UNL     1      13.708   3.950   1.427  1.00  0.00    -0.206 F 
ATOM     88  C   UNL     1      15.989   6.718   0.930  1.00  0.00     0.006 A 
ENDBRANCH  64  81
ENDBRANCH  38  39
ENDBRANCH  31  33
ENDBRANCH  30  31
ENDBRANCH  29  30
ENDBRANCH   1  29
TORSDOF 14
