REMARK SMILES CC(C)(C)c1cc2c(cc1Cl)C=C(C(=O)OCCOC(=O)c1ccc(-c3c4nc(c(-c5c(F)cccc5F)c5ccc([nH]5)c(-c5c(F)cccc5F)c5nc(c(-c6c(F)cccc6F)c6ccc3[nH]6)C=C5)C=C4)cc1)[C@H](C(F)(F)F)O2
REMARK SMILES IDX 18 1 17 2 16 3 14 4 15 5 13 6 5 7 6 8 10 9 7 10 9 11 11 12
REMARK SMILES IDX 8 13 81 14 12 15 76 16 2 17 1 18 3 19 4 20 77 21 78 22 79 23
REMARK SMILES IDX 80 24 19 25 20 26 21 27 22 28 23 29 75 30 24 31 74 32 25 33
REMARK SMILES IDX 26 34 27 35 68 36 28 37 73 38 67 39 69 40 29 41 72 42 66 43
REMARK SMILES IDX 65 44 30 46 56 47 39 48 55 49 40 50 43 51 54 52 70 53 41 54
REMARK SMILES IDX 42 55 53 57 71 58 44 59 31 60 32 61 37 62 33 63 34 64 36 65
REMARK SMILES IDX 38 66 35 67 57 68 58 69 63 70 59 71 60 72 62 73 64 74 61 75
REMARK SMILES IDX 45 76 46 77 51 78 47 79 48 80 50 81 52 82 49 83
REMARK H PARENT 69 45 43 56
REMARK Flexibility Score: inf
ROOT
ATOM      1  C   UNL     1       2.808  -7.736   8.178  1.00  0.00     0.275 C 
ENDROOT
BRANCH   1   2
ATOM      2  C   UNL     1       4.064  -7.027   7.664  1.00  0.00     0.275 C 
BRANCH   2   3
ATOM      3  O   UNL     1       3.729  -5.759   7.059  1.00  0.00    -0.459 OA
BRANCH   3   4
ATOM      4  C   UNL     1       3.822  -5.691   5.716  1.00  0.00     0.338 C 
ATOM      5  O   UNL     1       4.242  -6.574   4.984  1.00  0.00    -0.246 OA
BRANCH   4   6
ATOM      6  C   UNL     1       3.223  -4.439   5.208  1.00  0.00     0.087 C 
ATOM      7  C   UNL     1       0.875  -1.049   2.260  1.00  0.00    -0.020 A 
ATOM      8  C   UNL     1       1.743  -0.980   3.385  1.00  0.00     0.053 A 
ATOM      9  C   UNL     1       0.537  -2.348   1.810  1.00  0.00     0.045 A 
ATOM     10  C   UNL     1       2.276  -2.123   3.990  1.00  0.00     0.128 A 
ATOM     11  C   UNL     1       1.100  -3.487   2.400  1.00  0.00     0.032 A 
ATOM     12  Cl  UNL     1      -0.551  -2.694   0.510  1.00  0.00    -0.084 Cl
ATOM     13  C   UNL     1       1.990  -3.369   3.462  1.00  0.00     0.019 A 
ATOM     14  O   UNL     1       3.133  -1.961   5.049  1.00  0.00    -0.475 OA
ATOM     15  C   UNL     1       2.661  -4.534   3.995  1.00  0.00     0.027 C 
ATOM     16  C   UNL     1       3.312  -3.122   5.940  1.00  0.00     0.316 C 
BRANCH   7  17
ATOM     17  C   UNL     1       0.399   0.251   1.561  1.00  0.00    -0.012 C 
ATOM     18  C   UNL     1       0.926   0.295   0.107  1.00  0.00     0.016 C 
ATOM     19  C   UNL     1       0.936   1.544   2.234  1.00  0.00     0.016 C 
ATOM     20  C   UNL     1      -1.139   0.385   1.579  1.00  0.00     0.016 C 
ENDBRANCH   7  17
BRANCH  16  21
ATOM     21  C   UNL     1       2.398  -2.949   7.167  1.00  0.00     0.430 C 
ATOM     22  F   UNL     1       2.723  -3.779   8.182  1.00  0.00    -0.167 F 
ATOM     23  F   UNL     1       2.516  -1.690   7.667  1.00  0.00    -0.167 F 
ATOM     24  F   UNL     1       1.095  -3.140   6.870  1.00  0.00    -0.167 F 
ENDBRANCH  16  21
ENDBRANCH   4   6
ENDBRANCH   3   4
ENDBRANCH   2   3
ENDBRANCH   1   2
BRANCH   1  25
ATOM     25  O   UNL     1       2.008  -8.220   7.080  1.00  0.00    -0.458 OA
BRANCH  25  26
ATOM     26  C   UNL     1       0.870  -7.534   6.833  1.00  0.00     0.338 C 
ATOM     27  O   UNL     1       0.441  -6.561   7.432  1.00  0.00    -0.246 OA
BRANCH  26  28
ATOM     28  C   UNL     1       0.251  -8.050   5.603  1.00  0.00     0.060 A 
ATOM     29  C   UNL     1      -0.762  -9.004   5.617  1.00  0.00     0.016 A 
ATOM     30  C   UNL     1       0.645  -7.470   4.402  1.00  0.00     0.016 A 
ATOM     31  C   UNL     1      -1.350  -9.395   4.403  1.00  0.00     0.010 A 
ATOM     32  C   UNL     1       0.016  -7.803   3.207  1.00  0.00     0.010 A 
ATOM     33  C   UNL     1      -0.973  -8.793   3.185  1.00  0.00    -0.014 A 
BRANCH  33  34
ATOM     34  C   UNL     1      -1.583  -9.183   1.882  1.00  0.00     0.031 A 
ATOM     35  C   UNL     1      -0.723  -9.730   0.767  1.00  0.00     0.074 A 
ATOM     36  C   UNL     1      -2.897  -8.980   1.660  1.00  0.00     0.049 A 
ATOM     37  N   UNL     1      -1.057 -10.057  -0.458  1.00  0.00    -0.248 NA
ATOM     38  C   UNL     1       0.711  -9.896   1.055  1.00  0.00     0.031 C 
ATOM     39  C   UNL     1      -3.836  -8.384   2.611  1.00  0.00     0.029 A 
ATOM     40  N   UNL     1      -3.670  -9.250   0.556  1.00  0.00    -0.354 N 
ATOM     41  C   UNL     1       0.124 -10.430  -1.090  1.00  0.00     0.074 A 
ATOM     42  C   UNL     1       1.190 -10.239  -0.131  1.00  0.00     0.031 C 
ATOM     43  C   UNL     1      -5.065  -8.377   2.069  1.00  0.00     0.029 A 
ATOM     44  C   UNL     1      -4.997  -8.933   0.721  1.00  0.00     0.049 A 
ATOM     45  H   UNL     1      -3.307  -9.635  -0.274  1.00  0.00     0.167 HD
ATOM     46  C   UNL     1       0.307 -10.918  -2.341  1.00  0.00     0.037 A 
ATOM     47  C   UNL     1      -6.041  -9.079  -0.116  1.00  0.00     0.037 A 
ATOM     48  C   UNL     1      -0.755 -11.169  -3.279  1.00  0.00     0.049 A 
ATOM     49  C   UNL     1      -5.823  -9.669  -1.482  1.00  0.00     0.074 A 
ATOM     50  C   UNL     1      -0.680 -11.742  -4.537  1.00  0.00     0.029 A 
ATOM     51  N   UNL     1      -2.090 -10.870  -3.056  1.00  0.00    -0.354 N 
ATOM     52  N   UNL     1      -4.711 -10.085  -2.035  1.00  0.00    -0.248 NA
ATOM     53  C   UNL     1      -7.010  -9.811  -2.339  1.00  0.00     0.031 C 
ATOM     54  C   UNL     1      -1.967 -11.771  -5.084  1.00  0.00     0.029 A 
ATOM     55  C   UNL     1      -2.847 -11.243  -4.154  1.00  0.00     0.049 A 
ATOM     56  H   UNL     1      -2.447 -10.455  -2.237  1.00  0.00     0.167 HD
ATOM     57  C   UNL     1      -5.066 -10.560  -3.291  1.00  0.00     0.074 A 
ATOM     58  C   UNL     1      -6.499 -10.393  -3.414  1.00  0.00     0.031 C 
ATOM     59  C   UNL     1      -4.274 -11.085  -4.257  1.00  0.00     0.037 A 
BRANCH  46  60
ATOM     60  C   UNL     1       1.714 -11.240  -2.759  1.00  0.00     0.057 A 
ATOM     61  C   UNL     1       2.366 -10.476  -3.736  1.00  0.00     0.134 A 
ATOM     62  C   UNL     1       2.416 -12.322  -2.212  1.00  0.00     0.134 A 
ATOM     63  F   UNL     1       1.749  -9.434  -4.312  1.00  0.00    -0.206 F 
ATOM     64  C   UNL     1       3.667 -10.774  -4.146  1.00  0.00     0.040 A 
ATOM     65  C   UNL     1       3.727 -12.612  -2.594  1.00  0.00     0.040 A 
ATOM     66  F   UNL     1       1.851 -13.090  -1.267  1.00  0.00    -0.206 F 
ATOM     67  C   UNL     1       4.355 -11.839  -3.567  1.00  0.00     0.006 A 
ENDBRANCH  46  60
BRANCH  47  68
ATOM     68  C   UNL     1      -7.407  -8.704   0.328  1.00  0.00     0.057 A 
ATOM     69  C   UNL     1      -7.796  -7.368   0.464  1.00  0.00     0.134 A 
ATOM     70  C   UNL     1      -8.361  -9.689   0.612  1.00  0.00     0.134 A 
ATOM     71  F   UNL     1      -6.926  -6.380   0.211  1.00  0.00    -0.206 F 
ATOM     72  C   UNL     1      -9.086  -7.023   0.871  1.00  0.00     0.040 A 
ATOM     73  C   UNL     1      -9.660  -9.359   0.998  1.00  0.00     0.040 A 
ATOM     74  F   UNL     1      -8.050 -10.987   0.478  1.00  0.00    -0.206 F 
ATOM     75  C   UNL     1     -10.024  -8.021   1.133  1.00  0.00     0.006 A 
ENDBRANCH  47  68
BRANCH  59  76
ATOM     76  C   UNL     1      -4.943 -11.550  -5.516  1.00  0.00     0.057 A 
ATOM     77  C   UNL     1      -5.089 -12.917  -5.782  1.00  0.00     0.134 A 
ATOM     78  C   UNL     1      -5.407 -10.647  -6.480  1.00  0.00     0.134 A 
ATOM     79  F   UNL     1      -4.659 -13.832  -4.901  1.00  0.00    -0.206 F 
ATOM     80  C   UNL     1      -5.670 -13.370  -6.967  1.00  0.00     0.040 A 
ATOM     81  C   UNL     1      -6.009 -11.088  -7.660  1.00  0.00     0.040 A 
ATOM     82  F   UNL     1      -5.309  -9.325  -6.276  1.00  0.00    -0.206 F 
ATOM     83  C   UNL     1      -6.136 -12.454  -7.908  1.00  0.00     0.006 A 
ENDBRANCH  59  76
ENDBRANCH  33  34
ENDBRANCH  26  28
ENDBRANCH  25  26
ENDBRANCH   1  25
TORSDOF 13
