REMARK SMILES C[C@@H](C(=O)OCCOC(=O)c1ccc(-c2c3nc(c(-c4c(F)cccc4F)c4ccc([nH]4)c(-c4c(F)cccc4F)c4nc(c(-c5c(F)cccc5F)c5ccc2[nH]5)C=C4)C=C3)cc1)c1ccc(-c2ccccc2)cc1
REMARK SMILES IDX 6 1 5 2 3 3 4 4 2 5 1 6 65 7 66 8 76 9 67 10 75 11 68 12
REMARK SMILES IDX 69 13 70 14 74 15 71 16 73 17 72 18 7 19 8 20 9 21 10 22
REMARK SMILES IDX 11 23 12 24 64 25 13 26 63 27 14 28 15 29 16 30 57 31 17 32
REMARK SMILES IDX 62 33 56 34 58 35 18 36 61 37 55 38 54 39 19 41 45 42 28 43
REMARK SMILES IDX 44 44 29 45 32 46 43 47 59 48 30 49 31 50 42 52 60 53 33 54
REMARK SMILES IDX 20 55 21 56 26 57 22 58 23 59 25 60 27 61 24 62 46 63 47 64
REMARK SMILES IDX 52 65 48 66 49 67 51 68 53 69 50 70 34 71 35 72 40 73 36 74
REMARK SMILES IDX 37 75 39 76 41 77 38 78
REMARK H PARENT 58 40 32 51
REMARK Flexibility Score: inf
ROOT
ATOM      1  C   UNL     1       2.613   3.845   0.246  1.00  0.00     0.274 C 
ENDROOT
BRANCH   1   2
ATOM      2  O   UNL     1       2.135   2.511   0.524  1.00  0.00    -0.462 OA
BRANCH   2   3
ATOM      3  C   UNL     1       0.935   2.407   1.172  1.00  0.00     0.313 C 
ATOM      4  O   UNL     1       0.277   3.387   1.498  1.00  0.00    -0.252 OA
BRANCH   3   5
ATOM      5  C   UNL     1       0.589   0.935   1.528  1.00  0.00     0.126 C 
ATOM      6  C   UNL     1       1.234  -0.022   0.508  1.00  0.00     0.025 C 
BRANCH   5   7
ATOM      7  C   UNL     1      -0.921   0.673   1.732  1.00  0.00    -0.034 A 
ATOM      8  C   UNL     1      -1.707   1.554   2.494  1.00  0.00     0.005 A 
ATOM      9  C   UNL     1      -1.582  -0.442   1.186  1.00  0.00     0.005 A 
ATOM     10  C   UNL     1      -3.100   1.407   2.585  1.00  0.00     0.009 A 
ATOM     11  C   UNL     1      -2.974  -0.600   1.292  1.00  0.00     0.009 A 
ATOM     12  C   UNL     1      -3.762   0.347   1.955  1.00  0.00    -0.018 A 
BRANCH  12  13
ATOM     13  C   UNL     1      -5.234   0.293   1.917  1.00  0.00    -0.018 A 
ATOM     14  C   UNL     1      -5.920   0.376   0.692  1.00  0.00     0.009 A 
ATOM     15  C   UNL     1      -5.997   0.233   3.091  1.00  0.00     0.009 A 
ATOM     16  C   UNL     1      -7.313   0.454   0.641  1.00  0.00     0.001 A 
ATOM     17  C   UNL     1      -7.395   0.287   3.042  1.00  0.00     0.001 A 
ATOM     18  C   UNL     1      -8.050   0.414   1.819  1.00  0.00     0.000 A 
ENDBRANCH  12  13
ENDBRANCH   5   7
ENDBRANCH   3   5
ENDBRANCH   2   3
ENDBRANCH   1   2
BRANCH   1  19
ATOM     19  C   UNL     1       2.344   4.270  -1.201  1.00  0.00     0.275 C 
BRANCH  19  20
ATOM     20  O   UNL     1       0.938   4.464  -1.437  1.00  0.00    -0.458 OA
BRANCH  20  21
ATOM     21  C   UNL     1       0.307   3.417  -2.013  1.00  0.00     0.338 C 
ATOM     22  O   UNL     1       0.818   2.389  -2.438  1.00  0.00    -0.246 OA
BRANCH  21  23
ATOM     23  C   UNL     1      -1.149   3.578  -1.870  1.00  0.00     0.060 A 
ATOM     24  C   UNL     1      -1.817   2.553  -1.208  1.00  0.00     0.016 A 
ATOM     25  C   UNL     1      -1.861   4.669  -2.378  1.00  0.00     0.016 A 
ATOM     26  C   UNL     1      -3.189   2.624  -1.017  1.00  0.00     0.010 A 
ATOM     27  C   UNL     1      -3.256   4.719  -2.215  1.00  0.00     0.010 A 
ATOM     28  C   UNL     1      -3.927   3.694  -1.530  1.00  0.00    -0.014 A 
BRANCH  28  29
ATOM     29  C   UNL     1      -5.404   3.648  -1.396  1.00  0.00     0.031 A 
ATOM     30  C   UNL     1      -6.220   2.955  -2.449  1.00  0.00     0.074 A 
ATOM     31  C   UNL     1      -6.003   4.081  -0.272  1.00  0.00     0.049 A 
ATOM     32  N   UNL     1      -7.511   2.744  -2.494  1.00  0.00    -0.248 NA
ATOM     33  C   UNL     1      -5.476   2.393  -3.587  1.00  0.00     0.031 C 
ATOM     34  C   UNL     1      -5.314   4.627   0.895  1.00  0.00     0.029 A 
ATOM     35  N   UNL     1      -7.329   4.083   0.087  1.00  0.00    -0.354 N 
ATOM     36  C   UNL     1      -7.736   2.027  -3.661  1.00  0.00     0.074 A 
ATOM     37  C   UNL     1      -6.449   1.838  -4.296  1.00  0.00     0.031 C 
ATOM     38  C   UNL     1      -6.221   4.888   1.853  1.00  0.00     0.029 A 
ATOM     39  C   UNL     1      -7.556   4.566   1.352  1.00  0.00     0.049 A 
ATOM     40  H   UNL     1      -8.048   3.768  -0.507  1.00  0.00     0.167 HD
ATOM     41  C   UNL     1      -8.908   1.570  -4.160  1.00  0.00     0.037 A 
ATOM     42  C   UNL     1      -8.712   4.738   2.022  1.00  0.00     0.037 A 
ATOM     43  C   UNL     1     -10.194   1.766  -3.548  1.00  0.00     0.049 A 
ATOM     44  C   UNL     1     -10.016   4.364   1.367  1.00  0.00     0.074 A 
ATOM     45  C   UNL     1     -11.439   1.381  -4.016  1.00  0.00     0.029 A 
ATOM     46  N   UNL     1     -10.404   2.410  -2.339  1.00  0.00    -0.354 N 
ATOM     47  N   UNL     1     -10.229   3.726   0.242  1.00  0.00    -0.248 NA
ATOM     48  C   UNL     1     -11.247   4.757   2.072  1.00  0.00     0.031 C 
ATOM     49  C   UNL     1     -12.406   1.827  -3.109  1.00  0.00     0.029 A 
ATOM     50  C   UNL     1     -11.760   2.454  -2.057  1.00  0.00     0.049 A 
ATOM     51  H   UNL     1      -9.694   2.780  -1.765  1.00  0.00     0.167 HD
ATOM     52  C   UNL     1     -11.609   3.624   0.116  1.00  0.00     0.074 A 
ATOM     53  C   UNL     1     -12.186   4.248   1.287  1.00  0.00     0.031 C 
ATOM     54  C   UNL     1     -12.331   3.067  -0.886  1.00  0.00     0.037 A 
BRANCH  41  55
ATOM     55  C   UNL     1      -8.855   0.851  -5.472  1.00  0.00     0.057 A 
ATOM     56  C   UNL     1      -8.430  -0.478  -5.569  1.00  0.00     0.134 A 
ATOM     57  C   UNL     1      -9.262   1.493  -6.648  1.00  0.00     0.134 A 
ATOM     58  F   UNL     1      -8.013  -1.140  -4.479  1.00  0.00    -0.206 F 
ATOM     59  C   UNL     1      -8.400  -1.143  -6.796  1.00  0.00     0.040 A 
ATOM     60  C   UNL     1      -9.253   0.834  -7.877  1.00  0.00     0.040 A 
ATOM     61  F   UNL     1      -9.681   2.767  -6.618  1.00  0.00    -0.206 F 
ATOM     62  C   UNL     1      -8.818  -0.488  -7.953  1.00  0.00     0.006 A 
ENDBRANCH  41  55
BRANCH  42  63
ATOM     63  C   UNL     1      -8.714   5.333   3.383  1.00  0.00     0.057 A 
ATOM     64  C   UNL     1      -9.131   4.594   4.496  1.00  0.00     0.134 A 
ATOM     65  C   UNL     1      -8.368   6.674   3.591  1.00  0.00     0.134 A 
ATOM     66  F   UNL     1      -9.511   3.315   4.356  1.00  0.00    -0.206 F 
ATOM     67  C   UNL     1      -9.220   5.172   5.764  1.00  0.00     0.040 A 
ATOM     68  C   UNL     1      -8.428   7.257   4.857  1.00  0.00     0.040 A 
ATOM     69  F   UNL     1      -7.977   7.441   2.563  1.00  0.00    -0.206 F 
ATOM     70  C   UNL     1      -8.864   6.507   5.947  1.00  0.00     0.006 A 
ENDBRANCH  42  63
BRANCH  54  71
ATOM     71  C   UNL     1     -13.826   3.079  -0.755  1.00  0.00     0.057 A 
ATOM     72  C   UNL     1     -14.571   4.251  -0.932  1.00  0.00     0.134 A 
ATOM     73  C   UNL     1     -14.532   1.897  -0.498  1.00  0.00     0.134 A 
ATOM     74  F   UNL     1     -13.955   5.419  -1.168  1.00  0.00    -0.206 F 
ATOM     75  C   UNL     1     -15.965   4.250  -0.843  1.00  0.00     0.040 A 
ATOM     76  C   UNL     1     -15.926   1.878  -0.430  1.00  0.00     0.040 A 
ATOM     77  F   UNL     1     -13.879   0.737  -0.326  1.00  0.00    -0.206 F 
ATOM     78  C   UNL     1     -16.646   3.059  -0.599  1.00  0.00     0.006 A 
ENDBRANCH  54  71
ENDBRANCH  28  29
ENDBRANCH  21  23
ENDBRANCH  20  21
ENDBRANCH  19  20
ENDBRANCH   1  19
TORSDOF 13
