REMARK SMILES Cc1cscc1CNC(=O)CC(C)(C)C(=O)OCCOC(=O)c1ccc(-c2c3nc(c(-c4c(F)cccc4F)c4ccc([nH]4)c(-c4c(F)cccc4F)c4nc(c(-c5c(F)cccc5F)c5ccc2[nH]5)C=C4)C=C3)cc1
REMARK SMILES IDX 18 1 17 2 15 3 16 4 12 5 13 6 14 7 11 8 9 9 8 10 10 12 7 13
REMARK SMILES IDX 6 14 1 15 2 16 3 17 4 18 5 19 19 20 20 21 21 22 22 23 23 24
REMARK SMILES IDX 24 25 76 26 25 27 75 28 26 29 27 30 28 31 69 32 29 33 74 34
REMARK SMILES IDX 68 35 70 36 30 37 73 38 67 39 66 40 31 42 57 43 40 44 56 45
REMARK SMILES IDX 41 46 44 47 55 48 71 49 42 50 43 51 54 53 72 54 45 55 32 56
REMARK SMILES IDX 33 57 38 58 34 59 35 60 37 61 39 62 36 63 58 64 59 65 64 66
REMARK SMILES IDX 60 67 61 68 63 69 65 70 62 71 46 72 47 73 52 74 48 75 49 76
REMARK SMILES IDX 51 77 53 78 50 79
REMARK H PARENT 8 11 70 41 44 52
REMARK Flexibility Score: inf
ROOT
ATOM      1  C   UNL     1      -4.136   3.739   0.249  1.00  0.00     0.274 C 
ENDROOT
BRANCH   1   2
ATOM      2  O   UNL     1      -2.970   3.953   1.071  1.00  0.00    -0.462 OA
BRANCH   2   3
ATOM      3  C   UNL     1      -1.761   3.877   0.443  1.00  0.00     0.312 C 
ATOM      4  O   UNL     1      -1.636   3.622  -0.744  1.00  0.00    -0.252 OA
BRANCH   3   5
ATOM      5  C   UNL     1      -0.599   4.066   1.435  1.00  0.00     0.071 C 
ATOM      6  C   UNL     1      -0.494   2.769   2.255  1.00  0.00     0.024 C 
ATOM      7  C   UNL     1      -0.928   5.215   2.417  1.00  0.00     0.024 C 
BRANCH   5   8
ATOM      8  C   UNL     1       0.773   4.396   0.772  1.00  0.00     0.118 C 
BRANCH   8   9
ATOM      9  C   UNL     1       1.008   4.026  -0.684  1.00  0.00     0.221 C 
ATOM     10  N   UNL     1       1.387   2.776  -1.041  1.00  0.00    -0.352 N 
ATOM     11  H   UNL     1       1.326   2.579  -2.004  1.00  0.00     0.163 HD
ATOM     12  O   UNL     1       0.898   4.872  -1.573  1.00  0.00    -0.275 OA
BRANCH  10  13
ATOM     13  C   UNL     1       1.864   1.692  -0.225  1.00  0.00     0.152 C 
BRANCH  13  14
ATOM     14  C   UNL     1       1.032   0.457  -0.419  1.00  0.00    -0.015 A 
ATOM     15  C   UNL     1       2.922  -1.208   0.241  1.00  0.00     0.045 C 
ATOM     16  C   UNL     1       1.522  -0.882  -0.165  1.00  0.00    -0.035 A 
ATOM     17  C   UNL     1       0.528  -1.827  -0.339  1.00  0.00     0.068 A 
ATOM     18  S   UNL     1      -0.955  -1.148  -0.831  1.00  0.00    -0.152 S 
ATOM     19  C   UNL     1      -0.293   0.423  -0.821  1.00  0.00     0.070 A 
ENDBRANCH  13  14
ENDBRANCH  10  13
ENDBRANCH   8   9
ENDBRANCH   5   8
ENDBRANCH   3   5
ENDBRANCH   2   3
ENDBRANCH   1   2
BRANCH   1  20
ATOM     20  C   UNL     1      -4.839   5.061  -0.046  1.00  0.00     0.275 C 
BRANCH  20  21
ATOM     21  O   UNL     1      -3.996   5.896  -0.859  1.00  0.00    -0.458 OA
BRANCH  21  22
ATOM     22  C   UNL     1      -3.522   7.013  -0.265  1.00  0.00     0.338 C 
ATOM     23  O   UNL     1      -3.774   7.437   0.852  1.00  0.00    -0.246 OA
BRANCH  22  24
ATOM     24  C   UNL     1      -2.547   7.645  -1.160  1.00  0.00     0.060 A 
ATOM     25  C   UNL     1      -1.228   7.200  -1.116  1.00  0.00     0.016 A 
ATOM     26  C   UNL     1      -2.904   8.727  -1.962  1.00  0.00     0.016 A 
ATOM     27  C   UNL     1      -0.243   7.845  -1.856  1.00  0.00     0.010 A 
ATOM     28  C   UNL     1      -1.918   9.362  -2.725  1.00  0.00     0.010 A 
ATOM     29  C   UNL     1      -0.578   8.935  -2.662  1.00  0.00    -0.014 A 
BRANCH  29  30
ATOM     30  C   UNL     1       0.486   9.699  -3.353  1.00  0.00     0.031 A 
ATOM     31  C   UNL     1       0.869  11.049  -2.825  1.00  0.00     0.074 A 
ATOM     32  C   UNL     1       1.129   9.185  -4.416  1.00  0.00     0.049 A 
ATOM     33  N   UNL     1       1.622  11.970  -3.366  1.00  0.00    -0.248 NA
ATOM     34  C   UNL     1       0.332  11.405  -1.502  1.00  0.00     0.031 C 
ATOM     35  C   UNL     1       0.947   7.836  -4.949  1.00  0.00     0.029 A 
ATOM     36  N   UNL     1       2.070   9.750  -5.240  1.00  0.00    -0.354 N 
ATOM     37  C   UNL     1       1.613  13.032  -2.473  1.00  0.00     0.074 A 
ATOM     38  C   UNL     1       0.791  12.638  -1.349  1.00  0.00     0.031 C 
ATOM     39  C   UNL     1       1.749   7.678  -6.015  1.00  0.00     0.029 A 
ATOM     40  C   UNL     1       2.450   8.933  -6.276  1.00  0.00     0.049 A 
ATOM     41  H   UNL     1       2.438  10.652  -5.102  1.00  0.00     0.167 HD
ATOM     42  C   UNL     1       2.225  14.233  -2.591  1.00  0.00     0.037 A 
ATOM     43  C   UNL     1       3.239   9.188  -7.337  1.00  0.00     0.037 A 
ATOM     44  C   UNL     1       3.062  14.607  -3.699  1.00  0.00     0.049 A 
ATOM     45  C   UNL     1       3.826  10.563  -7.502  1.00  0.00     0.074 A 
ATOM     46  C   UNL     1       3.713  15.807  -3.925  1.00  0.00     0.029 A 
ATOM     47  N   UNL     1       3.370  13.775  -4.764  1.00  0.00    -0.354 N 
ATOM     48  N   UNL     1       3.753  11.596  -6.698  1.00  0.00    -0.248 NA
ATOM     49  C   UNL     1       4.582  10.817  -8.738  1.00  0.00     0.031 C 
ATOM     50  C   UNL     1       4.390  15.711  -5.146  1.00  0.00     0.029 A 
ATOM     51  C   UNL     1       4.187  14.441  -5.662  1.00  0.00     0.049 A 
ATOM     52  H   UNL     1       3.054  12.849  -4.868  1.00  0.00     0.167 HD
ATOM     53  C   UNL     1       4.471  12.612  -7.315  1.00  0.00     0.074 A 
ATOM     54  C   UNL     1       4.974  12.072  -8.561  1.00  0.00     0.031 C 
ATOM     55  C   UNL     1       4.693  13.878  -6.887  1.00  0.00     0.037 A 
BRANCH  42  56
ATOM     56  C   UNL     1       1.950  15.245  -1.522  1.00  0.00     0.057 A 
ATOM     57  C   UNL     1       2.531  15.166  -0.252  1.00  0.00     0.134 A 
ATOM     58  C   UNL     1       1.076  16.310  -1.772  1.00  0.00     0.134 A 
ATOM     59  F   UNL     1       3.360  14.157   0.055  1.00  0.00    -0.206 F 
ATOM     60  C   UNL     1       2.235  16.101   0.742  1.00  0.00     0.040 A 
ATOM     61  C   UNL     1       0.787  17.261  -0.794  1.00  0.00     0.040 A 
ATOM     62  F   UNL     1       0.485  16.440  -2.970  1.00  0.00    -0.206 F 
ATOM     63  C   UNL     1       1.362  17.154   0.471  1.00  0.00     0.006 A 
ENDBRANCH  42  56
BRANCH  43  64
ATOM     64  C   UNL     1       3.484   8.134  -8.352  1.00  0.00     0.057 A 
ATOM     65  C   UNL     1       4.746   7.546  -8.490  1.00  0.00     0.134 A 
ATOM     66  C   UNL     1       2.471   7.702  -9.217  1.00  0.00     0.134 A 
ATOM     67  F   UNL     1       5.763   7.939  -7.710  1.00  0.00    -0.206 F 
ATOM     68  C   UNL     1       4.993   6.567  -9.454  1.00  0.00     0.040 A 
ATOM     69  C   UNL     1       2.699   6.709 -10.171  1.00  0.00     0.040 A 
ATOM     70  F   UNL     1       1.243   8.234  -9.142  1.00  0.00    -0.206 F 
ATOM     71  C   UNL     1       3.966   6.141 -10.294  1.00  0.00     0.006 A 
ENDBRANCH  43  64
BRANCH  55  72
ATOM     72  C   UNL     1       5.553  14.753  -7.746  1.00  0.00     0.057 A 
ATOM     73  C   UNL     1       5.060  15.358  -8.908  1.00  0.00     0.134 A 
ATOM     74  C   UNL     1       6.871  15.042  -7.370  1.00  0.00     0.134 A 
ATOM     75  F   UNL     1       3.810  15.110  -9.326  1.00  0.00    -0.206 F 
ATOM     76  C   UNL     1       5.852  16.217  -9.671  1.00  0.00     0.040 A 
ATOM     77  C   UNL     1       7.666  15.913  -8.115  1.00  0.00     0.040 A 
ATOM     78  F   UNL     1       7.398  14.498  -6.263  1.00  0.00    -0.206 F 
ATOM     79  C   UNL     1       7.157  16.503  -9.270  1.00  0.00     0.006 A 
ENDBRANCH  55  72
ENDBRANCH  29  30
ENDBRANCH  22  24
ENDBRANCH  21  22
ENDBRANCH  20  21
ENDBRANCH   1  20
TORSDOF 15
