REMARK SMILES CC[NH2+][C@]1(C(=O)OCCOC(=O)c2ccc(-c3c4nc(c(-c5c(F)cccc5F)c5ccc([nH]5)c(-c5c(F)cccc5F)c5nc(c(-c6c(F)cccc6F)c6ccc3[nH]6)C=C5)C=C4)cc2)CC[C@@H](Sc2ccccc2C)C1
REMARK SMILES IDX 8 1 7 2 5 3 6 4 4 5 67 6 78 7 68 8 69 9 3 10 2 13 1 14 70 15
REMARK SMILES IDX 71 16 72 17 76 18 73 19 75 20 77 21 74 22 9 23 10 24 11 25
REMARK SMILES IDX 12 26 13 27 14 28 66 29 15 30 65 31 16 32 17 33 18 34 59 35
REMARK SMILES IDX 19 36 64 37 58 38 60 39 20 40 63 41 57 42 56 43 21 45 47 46
REMARK SMILES IDX 30 47 46 48 31 49 34 50 45 51 61 52 32 53 33 54 44 56 62 57
REMARK SMILES IDX 35 58 22 59 23 60 28 61 24 62 25 63 27 64 29 65 26 66 48 67
REMARK SMILES IDX 49 68 54 69 50 70 51 71 53 72 55 73 52 74 36 75 37 76 42 77
REMARK SMILES IDX 38 78 39 79 41 80 43 81 40 82
REMARK H PARENT 3 11 3 12 60 44 34 55
REMARK Flexibility Score: inf
ROOT
ATOM      1  C   UNL     1       1.545  -0.266  -0.222  1.00  0.00     0.274 C 
ENDROOT
BRANCH   1   2
ATOM      2  O   UNL     1       0.972  -1.421  -0.865  1.00  0.00    -0.457 OA
BRANCH   2   3
ATOM      3  C   UNL     1       1.364  -2.636  -0.364  1.00  0.00     0.368 C 
ATOM      4  O   UNL     1       2.199  -2.778   0.520  1.00  0.00    -0.245 OA
BRANCH   3   5
ATOM      5  C   UNL     1       0.646  -3.804  -1.111  1.00  0.00     0.195 C 
ATOM      6  C   UNL     1       1.568  -4.226  -2.265  1.00  0.00     0.082 C 
ATOM      7  C   UNL     1       0.575  -5.057  -0.211  1.00  0.00     0.096 C 
ATOM      8  C   UNL     1       1.425  -5.736  -2.419  1.00  0.00     0.022 C 
ATOM      9  C   UNL     1       0.945  -6.263  -1.068  1.00  0.00     0.059 C 
BRANCH   5  10
ATOM     10  N   UNL     1      -0.734  -3.369  -1.437  1.00  0.00    -0.332 N 
ATOM     11  H   UNL     1      -1.283  -3.431  -0.580  1.00  0.00     0.347 HD
ATOM     12  H   UNL     1      -0.621  -2.431  -1.822  1.00  0.00     0.347 HD
BRANCH  10  13
ATOM     13  C   UNL     1      -1.453  -4.101  -2.467  1.00  0.00     0.257 C 
ATOM     14  C   UNL     1      -2.905  -3.639  -2.479  1.00  0.00     0.071 C 
ENDBRANCH  10  13
ENDBRANCH   5  10
BRANCH   9  15
ATOM     15  S   UNL     1       2.013  -7.476  -0.188  1.00  0.00    -0.122 SA
BRANCH  15  16
ATOM     16  C   UNL     1       3.598  -6.649  -0.092  1.00  0.00     0.010 A 
ATOM     17  C   UNL     1       4.498  -6.908  -1.139  1.00  0.00     0.015 A 
ATOM     18  C   UNL     1       4.027  -5.869   0.999  1.00  0.00    -0.038 A 
ATOM     19  C   UNL     1       5.776  -6.349  -1.152  1.00  0.00     0.001 A 
ATOM     20  C   UNL     1       5.308  -5.284   0.954  1.00  0.00     0.004 A 
ATOM     21  C   UNL     1       3.216  -5.616   2.242  1.00  0.00     0.045 C 
ATOM     22  C   UNL     1       6.175  -5.521  -0.112  1.00  0.00     0.000 A 
ENDBRANCH  15  16
ENDBRANCH   9  15
ENDBRANCH   3   5
ENDBRANCH   2   3
ENDBRANCH   1   2
BRANCH   1  23
ATOM     23  C   UNL     1       0.552   0.350   0.760  1.00  0.00     0.275 C 
BRANCH  23  24
ATOM     24  O   UNL     1       0.212  -0.609   1.777  1.00  0.00    -0.458 OA
BRANCH  24  25
ATOM     25  C   UNL     1      -1.103  -0.908   1.879  1.00  0.00     0.338 C 
ATOM     26  O   UNL     1      -2.032  -0.416   1.263  1.00  0.00    -0.246 OA
BRANCH  25  27
ATOM     27  C   UNL     1      -1.285  -1.967   2.882  1.00  0.00     0.060 A 
ATOM     28  C   UNL     1      -0.898  -3.269   2.573  1.00  0.00     0.016 A 
ATOM     29  C   UNL     1      -1.979  -1.699   4.060  1.00  0.00     0.016 A 
ATOM     30  C   UNL     1      -1.266  -4.328   3.401  1.00  0.00     0.010 A 
ATOM     31  C   UNL     1      -2.305  -2.753   4.919  1.00  0.00     0.010 A 
ATOM     32  C   UNL     1      -1.996  -4.082   4.571  1.00  0.00    -0.014 A 
BRANCH  32  33
ATOM     33  C   UNL     1      -2.558  -5.212   5.358  1.00  0.00     0.031 A 
ATOM     34  C   UNL     1      -4.049  -5.417   5.393  1.00  0.00     0.074 A 
ATOM     35  C   UNL     1      -1.756  -6.068   6.018  1.00  0.00     0.049 A 
ATOM     36  N   UNL     1      -4.759  -6.245   6.118  1.00  0.00    -0.248 NA
ATOM     37  C   UNL     1      -4.848  -4.566   4.497  1.00  0.00     0.031 C 
ATOM     38  C   UNL     1      -0.295  -6.022   6.033  1.00  0.00     0.029 A 
ATOM     39  N   UNL     1      -2.068  -7.148   6.807  1.00  0.00    -0.354 N 
ATOM     40  C   UNL     1      -6.086  -5.979   5.804  1.00  0.00     0.074 A 
ATOM     41  C   UNL     1      -6.084  -4.910   4.828  1.00  0.00     0.031 C 
ATOM     42  C   UNL     1       0.164  -7.036   6.785  1.00  0.00     0.029 A 
ATOM     43  C   UNL     1      -0.969  -7.771   7.343  1.00  0.00     0.049 A 
ATOM     44  H   UNL     1      -2.992  -7.446   6.972  1.00  0.00     0.167 HD
ATOM     45  C   UNL     1      -7.207  -6.570   6.283  1.00  0.00     0.037 A 
ATOM     46  C   UNL     1      -0.884  -8.803   8.204  1.00  0.00     0.037 A 
ATOM     47  C   UNL     1      -7.215  -7.667   7.214  1.00  0.00     0.049 A 
ATOM     48  C   UNL     1      -2.139  -9.453   8.716  1.00  0.00     0.074 A 
ATOM     49  C   UNL     1      -8.301  -8.331   7.759  1.00  0.00     0.029 A 
ATOM     50  N   UNL     1      -6.078  -8.276   7.722  1.00  0.00    -0.354 N 
ATOM     51  N   UNL     1      -3.389  -9.158   8.455  1.00  0.00    -0.248 NA
ATOM     52  C   UNL     1      -1.970 -10.578   9.648  1.00  0.00     0.031 C 
ATOM     53  C   UNL     1      -7.820  -9.332   8.611  1.00  0.00     0.029 A 
ATOM     54  C   UNL     1      -6.435  -9.309   8.572  1.00  0.00     0.049 A 
ATOM     55  H   UNL     1      -5.154  -8.012   7.510  1.00  0.00     0.167 HD
ATOM     56  C   UNL     1      -4.154 -10.065   9.176  1.00  0.00     0.074 A 
ATOM     57  C   UNL     1      -3.227 -10.932   9.875  1.00  0.00     0.031 C 
ATOM     58  C   UNL     1      -5.503 -10.168   9.254  1.00  0.00     0.037 A 
BRANCH  45  59
ATOM     59  C   UNL     1      -8.520  -6.010   5.825  1.00  0.00     0.057 A 
ATOM     60  C   UNL     1      -9.015  -6.237   4.535  1.00  0.00     0.134 A 
ATOM     61  C   UNL     1      -9.295  -5.226   6.688  1.00  0.00     0.134 A 
ATOM     62  F   UNL     1      -8.311  -6.965   3.655  1.00  0.00    -0.206 F 
ATOM     63  C   UNL     1     -10.223  -5.679   4.110  1.00  0.00     0.040 A 
ATOM     64  C   UNL     1     -10.514  -4.681   6.283  1.00  0.00     0.040 A 
ATOM     65  F   UNL     1      -8.877  -4.973   7.938  1.00  0.00    -0.206 F 
ATOM     66  C   UNL     1     -10.977  -4.901   4.987  1.00  0.00     0.006 A 
ENDBRANCH  45  59
BRANCH  46  67
ATOM     67  C   UNL     1       0.448  -9.277   8.647  1.00  0.00     0.057 A 
ATOM     68  C   UNL     1       0.976 -10.487   8.183  1.00  0.00     0.134 A 
ATOM     69  C   UNL     1       1.229  -8.527   9.533  1.00  0.00     0.134 A 
ATOM     70  F   UNL     1       0.262 -11.260   7.351  1.00  0.00    -0.206 F 
ATOM     71  C   UNL     1       2.233 -10.937   8.589  1.00  0.00     0.040 A 
ATOM     72  C   UNL     1       2.495  -8.955   9.932  1.00  0.00     0.040 A 
ATOM     73  F   UNL     1       0.776  -7.359  10.012  1.00  0.00    -0.206 F 
ATOM     74  C   UNL     1       2.999 -10.166   9.461  1.00  0.00     0.006 A 
ENDBRANCH  46  67
BRANCH  58  75
ATOM     75  C   UNL     1      -6.056 -11.274  10.101  1.00  0.00     0.057 A 
ATOM     76  C   UNL     1      -6.063 -11.198  11.499  1.00  0.00     0.134 A 
ATOM     77  C   UNL     1      -6.614 -12.414   9.509  1.00  0.00     0.134 A 
ATOM     78  F   UNL     1      -5.532 -10.137  12.125  1.00  0.00    -0.206 F 
ATOM     79  C   UNL     1      -6.590 -12.228  12.281  1.00  0.00     0.040 A 
ATOM     80  C   UNL     1      -7.160 -13.441  10.280  1.00  0.00     0.040 A 
ATOM     81  F   UNL     1      -6.643 -12.544   8.174  1.00  0.00    -0.206 F 
ATOM     82  C   UNL     1      -7.145 -13.351  11.670  1.00  0.00     0.006 A 
ENDBRANCH  58  75
ENDBRANCH  32  33
ENDBRANCH  25  27
ENDBRANCH  24  25
ENDBRANCH  23  24
ENDBRANCH   1  23
TORSDOF 15
