REMARK SMILES Cc1c(NC(=O)[C@@H]2CC=CC[C@@H]2C(=O)OCCOC(=O)c2ccc(-c3c4nc(c(-c5c(F)cccc5F)c5ccc([nH]5)c(-c5c(F)cccc5F)c5nc(c(-c6c(F)cccc6F)c6ccc3[nH]6)C=C5)C=C4)cc2)cccc1C(=O)N1CCOCC1
REMARK SMILES IDX 16 1 15 2 13 3 14 4 12 5 7 6 8 7 9 8 11 9 10 10 5 11 4 12
REMARK SMILES IDX 6 14 3 15 1 16 2 17 78 18 75 19 77 20 76 21 79 22 80 23
REMARK SMILES IDX 81 24 82 25 86 26 83 27 85 28 84 29 17 30 18 31 19 32 20 33
REMARK SMILES IDX 21 34 22 35 74 36 23 37 73 38 24 39 25 40 26 41 67 42 27 43
REMARK SMILES IDX 72 44 66 45 68 46 28 47 71 48 65 49 64 50 29 52 55 53 38 54
REMARK SMILES IDX 54 55 39 56 42 57 53 58 69 59 40 60 41 61 52 63 70 64 43 65
REMARK SMILES IDX 30 66 31 67 36 68 32 69 33 70 35 71 37 72 34 73 56 74 57 75
REMARK SMILES IDX 62 76 58 77 59 78 61 79 63 80 60 81 44 82 45 83 50 84 46 85
REMARK SMILES IDX 47 86 49 87 51 88 48 89
REMARK H PARENT 4 13 68 51 42 62
REMARK Flexibility Score: inf
ROOT
ATOM      1  C   UNL     1      -5.273  -2.761   1.293  1.00  0.00     0.274 C 
ENDROOT
BRANCH   1   2
ATOM      2  O   UNL     1      -3.884  -2.468   1.185  1.00  0.00    -0.462 OA
BRANCH   2   3
ATOM      3  C   UNL     1      -3.158  -3.316   0.434  1.00  0.00     0.310 C 
ATOM      4  O   UNL     1      -3.608  -4.339  -0.087  1.00  0.00    -0.252 OA
BRANCH   3   5
ATOM      5  C   UNL     1      -1.693  -2.956   0.372  1.00  0.00     0.116 C 
ATOM      6  C   UNL     1      -1.000  -3.689   1.516  1.00  0.00     0.097 C 
ATOM      7  C   UNL     1      -1.502  -3.223   2.881  1.00  0.00     0.041 C 
ATOM      8  C   UNL     1      -1.478  -1.716   2.955  1.00  0.00    -0.030 C 
ATOM      9  C   UNL     1      -1.366  -1.462   0.464  1.00  0.00     0.043 C 
ATOM     10  C   UNL     1      -1.382  -0.929   1.870  1.00  0.00    -0.030 C 
BRANCH   6  11
ATOM     11  C   UNL     1      -1.146  -5.172   1.286  1.00  0.00     0.228 C 
ATOM     12  N   UNL     1      -0.173  -5.748   0.494  1.00  0.00    -0.326 N 
ATOM     13  H   UNL     1      -0.329  -5.949  -0.457  1.00  0.00     0.169 HD
ATOM     14  O   UNL     1      -2.116  -5.827   1.660  1.00  0.00    -0.274 OA
BRANCH  12  15
ATOM     15  C   UNL     1       1.066  -6.035   1.126  1.00  0.00     0.044 A 
ATOM     16  C   UNL     1       0.201  -8.366   1.418  1.00  0.00     0.047 C 
ATOM     17  C   UNL     1       1.300  -7.351   1.586  1.00  0.00    -0.015 A 
ATOM     18  C   UNL     1       2.514  -7.617   2.256  1.00  0.00     0.045 A 
ATOM     19  C   UNL     1       1.974  -5.005   1.388  1.00  0.00     0.026 A 
ATOM     20  C   UNL     1       3.367  -6.541   2.581  1.00  0.00     0.014 A 
ATOM     21  C   UNL     1       3.092  -5.243   2.168  1.00  0.00     0.003 A 
BRANCH  18  22
ATOM     22  C   UNL     1       2.908  -8.933   2.851  1.00  0.00     0.254 C 
ATOM     23  O   UNL     1       3.626  -8.925   3.852  1.00  0.00    -0.269 OA
ATOM     24  N   UNL     1       2.380 -10.116   2.365  1.00  0.00    -0.334 N 
ATOM     25  C   UNL     1       2.404 -10.556   0.965  1.00  0.00     0.148 C 
ATOM     26  C   UNL     1       2.131 -11.179   3.329  1.00  0.00     0.148 C 
ATOM     27  C   UNL     1       1.220 -11.488   0.634  1.00  0.00     0.181 C 
ATOM     28  C   UNL     1       0.865 -11.936   2.935  1.00  0.00     0.181 C 
ATOM     29  O   UNL     1       1.021 -12.509   1.626  1.00  0.00    -0.378 OA
ENDBRANCH  18  22
ENDBRANCH  12  15
ENDBRANCH   6  11
ENDBRANCH   3   5
ENDBRANCH   2   3
ENDBRANCH   1   2
BRANCH   1  30
ATOM     30  C   UNL     1      -6.069  -1.460   1.183  1.00  0.00     0.275 C 
BRANCH  30  31
ATOM     31  O   UNL     1      -5.448  -0.314   0.496  1.00  0.00    -0.458 OA
BRANCH  31  32
ATOM     32  C   UNL     1      -4.712  -0.213  -0.645  1.00  0.00     0.338 C 
ATOM     33  O   UNL     1      -4.051   0.786  -0.907  1.00  0.00    -0.246 OA
BRANCH  32  34
ATOM     34  C   UNL     1      -4.678  -1.360  -1.566  1.00  0.00     0.060 A 
ATOM     35  C   UNL     1      -3.510  -1.703  -2.283  1.00  0.00     0.016 A 
ATOM     36  C   UNL     1      -5.797  -2.163  -1.621  1.00  0.00     0.016 A 
ATOM     37  C   UNL     1      -3.438  -2.923  -2.956  1.00  0.00     0.010 A 
ATOM     38  C   UNL     1      -5.643  -3.447  -2.059  1.00  0.00     0.010 A 
ATOM     39  C   UNL     1      -4.506  -3.805  -2.802  1.00  0.00    -0.014 A 
BRANCH  39  40
ATOM     40  C   UNL     1      -4.742  -4.982  -3.622  1.00  0.00     0.031 A 
ATOM     41  C   UNL     1      -3.993  -6.240  -3.462  1.00  0.00     0.074 A 
ATOM     42  C   UNL     1      -5.808  -4.777  -4.436  1.00  0.00     0.049 A 
ATOM     43  N   UNL     1      -3.773  -7.056  -4.432  1.00  0.00    -0.248 NA
ATOM     44  C   UNL     1      -3.401  -6.712  -2.208  1.00  0.00     0.031 C 
ATOM     45  C   UNL     1      -6.605  -5.648  -5.270  1.00  0.00     0.029 A 
ATOM     46  N   UNL     1      -6.336  -3.501  -4.721  1.00  0.00    -0.354 N 
ATOM     47  C   UNL     1      -3.407  -8.266  -3.872  1.00  0.00     0.074 A 
ATOM     48  C   UNL     1      -3.025  -7.962  -2.519  1.00  0.00     0.031 C 
ATOM     49  C   UNL     1      -7.221  -4.886  -6.204  1.00  0.00     0.029 A 
ATOM     50  C   UNL     1      -6.748  -3.512  -6.043  1.00  0.00     0.049 A 
ATOM     51  H   UNL     1      -6.401  -2.743  -4.096  1.00  0.00     0.167 HD
ATOM     52  C   UNL     1      -3.701  -9.414  -4.549  1.00  0.00     0.037 A 
ATOM     53  C   UNL     1      -5.999  -2.774  -6.913  1.00  0.00     0.037 A 
ATOM     54  C   UNL     1      -4.378  -9.073  -5.796  1.00  0.00     0.049 A 
ATOM     55  C   UNL     1      -5.291  -3.708  -7.857  1.00  0.00     0.074 A 
ATOM     56  C   UNL     1      -5.725  -8.975  -6.101  1.00  0.00     0.029 A 
ATOM     57  N   UNL     1      -3.698  -8.344  -6.762  1.00  0.00    -0.354 N 
ATOM     58  N   UNL     1      -4.859  -4.897  -7.531  1.00  0.00    -0.248 NA
ATOM     59  C   UNL     1      -5.138  -3.409  -9.273  1.00  0.00     0.031 C 
ATOM     60  C   UNL     1      -5.856  -8.126  -7.228  1.00  0.00     0.029 A 
ATOM     61  C   UNL     1      -4.592  -7.696  -7.593  1.00  0.00     0.049 A 
ATOM     62  H   UNL     1      -2.718  -8.295  -6.844  1.00  0.00     0.167 HD
ATOM     63  C   UNL     1      -4.482  -5.558  -8.671  1.00  0.00     0.074 A 
ATOM     64  C   UNL     1      -4.651  -4.575  -9.727  1.00  0.00     0.031 C 
ATOM     65  C   UNL     1      -4.117  -6.875  -8.693  1.00  0.00     0.037 A 
BRANCH  52  66
ATOM     66  C   UNL     1      -3.698 -10.807  -3.962  1.00  0.00     0.057 A 
ATOM     67  C   UNL     1      -4.659 -11.762  -4.362  1.00  0.00     0.134 A 
ATOM     68  C   UNL     1      -2.770 -11.278  -3.018  1.00  0.00     0.134 A 
ATOM     69  F   UNL     1      -5.594 -11.485  -5.279  1.00  0.00    -0.206 F 
ATOM     70  C   UNL     1      -4.724 -13.059  -3.839  1.00  0.00     0.040 A 
ATOM     71  C   UNL     1      -2.836 -12.573  -2.469  1.00  0.00     0.040 A 
ATOM     72  F   UNL     1      -1.742 -10.517  -2.612  1.00  0.00    -0.206 F 
ATOM     73  C   UNL     1      -3.817 -13.468  -2.878  1.00  0.00     0.006 A 
ENDBRANCH  52  66
BRANCH  53  74
ATOM     74  C   UNL     1      -5.438  -1.500  -6.326  1.00  0.00     0.057 A 
ATOM     75  C   UNL     1      -6.306  -0.618  -5.638  1.00  0.00     0.134 A 
ATOM     76  C   UNL     1      -4.072  -1.234  -6.186  1.00  0.00     0.134 A 
ATOM     77  F   UNL     1      -7.638  -0.786  -5.714  1.00  0.00    -0.206 F 
ATOM     78  C   UNL     1      -5.847   0.392  -4.782  1.00  0.00     0.040 A 
ATOM     79  C   UNL     1      -3.599  -0.202  -5.352  1.00  0.00     0.040 A 
ATOM     80  F   UNL     1      -3.158  -2.003  -6.793  1.00  0.00    -0.206 F 
ATOM     81  C   UNL     1      -4.484   0.593  -4.623  1.00  0.00     0.006 A 
ENDBRANCH  53  74
BRANCH  65  82
ATOM     82  C   UNL     1      -3.380  -7.561  -9.815  1.00  0.00     0.057 A 
ATOM     83  C   UNL     1      -2.594  -6.885 -10.756  1.00  0.00     0.134 A 
ATOM     84  C   UNL     1      -3.305  -8.974  -9.878  1.00  0.00     0.134 A 
ATOM     85  F   UNL     1      -2.444  -5.555 -10.729  1.00  0.00    -0.206 F 
ATOM     86  C   UNL     1      -1.863  -7.556 -11.741  1.00  0.00     0.040 A 
ATOM     87  C   UNL     1      -2.512  -9.652 -10.803  1.00  0.00     0.040 A 
ATOM     88  F   UNL     1      -3.967  -9.768  -9.024  1.00  0.00    -0.206 F 
ATOM     89  C   UNL     1      -1.808  -8.942 -11.759  1.00  0.00     0.006 A 
ENDBRANCH  65  82
ENDBRANCH  39  40
ENDBRANCH  32  34
ENDBRANCH  31  32
ENDBRANCH  30  31
ENDBRANCH   1  30
TORSDOF 14
