REMARK SMILES CC(=O)N/N=C/c1ccc(O[C@H](C)C(=O)OCCOC(=O)c2ccc(-c3c4nc(c(-c5c(F)cccc5F)c5ccc([nH]5)c(-c5c(F)cccc5F)c5nc(c(-c6c(F)cccc6F)c6ccc3[nH]6)C=C5)C=C4)cc2)cc1
REMARK SMILES IDX 17 1 16 2 14 3 15 4 12 5 13 6 11 7 10 8 7 9 8 10 77 11 9 12
REMARK SMILES IDX 76 13 6 14 5 15 4 16 1 17 2 18 3 19 18 21 19 22 20 23 21 24
REMARK SMILES IDX 22 25 23 26 75 27 24 28 74 29 25 30 26 31 27 32 68 33 28 34
REMARK SMILES IDX 73 35 67 36 69 37 29 38 72 39 66 40 65 41 30 43 56 44 39 45
REMARK SMILES IDX 55 46 40 47 43 48 54 49 70 50 41 51 42 52 53 54 71 55 44 56
REMARK SMILES IDX 31 57 32 58 37 59 33 60 34 61 36 62 38 63 35 64 57 65 58 66
REMARK SMILES IDX 63 67 59 68 60 69 62 70 64 71 61 72 45 73 46 74 51 75 47 76
REMARK SMILES IDX 48 77 50 78 52 79 49 80
REMARK H PARENT 4 20 69 42 43 53
REMARK Flexibility Score: inf
ROOT
ATOM      1  C   UNL     1       0.914   7.194   2.427  1.00  0.00     0.274 C 
ENDROOT
BRANCH   1   2
ATOM      2  O   UNL     1       2.226   6.926   1.888  1.00  0.00    -0.459 OA
BRANCH   2   3
ATOM      3  C   UNL     1       3.126   7.932   2.045  1.00  0.00     0.347 C 
ATOM      4  O   UNL     1       2.891   8.961   2.675  1.00  0.00    -0.248 OA
BRANCH   3   5
ATOM      5  C   UNL     1       4.471   7.709   1.313  1.00  0.00     0.279 C 
ATOM      6  C   UNL     1       5.007   6.312   1.632  1.00  0.00     0.066 C 
BRANCH   5   7
ATOM      7  O   UNL     1       4.577   7.870  -0.101  1.00  0.00    -0.479 OA
BRANCH   7   8
ATOM      8  C   UNL     1       3.819   8.821  -0.717  1.00  0.00     0.120 A 
ATOM      9  C   UNL     1       1.923  10.334  -2.063  1.00  0.00    -0.005 A 
ATOM     10  C   UNL     1       2.243  10.644  -0.744  1.00  0.00     0.013 A 
ATOM     11  C   UNL     1       2.643   9.371  -2.765  1.00  0.00     0.013 A 
ATOM     12  C   UNL     1       3.247   9.929  -0.099  1.00  0.00     0.047 A 
ATOM     13  C   UNL     1       3.583   8.601  -2.077  1.00  0.00     0.047 A 
BRANCH   9  14
ATOM     14  C   UNL     1       0.746  10.985  -2.643  1.00  0.00     0.141 C 
ATOM     15  N   UNL     1       0.695  11.366  -3.875  1.00  0.00    -0.181 NA
BRANCH  15  16
ATOM     16  N   UNL     1      -0.439  12.003  -4.293  1.00  0.00    -0.247 N 
ATOM     17  C   UNL     1      -0.785  13.513  -2.332  1.00  0.00     0.116 C 
ATOM     18  C   UNL     1      -1.197  12.969  -3.675  1.00  0.00     0.236 C 
ATOM     19  O   UNL     1      -2.215  13.389  -4.230  1.00  0.00    -0.274 OA
ATOM     20  H   UNL     1      -0.766  11.726  -5.179  1.00  0.00     0.193 HD
ENDBRANCH  15  16
ENDBRANCH   9  14
ENDBRANCH   7   8
ENDBRANCH   5   7
ENDBRANCH   3   5
ENDBRANCH   2   3
ENDBRANCH   1   2
BRANCH   1  21
ATOM     21  C   UNL     1       0.754   6.832   3.913  1.00  0.00     0.275 C 
BRANCH  21  22
ATOM     22  O   UNL     1       1.510   7.695   4.786  1.00  0.00    -0.458 OA
BRANCH  22  23
ATOM     23  C   UNL     1       2.760   7.253   5.070  1.00  0.00     0.338 C 
ATOM     24  O   UNL     1       3.240   6.179   4.742  1.00  0.00    -0.246 OA
BRANCH  23  25
ATOM     25  C   UNL     1       3.581   8.325   5.670  1.00  0.00     0.060 A 
ATOM     26  C   UNL     1       4.849   8.532   5.112  1.00  0.00     0.016 A 
ATOM     27  C   UNL     1       3.175   9.065   6.782  1.00  0.00     0.016 A 
ATOM     28  C   UNL     1       5.725   9.455   5.668  1.00  0.00     0.010 A 
ATOM     29  C   UNL     1       4.068   9.980   7.359  1.00  0.00     0.010 A 
ATOM     30  C   UNL     1       5.355  10.156   6.819  1.00  0.00    -0.014 A 
BRANCH  30  31
ATOM     31  C   UNL     1       6.404  10.932   7.522  1.00  0.00     0.031 A 
ATOM     32  C   UNL     1       7.122  10.299   8.679  1.00  0.00     0.074 A 
ATOM     33  C   UNL     1       6.786  12.137   7.068  1.00  0.00     0.049 A 
ATOM     34  N   UNL     1       8.114  10.761   9.396  1.00  0.00    -0.248 NA
ATOM     35  C   UNL     1       6.661   8.960   9.077  1.00  0.00     0.031 C 
ATOM     36  C   UNL     1       6.201  12.833   5.924  1.00  0.00     0.029 A 
ATOM     37  N   UNL     1       7.770  12.983   7.512  1.00  0.00    -0.354 N 
ATOM     38  C   UNL     1       8.390   9.777  10.335  1.00  0.00     0.074 A 
ATOM     39  C   UNL     1       7.444   8.703  10.114  1.00  0.00     0.031 C 
ATOM     40  C   UNL     1       6.835  14.006   5.758  1.00  0.00     0.029 A 
ATOM     41  C   UNL     1       7.856  14.150   6.795  1.00  0.00     0.049 A 
ATOM     42  H   UNL     1       8.359  12.773   8.273  1.00  0.00     0.167 HD
ATOM     43  C   UNL     1       9.347   9.764  11.293  1.00  0.00     0.037 A 
ATOM     44  C   UNL     1       8.659  15.217   6.964  1.00  0.00     0.037 A 
ATOM     45  C   UNL     1      10.288  10.831  11.512  1.00  0.00     0.049 A 
ATOM     46  C   UNL     1       9.695  15.198   8.055  1.00  0.00     0.074 A 
ATOM     47  C   UNL     1      11.301  10.910  12.451  1.00  0.00     0.029 A 
ATOM     48  N   UNL     1      10.325  12.011  10.784  1.00  0.00    -0.354 N 
ATOM     49  N   UNL     1       9.957  14.257   8.930  1.00  0.00    -0.248 NA
ATOM     50  C   UNL     1      10.554  16.384   8.173  1.00  0.00     0.031 C 
ATOM     51  C   UNL     1      11.923  12.158  12.319  1.00  0.00     0.029 A 
ATOM     52  C   UNL     1      11.330  12.835  11.265  1.00  0.00     0.049 A 
ATOM     53  H   UNL     1       9.726  12.231  10.034  1.00  0.00     0.167 HD
ATOM     54  C   UNL     1      11.021  14.728   9.691  1.00  0.00     0.074 A 
ATOM     55  C   UNL     1      11.366  16.031   9.160  1.00  0.00     0.031 C 
ATOM     56  C   UNL     1      11.656  14.134  10.732  1.00  0.00     0.037 A 
BRANCH  43  57
ATOM     57  C   UNL     1       9.379   8.570  12.202  1.00  0.00     0.057 A 
ATOM     58  C   UNL     1       9.800   7.309  11.762  1.00  0.00     0.134 A 
ATOM     59  C   UNL     1       8.954   8.682  13.532  1.00  0.00     0.134 A 
ATOM     60  F   UNL     1      10.199   7.129  10.494  1.00  0.00    -0.206 F 
ATOM     61  C   UNL     1       9.763   6.193  12.601  1.00  0.00     0.040 A 
ATOM     62  C   UNL     1       8.938   7.580  14.388  1.00  0.00     0.040 A 
ATOM     63  F   UNL     1       8.539   9.861  14.018  1.00  0.00    -0.206 F 
ATOM     64  C   UNL     1       9.333   6.329  13.920  1.00  0.00     0.006 A 
ENDBRANCH  43  57
BRANCH  44  65
ATOM     65  C   UNL     1       8.504  16.396   6.078  1.00  0.00     0.057 A 
ATOM     66  C   UNL     1       9.462  16.715   5.110  1.00  0.00     0.134 A 
ATOM     67  C   UNL     1       7.380  17.226   6.174  1.00  0.00     0.134 A 
ATOM     68  F   UNL     1      10.571  15.972   4.985  1.00  0.00    -0.206 F 
ATOM     69  C   UNL     1       9.311  17.822   4.271  1.00  0.00     0.040 A 
ATOM     70  C   UNL     1       7.205  18.322   5.328  1.00  0.00     0.040 A 
ATOM     71  F   UNL     1       6.427  16.972   7.082  1.00  0.00    -0.206 F 
ATOM     72  C   UNL     1       8.175  18.624   4.375  1.00  0.00     0.006 A 
ENDBRANCH  44  65
BRANCH  56  73
ATOM     73  C   UNL     1      12.803  14.882  11.349  1.00  0.00     0.057 A 
ATOM     74  C   UNL     1      12.604  16.024  12.136  1.00  0.00     0.134 A 
ATOM     75  C   UNL     1      14.120  14.441  11.170  1.00  0.00     0.134 A 
ATOM     76  F   UNL     1      11.368  16.505  12.337  1.00  0.00    -0.206 F 
ATOM     77  C   UNL     1      13.678  16.719  12.697  1.00  0.00     0.040 A 
ATOM     78  C   UNL     1      15.199  15.112  11.748  1.00  0.00     0.040 A 
ATOM     79  F   UNL     1      14.380  13.349  10.437  1.00  0.00    -0.206 F 
ATOM     80  C   UNL     1      14.980  16.260  12.507  1.00  0.00     0.006 A 
ENDBRANCH  56  73
ENDBRANCH  30  31
ENDBRANCH  23  25
ENDBRANCH  22  23
ENDBRANCH  21  22
ENDBRANCH   1  21
TORSDOF 15
