REMARK SMILES CC(C)c1cccc2c1N[C@H](c1ccc(C(=O)OCCOC(=O)c3ccc(-c4c5nc(c(-c6c(F)cccc6F)c6ccc([nH]6)c(-c6c(F)cccc6F)c6nc(c(-c7c(F)cccc7F)c7ccc4[nH]7)C=C6)C=C5)cc3)cc1)[C@H]1CC=C[C@H]21
REMARK SMILES IDX 19 1 18 2 16 3 17 4 15 5 12 6 13 7 79 8 14 9 78 10 11 11
REMARK SMILES IDX 4 12 5 13 9 14 6 15 8 16 10 17 7 18 84 19 80 21 83 22 81 23
REMARK SMILES IDX 82 24 2 25 1 26 3 27 20 28 21 29 22 30 23 31 24 32 25 33
REMARK SMILES IDX 77 34 26 35 76 36 27 37 28 38 29 39 70 40 30 41 75 42 69 43
REMARK SMILES IDX 71 44 31 45 74 46 68 47 67 48 32 50 58 51 41 52 57 53 42 54
REMARK SMILES IDX 45 55 56 56 72 57 43 58 44 59 55 61 73 62 46 63 33 64 34 65
REMARK SMILES IDX 39 66 35 67 36 68 38 69 40 70 37 71 59 72 60 73 65 74 61 75
REMARK SMILES IDX 62 76 64 77 66 78 63 79 47 80 48 81 53 82 49 83 50 84 52 85
REMARK SMILES IDX 54 86 51 87
REMARK H PARENT 10 20 71 49 45 60
REMARK Flexibility Score: inf
ROOT
ATOM      1  C   UNL     1       0.852   7.584   4.675  1.00  0.00     0.275 C 
ENDROOT
BRANCH   1   2
ATOM      2  O   UNL     1       0.089   6.768   3.769  1.00  0.00    -0.458 OA
BRANCH   2   3
ATOM      3  C   UNL     1       0.414   6.810   2.454  1.00  0.00     0.338 C 
ATOM      4  O   UNL     1       1.219   7.565   1.929  1.00  0.00    -0.246 OA
BRANCH   3   5
ATOM      5  C   UNL     1      -0.284   5.715   1.724  1.00  0.00     0.060 A 
ATOM      6  C   UNL     1      -1.440   3.526   0.350  1.00  0.00    -0.025 A 
ATOM      7  C   UNL     1      -0.518   4.369  -0.292  1.00  0.00     0.007 A 
ATOM      8  C   UNL     1      -1.749   3.791   1.695  1.00  0.00     0.007 A 
ATOM      9  C   UNL     1       0.045   5.461   0.385  1.00  0.00     0.016 A 
ATOM     10  C   UNL     1      -1.195   4.878   2.369  1.00  0.00     0.016 A 
BRANCH   6  11
ATOM     11  C   UNL     1      -2.075   2.362  -0.405  1.00  0.00     0.114 C 
ATOM     12  C   UNL     1      -0.987  -1.307  -0.157  1.00  0.00    -0.022 A 
ATOM     13  C   UNL     1      -1.641  -2.570  -0.179  1.00  0.00     0.006 A 
ATOM     14  C   UNL     1      -1.796  -0.145  -0.252  1.00  0.00     0.042 A 
ATOM     15  C   UNL     1      -3.021  -2.706  -0.290  1.00  0.00     0.001 A 
ATOM     16  C   UNL     1      -3.208  -0.311  -0.450  1.00  0.00    -0.017 A 
ATOM     17  N   UNL     1      -1.268   1.150  -0.221  1.00  0.00    -0.377 N 
ATOM     18  C   UNL     1      -3.802  -1.579  -0.450  1.00  0.00     0.006 A 
ATOM     19  C   UNL     1      -4.031   0.907  -0.779  1.00  0.00     0.049 C 
ATOM     20  H   UNL     1      -0.301   1.254  -0.067  1.00  0.00     0.161 HD
ATOM     21  C   UNL     1      -3.498   2.072   0.043  1.00  0.00     0.031 C 
ATOM     22  C   UNL     1      -5.488   1.018  -0.424  1.00  0.00    -0.023 C 
ATOM     23  C   UNL     1      -4.564   3.152  -0.109  1.00  0.00     0.034 C 
ATOM     24  C   UNL     1      -5.790   2.284  -0.093  1.00  0.00    -0.030 C 
BRANCH  12  25
ATOM     25  C   UNL     1       0.549  -1.403  -0.117  1.00  0.00     0.015 C 
ATOM     26  C   UNL     1       1.407  -0.143  -0.255  1.00  0.00     0.012 C 
ATOM     27  C   UNL     1       1.040  -2.171   1.127  1.00  0.00     0.012 C 
ENDBRANCH  12  25
ENDBRANCH   6  11
ENDBRANCH   3   5
ENDBRANCH   2   3
ENDBRANCH   1   2
BRANCH   1  28
ATOM     28  C   UNL     1       1.835   6.716   5.468  1.00  0.00     0.275 C 
BRANCH  28  29
ATOM     29  O   UNL     1       2.947   6.322   4.642  1.00  0.00    -0.458 OA
BRANCH  29  30
ATOM     30  C   UNL     1       2.821   5.122   4.028  1.00  0.00     0.338 C 
ATOM     31  O   UNL     1       1.930   4.304   4.179  1.00  0.00    -0.246 OA
BRANCH  30  32
ATOM     32  C   UNL     1       3.852   5.012   2.981  1.00  0.00     0.060 A 
ATOM     33  C   UNL     1       5.211   5.164   3.260  1.00  0.00     0.016 A 
ATOM     34  C   UNL     1       3.427   4.724   1.682  1.00  0.00     0.016 A 
ATOM     35  C   UNL     1       6.138   5.045   2.219  1.00  0.00     0.010 A 
ATOM     36  C   UNL     1       4.349   4.612   0.645  1.00  0.00     0.010 A 
ATOM     37  C   UNL     1       5.714   4.772   0.903  1.00  0.00    -0.014 A 
BRANCH  37  38
ATOM     38  C   UNL     1       6.705   4.554  -0.178  1.00  0.00     0.031 A 
ATOM     39  C   UNL     1       6.886   5.542  -1.294  1.00  0.00     0.074 A 
ATOM     40  C   UNL     1       7.418   3.412  -0.172  1.00  0.00     0.049 A 
ATOM     41  N   UNL     1       7.789   5.555  -2.244  1.00  0.00    -0.248 NA
ATOM     42  C   UNL     1       5.912   6.641  -1.377  1.00  0.00     0.031 C 
ATOM     43  C   UNL     1       7.248   2.320   0.788  1.00  0.00     0.029 A 
ATOM     44  N   UNL     1       8.428   2.983  -0.993  1.00  0.00    -0.354 N 
ATOM     45  C   UNL     1       7.501   6.663  -3.030  1.00  0.00     0.074 A 
ATOM     46  C   UNL     1       6.303   7.264  -2.481  1.00  0.00     0.031 C 
ATOM     47  C   UNL     1       8.157   1.367   0.531  1.00  0.00     0.029 A 
ATOM     48  C   UNL     1       8.966   1.779  -0.611  1.00  0.00     0.049 A 
ATOM     49  H   UNL     1       8.738   3.488  -1.779  1.00  0.00     0.167 HD
ATOM     50  C   UNL     1       8.188   7.148  -4.094  1.00  0.00     0.037 A 
ATOM     51  C   UNL     1      10.016   1.100  -1.107  1.00  0.00     0.037 A 
ATOM     52  C   UNL     1       9.380   6.543  -4.635  1.00  0.00     0.049 A 
ATOM     53  C   UNL     1      10.797   1.688  -2.247  1.00  0.00     0.074 A 
ATOM     54  C   UNL     1      10.199   7.000  -5.654  1.00  0.00     0.029 A 
ATOM     55  N   UNL     1       9.917   5.338  -4.205  1.00  0.00    -0.354 N 
ATOM     56  N   UNL     1      10.600   2.811  -2.894  1.00  0.00    -0.248 NA
ATOM     57  C   UNL     1      11.962   0.921  -2.709  1.00  0.00     0.031 C 
ATOM     58  C   UNL     1      11.208   6.053  -5.866  1.00  0.00     0.029 A 
ATOM     59  C   UNL     1      11.044   5.027  -4.950  1.00  0.00     0.049 A 
ATOM     60  H   UNL     1       9.552   4.785  -3.477  1.00  0.00     0.167 HD
ATOM     61  C   UNL     1      11.625   2.894  -3.828  1.00  0.00     0.074 A 
ATOM     62  C   UNL     1      12.458   1.724  -3.638  1.00  0.00     0.031 C 
ATOM     63  C   UNL     1      11.854   3.850  -4.761  1.00  0.00     0.037 A 
BRANCH  50  64
ATOM     64  C   UNL     1       7.678   8.409  -4.734  1.00  0.00     0.057 A 
ATOM     65  C   UNL     1       7.148   8.400  -6.030  1.00  0.00     0.134 A 
ATOM     66  C   UNL     1       7.756   9.646  -4.079  1.00  0.00     0.134 A 
ATOM     67  F   UNL     1       7.054   7.254  -6.721  1.00  0.00    -0.206 F 
ATOM     68  C   UNL     1       6.712   9.573  -6.650  1.00  0.00     0.040 A 
ATOM     69  C   UNL     1       7.299  10.822  -4.678  1.00  0.00     0.040 A 
ATOM     70  F   UNL     1       8.251   9.727  -2.835  1.00  0.00    -0.206 F 
ATOM     71  C   UNL     1       6.780  10.788  -5.971  1.00  0.00     0.006 A 
ENDBRANCH  50  64
BRANCH  51  72
ATOM     72  C   UNL     1      10.437  -0.176  -0.480  1.00  0.00     0.057 A 
ATOM     73  C   UNL     1       9.684  -1.346  -0.622  1.00  0.00     0.134 A 
ATOM     74  C   UNL     1      11.616  -0.251   0.272  1.00  0.00     0.134 A 
ATOM     75  F   UNL     1       8.538  -1.334  -1.319  1.00  0.00    -0.206 F 
ATOM     76  C   UNL     1      10.090  -2.548  -0.041  1.00  0.00     0.040 A 
ATOM     77  C   UNL     1      12.046  -1.452   0.837  1.00  0.00     0.040 A 
ATOM     78  F   UNL     1      12.385   0.836   0.430  1.00  0.00    -0.206 F 
ATOM     79  C   UNL     1      11.280  -2.605   0.683  1.00  0.00     0.006 A 
ENDBRANCH  51  72
BRANCH  63  80
ATOM     80  C   UNL     1      13.060   3.660  -5.635  1.00  0.00     0.057 A 
ATOM     81  C   UNL     1      14.189   4.474  -5.485  1.00  0.00     0.134 A 
ATOM     82  C   UNL     1      13.111   2.656  -6.612  1.00  0.00     0.134 A 
ATOM     83  F   UNL     1      14.204   5.458  -4.574  1.00  0.00    -0.206 F 
ATOM     84  C   UNL     1      15.331   4.288  -6.266  1.00  0.00     0.040 A 
ATOM     85  C   UNL     1      14.258   2.443  -7.379  1.00  0.00     0.040 A 
ATOM     86  F   UNL     1      12.069   1.832  -6.795  1.00  0.00    -0.206 F 
ATOM     87  C   UNL     1      15.372   3.262  -7.208  1.00  0.00     0.006 A 
ENDBRANCH  63  80
ENDBRANCH  37  38
ENDBRANCH  30  32
ENDBRANCH  29  30
ENDBRANCH  28  29
ENDBRANCH   1  28
TORSDOF 13
