REMARK SMILES CCC1(CC)C[NH+]([C@H](CCS(C)(=O)=O)C(=O)OCCOC(=O)c2ccc(-c3c4nc(c(-c5c(F)cccc5F)c5ccc([nH]5)c(-c5c(F)cccc5F)c5nc(c(-c6c(F)cccc6F)c6ccc3[nH]6)C=C5)C=C4)cc2)C1
REMARK SMILES IDX 18 1 17 2 15 3 16 4 8 5 7 6 3 7 6 8 77 9 2 11 1 12 4 13 5 14
REMARK SMILES IDX 9 15 10 16 11 17 12 18 13 19 14 20 19 21 20 22 21 23 22 24
REMARK SMILES IDX 23 25 24 26 76 27 25 28 75 29 26 30 27 31 28 32 69 33 29 34
REMARK SMILES IDX 74 35 68 36 70 37 30 38 73 39 67 40 66 41 31 43 57 44 40 45
REMARK SMILES IDX 56 46 41 47 44 48 55 49 71 50 42 51 43 52 54 54 72 55 45 56
REMARK SMILES IDX 32 57 33 58 38 59 34 60 35 61 37 62 39 63 36 64 58 65 59 66
REMARK SMILES IDX 64 67 60 68 61 69 63 70 65 71 62 72 46 73 47 74 52 75 48 76
REMARK SMILES IDX 49 77 51 78 53 79 50 80
REMARK H PARENT 7 10 70 42 44 53
REMARK Flexibility Score: inf
ROOT
ATOM      1  C   UNL     1       0.632  -3.732   5.692  1.00  0.00     0.274 C 
ENDROOT
BRANCH   1   2
ATOM      2  O   UNL     1       0.658  -3.592   4.256  1.00  0.00    -0.458 OA
BRANCH   2   3
ATOM      3  C   UNL     1       1.641  -4.283   3.614  1.00  0.00     0.365 C 
ATOM      4  O   UNL     1       2.491  -4.953   4.194  1.00  0.00    -0.245 OA
BRANCH   3   5
ATOM      5  C   UNL     1       1.608  -4.120   2.070  1.00  0.00     0.296 C 
BRANCH   5   6
ATOM      6  N   UNL     1       2.748  -3.264   1.731  1.00  0.00    -0.322 N 
ATOM      7  C   UNL     1       3.445  -1.605   0.660  1.00  0.00     0.068 C 
ATOM      8  C   UNL     1       2.553  -1.828   1.934  1.00  0.00     0.275 C 
ATOM      9  C   UNL     1       2.993  -3.063   0.297  1.00  0.00     0.275 C 
ATOM     10  H   UNL     1       3.439  -3.759   2.295  1.00  0.00     0.348 HD
BRANCH   7  11
ATOM     11  C   UNL     1       2.883  -0.524  -0.271  1.00  0.00     0.015 C 
ATOM     12  C   UNL     1       3.071   0.873   0.300  1.00  0.00     0.005 C 
ENDBRANCH   7  11
BRANCH   7  13
ATOM     13  C   UNL     1       4.952  -1.482   0.979  1.00  0.00     0.015 C 
ATOM     14  C   UNL     1       5.825  -1.535  -0.266  1.00  0.00     0.005 C 
ENDBRANCH   7  13
ENDBRANCH   5   6
BRANCH   5  15
ATOM     15  C   UNL     1       0.192  -3.844   1.475  1.00  0.00     0.094 C 
BRANCH  15  16
ATOM     16  C   UNL     1      -0.410  -5.144   0.924  1.00  0.00     0.143 C 
BRANCH  16  17
ATOM     17  S   UNL     1      -2.183  -5.375   0.974  1.00  0.00     0.147 S 
ATOM     18  C   UNL     1      -2.881  -4.446   2.329  1.00  0.00     0.158 C 
ATOM     19  O   UNL     1      -2.720  -4.795  -0.245  1.00  0.00    -0.229 OA
ATOM     20  O   UNL     1      -2.409  -6.786   1.248  1.00  0.00    -0.229 OA
ENDBRANCH  16  17
ENDBRANCH  15  16
ENDBRANCH   5  15
ENDBRANCH   3   5
ENDBRANCH   2   3
ENDBRANCH   1   2
BRANCH   1  21
ATOM     21  C   UNL     1      -0.321  -4.840   6.165  1.00  0.00     0.275 C 
BRANCH  21  22
ATOM     22  O   UNL     1       0.132  -6.167   5.826  1.00  0.00    -0.458 OA
BRANCH  22  23
ATOM     23  C   UNL     1      -0.226  -6.573   4.591  1.00  0.00     0.338 C 
ATOM     24  O   UNL     1      -0.863  -5.924   3.771  1.00  0.00    -0.246 OA
BRANCH  23  25
ATOM     25  C   UNL     1       0.348  -7.869   4.232  1.00  0.00     0.060 A 
ATOM     26  C   UNL     1       1.329  -7.894   3.238  1.00  0.00     0.016 A 
ATOM     27  C   UNL     1      -0.188  -9.051   4.737  1.00  0.00     0.016 A 
ATOM     28  C   UNL     1       1.779  -9.104   2.733  1.00  0.00     0.010 A 
ATOM     29  C   UNL     1       0.291 -10.271   4.255  1.00  0.00     0.010 A 
ATOM     30  C   UNL     1       1.278 -10.301   3.255  1.00  0.00    -0.014 A 
BRANCH  30  31
ATOM     31  C   UNL     1       1.870 -11.578   2.809  1.00  0.00     0.031 A 
ATOM     32  C   UNL     1       1.121 -12.505   1.907  1.00  0.00     0.074 A 
ATOM     33  C   UNL     1       3.112 -11.876   3.231  1.00  0.00     0.049 A 
ATOM     34  N   UNL     1       1.456 -13.703   1.504  1.00  0.00    -0.248 NA
ATOM     35  C   UNL     1      -0.169 -12.028   1.386  1.00  0.00     0.031 C 
ATOM     36  C   UNL     1       3.943 -11.014   4.077  1.00  0.00     0.029 A 
ATOM     37  N   UNL     1       3.891 -12.980   3.011  1.00  0.00    -0.354 N 
ATOM     38  C   UNL     1       0.413 -14.136   0.698  1.00  0.00     0.074 A 
ATOM     39  C   UNL     1      -0.570 -13.072   0.670  1.00  0.00     0.031 C 
ATOM     40  C   UNL     1       5.116 -11.623   4.302  1.00  0.00     0.029 A 
ATOM     41  C   UNL     1       5.094 -12.935   3.668  1.00  0.00     0.049 A 
ATOM     42  H   UNL     1       3.615 -13.732   2.438  1.00  0.00     0.167 HD
ATOM     43  C   UNL     1       0.296 -15.318   0.048  1.00  0.00     0.037 A 
ATOM     44  C   UNL     1       6.057 -13.866   3.782  1.00  0.00     0.037 A 
ATOM     45  C   UNL     1       1.289 -16.361   0.077  1.00  0.00     0.049 A 
ATOM     46  C   UNL     1       5.871 -15.188   3.103  1.00  0.00     0.074 A 
ATOM     47  C   UNL     1       1.272 -17.588  -0.563  1.00  0.00     0.029 A 
ATOM     48  N   UNL     1       2.478 -16.299   0.789  1.00  0.00    -0.354 N 
ATOM     49  N   UNL     1       4.872 -15.597   2.358  1.00  0.00    -0.248 NA
ATOM     50  C   UNL     1       6.935 -16.182   3.289  1.00  0.00     0.031 C 
ATOM     51  C   UNL     1       2.434 -18.284  -0.209  1.00  0.00     0.029 A 
ATOM     52  C   UNL     1       3.192 -17.475   0.623  1.00  0.00     0.049 A 
ATOM     53  H   UNL     1       2.771 -15.533   1.333  1.00  0.00     0.167 HD
ATOM     54  C   UNL     1       5.186 -16.893   1.983  1.00  0.00     0.074 A 
ATOM     55  C   UNL     1       6.479 -17.195   2.566  1.00  0.00     0.031 C 
ATOM     56  C   UNL     1       4.468 -17.758   1.226  1.00  0.00     0.037 A 
BRANCH  43  57
ATOM     57  C   UNL     1      -0.963 -15.561  -0.728  1.00  0.00     0.057 A 
ATOM     58  C   UNL     1      -1.192 -14.964  -1.974  1.00  0.00     0.134 A 
ATOM     59  C   UNL     1      -1.935 -16.446  -0.245  1.00  0.00     0.134 A 
ATOM     60  F   UNL     1      -0.304 -14.100  -2.487  1.00  0.00    -0.206 F 
ATOM     61  C   UNL     1      -2.349 -15.233  -2.708  1.00  0.00     0.040 A 
ATOM     62  C   UNL     1      -3.087 -16.736  -0.977  1.00  0.00     0.040 A 
ATOM     63  F   UNL     1      -1.773 -17.053   0.941  1.00  0.00    -0.206 F 
ATOM     64  C   UNL     1      -3.297 -16.127  -2.213  1.00  0.00     0.006 A 
ENDBRANCH  43  57
BRANCH  44  65
ATOM     65  C   UNL     1       7.254 -13.581   4.606  1.00  0.00     0.057 A 
ATOM     66  C   UNL     1       8.501 -13.353   4.016  1.00  0.00     0.134 A 
ATOM     67  C   UNL     1       7.170 -13.494   6.001  1.00  0.00     0.134 A 
ATOM     68  F   UNL     1       8.645 -13.439   2.686  1.00  0.00    -0.206 F 
ATOM     69  C   UNL     1       9.625 -13.050   4.786  1.00  0.00     0.040 A 
ATOM     70  C   UNL     1       8.280 -13.171   6.781  1.00  0.00     0.040 A 
ATOM     71  F   UNL     1       5.998 -13.696   6.622  1.00  0.00    -0.206 F 
ATOM     72  C   UNL     1       9.514 -12.951   6.172  1.00  0.00     0.006 A 
ENDBRANCH  44  65
BRANCH  56  73
ATOM     73  C   UNL     1       5.078 -19.105   0.990  1.00  0.00     0.057 A 
ATOM     74  C   UNL     1       5.086 -20.089   1.986  1.00  0.00     0.134 A 
ATOM     75  C   UNL     1       5.652 -19.423  -0.246  1.00  0.00     0.134 A 
ATOM     76  F   UNL     1       4.566 -19.835   3.196  1.00  0.00    -0.206 F 
ATOM     77  C   UNL     1       5.665 -21.339   1.767  1.00  0.00     0.040 A 
ATOM     78  C   UNL     1       6.217 -20.677  -0.483  1.00  0.00     0.040 A 
ATOM     79  F   UNL     1       5.672 -18.523  -1.241  1.00  0.00    -0.206 F 
ATOM     80  C   UNL     1       6.229 -21.637   0.527  1.00  0.00     0.006 A 
ENDBRANCH  56  73
ENDBRANCH  30  31
ENDBRANCH  23  25
ENDBRANCH  22  23
ENDBRANCH  21  22
ENDBRANCH   1  21
TORSDOF 17
