REMARK SMILES O=C(CC1c2ccccc2CCc2ccccc21)OCCOC(=O)c1ccc(-c2c3nc(c(-c4c(F)cccc4F)c4ccc([nH]4)c(-c4c(F)cccc4F)c4nc(c(-c5c(F)cccc5F)c5ccc2[nH]5)C=C4)C=C3)cc1
REMARK SMILES IDX 20 1 19 2 2 3 1 4 3 5 4 6 5 7 6 8 10 9 7 10 9 11 8 12 11 13
REMARK SMILES IDX 18 15 13 16 17 17 14 18 16 19 15 20 12 21 21 23 22 24 23 25
REMARK SMILES IDX 24 26 25 27 26 28 78 29 27 30 77 31 28 32 29 33 30 34 71 35
REMARK SMILES IDX 31 36 76 37 70 38 72 39 32 40 75 41 69 42 68 43 33 45 59 46
REMARK SMILES IDX 42 47 58 48 43 49 46 50 57 51 73 52 44 53 45 54 56 56 74 57
REMARK SMILES IDX 47 58 34 59 35 60 40 61 36 62 37 63 39 64 41 65 38 66 60 67
REMARK SMILES IDX 61 68 66 69 62 70 63 71 65 72 67 73 64 74 48 75 49 76 54 77
REMARK SMILES IDX 50 78 51 79 53 80 55 81 52 82
REMARK H PARENT 72 44 46 55
REMARK Flexibility Score: 90.00
ROOT
ATOM      1  C   UNL     1       2.789  -1.762   0.521  1.00  0.00     0.274 C 
ENDROOT
BRANCH   1   2
ATOM      2  O   UNL     1       1.874  -0.666   0.332  1.00  0.00    -0.462 OA
BRANCH   2   3
ATOM      3  C   UNL     1       2.336   0.604   0.526  1.00  0.00     0.306 C 
ATOM      4  O   UNL     1       1.775   1.377   1.295  1.00  0.00    -0.252 OA
BRANCH   3   5
ATOM      5  C   UNL     1       3.382   1.051  -0.470  1.00  0.00     0.135 C 
BRANCH   5   6
ATOM      6  C   UNL     1       4.454   2.024   0.051  1.00  0.00     0.061 C 
BRANCH   6   7
ATOM      7  C   UNL     1       5.467   2.257  -1.079  1.00  0.00    -0.037 A 
ATOM      8  C   UNL     1       5.162   3.316  -1.971  1.00  0.00     0.004 A 
ATOM      9  C   UNL     1       6.576   1.437  -1.374  1.00  0.00    -0.044 A 
ATOM     10  C   UNL     1       5.900   3.543  -3.133  1.00  0.00     0.000 A 
ATOM     11  C   UNL     1       7.305   1.686  -2.562  1.00  0.00     0.004 A 
ATOM     12  C   UNL     1       6.966   2.715  -3.437  1.00  0.00     0.000 A 
BRANCH   9  13
ATOM     13  C   UNL     1       7.149   0.342  -0.500  1.00  0.00     0.040 CG0
ATOM     14  G   UNL     1       6.253  -0.374   0.496  1.00  0.00     0.000 G0
ENDBRANCH   9  13
ENDBRANCH   6   7
BRANCH   6  15
ATOM     15  C   UNL     1       5.017   1.647   1.409  1.00  0.00    -0.037 A 
ATOM     16  C   UNL     1       5.788   0.496   1.631  1.00  0.00    -0.044 A 
ATOM     17  C   UNL     1       4.643   2.438   2.515  1.00  0.00     0.004 A 
ATOM     18  C   UNL     1       6.112   0.133   2.950  1.00  0.00     0.004 A 
ATOM     19  C   UNL     1       4.984   2.075   3.816  1.00  0.00     0.000 A 
ATOM     20  C   UNL     1       5.707   0.911   4.034  1.00  0.00     0.000 A 
BRANCH  16  21
ATOM     21  C   UNL     1       6.253  -0.374   0.496  1.00  0.00     0.040 CG0
ATOM     22  G   UNL     1       7.149   0.342  -0.500  1.00  0.00     0.000 G0
ENDBRANCH  16  21
ENDBRANCH   6  15
ENDBRANCH   5   6
ENDBRANCH   3   5
ENDBRANCH   2   3
ENDBRANCH   1   2
BRANCH   1  23
ATOM     23  C   UNL     1       3.142  -2.532  -0.766  1.00  0.00     0.275 C 
BRANCH  23  24
ATOM     24  O   UNL     1       3.109  -1.700  -1.932  1.00  0.00    -0.458 OA
BRANCH  24  25
ATOM     25  C   UNL     1       1.869  -1.567  -2.468  1.00  0.00     0.338 C 
ATOM     26  O   UNL     1       0.890  -2.241  -2.211  1.00  0.00    -0.246 OA
BRANCH  25  27
ATOM     27  C   UNL     1       1.814  -0.332  -3.278  1.00  0.00     0.060 A 
ATOM     28  C   UNL     1       0.695   0.493  -3.111  1.00  0.00     0.016 A 
ATOM     29  C   UNL     1       2.827   0.025  -4.174  1.00  0.00     0.016 A 
ATOM     30  C   UNL     1       0.557   1.650  -3.877  1.00  0.00     0.010 A 
ATOM     31  C   UNL     1       2.682   1.179  -4.951  1.00  0.00     0.010 A 
ATOM     32  C   UNL     1       1.530   1.977  -4.830  1.00  0.00    -0.014 A 
BRANCH  32  33
ATOM     33  C   UNL     1       1.262   3.056  -5.811  1.00  0.00     0.031 A 
ATOM     34  C   UNL     1       0.643   2.690  -7.131  1.00  0.00     0.074 A 
ATOM     35  C   UNL     1       1.553   4.339  -5.534  1.00  0.00     0.049 A 
ATOM     36  N   UNL     1       0.338   3.458  -8.145  1.00  0.00    -0.248 NA
ATOM     37  C   UNL     1       0.325   1.267  -7.337  1.00  0.00     0.031 C 
ATOM     38  C   UNL     1       2.127   4.826  -4.282  1.00  0.00     0.029 A 
ATOM     39  N   UNL     1       1.415   5.467  -6.304  1.00  0.00    -0.354 N 
ATOM     40  C   UNL     1      -0.206   2.616  -9.105  1.00  0.00     0.074 A 
ATOM     41  C   UNL     1      -0.171   1.274  -8.566  1.00  0.00     0.031 C 
ATOM     42  C   UNL     1       2.321   6.154  -4.380  1.00  0.00     0.029 A 
ATOM     43  C   UNL     1       1.900   6.604  -5.707  1.00  0.00     0.049 A 
ATOM     44  H   UNL     1       1.006   5.461  -7.200  1.00  0.00     0.167 HD
ATOM     45  C   UNL     1      -0.697   2.933 -10.325  1.00  0.00     0.037 A 
ATOM     46  C   UNL     1       2.012   7.858  -6.188  1.00  0.00     0.037 A 
ATOM     47  C   UNL     1      -0.742   4.265 -10.863  1.00  0.00     0.049 A 
ATOM     48  C   UNL     1       1.527   8.168  -7.581  1.00  0.00     0.074 A 
ATOM     49  C   UNL     1      -1.284   4.690 -12.064  1.00  0.00     0.029 A 
ATOM     50  N   UNL     1      -0.209   5.383 -10.243  1.00  0.00    -0.354 N 
ATOM     51  N   UNL     1       0.945   7.378  -8.450  1.00  0.00    -0.248 NA
ATOM     52  C   UNL     1       1.717   9.546  -8.061  1.00  0.00     0.031 C 
ATOM     53  C   UNL     1      -1.031   6.059 -12.194  1.00  0.00     0.029 A 
ATOM     54  C   UNL     1      -0.367   6.491 -11.057  1.00  0.00     0.049 A 
ATOM     55  H   UNL     1       0.218   5.388  -9.357  1.00  0.00     0.167 HD
ATOM     56  C   UNL     1       0.684   8.164  -9.566  1.00  0.00     0.074 A 
ATOM     57  C   UNL     1       1.156   9.497  -9.261  1.00  0.00     0.031 C 
ATOM     58  C   UNL     1       0.106   7.812 -10.740  1.00  0.00     0.037 A 
BRANCH  45  59
ATOM     59  C   UNL     1      -1.215   1.817 -11.178  1.00  0.00     0.057 A 
ATOM     60  C   UNL     1      -2.459   1.223 -10.938  1.00  0.00     0.134 A 
ATOM     61  C   UNL     1      -0.486   1.377 -12.289  1.00  0.00     0.134 A 
ATOM     62  F   UNL     1      -3.198   1.594  -9.882  1.00  0.00    -0.206 F 
ATOM     63  C   UNL     1      -2.960   0.223 -11.773  1.00  0.00     0.040 A 
ATOM     64  C   UNL     1      -0.983   0.391 -13.141  1.00  0.00     0.040 A 
ATOM     65  F   UNL     1       0.713   1.908 -12.571  1.00  0.00    -0.206 F 
ATOM     66  C   UNL     1      -2.224  -0.189 -12.883  1.00  0.00     0.006 A 
ENDBRANCH  45  59
BRANCH  46  67
ATOM     67  C   UNL     1       2.650   8.920  -5.370  1.00  0.00     0.057 A 
ATOM     68  C   UNL     1       1.912  10.001  -4.875  1.00  0.00     0.134 A 
ATOM     69  C   UNL     1       4.027   8.907  -5.115  1.00  0.00     0.134 A 
ATOM     70  F   UNL     1       0.594  10.083  -5.111  1.00  0.00    -0.206 F 
ATOM     71  C   UNL     1       2.524  11.045  -4.178  1.00  0.00     0.040 A 
ATOM     72  C   UNL     1       4.648   9.932  -4.400  1.00  0.00     0.040 A 
ATOM     73  F   UNL     1       4.790   7.900  -5.565  1.00  0.00    -0.206 F 
ATOM     74  C   UNL     1       3.896  11.011  -3.938  1.00  0.00     0.006 A 
ENDBRANCH  46  67
BRANCH  58  75
ATOM     75  C   UNL     1      -0.059   8.880 -11.780  1.00  0.00     0.057 A 
ATOM     76  C   UNL     1       1.028   9.347 -12.529  1.00  0.00     0.134 A 
ATOM     77  C   UNL     1      -1.324   9.401 -12.078  1.00  0.00     0.134 A 
ATOM     78  F   UNL     1       2.267   8.895 -12.283  1.00  0.00    -0.206 F 
ATOM     79  C   UNL     1       0.864  10.303 -13.532  1.00  0.00     0.040 A 
ATOM     80  C   UNL     1      -1.504  10.342 -13.094  1.00  0.00     0.040 A 
ATOM     81  F   UNL     1      -2.407   8.989 -11.403  1.00  0.00    -0.206 F 
ATOM     82  C   UNL     1      -0.406  10.797 -13.822  1.00  0.00     0.006 A 
ENDBRANCH  58  75
ENDBRANCH  32  33
ENDBRANCH  25  27
ENDBRANCH  24  25
ENDBRANCH  23  24
ENDBRANCH   1  23
TORSDOF 12
