REMARK SMILES Cc1cc(NCc2ccco2)cc(C(=O)OCCOC(=O)c2ccc(-c3c4nc(c(-c5c(F)cccc5F)c5ccc([nH]5)c(-c5c(F)cccc5F)c5nc(c(-c6c(F)cccc6F)c6ccc3[nH]6)C=C5)C=C4)cc2)c1N
REMARK SMILES IDX 17 1 16 2 14 3 15 4 13 5 1 6 2 7 3 8 76 9 4 10 12 11 77 12
REMARK SMILES IDX 5 15 6 17 7 18 8 19 11 20 9 21 10 22 18 23 19 24 20 25 21 26
REMARK SMILES IDX 22 27 23 28 75 29 24 30 74 31 25 32 26 33 27 34 68 35 28 36
REMARK SMILES IDX 73 37 67 38 69 39 29 40 72 41 66 42 65 43 30 45 56 46 39 47
REMARK SMILES IDX 55 48 40 49 43 50 54 51 70 52 41 53 42 54 53 56 71 57 44 58
REMARK SMILES IDX 31 59 32 60 37 61 33 62 34 63 36 64 38 65 35 66 57 67 58 68
REMARK SMILES IDX 63 69 59 70 60 71 62 72 64 73 61 74 45 75 46 76 51 77 47 78
REMARK SMILES IDX 48 79 50 80 52 81 49 82
REMARK H PARENT 77 13 77 14 5 16 69 44 43 55
REMARK Flexibility Score: inf
ROOT
ATOM      1  C   UNL     1      -1.759  -4.643   0.186  1.00  0.00     0.275 C 
ENDROOT
BRANCH   1   2
ATOM      2  O   UNL     1      -1.819  -3.203   0.126  1.00  0.00    -0.458 OA
BRANCH   2   3
ATOM      3  C   UNL     1      -0.954  -2.522   0.927  1.00  0.00     0.340 C 
ATOM      4  O   UNL     1      -0.165  -3.015   1.716  1.00  0.00    -0.246 OA
BRANCH   3   5
ATOM      5  C   UNL     1      -1.039  -1.060   0.645  1.00  0.00     0.085 A 
ATOM      6  C   UNL     1       1.252   1.952   0.184  1.00  0.00     0.047 C 
ATOM      7  C   UNL     1       0.029   1.081   0.313  1.00  0.00    -0.025 A 
ATOM      8  C   UNL     1      -1.220   1.609  -0.064  1.00  0.00     0.031 A 
ATOM      9  C   UNL     1       0.109  -0.245   0.770  1.00  0.00     0.049 A 
ATOM     10  C   UNL     1      -2.398   0.852  -0.024  1.00  0.00     0.036 A 
ATOM     11  C   UNL     1      -2.276  -0.503   0.274  1.00  0.00     0.043 A 
BRANCH   9  12
ATOM     12  N   UNL     1       1.338  -0.764   1.186  1.00  0.00    -0.398 N 
ATOM     13  H   UNL     1       2.121  -0.173   1.264  1.00  0.00     0.156 HD
ATOM     14  H   UNL     1       1.421  -1.721   1.401  1.00  0.00     0.156 HD
ENDBRANCH   9  12
BRANCH  10  15
ATOM     15  N   UNL     1      -3.587   1.465  -0.372  1.00  0.00    -0.378 N 
ATOM     16  H   UNL     1      -3.535   2.349  -0.802  1.00  0.00     0.161 HD
BRANCH  15  17
ATOM     17  C   UNL     1      -4.912   0.902  -0.151  1.00  0.00     0.188 C 
BRANCH  17  18
ATOM     18  C   UNL     1      -5.427   1.025   1.243  1.00  0.00     0.122 A 
ATOM     19  C   UNL     1      -5.848   0.108   2.186  1.00  0.00     0.047 A 
ATOM     20  O   UNL     1      -5.552   2.292   1.741  1.00  0.00    -0.467 OA
ATOM     21  C   UNL     1      -6.250   0.856   3.320  1.00  0.00     0.042 A 
ATOM     22  C   UNL     1      -6.045   2.177   3.001  1.00  0.00     0.195 A 
ENDBRANCH  17  18
ENDBRANCH  15  17
ENDBRANCH  10  15
ENDBRANCH   3   5
ENDBRANCH   2   3
ENDBRANCH   1   2
BRANCH   1  23
ATOM     23  C   UNL     1      -1.059  -5.194  -1.056  1.00  0.00     0.275 C 
BRANCH  23  24
ATOM     24  O   UNL     1       0.311  -4.764  -1.040  1.00  0.00    -0.458 OA
BRANCH  24  25
ATOM     25  C   UNL     1       0.869  -4.497  -2.243  1.00  0.00     0.338 C 
ATOM     26  O   UNL     1       0.376  -4.689  -3.344  1.00  0.00    -0.246 OA
BRANCH  25  27
ATOM     27  C   UNL     1       2.216  -3.924  -2.034  1.00  0.00     0.060 A 
ATOM     28  C   UNL     1       2.430  -3.000  -1.012  1.00  0.00     0.016 A 
ATOM     29  C   UNL     1       3.260  -4.244  -2.901  1.00  0.00     0.016 A 
ATOM     30  C   UNL     1       3.661  -2.355  -0.885  1.00  0.00     0.010 A 
ATOM     31  C   UNL     1       4.520  -3.655  -2.722  1.00  0.00     0.010 A 
ATOM     32  C   UNL     1       4.731  -2.679  -1.728  1.00  0.00    -0.014 A 
BRANCH  32  33
ATOM     33  C   UNL     1       6.034  -1.952  -1.627  1.00  0.00     0.031 A 
ATOM     34  C   UNL     1       6.585  -1.230  -2.830  1.00  0.00     0.074 A 
ATOM     35  C   UNL     1       6.724  -1.899  -0.469  1.00  0.00     0.049 A 
ATOM     36  N   UNL     1       7.784  -0.740  -3.029  1.00  0.00    -0.248 NA
ATOM     37  C   UNL     1       5.670  -1.049  -3.968  1.00  0.00     0.031 C 
ATOM     38  C   UNL     1       6.304  -2.486   0.804  1.00  0.00     0.029 A 
ATOM     39  N   UNL     1       7.931  -1.306  -0.174  1.00  0.00    -0.354 N 
ATOM     40  C   UNL     1       7.788  -0.264  -4.335  1.00  0.00     0.074 A 
ATOM     41  C   UNL     1       6.470  -0.513  -4.879  1.00  0.00     0.031 C 
ATOM     42  C   UNL     1       7.209  -2.187   1.749  1.00  0.00     0.029 A 
ATOM     43  C   UNL     1       8.322  -1.470   1.134  1.00  0.00     0.049 A 
ATOM     44  H   UNL     1       8.464  -0.812  -0.837  1.00  0.00     0.167 HD
ATOM     45  C   UNL     1       8.799   0.322  -5.020  1.00  0.00     0.037 A 
ATOM     46  C   UNL     1       9.465  -1.129   1.762  1.00  0.00     0.037 A 
ATOM     47  C   UNL     1      10.085   0.645  -4.459  1.00  0.00     0.049 A 
ATOM     48  C   UNL     1      10.577  -0.484   0.982  1.00  0.00     0.074 A 
ATOM     49  C   UNL     1      11.175   1.232  -5.080  1.00  0.00     0.029 A 
ATOM     50  N   UNL     1      10.442   0.440  -3.136  1.00  0.00    -0.354 N 
ATOM     51  N   UNL     1      10.608  -0.140  -0.282  1.00  0.00    -0.248 NA
ATOM     52  C   UNL     1      11.826  -0.211   1.710  1.00  0.00     0.031 C 
ATOM     53  C   UNL     1      12.199   1.365  -4.136  1.00  0.00     0.029 A 
ATOM     54  C   UNL     1      11.734   0.891  -2.921  1.00  0.00     0.049 A 
ATOM     55  H   UNL     1       9.864   0.033  -2.452  1.00  0.00     0.167 HD
ATOM     56  C   UNL     1      11.873   0.388  -0.501  1.00  0.00     0.074 A 
ATOM     57  C   UNL     1      12.572   0.348   0.767  1.00  0.00     0.031 C 
ATOM     58  C   UNL     1      12.414   0.851  -1.653  1.00  0.00     0.037 A 
BRANCH  45  59
ATOM     59  C   UNL     1       8.570   0.625  -6.472  1.00  0.00     0.057 A 
ATOM     60  C   UNL     1       7.765   1.688  -6.896  1.00  0.00     0.134 A 
ATOM     61  C   UNL     1       9.205  -0.141  -7.460  1.00  0.00     0.134 A 
ATOM     62  F   UNL     1       7.117   2.449  -6.001  1.00  0.00    -0.206 F 
ATOM     63  C   UNL     1       7.585   1.969  -8.252  1.00  0.00     0.040 A 
ATOM     64  C   UNL     1       9.053   0.145  -8.817  1.00  0.00     0.040 A 
ATOM     65  F   UNL     1       9.996  -1.170  -7.120  1.00  0.00    -0.206 F 
ATOM     66  C   UNL     1       8.236   1.201  -9.216  1.00  0.00     0.006 A 
ENDBRANCH  45  59
BRANCH  46  67
ATOM     67  C   UNL     1       9.644  -1.444   3.204  1.00  0.00     0.057 A 
ATOM     68  C   UNL     1       9.714  -0.429   4.165  1.00  0.00     0.134 A 
ATOM     69  C   UNL     1       9.764  -2.765   3.653  1.00  0.00     0.134 A 
ATOM     70  F   UNL     1       9.639   0.858   3.795  1.00  0.00    -0.206 F 
ATOM     71  C   UNL     1       9.902  -0.715   5.519  1.00  0.00     0.040 A 
ATOM     72  C   UNL     1       9.922  -3.067   5.006  1.00  0.00     0.040 A 
ATOM     73  F   UNL     1       9.711  -3.783   2.782  1.00  0.00    -0.206 F 
ATOM     74  C   UNL     1       9.998  -2.039   5.943  1.00  0.00     0.006 A 
ENDBRANCH  46  67
BRANCH  58  75
ATOM     75  C   UNL     1      13.818   1.372  -1.589  1.00  0.00     0.057 A 
ATOM     76  C   UNL     1      14.918   0.510  -1.497  1.00  0.00     0.134 A 
ATOM     77  C   UNL     1      14.074   2.747  -1.647  1.00  0.00     0.134 A 
ATOM     78  F   UNL     1      14.737  -0.818  -1.424  1.00  0.00    -0.206 F 
ATOM     79  C   UNL     1      16.224   0.999  -1.444  1.00  0.00     0.040 A 
ATOM     80  C   UNL     1      15.376   3.247  -1.615  1.00  0.00     0.040 A 
ATOM     81  F   UNL     1      13.064   3.625  -1.742  1.00  0.00    -0.206 F 
ATOM     82  C   UNL     1      16.456   2.372  -1.508  1.00  0.00     0.006 A 
ENDBRANCH  58  75
ENDBRANCH  32  33
ENDBRANCH  25  27
ENDBRANCH  24  25
ENDBRANCH  23  24
ENDBRANCH   1  23
TORSDOF 15
