REMARK SMILES O=C(OCCOC(=O)c1ccc(-c2c3nc(c(-c4c(F)cccc4F)c4ccc([nH]4)c(-c4c(F)cccc4F)c4nc(c(-c5c(F)cccc5F)c5ccc2[nH]5)C=C4)C=C3)cc1)C1=NN(c2ccc([N+](=O)[O-])cc2)[C@H](c2ccccc2)C1
REMARK SMILES IDX 4 1 3 2 2 3 1 4 63 5 64 6 82 7 65 8 75 9 66 10 67 11 74 12
REMARK SMILES IDX 68 13 73 14 69 15 70 16 71 17 72 18 76 19 77 20 81 21 78 22
REMARK SMILES IDX 80 23 79 24 5 25 6 26 7 27 8 28 9 29 10 30 62 31 11 32 61 33
REMARK SMILES IDX 12 34 13 35 14 36 55 37 15 38 60 39 54 40 56 41 16 42 59 43
REMARK SMILES IDX 53 44 52 45 17 47 43 48 26 49 42 50 27 51 30 52 41 53 57 54
REMARK SMILES IDX 28 55 29 56 40 58 58 59 31 60 18 61 19 62 24 63 20 64 21 65
REMARK SMILES IDX 23 66 25 67 22 68 44 69 45 70 50 71 46 72 47 73 49 74 51 75
REMARK SMILES IDX 48 76 32 77 33 78 38 79 34 80 35 81 37 82 39 83 36 84
REMARK H PARENT 56 46 30 57
REMARK Flexibility Score: inf
ROOT
ATOM      1  C   UNL     1       4.359   0.976  -0.548  1.00  0.00     0.275 C 
ENDROOT
BRANCH   1   2
ATOM      2  O   UNL     1       3.228   0.124  -0.819  1.00  0.00    -0.458 OA
BRANCH   2   3
ATOM      3  C   UNL     1       2.860  -0.953  -0.117  1.00  0.00     0.354 C 
ATOM      4  O   UNL     1       1.849  -1.589  -0.397  1.00  0.00    -0.245 OA
BRANCH   3   5
ATOM      5  C   UNL     1       3.664  -1.454   1.073  1.00  0.00     0.148 C 
ATOM      6  N   UNL     1       4.798  -0.972   1.476  1.00  0.00    -0.169 NA
ATOM      7  C   UNL     1       3.096  -2.566   1.903  1.00  0.00     0.098 C 
ATOM      8  N   UNL     1       5.225  -1.765   2.493  1.00  0.00    -0.257 N 
ATOM      9  C   UNL     1       4.277  -2.837   2.839  1.00  0.00     0.144 C 
BRANCH   8  10
ATOM     10  C   UNL     1       6.143  -1.273   3.418  1.00  0.00     0.061 A 
ATOM     11  C   UNL     1       5.917  -0.071   4.098  1.00  0.00     0.035 A 
ATOM     12  C   UNL     1       7.322  -1.969   3.705  1.00  0.00     0.035 A 
ATOM     13  C   UNL     1       6.775   0.385   5.103  1.00  0.00     0.088 A 
ATOM     14  C   UNL     1       8.215  -1.518   4.684  1.00  0.00     0.088 A 
ATOM     15  C   UNL     1       7.924  -0.351   5.398  1.00  0.00     0.269 A 
BRANCH  15  16
ATOM     16  N   UNL     1       8.833   0.110   6.453  1.00  0.00     0.062 N 
ATOM     17  O   UNL     1       8.518   1.134   7.077  1.00  0.00    -0.258 OA
ATOM     18  O   UNL     1       9.858  -0.554   6.662  1.00  0.00    -0.258 OA
ENDBRANCH  15  16
ENDBRANCH   8  10
BRANCH   9  19
ATOM     19  C   UNL     1       4.930  -4.197   2.678  1.00  0.00    -0.023 A 
ATOM     20  C   UNL     1       5.007  -4.863   1.444  1.00  0.00     0.006 A 
ATOM     21  C   UNL     1       5.567  -4.777   3.789  1.00  0.00     0.006 A 
ATOM     22  C   UNL     1       5.702  -6.067   1.327  1.00  0.00     0.000 A 
ATOM     23  C   UNL     1       6.292  -5.961   3.661  1.00  0.00     0.000 A 
ATOM     24  C   UNL     1       6.358  -6.607   2.430  1.00  0.00     0.000 A 
ENDBRANCH   9  19
ENDBRANCH   3   5
ENDBRANCH   2   3
ENDBRANCH   1   2
BRANCH   1  25
ATOM     25  C   UNL     1       4.013   2.120   0.409  1.00  0.00     0.275 C 
BRANCH  25  26
ATOM     26  O   UNL     1       3.423   1.647   1.631  1.00  0.00    -0.458 OA
BRANCH  26  27
ATOM     27  C   UNL     1       2.066   1.635   1.691  1.00  0.00     0.338 C 
ATOM     28  O   UNL     1       1.293   2.052   0.848  1.00  0.00    -0.246 OA
BRANCH  27  29
ATOM     29  C   UNL     1       1.657   0.857   2.886  1.00  0.00     0.060 A 
ATOM     30  C   UNL     1       0.500   0.074   2.842  1.00  0.00     0.016 A 
ATOM     31  C   UNL     1       2.446   0.850   4.037  1.00  0.00     0.016 A 
ATOM     32  C   UNL     1       0.140  -0.708   3.951  1.00  0.00     0.010 A 
ATOM     33  C   UNL     1       2.142   0.001   5.101  1.00  0.00     0.010 A 
ATOM     34  C   UNL     1       0.954  -0.746   5.094  1.00  0.00    -0.014 A 
BRANCH  34  35
ATOM     35  C   UNL     1       0.499  -1.421   6.342  1.00  0.00     0.031 A 
ATOM     36  C   UNL     1       0.154  -0.576   7.547  1.00  0.00     0.074 A 
ATOM     37  C   UNL     1       0.400  -2.761   6.434  1.00  0.00     0.049 A 
ATOM     38  N   UNL     1      -0.335  -0.942   8.706  1.00  0.00    -0.248 NA
ATOM     39  C   UNL     1       0.422   0.868   7.444  1.00  0.00     0.031 C 
ATOM     40  C   UNL     1       0.758  -3.720   5.390  1.00  0.00     0.029 A 
ATOM     41  N   UNL     1      -0.037  -3.549   7.473  1.00  0.00    -0.354 N 
ATOM     42  C   UNL     1      -0.429   0.222   9.458  1.00  0.00     0.074 A 
ATOM     43  C   UNL     1       0.138   1.287   8.665  1.00  0.00     0.031 C 
ATOM     44  C   UNL     1       0.507  -4.966   5.834  1.00  0.00     0.029 A 
ATOM     45  C   UNL     1      -0.036  -4.894   7.190  1.00  0.00     0.049 A 
ATOM     46  H   UNL     1      -0.324  -3.183   8.341  1.00  0.00     0.167 HD
ATOM     47  C   UNL     1      -0.984   0.412  10.679  1.00  0.00     0.037 A 
ATOM     48  C   UNL     1      -0.452  -5.942   7.928  1.00  0.00     0.037 A 
ATOM     49  C   UNL     1      -1.584  -0.625  11.469  1.00  0.00     0.049 A 
ATOM     50  C   UNL     1      -1.067  -5.713   9.287  1.00  0.00     0.074 A 
ATOM     51  C   UNL     1      -2.250  -0.513  12.677  1.00  0.00     0.029 A 
ATOM     52  N   UNL     1      -1.583  -1.968  11.132  1.00  0.00    -0.354 N 
ATOM     53  N   UNL     1      -1.281  -4.588   9.923  1.00  0.00    -0.248 NA
ATOM     54  C   UNL     1      -1.522  -6.908  10.017  1.00  0.00     0.031 C 
ATOM     55  C   UNL     1      -2.619  -1.797  13.091  1.00  0.00     0.029 A 
ATOM     56  C   UNL     1      -2.218  -2.700  12.120  1.00  0.00     0.049 A 
ATOM     57  H   UNL     1      -1.190  -2.345  10.312  1.00  0.00     0.167 HD
ATOM     58  C   UNL     1      -1.942  -4.934  11.098  1.00  0.00     0.074 A 
ATOM     59  C   UNL     1      -2.091  -6.373  11.088  1.00  0.00     0.031 C 
ATOM     60  C   UNL     1      -2.392  -4.128  12.091  1.00  0.00     0.037 A 
BRANCH  47  61
ATOM     61  C   UNL     1      -0.986   1.814  11.212  1.00  0.00     0.057 A 
ATOM     62  C   UNL     1      -1.792   2.812  10.647  1.00  0.00     0.134 A 
ATOM     63  C   UNL     1      -0.174   2.172  12.294  1.00  0.00     0.134 A 
ATOM     64  F   UNL     1      -2.579   2.535   9.596  1.00  0.00    -0.206 F 
ATOM     65  C   UNL     1      -1.762   4.126  11.114  1.00  0.00     0.040 A 
ATOM     66  C   UNL     1      -0.157   3.476  12.789  1.00  0.00     0.040 A 
ATOM     67  F   UNL     1       0.618   1.263  12.883  1.00  0.00    -0.206 F 
ATOM     68  C   UNL     1      -0.945   4.460  12.191  1.00  0.00     0.006 A 
ENDBRANCH  47  61
BRANCH  48  69
ATOM     69  C   UNL     1      -0.377  -7.322   7.383  1.00  0.00     0.057 A 
ATOM     70  C   UNL     1      -1.540  -8.007   7.004  1.00  0.00     0.134 A 
ATOM     71  C   UNL     1       0.837  -8.010   7.290  1.00  0.00     0.134 A 
ATOM     72  F   UNL     1      -2.735  -7.406   7.096  1.00  0.00    -0.206 F 
ATOM     73  C   UNL     1      -1.501  -9.336   6.582  1.00  0.00     0.040 A 
ATOM     74  C   UNL     1       0.892  -9.334   6.849  1.00  0.00     0.040 A 
ATOM     75  F   UNL     1       1.984  -7.410   7.639  1.00  0.00    -0.206 F 
ATOM     76  C   UNL     1      -0.281 -10.004   6.503  1.00  0.00     0.006 A 
ENDBRANCH  48  69
BRANCH  60  77
ATOM     77  C   UNL     1      -3.146  -4.765  13.223  1.00  0.00     0.057 A 
ATOM     78  C   UNL     1      -2.510  -5.548  14.194  1.00  0.00     0.134 A 
ATOM     79  C   UNL     1      -4.521  -4.543  13.371  1.00  0.00     0.134 A 
ATOM     80  F   UNL     1      -1.196  -5.807  14.105  1.00  0.00    -0.206 F 
ATOM     81  C   UNL     1      -3.218  -6.104  15.261  1.00  0.00     0.040 A 
ATOM     82  C   UNL     1      -5.236  -5.072  14.447  1.00  0.00     0.040 A 
ATOM     83  F   UNL     1      -5.191  -3.793  12.483  1.00  0.00    -0.206 F 
ATOM     84  C   UNL     1      -4.584  -5.860  15.393  1.00  0.00     0.006 A 
ENDBRANCH  60  77
ENDBRANCH  34  35
ENDBRANCH  27  29
ENDBRANCH  26  27
ENDBRANCH  25  26
ENDBRANCH   1  25
TORSDOF 14
