REMARK SMILES O=C(OCCOC(=O)c1ccc(-c2c3nc(c(-c4c(F)cccc4F)c4ccc([nH]4)c(-c4c(F)cccc4F)c4nc(c(-c5c(F)cccc5F)c5ccc2[nH]5)C=C4)C=C3)cc1)c1ccc(CNC(=O)c2ccccc2I)cc1
REMARK SMILES IDX 4 1 3 2 2 3 1 4 63 5 64 6 79 7 65 8 78 9 66 10 67 11 68 12
REMARK SMILES IDX 69 13 70 15 71 16 72 17 76 18 73 19 75 20 77 21 74 22 5 23
REMARK SMILES IDX 6 24 7 25 8 26 9 27 10 28 62 29 11 30 61 31 12 32 13 33
REMARK SMILES IDX 14 34 55 35 15 36 60 37 54 38 56 39 16 40 59 41 53 42 52 43
REMARK SMILES IDX 17 45 43 46 26 47 42 48 27 49 30 50 41 51 57 52 28 53 29 54
REMARK SMILES IDX 40 56 58 57 31 58 18 59 19 60 24 61 20 62 21 63 23 64 25 65
REMARK SMILES IDX 22 66 44 67 45 68 50 69 46 70 47 71 49 72 51 73 48 74 32 75
REMARK SMILES IDX 33 76 38 77 34 78 35 79 37 80 39 81 36 82
REMARK H PARENT 68 14 56 44 30 55
REMARK Flexibility Score: inf
ROOT
ATOM      1  C   UNL     1       4.072   1.403   0.385  1.00  0.00     0.275 C 
ENDROOT
BRANCH   1   2
ATOM      2  O   UNL     1       2.970   0.935  -0.413  1.00  0.00    -0.458 OA
BRANCH   2   3
ATOM      3  C   UNL     1       2.824  -0.200  -1.135  1.00  0.00     0.338 C 
ATOM      4  O   UNL     1       1.894  -0.248  -1.942  1.00  0.00    -0.246 OA
BRANCH   3   5
ATOM      5  C   UNL     1       3.635  -1.453  -0.947  1.00  0.00     0.060 A 
ATOM      6  C   UNL     1       4.818  -1.590  -0.218  1.00  0.00     0.016 A 
ATOM      7  C   UNL     1       3.107  -2.623  -1.527  1.00  0.00     0.016 A 
ATOM      8  C   UNL     1       5.386  -2.846   0.024  1.00  0.00     0.006 A 
ATOM      9  C   UNL     1       3.695  -3.877  -1.320  1.00  0.00     0.006 A 
ATOM     10  C   UNL     1       4.816  -4.006  -0.499  1.00  0.00    -0.029 A 
BRANCH  10  11
ATOM     11  C   UNL     1       5.332  -5.364  -0.098  1.00  0.00     0.152 C 
BRANCH  11  12
ATOM     12  N   UNL     1       6.768  -5.459  -0.255  1.00  0.00    -0.348 N 
ATOM     13  C   UNL     1       7.742  -5.732   0.668  1.00  0.00     0.252 C 
ATOM     14  H   UNL     1       7.097  -5.302  -1.169  1.00  0.00     0.164 HD
ATOM     15  O   UNL     1       8.925  -5.640   0.347  1.00  0.00    -0.269 OA
BRANCH  13  16
ATOM     16  C   UNL     1       7.412  -6.043   2.076  1.00  0.00     0.053 A 
ATOM     17  C   UNL     1       7.958  -5.168   3.033  1.00  0.00     0.015 A 
ATOM     18  C   UNL     1       6.719  -7.183   2.506  1.00  0.00     0.026 A 
ATOM     19  C   UNL     1       7.781  -5.401   4.398  1.00  0.00     0.001 A 
ATOM     20  C   UNL     1       6.520  -7.395   3.879  1.00  0.00     0.015 A 
ATOM     21  I   UNL     1       6.050  -8.705   1.224  1.00  0.00    -0.043 I 
ATOM     22  C   UNL     1       7.050  -6.508   4.819  1.00  0.00     0.001 A 
ENDBRANCH  13  16
ENDBRANCH  11  12
ENDBRANCH  10  11
ENDBRANCH   3   5
ENDBRANCH   2   3
ENDBRANCH   1   2
BRANCH   1  23
ATOM     23  C   UNL     1       3.911   1.083   1.875  1.00  0.00     0.275 C 
BRANCH  23  24
ATOM     24  O   UNL     1       3.591  -0.300   2.110  1.00  0.00    -0.458 OA
BRANCH  24  25
ATOM     25  C   UNL     1       2.267  -0.569   2.247  1.00  0.00     0.338 C 
ATOM     26  O   UNL     1       1.367   0.253   2.316  1.00  0.00    -0.246 OA
BRANCH  25  27
ATOM     27  C   UNL     1       2.015  -2.031   2.188  1.00  0.00     0.060 A 
ATOM     28  C   UNL     1       0.820  -2.460   1.598  1.00  0.00     0.016 A 
ATOM     29  C   UNL     1       2.905  -2.974   2.712  1.00  0.00     0.016 A 
ATOM     30  C   UNL     1       0.494  -3.819   1.565  1.00  0.00     0.010 A 
ATOM     31  C   UNL     1       2.583  -4.339   2.668  1.00  0.00     0.010 A 
ATOM     32  C   UNL     1       1.361  -4.771   2.119  1.00  0.00    -0.014 A 
BRANCH  32  33
ATOM     33  C   UNL     1       0.935  -6.194   2.224  1.00  0.00     0.031 A 
ATOM     34  C   UNL     1       0.467  -6.734   3.547  1.00  0.00     0.074 A 
ATOM     35  C   UNL     1       0.929  -7.007   1.151  1.00  0.00     0.049 A 
ATOM     36  N   UNL     1       0.011  -7.926   3.839  1.00  0.00    -0.248 NA
ATOM     37  C   UNL     1       0.513  -5.808   4.688  1.00  0.00     0.031 C 
ATOM     38  C   UNL     1       1.314  -6.620  -0.201  1.00  0.00     0.029 A 
ATOM     39  N   UNL     1       0.584  -8.332   1.033  1.00  0.00    -0.354 N 
ATOM     40  C   UNL     1      -0.304  -7.888   5.191  1.00  0.00     0.074 A 
ATOM     41  C   UNL     1       0.071  -6.575   5.673  1.00  0.00     0.031 C 
ATOM     42  C   UNL     1       1.209  -7.686  -1.012  1.00  0.00     0.029 A 
ATOM     43  C   UNL     1       0.741  -8.833  -0.237  1.00  0.00     0.049 A 
ATOM     44  H   UNL     1       0.255  -8.872   1.788  1.00  0.00     0.167 HD
ATOM     45  C   UNL     1      -0.878  -8.845   5.958  1.00  0.00     0.037 A 
ATOM     46  C   UNL     1       0.523 -10.070  -0.724  1.00  0.00     0.037 A 
ATOM     47  C   UNL     1      -1.256 -10.155   5.497  1.00  0.00     0.049 A 
ATOM     48  C   UNL     1      -0.031 -11.147   0.171  1.00  0.00     0.074 A 
ATOM     49  C   UNL     1      -1.879 -11.169   6.205  1.00  0.00     0.029 A 
ATOM     50  N   UNL     1      -1.038 -10.638   4.218  1.00  0.00    -0.354 N 
ATOM     51  N   UNL     1      -0.387 -11.075   1.429  1.00  0.00    -0.248 NA
ATOM     52  C   UNL     1      -0.229 -12.475  -0.432  1.00  0.00     0.031 C 
ATOM     53  C   UNL     1      -1.991 -12.285   5.368  1.00  0.00     0.029 A 
ATOM     54  C   UNL     1      -1.481 -11.948   4.125  1.00  0.00     0.049 A 
ATOM     55  H   UNL     1      -0.629 -10.126   3.482  1.00  0.00     0.167 HD
ATOM     56  C   UNL     1      -0.890 -12.330   1.755  1.00  0.00     0.074 A 
ATOM     57  C   UNL     1      -0.792 -13.145   0.564  1.00  0.00     0.031 C 
ATOM     58  C   UNL     1      -1.394 -12.760   2.938  1.00  0.00     0.037 A 
BRANCH  45  59
ATOM     59  C   UNL     1      -1.126  -8.502   7.396  1.00  0.00     0.057 A 
ATOM     60  C   UNL     1      -2.136  -7.608   7.775  1.00  0.00     0.134 A 
ATOM     61  C   UNL     1      -0.361  -9.086   8.412  1.00  0.00     0.134 A 
ATOM     62  F   UNL     1      -2.894  -7.006   6.846  1.00  0.00    -0.206 F 
ATOM     63  C   UNL     1      -2.358  -7.285   9.114  1.00  0.00     0.040 A 
ATOM     64  C   UNL     1      -0.590  -8.790   9.756  1.00  0.00     0.040 A 
ATOM     65  F   UNL     1       0.618  -9.954   8.115  1.00  0.00    -0.206 F 
ATOM     66  C   UNL     1      -1.586  -7.881  10.109  1.00  0.00     0.006 A 
ENDBRANCH  45  59
BRANCH  46  67
ATOM     67  C   UNL     1       0.806 -10.367  -2.151  1.00  0.00     0.057 A 
ATOM     68  C   UNL     1      -0.230 -10.595  -3.063  1.00  0.00     0.134 A 
ATOM     69  C   UNL     1       2.120 -10.469  -2.623  1.00  0.00     0.134 A 
ATOM     70  F   UNL     1      -1.508 -10.534  -2.661  1.00  0.00    -0.206 F 
ATOM     71  C   UNL     1       0.029 -10.935  -4.391  1.00  0.00     0.040 A 
ATOM     72  C   UNL     1       2.393 -10.789  -3.954  1.00  0.00     0.040 A 
ATOM     73  F   UNL     1       3.155 -10.260  -1.797  1.00  0.00    -0.206 F 
ATOM     74  C   UNL     1       1.345 -11.031  -4.840  1.00  0.00     0.006 A 
ENDBRANCH  46  67
BRANCH  58  75
ATOM     75  C   UNL     1      -1.919 -14.166   3.002  1.00  0.00     0.057 A 
ATOM     76  C   UNL     1      -1.067 -15.277   2.997  1.00  0.00     0.134 A 
ATOM     77  C   UNL     1      -3.294 -14.409   3.117  1.00  0.00     0.134 A 
ATOM     78  F   UNL     1       0.260 -15.115   2.877  1.00  0.00    -0.206 F 
ATOM     79  C   UNL     1      -1.563 -16.579   3.087  1.00  0.00     0.040 A 
ATOM     80  C   UNL     1      -3.801 -15.705   3.232  1.00  0.00     0.040 A 
ATOM     81  F   UNL     1      -4.167 -13.391   3.135  1.00  0.00    -0.206 F 
ATOM     82  C   UNL     1      -2.934 -16.795   3.212  1.00  0.00     0.006 A 
ENDBRANCH  58  75
ENDBRANCH  32  33
ENDBRANCH  25  27
ENDBRANCH  24  25
ENDBRANCH  23  24
ENDBRANCH   1  23
TORSDOF 14
