REMARK SMILES CC[C@H](NC(=O)Cc1c(C)c2cc(Cl)c(OC)cc2oc1=O)C(=O)OCCOC(=O)c1ccc(-c2c3nc(c(-c4c(F)cccc4F)c4ccc([nH]4)c(-c4c(F)cccc4F)c4nc(c(-c5c(F)cccc5F)c5ccc2[nH]5)C=C4)C=C3)cc1
REMARK SMILES IDX 26 1 25 2 23 3 24 4 3 5 2 6 1 7 4 8 5 9 6 11 7 12 8 13 9 14
REMARK SMILES IDX 21 15 10 16 11 17 20 18 22 19 12 20 19 21 13 22 18 23 14 24
REMARK SMILES IDX 15 25 16 26 17 27 27 28 28 29 29 30 30 31 31 32 32 33 84 34
REMARK SMILES IDX 33 35 83 36 34 37 35 38 36 39 77 40 37 41 82 42 76 43 78 44
REMARK SMILES IDX 38 45 81 46 75 47 74 48 39 50 65 51 48 52 64 53 49 54 52 55
REMARK SMILES IDX 63 56 79 57 50 58 51 59 62 61 80 62 53 63 40 64 41 65 46 66
REMARK SMILES IDX 42 67 43 68 45 69 47 70 44 71 66 72 67 73 72 74 68 75 69 76
REMARK SMILES IDX 71 77 73 78 70 79 54 80 55 81 60 82 56 83 57 84 59 85 61 86
REMARK SMILES IDX 58 87
REMARK H PARENT 4 10 78 49 52 60
REMARK Flexibility Score: inf
ROOT
ATOM      1  C   UNL     1      -1.521  -3.354  -4.233  1.00  0.00     0.274 C 
ENDROOT
BRANCH   1   2
ATOM      2  O   UNL     1      -1.210  -2.494  -3.115  1.00  0.00    -0.461 OA
BRANCH   2   3
ATOM      3  C   UNL     1      -0.244  -2.956  -2.282  1.00  0.00     0.328 C 
ATOM      4  O   UNL     1       0.318  -4.042  -2.409  1.00  0.00    -0.250 OA
BRANCH   3   5
ATOM      5  C   UNL     1       0.052  -2.040  -1.083  1.00  0.00     0.192 C 
BRANCH   5   6
ATOM      6  C   UNL     1      -0.476  -2.754   0.181  1.00  0.00     0.033 C 
ATOM      7  C   UNL     1       0.390  -2.513   1.409  1.00  0.00     0.007 C 
ENDBRANCH   5   6
BRANCH   5   8
ATOM      8  N   UNL     1      -0.412  -0.650  -1.094  1.00  0.00    -0.342 N 
ATOM      9  C   UNL     1       0.279   0.530  -1.160  1.00  0.00     0.225 C 
ATOM     10  H   UNL     1      -1.390  -0.548  -1.047  1.00  0.00     0.164 HD
ATOM     11  O   UNL     1      -0.347   1.553  -0.868  1.00  0.00    -0.275 OA
BRANCH   9  12
ATOM     12  C   UNL     1       1.751   0.597  -1.590  1.00  0.00     0.143 C 
BRANCH  12  13
ATOM     13  C   UNL     1       2.729   0.679  -0.429  1.00  0.00     0.051 A 
ATOM     14  C   UNL     1       3.407  -0.367   0.087  1.00  0.00    -0.029 A 
ATOM     15  C   UNL     1       3.097   2.058   0.029  1.00  0.00     0.340 A 
ATOM     16  C   UNL     1       3.533  -1.708  -0.556  1.00  0.00     0.046 C 
ATOM     17  C   UNL     1       4.183  -0.210   1.314  1.00  0.00     0.023 A 
ATOM     18  O   UNL     1       4.143   2.170   0.956  1.00  0.00    -0.422 OA
ATOM     19  O   UNL     1       2.607   3.062  -0.476  1.00  0.00    -0.246 OA
ATOM     20  C   UNL     1       4.501  -1.288   2.145  1.00  0.00     0.036 A 
ATOM     21  C   UNL     1       4.618   1.054   1.667  1.00  0.00     0.142 A 
ATOM     22  C   UNL     1       5.304  -1.100   3.267  1.00  0.00     0.083 A 
ATOM     23  C   UNL     1       5.478   1.255   2.752  1.00  0.00     0.095 A 
ATOM     24  Cl  UNL     1       5.620  -2.477   4.264  1.00  0.00    -0.080 Cl
ATOM     25  C   UNL     1       5.836   0.164   3.556  1.00  0.00     0.141 A 
BRANCH  25  26
ATOM     26  O   UNL     1       6.627   0.246   4.670  1.00  0.00    -0.495 OA
ATOM     27  C   UNL     1       7.597   1.282   4.690  1.00  0.00     0.278 C 
ENDBRANCH  25  26
ENDBRANCH  12  13
ENDBRANCH   9  12
ENDBRANCH   5   8
ENDBRANCH   3   5
ENDBRANCH   2   3
ENDBRANCH   1   2
BRANCH   1  28
ATOM     28  C   UNL     1      -0.799  -2.919  -5.514  1.00  0.00     0.275 C 
BRANCH  28  29
ATOM     29  O   UNL     1       0.605  -3.230  -5.500  1.00  0.00    -0.458 OA
BRANCH  29  30
ATOM     30  C   UNL     1       1.394  -2.277  -4.962  1.00  0.00     0.338 C 
ATOM     31  O   UNL     1       1.032  -1.218  -4.444  1.00  0.00    -0.246 OA
BRANCH  30  32
ATOM     32  C   UNL     1       2.797  -2.690  -4.957  1.00  0.00     0.060 A 
ATOM     33  C   UNL     1       3.591  -2.575  -6.091  1.00  0.00     0.016 A 
ATOM     34  C   UNL     1       3.367  -3.018  -3.734  1.00  0.00     0.016 A 
ATOM     35  C   UNL     1       4.974  -2.778  -5.986  1.00  0.00     0.010 A 
ATOM     36  C   UNL     1       4.752  -3.111  -3.605  1.00  0.00     0.010 A 
ATOM     37  C   UNL     1       5.575  -3.018  -4.734  1.00  0.00    -0.014 A 
BRANCH  37  38
ATOM     38  C   UNL     1       7.050  -3.200  -4.607  1.00  0.00     0.031 A 
ATOM     39  C   UNL     1       7.621  -4.488  -4.065  1.00  0.00     0.074 A 
ATOM     40  C   UNL     1       7.890  -2.202  -4.948  1.00  0.00     0.049 A 
ATOM     41  N   UNL     1       8.874  -4.854  -3.951  1.00  0.00    -0.248 NA
ATOM     42  C   UNL     1       6.664  -5.481  -3.551  1.00  0.00     0.031 C 
ATOM     43  C   UNL     1       7.487  -0.862  -5.381  1.00  0.00     0.029 A 
ATOM     44  N   UNL     1       9.262  -2.164  -4.992  1.00  0.00    -0.354 N 
ATOM     45  C   UNL     1       8.850  -6.109  -3.355  1.00  0.00     0.074 A 
ATOM     46  C   UNL     1       7.469  -6.404  -3.049  1.00  0.00     0.031 C 
ATOM     47  C   UNL     1       8.584  -0.153  -5.696  1.00  0.00     0.029 A 
ATOM     48  C   UNL     1       9.767  -0.979  -5.474  1.00  0.00     0.049 A 
ATOM     49  H   UNL     1       9.832  -2.914  -4.706  1.00  0.00     0.167 HD
ATOM     50  C   UNL     1       9.872  -6.968  -3.125  1.00  0.00     0.037 A 
ATOM     51  C   UNL     1      11.036  -0.608  -5.731  1.00  0.00     0.037 A 
ATOM     52  C   UNL     1      11.246  -6.700  -3.451  1.00  0.00     0.049 A 
ATOM     53  C   UNL     1      12.155  -1.587  -5.505  1.00  0.00     0.074 A 
ATOM     54  C   UNL     1      12.343  -7.533  -3.327  1.00  0.00     0.029 A 
ATOM     55  N   UNL     1      11.710  -5.499  -3.964  1.00  0.00    -0.354 N 
ATOM     56  N   UNL     1      12.101  -2.815  -5.051  1.00  0.00    -0.248 NA
ATOM     57  C   UNL     1      13.512  -1.130  -5.843  1.00  0.00     0.031 C 
ATOM     58  C   UNL     1      13.479  -6.825  -3.738  1.00  0.00     0.029 A 
ATOM     59  C   UNL     1      13.081  -5.562  -4.148  1.00  0.00     0.049 A 
ATOM     60  H   UNL     1      11.148  -4.716  -4.167  1.00  0.00     0.167 HD
ATOM     61  C   UNL     1      13.409  -3.283  -5.062  1.00  0.00     0.074 A 
ATOM     62  C   UNL     1      14.232  -2.214  -5.590  1.00  0.00     0.031 C 
ATOM     63  C   UNL     1      13.887  -4.489  -4.669  1.00  0.00     0.037 A 
BRANCH  50  64
ATOM     64  C   UNL     1       9.520  -8.294  -2.514  1.00  0.00     0.057 A 
ATOM     65  C   UNL     1       9.883  -8.602  -1.198  1.00  0.00     0.134 A 
ATOM     66  C   UNL     1       8.807  -9.265  -3.232  1.00  0.00     0.134 A 
ATOM     67  F   UNL     1      10.571  -7.721  -0.456  1.00  0.00    -0.206 F 
ATOM     68  C   UNL     1       9.537  -9.822  -0.614  1.00  0.00     0.040 A 
ATOM     69  C   UNL     1       8.432 -10.476  -2.650  1.00  0.00     0.040 A 
ATOM     70  F   UNL     1       8.415  -9.026  -4.493  1.00  0.00    -0.206 F 
ATOM     71  C   UNL     1       8.800 -10.759  -1.337  1.00  0.00     0.006 A 
ENDBRANCH  50  64
BRANCH  51  72
ATOM     72  C   UNL     1      11.317   0.740  -6.284  1.00  0.00     0.057 A 
ATOM     73  C   UNL     1      11.219   1.889  -5.493  1.00  0.00     0.134 A 
ATOM     74  C   UNL     1      11.702   0.906  -7.620  1.00  0.00     0.134 A 
ATOM     75  F   UNL     1      10.852   1.796  -4.207  1.00  0.00    -0.206 F 
ATOM     76  C   UNL     1      11.490   3.157  -6.011  1.00  0.00     0.040 A 
ATOM     77  C   UNL     1      11.995   2.165  -8.146  1.00  0.00     0.040 A 
ATOM     78  F   UNL     1      11.832  -0.161  -8.422  1.00  0.00    -0.206 F 
ATOM     79  C   UNL     1      11.885   3.296  -7.340  1.00  0.00     0.006 A 
ENDBRANCH  51  72
BRANCH  63  80
ATOM     80  C   UNL     1      15.363  -4.716  -4.804  1.00  0.00     0.057 A 
ATOM     81  C   UNL     1      15.868  -5.568  -5.793  1.00  0.00     0.134 A 
ATOM     82  C   UNL     1      16.281  -4.111  -3.937  1.00  0.00     0.134 A 
ATOM     83  F   UNL     1      15.040  -6.183  -6.651  1.00  0.00    -0.206 F 
ATOM     84  C   UNL     1      17.237  -5.810  -5.916  1.00  0.00     0.040 A 
ATOM     85  C   UNL     1      17.654  -4.328  -4.064  1.00  0.00     0.040 A 
ATOM     86  F   UNL     1      15.860  -3.275  -2.976  1.00  0.00    -0.206 F 
ATOM     87  C   UNL     1      18.134  -5.184  -5.053  1.00  0.00     0.006 A 
ENDBRANCH  63  80
ENDBRANCH  37  38
ENDBRANCH  30  32
ENDBRANCH  29  30
ENDBRANCH  28  29
ENDBRANCH   1  28
TORSDOF 16
