REMARK SMILES CC(=O)N1CCC[C@H]1COCC(=O)OCCOC(=O)c1ccc(-c2c3nc(c(-c4c(F)cccc4F)c4ccc([nH]4)c(-c4c(F)cccc4F)c4nc(c(-c5c(F)cccc5F)c5ccc2[nH]5)C=C4)C=C3)cc1
REMARK SMILES IDX 15 1 14 2 12 3 13 4 11 5 10 6 9 7 8 8 4 9 5 10 6 11 7 12
REMARK SMILES IDX 2 13 1 14 3 15 16 16 17 17 18 18 19 19 20 20 21 21 73 22
REMARK SMILES IDX 22 23 72 24 23 25 24 26 25 27 66 28 26 29 71 30 65 31 67 32
REMARK SMILES IDX 27 33 70 34 64 35 63 36 28 38 54 39 37 40 53 41 38 42 41 43
REMARK SMILES IDX 52 44 68 45 39 46 40 47 51 49 69 50 42 51 29 52 30 53 35 54
REMARK SMILES IDX 31 55 32 56 34 57 36 58 33 59 55 60 56 61 61 62 57 63 58 64
REMARK SMILES IDX 60 65 62 66 59 67 43 68 44 69 49 70 45 71 46 72 48 73 50 74
REMARK SMILES IDX 47 75
REMARK H PARENT 67 37 41 48
REMARK Flexibility Score: inf
ROOT
ATOM      1  C   UNL     1      -4.102   5.346   4.330  1.00  0.00     0.274 C 
ENDROOT
BRANCH   1   2
ATOM      2  O   UNL     1      -2.670   5.204   4.234  1.00  0.00    -0.460 OA
BRANCH   2   3
ATOM      3  C   UNL     1      -2.112   4.431   5.199  1.00  0.00     0.332 C 
ATOM      4  O   UNL     1      -2.739   3.840   6.075  1.00  0.00    -0.250 OA
BRANCH   3   5
ATOM      5  C   UNL     1      -0.582   4.410   5.165  1.00  0.00     0.282 C 
BRANCH   5   6
ATOM      6  O   UNL     1       0.221   4.687   4.042  1.00  0.00    -0.368 OA
BRANCH   6   7
ATOM      7  C   UNL     1       0.184   3.755   2.958  1.00  0.00     0.186 C 
BRANCH   7   8
ATOM      8  C   UNL     1       0.671   2.314   3.256  1.00  0.00     0.111 C 
ATOM      9  N   UNL     1       1.295   1.626   2.113  1.00  0.00    -0.338 N 
ATOM     10  C   UNL     1       2.604   1.103   2.465  1.00  0.00     0.120 C 
ATOM     11  C   UNL     1       2.529   0.963   3.972  1.00  0.00     0.024 C 
ATOM     12  C   UNL     1       1.721   2.190   4.372  1.00  0.00     0.029 C 
BRANCH   9  13
ATOM     13  C   UNL     1       0.600   1.341   0.959  1.00  0.00     0.219 C 
ATOM     14  C   UNL     1       1.331   0.558  -0.102  1.00  0.00     0.114 C 
ATOM     15  O   UNL     1      -0.571   1.673   0.796  1.00  0.00    -0.275 OA
ENDBRANCH   9  13
ENDBRANCH   7   8
ENDBRANCH   6   7
ENDBRANCH   5   6
ENDBRANCH   3   5
ENDBRANCH   2   3
ENDBRANCH   1   2
BRANCH   1  16
ATOM     16  C   UNL     1      -4.846   4.344   3.450  1.00  0.00     0.275 C 
BRANCH  16  17
ATOM     17  O   UNL     1      -4.484   2.992   3.784  1.00  0.00    -0.458 OA
BRANCH  17  18
ATOM     18  C   UNL     1      -3.705   2.379   2.862  1.00  0.00     0.338 C 
ATOM     19  O   UNL     1      -3.327   2.842   1.803  1.00  0.00    -0.246 OA
BRANCH  18  20
ATOM     20  C   UNL     1      -3.374   1.013   3.299  1.00  0.00     0.060 A 
ATOM     21  C   UNL     1      -2.500   0.800   4.365  1.00  0.00     0.016 A 
ATOM     22  C   UNL     1      -3.830  -0.062   2.536  1.00  0.00     0.016 A 
ATOM     23  C   UNL     1      -2.010  -0.483   4.615  1.00  0.00     0.010 A 
ATOM     24  C   UNL     1      -3.402  -1.357   2.841  1.00  0.00     0.010 A 
ATOM     25  C   UNL     1      -2.460  -1.577   3.860  1.00  0.00    -0.014 A 
BRANCH  25  26
ATOM     26  C   UNL     1      -1.945  -2.947   4.121  1.00  0.00     0.031 A 
ATOM     27  C   UNL     1      -1.171  -3.690   3.064  1.00  0.00     0.074 A 
ATOM     28  C   UNL     1      -2.186  -3.540   5.306  1.00  0.00     0.049 A 
ATOM     29  N   UNL     1      -0.777  -4.939   3.054  1.00  0.00    -0.248 NA
ATOM     30  C   UNL     1      -0.795  -2.932   1.859  1.00  0.00     0.031 C 
ATOM     31  C   UNL     1      -2.897  -2.929   6.429  1.00  0.00     0.029 A 
ATOM     32  N   UNL     1      -1.862  -4.794   5.760  1.00  0.00    -0.354 N 
ATOM     33  C   UNL     1      -0.147  -5.131   1.831  1.00  0.00     0.074 A 
ATOM     34  C   UNL     1      -0.208  -3.868   1.124  1.00  0.00     0.031 C 
ATOM     35  C   UNL     1      -2.940  -3.800   7.449  1.00  0.00     0.029 A 
ATOM     36  C   UNL     1      -2.319  -5.052   7.029  1.00  0.00     0.049 A 
ATOM     37  H   UNL     1      -1.352  -5.446   5.228  1.00  0.00     0.167 HD
ATOM     38  C   UNL     1       0.425  -6.257   1.342  1.00  0.00     0.037 A 
ATOM     39  C   UNL     1      -2.280  -6.179   7.763  1.00  0.00     0.037 A 
ATOM     40  C   UNL     1       0.519  -7.505   2.053  1.00  0.00     0.049 A 
ATOM     41  C   UNL     1      -1.670  -7.421   7.187  1.00  0.00     0.074 A 
ATOM     42  C   UNL     1       1.107  -8.691   1.643  1.00  0.00     0.029 A 
ATOM     43  N   UNL     1       0.016  -7.729   3.325  1.00  0.00    -0.354 N 
ATOM     44  N   UNL     1      -1.107  -7.596   6.017  1.00  0.00    -0.248 NA
ATOM     45  C   UNL     1      -1.708  -8.628   8.025  1.00  0.00     0.031 C 
ATOM     46  C   UNL     1       0.939  -9.639   2.659  1.00  0.00     0.029 A 
ATOM     47  C   UNL     1       0.270  -9.036   3.711  1.00  0.00     0.049 A 
ATOM     48  H   UNL     1      -0.452  -7.059   3.873  1.00  0.00     0.167 HD
ATOM     49  C   UNL     1      -0.724  -8.928   5.977  1.00  0.00     0.074 A 
ATOM     50  C   UNL     1      -1.100  -9.513   7.247  1.00  0.00     0.031 C 
ATOM     51  C   UNL     1      -0.118  -9.607   4.973  1.00  0.00     0.037 A 
BRANCH  38  52
ATOM     52  C   UNL     1       0.984  -6.201  -0.048  1.00  0.00     0.057 A 
ATOM     53  C   UNL     1       2.214  -5.595  -0.326  1.00  0.00     0.134 A 
ATOM     54  C   UNL     1       0.304  -6.809  -1.111  1.00  0.00     0.134 A 
ATOM     55  F   UNL     1       2.907  -4.984   0.647  1.00  0.00    -0.206 F 
ATOM     56  C   UNL     1       2.746  -5.588  -1.617  1.00  0.00     0.040 A 
ATOM     57  C   UNL     1       0.833  -6.822  -2.402  1.00  0.00     0.040 A 
ATOM     58  F   UNL     1      -0.877  -7.412  -0.908  1.00  0.00    -0.206 F 
ATOM     59  C   UNL     1       2.057  -6.208  -2.658  1.00  0.00     0.006 A 
ENDBRANCH  38  52
BRANCH  39  60
ATOM     60  C   UNL     1      -2.873  -6.187   9.121  1.00  0.00     0.057 A 
ATOM     61  C   UNL     1      -2.063  -6.197  10.261  1.00  0.00     0.134 A 
ATOM     62  C   UNL     1      -4.260  -6.164   9.309  1.00  0.00     0.134 A 
ATOM     63  F   UNL     1      -0.729  -6.241  10.139  1.00  0.00    -0.206 F 
ATOM     64  C   UNL     1      -2.612  -6.185  11.543  1.00  0.00     0.040 A 
ATOM     65  C   UNL     1      -4.822  -6.131  10.585  1.00  0.00     0.040 A 
ATOM     66  F   UNL     1      -5.086  -6.152   8.252  1.00  0.00    -0.206 F 
ATOM     67  C   UNL     1      -3.996  -6.144  11.707  1.00  0.00     0.006 A 
ENDBRANCH  39  60
BRANCH  51  68
ATOM     68  C   UNL     1       0.180 -11.053   5.218  1.00  0.00     0.057 A 
ATOM     69  C   UNL     1      -0.819 -12.030   5.130  1.00  0.00     0.134 A 
ATOM     70  C   UNL     1       1.478 -11.475   5.527  1.00  0.00     0.134 A 
ATOM     71  F   UNL     1      -2.085 -11.684   4.853  1.00  0.00    -0.206 F 
ATOM     72  C   UNL     1      -0.540 -13.378   5.359  1.00  0.00     0.040 A 
ATOM     73  C   UNL     1       1.773 -12.822   5.743  1.00  0.00     0.040 A 
ATOM     74  F   UNL     1       2.478 -10.586   5.624  1.00  0.00    -0.206 F 
ATOM     75  C   UNL     1       0.761 -13.777   5.662  1.00  0.00     0.006 A 
ENDBRANCH  51  68
ENDBRANCH  25  26
ENDBRANCH  18  20
ENDBRANCH  17  18
ENDBRANCH  16  17
ENDBRANCH   1  16
TORSDOF 15
