REMARK SMILES O=C(CNC(=O)N1CC(OCCOC(=O)c2ccc(-c3c4nc(c(-c5c(F)cccc5F)c5ccc([nH]5)c(-c5c(F)cccc5F)c5nc(c(-c6c(F)cccc6F)c6ccc3[nH]6)C=C5)C=C4)cc2)=Nc2ccccc21)N[C@H](C(=O)[O-])c1ccccc1
REMARK SMILES IDX 11 1 10 2 9 3 7 4 8 5 76 6 71 7 75 8 70 9 72 10 74 11 73 12
REMARK SMILES IDX 5 13 4 14 6 16 3 17 2 18 1 19 77 20 78 22 82 23 83 24 87 25
REMARK SMILES IDX 84 26 86 27 85 28 79 29 80 30 81 31 12 32 13 33 14 34 15 35
REMARK SMILES IDX 16 36 17 37 69 38 18 39 68 40 19 41 20 42 21 43 62 44 22 45
REMARK SMILES IDX 67 46 61 47 63 48 23 49 66 50 60 51 59 52 24 54 50 55 33 56
REMARK SMILES IDX 49 57 34 58 37 59 48 60 64 61 35 62 36 63 47 65 65 66 38 67
REMARK SMILES IDX 25 68 26 69 31 70 27 71 28 72 30 73 32 74 29 75 51 76 52 77
REMARK SMILES IDX 57 78 53 79 54 80 56 81 58 82 55 83 39 84 40 85 45 86 41 87
REMARK SMILES IDX 42 88 44 89 46 90 43 91
REMARK H PARENT 4 15 77 21 63 53 37 64
REMARK Flexibility Score: inf
ROOT
ATOM      1  C   UNL     1      -1.298   4.227   4.910  1.00  0.00     0.272 C 
ENDROOT
BRANCH   1   2
ATOM      2  O   UNL     1       0.086   4.641   4.959  1.00  0.00    -0.476 OA
BRANCH   2   3
ATOM      3  C   UNL     1       0.820   4.307   6.050  1.00  0.00     0.209 C 
ATOM      4  N   UNL     1       3.130   3.743   6.653  1.00  0.00    -0.283 N 
ATOM      5  C   UNL     1       2.281   4.652   5.896  1.00  0.00     0.224 C 
ATOM      6  C   UNL     1       2.605   3.303   7.911  1.00  0.00     0.072 A 
ATOM      7  C   UNL     1       1.199   3.364   8.113  1.00  0.00     0.091 A 
ATOM      8  C   UNL     1       3.401   2.656   8.864  1.00  0.00     0.029 A 
ATOM      9  N   UNL     1       0.301   3.780   7.110  1.00  0.00    -0.214 NA
ATOM     10  C   UNL     1       0.633   2.779   9.252  1.00  0.00     0.030 A 
ATOM     11  C   UNL     1       2.812   2.056   9.985  1.00  0.00     0.002 A 
ATOM     12  C   UNL     1       1.433   2.115  10.178  1.00  0.00     0.002 A 
BRANCH   4  13
ATOM     13  C   UNL     1       4.470   3.788   6.354  1.00  0.00     0.322 C 
ATOM     14  N   UNL     1       4.926   2.912   5.405  1.00  0.00    -0.329 N 
ATOM     15  H   UNL     1       5.692   3.209   4.863  1.00  0.00     0.165 HD
ATOM     16  O   UNL     1       5.231   4.641   6.802  1.00  0.00    -0.248 OA
BRANCH  14  17
ATOM     17  C   UNL     1       4.397   1.587   5.115  1.00  0.00     0.218 C 
BRANCH  17  18
ATOM     18  C   UNL     1       3.862   1.255   3.718  1.00  0.00     0.240 C 
ATOM     19  O   UNL     1       3.440   0.127   3.457  1.00  0.00    -0.273 OA
ATOM     20  N   UNL     1       3.884   2.271   2.796  1.00  0.00    -0.342 N 
ATOM     21  H   UNL     1       4.404   3.088   2.973  1.00  0.00     0.164 HD
BRANCH  20  22
ATOM     22  C   UNL     1       3.130   2.136   1.548  1.00  0.00     0.158 C 
BRANCH  22  23
ATOM     23  C   UNL     1       3.063   3.499   0.868  1.00  0.00    -0.020 A 
ATOM     24  C   UNL     1       4.017   3.901  -0.082  1.00  0.00     0.006 A 
ATOM     25  C   UNL     1       2.066   4.413   1.246  1.00  0.00     0.006 A 
ATOM     26  C   UNL     1       3.960   5.172  -0.656  1.00  0.00     0.000 A 
ATOM     27  C   UNL     1       2.017   5.688   0.677  1.00  0.00     0.000 A 
ATOM     28  C   UNL     1       2.962   6.065  -0.275  1.00  0.00     0.000 A 
ENDBRANCH  22  23
BRANCH  22  29
ATOM     29  C   UNL     1       3.624   1.035   0.581  1.00  0.00     0.068 C 
ATOM     30  O   UNL     1       3.031   0.632  -0.413  1.00  0.00    -0.548 OA
ATOM     31  O   UNL     1       4.874   0.580   0.824  1.00  0.00    -0.548 OA
ENDBRANCH  22  29
ENDBRANCH  20  22
ENDBRANCH  17  18
ENDBRANCH  14  17
ENDBRANCH   4  13
ENDBRANCH   2   3
ENDBRANCH   1   2
BRANCH   1  32
ATOM     32  C   UNL     1      -1.492   2.954   4.074  1.00  0.00     0.274 C 
BRANCH  32  33
ATOM     33  O   UNL     1      -1.192   1.738   4.796  1.00  0.00    -0.458 OA
BRANCH  33  34
ATOM     34  C   UNL     1       0.088   1.321   4.685  1.00  0.00     0.338 C 
ATOM     35  O   UNL     1       0.977   1.906   4.076  1.00  0.00    -0.246 OA
BRANCH  34  36
ATOM     36  C   UNL     1       0.369   0.159   5.554  1.00  0.00     0.060 A 
ATOM     37  C   UNL     1       1.324   0.377   6.538  1.00  0.00     0.016 A 
ATOM     38  C   UNL     1      -0.143  -1.124   5.383  1.00  0.00     0.016 A 
ATOM     39  C   UNL     1       1.803  -0.640   7.348  1.00  0.00     0.010 A 
ATOM     40  C   UNL     1       0.334  -2.171   6.202  1.00  0.00     0.010 A 
ATOM     41  C   UNL     1       1.317  -1.933   7.181  1.00  0.00    -0.014 A 
BRANCH  41  42
ATOM     42  C   UNL     1       1.888  -2.993   8.044  1.00  0.00     0.031 A 
ATOM     43  C   UNL     1       3.070  -3.793   7.581  1.00  0.00     0.074 A 
ATOM     44  C   UNL     1       1.474  -3.106   9.320  1.00  0.00     0.049 A 
ATOM     45  N   UNL     1       3.660  -4.804   8.165  1.00  0.00    -0.248 NA
ATOM     46  C   UNL     1       3.699  -3.371   6.319  1.00  0.00     0.031 C 
ATOM     47  C   UNL     1       0.495  -2.231   9.966  1.00  0.00     0.029 A 
ATOM     48  N   UNL     1       1.849  -3.979  10.310  1.00  0.00    -0.354 N 
ATOM     49  C   UNL     1       4.723  -5.150   7.341  1.00  0.00     0.074 A 
ATOM     50  C   UNL     1       4.710  -4.226   6.225  1.00  0.00     0.031 C 
ATOM     51  C   UNL     1       0.347  -2.614  11.245  1.00  0.00     0.029 A 
ATOM     52  C   UNL     1       1.160  -3.803  11.485  1.00  0.00     0.049 A 
ATOM     53  H   UNL     1       2.545  -4.665  10.189  1.00  0.00     0.167 HD
ATOM     54  C   UNL     1       5.610  -6.162   7.493  1.00  0.00     0.037 A 
ATOM     55  C   UNL     1       1.147  -4.551  12.605  1.00  0.00     0.037 A 
ATOM     56  C   UNL     1       5.591  -7.099   8.585  1.00  0.00     0.049 A 
ATOM     57  C   UNL     1       1.994  -5.794  12.661  1.00  0.00     0.074 A 
ATOM     58  C   UNL     1       6.339  -8.251   8.754  1.00  0.00     0.029 A 
ATOM     59  N   UNL     1       4.776  -6.984   9.701  1.00  0.00    -0.354 N 
ATOM     60  N   UNL     1       2.891  -6.221  11.806  1.00  0.00    -0.248 NA
ATOM     61  C   UNL     1       1.801  -6.678  13.819  1.00  0.00     0.031 C 
ATOM     62  C   UNL     1       5.949  -8.854   9.957  1.00  0.00     0.029 A 
ATOM     63  C   UNL     1       4.989  -8.054  10.555  1.00  0.00     0.049 A 
ATOM     64  H   UNL     1       4.140  -6.251   9.863  1.00  0.00     0.167 HD
ATOM     65  C   UNL     1       3.378  -7.412  12.327  1.00  0.00     0.074 A 
ATOM     66  C   UNL     1       2.689  -7.634  13.581  1.00  0.00     0.031 C 
ATOM     67  C   UNL     1       4.306  -8.252  11.807  1.00  0.00     0.037 A 
BRANCH  54  68
ATOM     68  C   UNL     1       6.615  -6.358   6.400  1.00  0.00     0.057 A 
ATOM     69  C   UNL     1       7.764  -5.567   6.295  1.00  0.00     0.134 A 
ATOM     70  C   UNL     1       6.427  -7.362   5.442  1.00  0.00     0.134 A 
ATOM     71  F   UNL     1       7.992  -4.577   7.172  1.00  0.00    -0.206 F 
ATOM     72  C   UNL     1       8.687  -5.760   5.265  1.00  0.00     0.040 A 
ATOM     73  C   UNL     1       7.349  -7.575   4.417  1.00  0.00     0.040 A 
ATOM     74  F   UNL     1       5.346  -8.154   5.490  1.00  0.00    -0.206 F 
ATOM     75  C   UNL     1       8.482  -6.769   4.324  1.00  0.00     0.006 A 
ENDBRANCH  54  68
BRANCH  55  76
ATOM     76  C   UNL     1       0.240  -4.205  13.730  1.00  0.00     0.057 A 
ATOM     77  C   UNL     1       0.739  -3.845  14.986  1.00  0.00     0.134 A 
ATOM     78  C   UNL     1      -1.153  -4.266  13.585  1.00  0.00     0.134 A 
ATOM     79  F   UNL     1       2.062  -3.799  15.199  1.00  0.00    -0.206 F 
ATOM     80  C   UNL     1      -0.112  -3.569  16.059  1.00  0.00     0.040 A 
ATOM     81  C   UNL     1      -2.015  -3.964  14.639  1.00  0.00     0.040 A 
ATOM     82  F   UNL     1      -1.698  -4.617  12.410  1.00  0.00    -0.206 F 
ATOM     83  C   UNL     1      -1.494  -3.622  15.884  1.00  0.00     0.006 A 
ENDBRANCH  55  76
BRANCH  67  84
ATOM     84  C   UNL     1       4.655  -9.469  12.609  1.00  0.00     0.057 A 
ATOM     85  C   UNL     1       3.806 -10.580  12.666  1.00  0.00     0.134 A 
ATOM     86  C   UNL     1       5.875  -9.546  13.293  1.00  0.00     0.134 A 
ATOM     87  F   UNL     1       2.618 -10.561  12.044  1.00  0.00    -0.206 F 
ATOM     88  C   UNL     1       4.152 -11.723  13.388  1.00  0.00     0.040 A 
ATOM     89  C   UNL     1       6.240 -10.691  14.002  1.00  0.00     0.040 A 
ATOM     90  F   UNL     1       6.734  -8.516  13.273  1.00  0.00    -0.206 F 
ATOM     91  C   UNL     1       5.376 -11.783  14.053  1.00  0.00     0.006 A 
ENDBRANCH  67  84
ENDBRANCH  41  42
ENDBRANCH  34  36
ENDBRANCH  33  34
ENDBRANCH  32  33
ENDBRANCH   1  32
TORSDOF 16
