REMARK SMILES O=C(OCCOC(=O)c1c(F)cccc1N1CC[C@@H]([NH+]2CCCCC2)C1)c1ccc(-c2c3nc(c(-c4c(F)cccc4F)c4ccc([nH]4)c(-c4c(F)cccc4F)c4nc(c(-c5c(F)cccc5F)c5ccc2[nH]5)C=C4)C=C3)cc1
REMARK SMILES IDX 4 1 3 2 2 3 1 4 27 5 28 6 80 7 29 8 79 9 30 10 31 11 32 12
REMARK SMILES IDX 73 13 33 14 78 15 72 16 74 17 34 18 77 19 71 20 70 21 35 23
REMARK SMILES IDX 61 24 44 25 60 26 45 27 48 28 59 29 75 30 46 31 47 32 58 34
REMARK SMILES IDX 76 35 49 36 36 37 37 38 42 39 38 40 39 41 41 42 43 43 40 44
REMARK SMILES IDX 62 45 63 46 68 47 64 48 65 49 67 50 69 51 66 52 50 53 51 54
REMARK SMILES IDX 56 55 52 56 53 57 55 58 57 59 54 60 5 61 6 62 7 63 8 64 9 65
REMARK SMILES IDX 10 66 15 67 11 68 12 69 14 70 13 71 16 72 17 73 26 74 18 75
REMARK SMILES IDX 19 76 20 77 21 78 25 79 22 81 24 82 23 83
REMARK H PARENT 74 22 48 33 20 80
REMARK Flexibility Score: inf
ROOT
ATOM      1  C   UNL     1       4.571   0.220   2.012  1.00  0.00     0.275 C 
ENDROOT
BRANCH   1   2
ATOM      2  O   UNL     1       5.365   0.426   0.844  1.00  0.00    -0.458 OA
BRANCH   2   3
ATOM      3  C   UNL     1       4.683   0.802  -0.261  1.00  0.00     0.338 C 
ATOM      4  O   UNL     1       3.788   1.637  -0.321  1.00  0.00    -0.246 OA
BRANCH   3   5
ATOM      5  C   UNL     1       5.039  -0.159  -1.332  1.00  0.00     0.060 A 
ATOM      6  C   UNL     1       6.077  -1.077  -1.126  1.00  0.00     0.016 A 
ATOM      7  C   UNL     1       4.223  -0.268  -2.461  1.00  0.00     0.016 A 
ATOM      8  C   UNL     1       6.286  -2.106  -2.023  1.00  0.00     0.010 A 
ATOM      9  C   UNL     1       4.382  -1.347  -3.326  1.00  0.00     0.010 A 
ATOM     10  C   UNL     1       5.434  -2.252  -3.119  1.00  0.00    -0.014 A 
BRANCH  10  11
ATOM     11  C   UNL     1       5.773  -3.267  -4.129  1.00  0.00     0.031 A 
ATOM     12  C   UNL     1       6.339  -2.792  -5.430  1.00  0.00     0.074 A 
ATOM     13  C   UNL     1       5.659  -4.575  -3.839  1.00  0.00     0.049 A 
ATOM     14  N   UNL     1       6.769  -3.497  -6.440  1.00  0.00    -0.248 NA
ATOM     15  C   UNL     1       6.469  -1.334  -5.613  1.00  0.00     0.031 C 
ATOM     16  C   UNL     1       5.196  -5.123  -2.563  1.00  0.00     0.029 A 
ATOM     17  N   UNL     1       5.905  -5.685  -4.601  1.00  0.00    -0.354 N 
ATOM     18  C   UNL     1       7.264  -2.572  -7.347  1.00  0.00     0.074 A 
ATOM     19  C   UNL     1       6.995  -1.255  -6.824  1.00  0.00     0.031 C 
ATOM     20  C   UNL     1       5.100  -6.459  -2.663  1.00  0.00     0.029 A 
ATOM     21  C   UNL     1       5.515  -6.857  -4.001  1.00  0.00     0.049 A 
ATOM     22  H   UNL     1       6.321  -5.646  -5.493  1.00  0.00     0.167 HD
ATOM     23  C   UNL     1       7.947  -2.815  -8.485  1.00  0.00     0.037 A 
ATOM     24  C   UNL     1       5.480  -8.108  -4.493  1.00  0.00     0.037 A 
ATOM     25  C   UNL     1       8.227  -4.137  -8.963  1.00  0.00     0.049 A 
ATOM     26  C   UNL     1       6.101  -8.347  -5.838  1.00  0.00     0.074 A 
ATOM     27  C   UNL     1       8.969  -4.513 -10.065  1.00  0.00     0.029 A 
ATOM     28  N   UNL     1       7.766  -5.300  -8.362  1.00  0.00    -0.354 N 
ATOM     29  N   UNL     1       6.646  -7.473  -6.652  1.00  0.00    -0.248 NA
ATOM     30  C   UNL     1       6.156  -9.733  -6.318  1.00  0.00     0.031 C 
ATOM     31  C   UNL     1       8.914  -5.905 -10.160  1.00  0.00     0.029 A 
ATOM     32  C   UNL     1       8.171  -6.397  -9.096  1.00  0.00     0.049 A 
ATOM     33  H   UNL     1       7.230  -5.337  -7.537  1.00  0.00     0.167 HD
ATOM     34  C   UNL     1       7.156  -8.204  -7.712  1.00  0.00     0.074 A 
ATOM     35  C   UNL     1       6.838  -9.594  -7.449  1.00  0.00     0.031 C 
ATOM     36  C   UNL     1       7.843  -7.768  -8.794  1.00  0.00     0.037 A 
BRANCH  23  37
ATOM     37  C   UNL     1       8.460  -1.639  -9.253  1.00  0.00     0.057 A 
ATOM     38  C   UNL     1       7.896  -1.285 -10.482  1.00  0.00     0.134 A 
ATOM     39  C   UNL     1       9.547  -0.883  -8.793  1.00  0.00     0.134 A 
ATOM     40  F   UNL     1       6.848  -1.965 -10.972  1.00  0.00    -0.206 F 
ATOM     41  C   UNL     1       8.404  -0.227 -11.237  1.00  0.00     0.040 A 
ATOM     42  C   UNL     1      10.052   0.189  -9.529  1.00  0.00     0.040 A 
ATOM     43  F   UNL     1      10.117  -1.159  -7.610  1.00  0.00    -0.206 F 
ATOM     44  C   UNL     1       9.486   0.513 -10.760  1.00  0.00     0.006 A 
ENDBRANCH  23  37
BRANCH  24  45
ATOM     45  C   UNL     1       4.838  -9.194  -3.712  1.00  0.00     0.057 A 
ATOM     46  C   UNL     1       3.447  -9.219  -3.537  1.00  0.00     0.134 A 
ATOM     47  C   UNL     1       5.580 -10.213  -3.109  1.00  0.00     0.134 A 
ATOM     48  F   UNL     1       2.679  -8.260  -4.076  1.00  0.00    -0.206 F 
ATOM     49  C   UNL     1       2.818 -10.219  -2.793  1.00  0.00     0.040 A 
ATOM     50  C   UNL     1       4.962 -11.229  -2.374  1.00  0.00     0.040 A 
ATOM     51  F   UNL     1       6.913 -10.248  -3.243  1.00  0.00    -0.206 F 
ATOM     52  C   UNL     1       3.578 -11.232  -2.213  1.00  0.00     0.006 A 
ENDBRANCH  24  45
BRANCH  36  53
ATOM     53  C   UNL     1       8.321  -8.796  -9.769  1.00  0.00     0.057 A 
ATOM     54  C   UNL     1       9.684  -9.103  -9.863  1.00  0.00     0.134 A 
ATOM     55  C   UNL     1       7.451  -9.374 -10.697  1.00  0.00     0.134 A 
ATOM     56  F   UNL     1      10.565  -8.565  -9.005  1.00  0.00    -0.206 F 
ATOM     57  C   UNL     1      10.171  -9.927 -10.875  1.00  0.00     0.040 A 
ATOM     58  C   UNL     1       7.924 -10.219 -11.699  1.00  0.00     0.040 A 
ATOM     59  F   UNL     1       6.135  -9.121 -10.645  1.00  0.00    -0.206 F 
ATOM     60  C   UNL     1       9.290 -10.485 -11.799  1.00  0.00     0.006 A 
ENDBRANCH  36  53
ENDBRANCH  10  11
ENDBRANCH   3   5
ENDBRANCH   2   3
ENDBRANCH   1   2
BRANCH   1  61
ATOM     61  C   UNL     1       3.803  -1.120   1.998  1.00  0.00     0.275 C 
BRANCH  61  62
ATOM     62  O   UNL     1       3.245  -1.493   0.718  1.00  0.00    -0.458 OA
BRANCH  62  63
ATOM     63  C   UNL     1       1.990  -2.025   0.725  1.00  0.00     0.343 C 
ATOM     64  O   UNL     1       1.228  -2.058   1.677  1.00  0.00    -0.246 OA
BRANCH  63  65
ATOM     65  C   UNL     1       1.691  -2.644  -0.587  1.00  0.00     0.119 A 
ATOM     66  C   UNL     1       2.245  -3.910  -0.791  1.00  0.00     0.139 A 
ATOM     67  C   UNL     1       0.790  -2.090  -1.531  1.00  0.00     0.055 A 
ATOM     68  F   UNL     1       3.069  -4.452   0.120  1.00  0.00    -0.206 F 
ATOM     69  C   UNL     1       1.955  -4.641  -1.938  1.00  0.00     0.040 A 
ATOM     70  C   UNL     1       0.529  -2.851  -2.688  1.00  0.00     0.027 A 
ATOM     71  C   UNL     1       1.115  -4.103  -2.901  1.00  0.00     0.005 A 
BRANCH  67  72
ATOM     72  N   UNL     1       0.214  -0.851  -1.380  1.00  0.00    -0.365 N 
ATOM     73  C   UNL     1       1.069   0.296  -1.184  1.00  0.00     0.123 C 
ATOM     74  C   UNL     1      -1.089  -0.393  -1.880  1.00  0.00     0.181 C 
ATOM     75  C   UNL     1       0.122   1.346  -0.671  1.00  0.00     0.088 C 
ATOM     76  C   UNL     1      -1.147   1.139  -1.502  1.00  0.00     0.205 C 
BRANCH  76  77
ATOM     77  N   UNL     1      -1.389   2.085  -2.611  1.00  0.00    -0.331 N 
ATOM     78  C   UNL     1      -0.460   2.103  -3.740  1.00  0.00     0.262 C 
ATOM     79  C   UNL     1      -1.744   3.446  -2.184  1.00  0.00     0.262 C 
ATOM     80  H   UNL     1      -2.218   1.644  -3.011  1.00  0.00     0.348 HD
ATOM     81  C   UNL     1       0.777   2.986  -3.565  1.00  0.00     0.062 C 
ATOM     82  C   UNL     1      -0.568   4.393  -1.932  1.00  0.00     0.062 C 
ATOM     83  C   UNL     1       0.446   4.387  -3.070  1.00  0.00     0.012 C 
ENDBRANCH  76  77
ENDBRANCH  67  72
ENDBRANCH  63  65
ENDBRANCH  62  63
ENDBRANCH  61  62
ENDBRANCH   1  61
TORSDOF 13
