REMARK SMILES Cc1ccc(NC(=O)[C@H]2CC(Cl)=CC[C@@H]2C(=O)OCCOC(=O)c2ccc(-c3c4nc(c(-c5c(F)cccc5F)c5ccc([nH]5)c(-c5c(F)cccc5F)c5nc(c(-c6c(F)cccc6F)c6ccc3[nH]6)C=C5)C=C4)cc2)cc1[N+](=O)[O-]
REMARK SMILES IDX 19 1 18 2 16 3 17 4 15 5 9 6 10 7 11 8 14 9 12 10 13 11 7 12
REMARK SMILES IDX 6 13 8 15 5 16 1 17 2 18 3 19 79 20 4 21 78 22 80 23 81 24
REMARK SMILES IDX 82 25 20 26 21 27 22 28 23 29 24 30 25 31 77 32 26 33 76 34
REMARK SMILES IDX 27 35 28 36 29 37 70 38 30 39 75 40 69 41 71 42 31 43 74 44
REMARK SMILES IDX 68 45 67 46 32 48 58 49 41 50 57 51 42 52 45 53 56 54 72 55
REMARK SMILES IDX 43 56 44 57 55 59 73 60 46 61 33 62 34 63 39 64 35 65 36 66
REMARK SMILES IDX 38 67 40 68 37 69 59 70 60 71 65 72 61 73 62 74 64 75 66 76
REMARK SMILES IDX 63 77 47 78 48 79 53 80 49 81 50 82 52 83 54 84 51 85
REMARK H PARENT 6 14 71 47 45 58
REMARK Flexibility Score: inf
ROOT
ATOM      1  C   UNL     1      -1.059   0.912  -0.404  1.00  0.00     0.274 C 
ENDROOT
BRANCH   1   2
ATOM      2  O   UNL     1      -2.372   0.168  -1.382  1.00  0.00    -0.462 OA
BRANCH   2   3
ATOM      3  C   UNL     1      -3.305  -0.761  -1.749  1.00  0.00     0.310 C 
ATOM      4  O   UNL     1      -3.698  -0.693  -2.923  1.00  0.00    -0.252 OA
BRANCH   3   5
ATOM      5  C   UNL     1      -4.017  -1.915  -0.919  1.00  0.00     0.116 C 
ATOM      6  C   UNL     1      -3.912  -2.151   0.604  1.00  0.00     0.098 C 
ATOM      7  C   UNL     1      -4.640  -3.395   1.133  1.00  0.00     0.062 C 
ATOM      8  C   UNL     1      -4.192  -4.605   0.385  1.00  0.00     0.015 C 
ATOM      9  C   UNL     1      -4.072  -3.271  -1.712  1.00  0.00     0.044 C 
ATOM     10  Cl  UNL     1      -4.004  -6.065   1.277  1.00  0.00    -0.089 Cl
ATOM     11  C   UNL     1      -3.931  -4.548  -0.923  1.00  0.00    -0.010 C 
BRANCH   6  12
ATOM     12  C   UNL     1      -4.467  -0.924   1.244  1.00  0.00     0.228 C 
ATOM     13  N   UNL     1      -3.617   0.115   1.409  1.00  0.00    -0.326 N 
ATOM     14  H   UNL     1      -4.007   0.914   1.831  1.00  0.00     0.169 HD
ATOM     15  O   UNL     1      -5.648  -0.801   1.555  1.00  0.00    -0.274 OA
BRANCH  13  16
ATOM     16  C   UNL     1      -2.275   0.218   1.070  1.00  0.00     0.048 A 
ATOM     17  C   UNL     1       2.603   1.270  -0.015  1.00  0.00     0.052 C 
ATOM     18  C   UNL     1       1.094   1.176   0.095  1.00  0.00     0.027 A 
ATOM     19  C   UNL     1       0.464  -0.387  -0.352  1.00  0.00     0.012 A 
ATOM     20  C   UNL     1       0.088   2.213   1.002  1.00  0.00     0.274 A 
ATOM     21  C   UNL     1      -1.263  -0.951   0.095  1.00  0.00     0.027 A 
ATOM     22  C   UNL     1      -1.535   1.771   1.520  1.00  0.00     0.112 A 
BRANCH  20  23
ATOM     23  N   UNL     1       0.455   3.626   1.030  1.00  0.00     0.063 N 
ATOM     24  O   UNL     1      -0.477   4.434   1.056  1.00  0.00    -0.258 OA
ATOM     25  O   UNL     1       1.654   3.912   0.959  1.00  0.00    -0.258 OA
ENDBRANCH  20  23
ENDBRANCH  13  16
ENDBRANCH   6  12
ENDBRANCH   3   5
ENDBRANCH   2   3
ENDBRANCH   1   2
BRANCH   1  26
ATOM     26  C   UNL     1      -0.233  -0.007   1.425  1.00  0.00     0.275 C 
BRANCH  26  27
ATOM     27  O   UNL     1       0.246  -1.800   1.429  1.00  0.00    -0.458 OA
BRANCH  27  28
ATOM     28  C   UNL     1       0.336  -3.034   0.623  1.00  0.00     0.338 C 
ATOM     29  O   UNL     1       0.443  -4.115   1.198  1.00  0.00    -0.246 OA
BRANCH  28  30
ATOM     30  C   UNL     1       0.316  -3.113  -0.972  1.00  0.00     0.060 A 
ATOM     31  C   UNL     1      -0.729  -3.523  -1.827  1.00  0.00     0.016 A 
ATOM     32  C   UNL     1       1.322  -2.487  -1.642  1.00  0.00     0.016 A 
ATOM     33  C   UNL     1      -0.911  -2.926  -3.139  1.00  0.00     0.010 A 
ATOM     34  C   UNL     1       0.878  -1.582  -2.594  1.00  0.00     0.010 A 
ATOM     35  C   UNL     1      -0.164  -1.809  -3.475  1.00  0.00    -0.014 A 
BRANCH  35  36
ATOM     36  C   UNL     1      -0.071  -0.920  -4.682  1.00  0.00     0.031 A 
ATOM     37  C   UNL     1      -1.220  -0.244  -5.359  1.00  0.00     0.074 A 
ATOM     38  C   UNL     1       1.216  -0.741  -5.113  1.00  0.00     0.049 A 
ATOM     39  N   UNL     1      -1.581  -0.421  -6.591  1.00  0.00    -0.248 NA
ATOM     40  C   UNL     1      -2.050   0.767  -4.691  1.00  0.00     0.031 C 
ATOM     41  C   UNL     1       1.853  -0.000  -6.184  1.00  0.00     0.029 A 
ATOM     42  N   UNL     1       2.333  -1.434  -4.577  1.00  0.00    -0.354 N 
ATOM     43  C   UNL     1      -2.426   0.643  -6.914  1.00  0.00     0.074 A 
ATOM     44  C   UNL     1      -2.889   1.169  -5.659  1.00  0.00     0.031 C 
ATOM     45  C   UNL     1       3.032  -0.619  -6.464  1.00  0.00     0.029 A 
ATOM     46  C   UNL     1       3.146  -1.811  -5.617  1.00  0.00     0.049 A 
ATOM     47  H   UNL     1       2.497  -1.614  -3.623  1.00  0.00     0.167 HD
ATOM     48  C   UNL     1      -2.348   1.274  -8.128  1.00  0.00     0.037 A 
ATOM     49  C   UNL     1       3.107  -3.141  -5.920  1.00  0.00     0.037 A 
ATOM     50  C   UNL     1      -1.137   0.834  -8.798  1.00  0.00     0.049 A 
ATOM     51  C   UNL     1       2.447  -3.343  -7.253  1.00  0.00     0.074 A 
ATOM     52  C   UNL     1       0.130   1.382  -8.887  1.00  0.00     0.029 A 
ATOM     53  N   UNL     1      -1.020  -0.479  -9.174  1.00  0.00    -0.354 N 
ATOM     54  N   UNL     1       1.747  -2.428  -7.859  1.00  0.00    -0.248 NA
ATOM     55  C   UNL     1       2.459  -4.612  -7.966  1.00  0.00     0.031 C 
ATOM     56  C   UNL     1       1.012   0.363  -9.340  1.00  0.00     0.029 A 
ATOM     57  C   UNL     1       0.274  -0.793  -9.518  1.00  0.00     0.049 A 
ATOM     58  H   UNL     1      -1.769  -1.118  -9.194  1.00  0.00     0.167 HD
ATOM     59  C   UNL     1       1.254  -2.929  -9.022  1.00  0.00     0.074 A 
ATOM     60  C   UNL     1       1.671  -4.321  -9.012  1.00  0.00     0.031 C 
ATOM     61  C   UNL     1       0.548  -2.162  -9.901  1.00  0.00     0.037 A 
BRANCH  48  62
ATOM     62  C   UNL     1      -3.107   2.505  -8.607  1.00  0.00     0.057 A 
ATOM     63  C   UNL     1      -2.591   3.316  -9.647  1.00  0.00     0.134 A 
ATOM     64  C   UNL     1      -4.383   2.894  -8.162  1.00  0.00     0.134 A 
ATOM     65  F   UNL     1      -1.433   3.035 -10.258  1.00  0.00    -0.206 F 
ATOM     66  C   UNL     1      -3.241   4.455 -10.143  1.00  0.00     0.040 A 
ATOM     67  C   UNL     1      -5.044   4.043  -8.645  1.00  0.00     0.040 A 
ATOM     68  F   UNL     1      -5.063   2.156  -7.273  1.00  0.00    -0.206 F 
ATOM     69  C   UNL     1      -4.468   4.835  -9.632  1.00  0.00     0.006 A 
ENDBRANCH  48  62
BRANCH  49  70
ATOM     70  C   UNL     1       2.923  -4.086  -4.742  1.00  0.00     0.057 A 
ATOM     71  C   UNL     1       3.767  -4.001  -3.611  1.00  0.00     0.134 A 
ATOM     72  C   UNL     1       1.798  -4.912  -4.588  1.00  0.00     0.134 A 
ATOM     73  F   UNL     1       4.838  -3.190  -3.624  1.00  0.00    -0.206 F 
ATOM     74  C   UNL     1       3.485  -4.652  -2.397  1.00  0.00     0.040 A 
ATOM     75  C   UNL     1       1.509  -5.576  -3.381  1.00  0.00     0.040 A 
ATOM     76  F   UNL     1       0.897  -5.037  -5.572  1.00  0.00    -0.206 F 
ATOM     77  C   UNL     1       2.341  -5.434  -2.274  1.00  0.00     0.006 A 
ENDBRANCH  49  70
BRANCH  61  78
ATOM     78  C   UNL     1       0.023  -2.685 -11.201  1.00  0.00     0.057 A 
ATOM     79  C   UNL     1       0.755  -3.582 -11.985  1.00  0.00     0.134 A 
ATOM     80  C   UNL     1      -1.199  -2.251 -11.756  1.00  0.00     0.134 A 
ATOM     81  F   UNL     1       2.007  -3.934 -11.654  1.00  0.00    -0.206 F 
ATOM     82  C   UNL     1       0.240  -4.132 -13.158  1.00  0.00     0.040 A 
ATOM     83  C   UNL     1      -1.694  -2.742 -12.960  1.00  0.00     0.040 A 
ATOM     84  F   UNL     1      -1.987  -1.346 -11.161  1.00  0.00    -0.206 F 
ATOM     85  C   UNL     1      -0.993  -3.717 -13.646  1.00  0.00     0.006 A 
ENDBRANCH  61  78
ENDBRANCH  35  36
ENDBRANCH  28  30
ENDBRANCH  27  28
ENDBRANCH  26  27
ENDBRANCH   1  26
TORSDOF 14
