REMARK SMILES CN(c1ccccc1)c1nc(OCC(=O)OCCOC(=O)c2ccc(-c3c4nc(c(-c5c(F)cccc5F)c5ccc([nH]5)c(-c5c(F)cccc5F)c5nc(c(-c6c(F)cccc6F)c6ccc3[nH]6)C=C5)C=C4)cc2)cc(-c2ccncc2)n1
REMARK SMILES IDX 17 1 16 2 14 3 15 4 13 5 12 6 11 7 9 8 10 9 84 10 77 11
REMARK SMILES IDX 76 12 2 13 1 14 3 15 4 16 8 17 5 18 7 19 6 20 78 21 79 22
REMARK SMILES IDX 83 23 80 24 82 25 81 26 18 27 19 28 20 29 21 30 22 31 23 32
REMARK SMILES IDX 75 33 24 34 74 35 25 36 26 37 27 38 68 39 28 40 73 41 67 42
REMARK SMILES IDX 69 43 29 44 72 45 66 46 65 47 30 49 56 50 39 51 55 52 40 53
REMARK SMILES IDX 43 54 54 55 70 56 41 57 42 58 53 60 71 61 44 62 31 63 32 64
REMARK SMILES IDX 37 65 33 66 34 67 36 68 38 69 35 70 57 71 58 72 63 73 59 74
REMARK SMILES IDX 60 75 62 76 64 77 61 78 45 79 46 80 51 81 47 82 48 83 50 84
REMARK SMILES IDX 52 85 49 86
REMARK H PARENT 69 48 43 59
REMARK Flexibility Score: inf
ROOT
ATOM      1  C   UNL     1      -0.154  -4.453  -6.886  1.00  0.00     0.274 C 
ENDROOT
BRANCH   1   2
ATOM      2  O   UNL     1      -0.264  -4.389  -5.451  1.00  0.00    -0.460 OA
BRANCH   2   3
ATOM      3  C   UNL     1      -0.334  -5.590  -4.814  1.00  0.00     0.344 C 
ATOM      4  O   UNL     1      -0.263  -6.683  -5.368  1.00  0.00    -0.248 OA
BRANCH   3   5
ATOM      5  C   UNL     1      -0.450  -5.453  -3.302  1.00  0.00     0.353 C 
BRANCH   5   6
ATOM      6  O   UNL     1      -0.763  -4.157  -2.834  1.00  0.00    -0.466 OA
BRANCH   6   7
ATOM      7  C   UNL     1       0.211  -3.470  -2.174  1.00  0.00     0.219 A 
ATOM      8  C   UNL     1       0.555  -1.872  -0.554  1.00  0.00     0.233 A 
ATOM      9  N   UNL     1      -0.278  -2.709  -1.192  1.00  0.00    -0.177 NA
ATOM     10  N   UNL     1       1.860  -1.782  -0.849  1.00  0.00    -0.212 NA
ATOM     11  C   UNL     1       2.339  -2.583  -1.816  1.00  0.00     0.080 A 
ATOM     12  C   UNL     1       1.536  -3.458  -2.520  1.00  0.00     0.097 A 
BRANCH   8  13
ATOM     13  N   UNL     1       0.024  -1.077   0.469  1.00  0.00    -0.314 N 
ATOM     14  C   UNL     1       0.713   0.192   0.659  1.00  0.00     0.153 C 
BRANCH  13  15
ATOM     15  C   UNL     1      -0.835  -1.543   1.476  1.00  0.00     0.043 A 
ATOM     16  C   UNL     1      -0.739  -2.868   1.942  1.00  0.00     0.026 A 
ATOM     17  C   UNL     1      -1.829  -0.731   2.038  1.00  0.00     0.026 A 
ATOM     18  C   UNL     1      -1.585  -3.358   2.938  1.00  0.00     0.002 A 
ATOM     19  C   UNL     1      -2.687  -1.220   3.028  1.00  0.00     0.002 A 
ATOM     20  C   UNL     1      -2.562  -2.531   3.481  1.00  0.00     0.000 A 
ENDBRANCH  13  15
ENDBRANCH   8  13
BRANCH  11  21
ATOM     21  C   UNL     1       3.768  -2.426  -2.092  1.00  0.00     0.004 A 
ATOM     22  C   UNL     1       4.206  -1.852  -3.288  1.00  0.00     0.030 A 
ATOM     23  C   UNL     1       4.738  -2.810  -1.160  1.00  0.00     0.030 A 
ATOM     24  C   UNL     1       5.566  -1.744  -3.527  1.00  0.00     0.111 A 
ATOM     25  C   UNL     1       6.078  -2.651  -1.484  1.00  0.00     0.111 A 
ATOM     26  N   UNL     1       6.513  -2.147  -2.656  1.00  0.00    -0.265 NA
ENDBRANCH  11  21
ENDBRANCH   6   7
ENDBRANCH   5   6
ENDBRANCH   3   5
ENDBRANCH   2   3
ENDBRANCH   1   2
BRANCH   1  27
ATOM     27  C   UNL     1       1.293  -4.275  -7.339  1.00  0.00     0.275 C 
BRANCH  27  28
ATOM     28  O   UNL     1       2.161  -5.161  -6.606  1.00  0.00    -0.458 OA
BRANCH  28  29
ATOM     29  C   UNL     1       3.054  -4.535  -5.808  1.00  0.00     0.338 C 
ATOM     30  O   UNL     1       3.224  -3.332  -5.715  1.00  0.00    -0.246 OA
BRANCH  29  31
ATOM     31  C   UNL     1       3.817  -5.489  -4.977  1.00  0.00     0.060 A 
ATOM     32  C   UNL     1       3.191  -6.534  -4.291  1.00  0.00     0.016 A 
ATOM     33  C   UNL     1       5.175  -5.234  -4.771  1.00  0.00     0.016 A 
ATOM     34  C   UNL     1       3.918  -7.298  -3.374  1.00  0.00     0.010 A 
ATOM     35  C   UNL     1       5.916  -6.040  -3.905  1.00  0.00     0.010 A 
ATOM     36  C   UNL     1       5.293  -7.076  -3.196  1.00  0.00    -0.014 A 
BRANCH  36  37
ATOM     37  C   UNL     1       6.113  -7.998  -2.372  1.00  0.00     0.031 A 
ATOM     38  C   UNL     1       6.782  -7.548  -1.108  1.00  0.00     0.074 A 
ATOM     39  C   UNL     1       6.314  -9.248  -2.826  1.00  0.00     0.049 A 
ATOM     40  N   UNL     1       7.671  -8.166  -0.371  1.00  0.00    -0.248 NA
ATOM     41  C   UNL     1       6.408  -6.221  -0.608  1.00  0.00     0.031 C 
ATOM     42  C   UNL     1       5.733  -9.802  -4.050  1.00  0.00     0.029 A 
ATOM     43  N   UNL     1       7.079 -10.268  -2.324  1.00  0.00    -0.354 N 
ATOM     44  C   UNL     1       7.995  -7.287   0.654  1.00  0.00     0.074 A 
ATOM     45  C   UNL     1       7.202  -6.091   0.447  1.00  0.00     0.031 C 
ATOM     46  C   UNL     1       6.162 -11.062  -4.206  1.00  0.00     0.029 A 
ATOM     47  C   UNL     1       7.087 -11.381  -3.124  1.00  0.00     0.049 A 
ATOM     48  H   UNL     1       7.572 -10.208  -1.474  1.00  0.00     0.167 HD
ATOM     49  C   UNL     1       8.873  -7.465   1.672  1.00  0.00     0.037 A 
ATOM     50  C   UNL     1       7.790 -12.523  -3.026  1.00  0.00     0.037 A 
ATOM     51  C   UNL     1       9.625  -8.675   1.894  1.00  0.00     0.049 A 
ATOM     52  C   UNL     1       8.734 -12.711  -1.882  1.00  0.00     0.074 A 
ATOM     53  C   UNL     1      10.498  -8.973   2.928  1.00  0.00     0.029 A 
ATOM     54  N   UNL     1       9.587  -9.791   1.072  1.00  0.00    -0.354 N 
ATOM     55  N   UNL     1       9.042 -11.870  -0.926  1.00  0.00    -0.248 NA
ATOM     56  C   UNL     1       9.428 -14.001  -1.804  1.00  0.00     0.031 C 
ATOM     57  C   UNL     1      11.005 -10.262   2.717  1.00  0.00     0.029 A 
ATOM     58  C   UNL     1      10.425 -10.776   1.569  1.00  0.00     0.049 A 
ATOM     59  H   UNL     1       9.043  -9.871   0.255  1.00  0.00     0.167 HD
ATOM     60  C   UNL     1       9.973 -12.523  -0.134  1.00  0.00     0.074 A 
ATOM     61  C   UNL     1      10.160 -13.841  -0.709  1.00  0.00     0.031 C 
ATOM     62  C   UNL     1      10.619 -12.070   0.968  1.00  0.00     0.037 A 
BRANCH  49  63
ATOM     63  C   UNL     1       9.086  -6.321   2.619  1.00  0.00     0.057 A 
ATOM     64  C   UNL     1       8.146  -5.985   3.601  1.00  0.00     0.134 A 
ATOM     65  C   UNL     1      10.276  -5.581   2.584  1.00  0.00     0.134 A 
ATOM     66  F   UNL     1       6.981  -6.647   3.680  1.00  0.00    -0.206 F 
ATOM     67  C   UNL     1       8.375  -4.946   4.506  1.00  0.00     0.040 A 
ATOM     68  C   UNL     1      10.524  -4.552   3.495  1.00  0.00     0.040 A 
ATOM     69  F   UNL     1      11.221  -5.856   1.673  1.00  0.00    -0.206 F 
ATOM     70  C   UNL     1       9.570  -4.231   4.458  1.00  0.00     0.006 A 
ENDBRANCH  49  63
BRANCH  50  71
ATOM     71  C   UNL     1       7.616 -13.552  -4.073  1.00  0.00     0.057 A 
ATOM     72  C   UNL     1       6.808 -14.671  -3.854  1.00  0.00     0.134 A 
ATOM     73  C   UNL     1       8.167 -13.382  -5.349  1.00  0.00     0.134 A 
ATOM     74  F   UNL     1       6.262 -14.883  -2.648  1.00  0.00    -0.206 F 
ATOM     75  C   UNL     1       6.544 -15.585  -4.874  1.00  0.00     0.040 A 
ATOM     76  C   UNL     1       7.897 -14.278  -6.382  1.00  0.00     0.040 A 
ATOM     77  F   UNL     1       8.935 -12.316  -5.618  1.00  0.00    -0.206 F 
ATOM     78  C   UNL     1       7.080 -15.382  -6.146  1.00  0.00     0.006 A 
ENDBRANCH  50  71
BRANCH  62  79
ATOM     79  C   UNL     1      11.591 -13.011   1.606  1.00  0.00     0.057 A 
ATOM     80  C   UNL     1      12.863 -13.225   1.060  1.00  0.00     0.134 A 
ATOM     81  C   UNL     1      11.255 -13.712   2.769  1.00  0.00     0.134 A 
ATOM     82  F   UNL     1      13.235 -12.593  -0.063  1.00  0.00    -0.206 F 
ATOM     83  C   UNL     1      13.761 -14.122   1.639  1.00  0.00     0.040 A 
ATOM     84  C   UNL     1      12.150 -14.601   3.366  1.00  0.00     0.040 A 
ATOM     85  F   UNL     1      10.051 -13.549   3.339  1.00  0.00    -0.206 F 
ATOM     86  C   UNL     1      13.405 -14.812   2.797  1.00  0.00     0.006 A 
ENDBRANCH  62  79
ENDBRANCH  36  37
ENDBRANCH  29  31
ENDBRANCH  28  29
ENDBRANCH  27  28
ENDBRANCH   1  27
TORSDOF 16
