REMARK SMILES Cc1cc2c(=O)c3ccccc3oc2c(C(=O)OCCOC(=O)c2ccc(-c3c4nc(c(-c5c(F)cccc5F)c5ccc([nH]5)c(-c5c(F)cccc5F)c5nc(c(-c6c(F)cccc6F)c6ccc3[nH]6)C=C5)C=C4)cc2)c1C
REMARK SMILES IDX 20 1 19 2 18 3 16 4 17 5 15 6 1 7 2 8 3 9 78 10 4 11 79 12
REMARK SMILES IDX 5 13 14 14 6 15 7 16 13 17 8 18 12 19 9 20 11 21 10 22 21 23
REMARK SMILES IDX 22 24 23 25 24 26 25 27 77 28 26 29 76 30 27 31 28 32 29 33
REMARK SMILES IDX 70 34 30 35 75 36 69 37 71 38 31 39 74 40 68 41 67 42 32 44
REMARK SMILES IDX 58 45 41 46 57 47 42 48 45 49 56 50 72 51 43 52 44 53 55 55
REMARK SMILES IDX 73 56 46 57 33 58 34 59 39 60 35 61 36 62 38 63 40 64 37 65
REMARK SMILES IDX 59 66 60 67 65 68 61 69 62 70 64 71 66 72 63 73 47 74 48 75
REMARK SMILES IDX 53 76 49 77 50 78 52 79 54 80 51 81
REMARK H PARENT 71 43 45 54
REMARK Flexibility Score: inf
ROOT
ATOM      1  C   UNL     1       2.338  -6.421   2.738  1.00  0.00     0.275 C 
ENDROOT
BRANCH   1   2
ATOM      2  C   UNL     1       1.129  -5.959   1.921  1.00  0.00     0.275 C 
BRANCH   2   3
ATOM      3  O   UNL     1       1.051  -4.518   1.899  1.00  0.00    -0.458 OA
BRANCH   3   4
ATOM      4  C   UNL     1      -0.094  -3.919   2.314  1.00  0.00     0.342 C 
ATOM      5  O   UNL     1      -1.039  -4.492   2.830  1.00  0.00    -0.246 OA
BRANCH   4   6
ATOM      6  C   UNL     1      -0.022  -2.434   2.080  1.00  0.00     0.106 A 
ATOM      7  C   UNL     1       1.320   0.202  -0.412  1.00  0.00     0.044 C 
ATOM      8  C   UNL     1       0.699  -0.469   0.784  1.00  0.00    -0.046 A 
ATOM      9  C   UNL     1       0.196   0.355   1.794  1.00  0.00     0.019 A 
ATOM     10  C   UNL     1       0.628  -1.878   0.932  1.00  0.00    -0.030 A 
ATOM     11  C   UNL     1      -0.436  -0.194   2.905  1.00  0.00     0.067 A 
ATOM     12  C   UNL     1       1.273  -2.758  -0.116  1.00  0.00     0.046 C 
ATOM     13  C   UNL     1      -0.865   0.704   3.987  1.00  0.00     0.200 A 
ATOM     14  C   UNL     1      -0.618  -1.572   3.031  1.00  0.00     0.153 A 
ATOM     15  O   UNL     1      -0.691   1.914   3.929  1.00  0.00    -0.288 OA
ATOM     16  C   UNL     1      -1.494   0.080   5.147  1.00  0.00     0.065 A 
ATOM     17  O   UNL     1      -1.380  -2.100   4.055  1.00  0.00    -0.455 OA
ATOM     18  C   UNL     1      -1.783   0.829   6.293  1.00  0.00     0.016 A 
ATOM     19  C   UNL     1      -1.805  -1.271   5.069  1.00  0.00     0.138 A 
ATOM     20  C   UNL     1      -2.429   0.220   7.363  1.00  0.00     0.001 A 
ATOM     21  C   UNL     1      -2.532  -1.852   6.106  1.00  0.00     0.048 A 
ATOM     22  C   UNL     1      -2.833  -1.110   7.255  1.00  0.00     0.004 A 
ENDBRANCH   4   6
ENDBRANCH   3   4
ENDBRANCH   2   3
ENDBRANCH   1   2
BRANCH   1  23
ATOM     23  O   UNL     1       2.098  -6.202   4.138  1.00  0.00    -0.458 OA
BRANCH  23  24
ATOM     24  C   UNL     1       2.473  -4.985   4.595  1.00  0.00     0.338 C 
ATOM     25  O   UNL     1       3.133  -4.144   4.005  1.00  0.00    -0.246 OA
BRANCH  24  26
ATOM     26  C   UNL     1       1.767  -4.722   5.861  1.00  0.00     0.060 A 
ATOM     27  C   UNL     1       1.723  -5.645   6.911  1.00  0.00     0.016 A 
ATOM     28  C   UNL     1       1.119  -3.493   5.976  1.00  0.00     0.016 A 
ATOM     29  C   UNL     1       0.985  -5.347   8.065  1.00  0.00     0.010 A 
ATOM     30  C   UNL     1       0.393  -3.201   7.125  1.00  0.00     0.010 A 
ATOM     31  C   UNL     1       0.288  -4.133   8.164  1.00  0.00    -0.014 A 
BRANCH  31  32
ATOM     32  C   UNL     1      -0.465  -3.745   9.380  1.00  0.00     0.031 A 
ATOM     33  C   UNL     1      -1.953  -3.931   9.482  1.00  0.00     0.074 A 
ATOM     34  C   UNL     1       0.193  -3.067  10.336  1.00  0.00     0.049 A 
ATOM     35  N   UNL     1      -2.773  -3.552  10.433  1.00  0.00    -0.248 NA
ATOM     36  C   UNL     1      -2.616  -4.567   8.338  1.00  0.00     0.031 C 
ATOM     37  C   UNL     1       1.615  -2.727  10.293  1.00  0.00     0.029 A 
ATOM     38  N   UNL     1      -0.250  -2.529  11.514  1.00  0.00    -0.354 N 
ATOM     39  C   UNL     1      -4.054  -3.852   9.981  1.00  0.00     0.074 A 
ATOM     40  C   UNL     1      -3.897  -4.426   8.659  1.00  0.00     0.031 C 
ATOM     41  C   UNL     1       1.936  -2.061  11.413  1.00  0.00     0.029 A 
ATOM     42  C   UNL     1       0.744  -1.928  12.244  1.00  0.00     0.049 A 
ATOM     43  H   UNL     1      -1.188  -2.570  11.809  1.00  0.00     0.167 HD
ATOM     44  C   UNL     1      -5.242  -3.653  10.611  1.00  0.00     0.037 A 
ATOM     45  C   UNL     1       0.702  -1.362  13.462  1.00  0.00     0.037 A 
ATOM     46  C   UNL     1      -5.366  -3.143  11.959  1.00  0.00     0.049 A 
ATOM     47  C   UNL     1      -0.597  -1.329  14.215  1.00  0.00     0.074 A 
ATOM     48  C   UNL     1      -6.503  -3.053  12.748  1.00  0.00     0.029 A 
ATOM     49  N   UNL     1      -4.320  -2.642  12.721  1.00  0.00    -0.354 N 
ATOM     50  N   UNL     1      -1.789  -1.714  13.831  1.00  0.00    -0.248 NA
ATOM     51  C   UNL     1      -0.546  -0.804  15.586  1.00  0.00     0.031 C 
ATOM     52  C   UNL     1      -6.152  -2.465  13.969  1.00  0.00     0.029 A 
ATOM     53  C   UNL     1      -4.786  -2.241  13.966  1.00  0.00     0.049 A 
ATOM     54  H   UNL     1      -3.384  -2.580  12.422  1.00  0.00     0.167 HD
ATOM     55  C   UNL     1      -2.624  -1.504  14.920  1.00  0.00     0.074 A 
ATOM     56  C   UNL     1      -1.795  -0.986  15.988  1.00  0.00     0.031 C 
ATOM     57  C   UNL     1      -3.959  -1.717  15.024  1.00  0.00     0.037 A 
BRANCH  44  58
ATOM     58  C   UNL     1      -6.513  -3.996   9.873  1.00  0.00     0.057 A 
ATOM     59  C   UNL     1      -7.476  -3.008   9.609  1.00  0.00     0.134 A 
ATOM     60  C   UNL     1      -6.832  -5.307   9.496  1.00  0.00     0.134 A 
ATOM     61  F   UNL     1      -7.258  -1.731   9.958  1.00  0.00    -0.206 F 
ATOM     62  C   UNL     1      -8.698  -3.312   9.003  1.00  0.00     0.040 A 
ATOM     63  C   UNL     1      -8.033  -5.617   8.851  1.00  0.00     0.040 A 
ATOM     64  F   UNL     1      -5.971  -6.310   9.725  1.00  0.00    -0.206 F 
ATOM     65  C   UNL     1      -8.975  -4.619   8.612  1.00  0.00     0.006 A 
ENDBRANCH  44  58
BRANCH  45  66
ATOM     66  C   UNL     1       1.954  -0.883  14.091  1.00  0.00     0.057 A 
ATOM     67  C   UNL     1       2.607   0.275  13.658  1.00  0.00     0.134 A 
ATOM     68  C   UNL     1       2.528  -1.595  15.152  1.00  0.00     0.134 A 
ATOM     69  F   UNL     1       2.118   0.985  12.631  1.00  0.00    -0.206 F 
ATOM     70  C   UNL     1       3.785   0.712  14.264  1.00  0.00     0.040 A 
ATOM     71  C   UNL     1       3.687  -1.154  15.785  1.00  0.00     0.040 A 
ATOM     72  F   UNL     1       1.939  -2.710  15.611  1.00  0.00    -0.206 F 
ATOM     73  C   UNL     1       4.321   0.003  15.339  1.00  0.00     0.006 A 
ENDBRANCH  45  66
BRANCH  57  74
ATOM     74  C   UNL     1      -4.593  -1.417  16.354  1.00  0.00     0.057 A 
ATOM     75  C   UNL     1      -5.075  -2.454  17.164  1.00  0.00     0.134 A 
ATOM     76  C   UNL     1      -4.712  -0.110  16.845  1.00  0.00     0.134 A 
ATOM     77  F   UNL     1      -5.004  -3.729  16.755  1.00  0.00    -0.206 F 
ATOM     78  C   UNL     1      -5.637  -2.203  18.418  1.00  0.00     0.040 A 
ATOM     79  C   UNL     1      -5.242   0.152  18.111  1.00  0.00     0.040 A 
ATOM     80  F   UNL     1      -4.260   0.930  16.128  1.00  0.00    -0.206 F 
ATOM     81  C   UNL     1      -5.709  -0.897  18.900  1.00  0.00     0.006 A 
ENDBRANCH  57  74
ENDBRANCH  31  32
ENDBRANCH  24  26
ENDBRANCH  23  24
ENDBRANCH   1  23
TORSDOF 11
