REMARK SMILES CN(C)c1ccc(CCC(=O)N2C[C@@H](C(=O)OCCOC(=O)c3ccc(-c4c5nc(c(-c6c(F)cccc6F)c6ccc([nH]6)c(-c6c(F)cccc6F)c6nc(c(-c7c(F)cccc7F)c7ccc4[nH]7)C=C6)C=C5)cc3)[C@H](c3cccnc3)C2)cc1
REMARK SMILES IDX 17 1 15 2 16 3 14 4 12 5 13 6 84 7 77 8 10 9 11 10 9 11 8 12
REMARK SMILES IDX 7 13 4 14 5 15 86 16 6 17 85 18 2 19 1 20 3 21 78 22 79 23
REMARK SMILES IDX 83 24 80 25 82 26 81 27 18 28 19 29 20 30 21 31 22 32 23 33
REMARK SMILES IDX 24 34 76 35 25 36 75 37 26 38 27 39 28 40 69 41 29 42 74 43
REMARK SMILES IDX 68 44 70 45 30 46 73 47 67 48 66 49 31 51 57 52 40 53 56 54
REMARK SMILES IDX 41 55 44 56 55 57 71 58 42 59 43 60 54 62 72 63 45 64 32 65
REMARK SMILES IDX 33 66 38 67 34 68 35 69 37 70 39 71 36 72 58 73 59 74 64 75
REMARK SMILES IDX 60 76 61 77 63 78 65 79 62 80 46 81 47 82 52 83 48 84 49 85
REMARK SMILES IDX 51 86 53 87 50 88
REMARK H PARENT 70 50 44 61
REMARK Flexibility Score: inf
ROOT
ATOM      1  O   UNL     1      -1.201   0.247   3.082  1.00  0.00    -0.462 OA
ENDROOT
BRANCH   1   2
ATOM      2  C   UNL     1      -1.813  -0.938   3.391  1.00  0.00     0.311 C 
ATOM      3  O   UNL     1      -2.781  -1.397   2.829  1.00  0.00    -0.252 OA
BRANCH   2   4
ATOM      4  C   UNL     1      -1.024  -1.605   4.505  1.00  0.00     0.128 C 
ATOM      5  N   UNL     1      -0.467  -3.703   5.370  1.00  0.00    -0.341 N 
ATOM      6  C   UNL     1      -0.553  -2.994   4.120  1.00  0.00     0.135 C 
ATOM      7  C   UNL     1      -1.464  -3.190   6.301  1.00  0.00     0.128 C 
ATOM      8  C   UNL     1      -1.831  -1.757   5.816  1.00  0.00     0.056 C 
BRANCH   5   9
ATOM      9  C   UNL     1       0.237  -4.869   5.601  1.00  0.00     0.222 C 
ATOM     10  O   UNL     1      -0.104  -5.655   6.487  1.00  0.00    -0.275 OA
BRANCH   9  11
ATOM     11  C   UNL     1       1.542  -5.098   4.834  1.00  0.00     0.105 C 
BRANCH  11  12
ATOM     12  C   UNL     1       1.477  -6.033   3.616  1.00  0.00     0.045 C 
BRANCH  12  13
ATOM     13  C   UNL     1       1.455  -5.285   2.302  1.00  0.00    -0.047 A 
ATOM     14  C   UNL     1       1.222  -3.337   0.307  1.00  0.00     0.036 A 
ATOM     15  C   UNL     1       0.161  -4.219   0.562  1.00  0.00     0.026 A 
ATOM     16  C   UNL     1       2.469  -3.626   0.861  1.00  0.00     0.026 A 
ATOM     17  C   UNL     1       0.274  -5.185   1.562  1.00  0.00     0.006 A 
ATOM     18  C   UNL     1       2.584  -4.573   1.876  1.00  0.00     0.006 A 
BRANCH  14  19
ATOM     19  N   UNL     1       0.892  -2.002  -0.001  1.00  0.00    -0.378 N 
ATOM     20  C   UNL     1       1.704  -1.134  -0.839  1.00  0.00     0.143 C 
ATOM     21  C   UNL     1       0.536  -1.409   1.274  1.00  0.00     0.143 C 
ENDBRANCH  14  19
ENDBRANCH  12  13
ENDBRANCH  11  12
ENDBRANCH   9  11
ENDBRANCH   5   9
BRANCH   8  22
ATOM     22  C   UNL     1      -1.516  -0.561   6.711  1.00  0.00    -0.024 A 
ATOM     23  C   UNL     1      -1.677   0.745   6.209  1.00  0.00     0.007 A 
ATOM     24  C   UNL     1      -1.011  -0.647   8.002  1.00  0.00     0.115 A 
ATOM     25  C   UNL     1      -1.226   1.851   6.919  1.00  0.00     0.020 A 
ATOM     26  N   UNL     1      -0.599   0.417   8.738  1.00  0.00    -0.264 NA
ATOM     27  C   UNL     1      -0.689   1.637   8.169  1.00  0.00     0.111 A 
ENDBRANCH   8  22
ENDBRANCH   2   4
ENDBRANCH   1   2
BRANCH   1  28
ATOM     28  C   UNL     1      -1.621   0.952   1.898  1.00  0.00     0.274 C 
BRANCH  28  29
ATOM     29  C   UNL     1      -0.675   2.156   1.687  1.00  0.00     0.275 C 
BRANCH  29  30
ATOM     30  O   UNL     1       0.732   1.776   1.629  1.00  0.00    -0.458 OA
BRANCH  30  31
ATOM     31  C   UNL     1       1.450   1.896   2.779  1.00  0.00     0.338 C 
ATOM     32  O   UNL     1       1.066   2.401   3.820  1.00  0.00    -0.246 OA
BRANCH  31  33
ATOM     33  C   UNL     1       2.746   1.165   2.675  1.00  0.00     0.060 A 
ATOM     34  C   UNL     1       2.945   0.051   3.503  1.00  0.00     0.016 A 
ATOM     35  C   UNL     1       3.786   1.584   1.841  1.00  0.00     0.016 A 
ATOM     36  C   UNL     1       4.154  -0.666   3.469  1.00  0.00     0.010 A 
ATOM     37  C   UNL     1       5.014   0.888   1.841  1.00  0.00     0.010 A 
ATOM     38  C   UNL     1       5.215  -0.244   2.652  1.00  0.00    -0.014 A 
BRANCH  38  39
ATOM     39  C   UNL     1       6.537  -0.948   2.676  1.00  0.00     0.031 A 
ATOM     40  C   UNL     1       7.559  -0.614   3.725  1.00  0.00     0.074 A 
ATOM     41  C   UNL     1       6.848  -1.895   1.770  1.00  0.00     0.049 A 
ATOM     42  N   UNL     1       8.816  -0.976   3.795  1.00  0.00    -0.248 NA
ATOM     43  C   UNL     1       7.115   0.247   4.828  1.00  0.00     0.031 C 
ATOM     44  C   UNL     1       5.950  -2.353   0.722  1.00  0.00     0.029 A 
ATOM     45  N   UNL     1       7.988  -2.643   1.574  1.00  0.00    -0.354 N 
ATOM     46  C   UNL     1       9.326  -0.361   4.929  1.00  0.00     0.074 A 
ATOM     47  C   UNL     1       8.233   0.379   5.529  1.00  0.00     0.031 C 
ATOM     48  C   UNL     1       6.537  -3.338   0.025  1.00  0.00     0.029 A 
ATOM     49  C   UNL     1       7.915  -3.487   0.488  1.00  0.00     0.049 A 
ATOM     50  H   UNL     1       8.780  -2.580   2.155  1.00  0.00     0.167 HD
ATOM     51  C   UNL     1      10.593  -0.385   5.409  1.00  0.00     0.037 A 
ATOM     52  C   UNL     1       8.863  -4.229  -0.125  1.00  0.00     0.037 A 
ATOM     53  C   UNL     1      11.689  -1.099   4.803  1.00  0.00     0.049 A 
ATOM     54  C   UNL     1      10.287  -4.157   0.363  1.00  0.00     0.074 A 
ATOM     55  C   UNL     1      13.015  -1.144   5.203  1.00  0.00     0.029 A 
ATOM     56  N   UNL     1      11.591  -1.889   3.668  1.00  0.00    -0.354 N 
ATOM     57  N   UNL     1      10.773  -3.515   1.397  1.00  0.00    -0.248 NA
ATOM     58  C   UNL     1      11.303  -4.869  -0.429  1.00  0.00     0.031 C 
ATOM     59  C   UNL     1      13.726  -1.923   4.284  1.00  0.00     0.029 A 
ATOM     60  C   UNL     1      12.835  -2.403   3.339  1.00  0.00     0.049 A 
ATOM     61  H   UNL     1      10.759  -2.059   3.169  1.00  0.00     0.167 HD
ATOM     62  C   UNL     1      12.145  -3.740   1.375  1.00  0.00     0.074 A 
ATOM     63  C   UNL     1      12.413  -4.603   0.245  1.00  0.00     0.031 C 
ATOM     64  C   UNL     1      13.097  -3.260   2.211  1.00  0.00     0.037 A 
BRANCH  51  65
ATOM     65  C   UNL     1      10.879   0.450   6.620  1.00  0.00     0.057 A 
ATOM     66  C   UNL     1      10.449   0.077   7.899  1.00  0.00     0.134 A 
ATOM     67  C   UNL     1      11.612   1.639   6.504  1.00  0.00     0.134 A 
ATOM     68  F   UNL     1       9.730  -1.042   8.074  1.00  0.00    -0.206 F 
ATOM     69  C   UNL     1      10.719   0.868   9.017  1.00  0.00     0.040 A 
ATOM     70  C   UNL     1      11.908   2.426   7.617  1.00  0.00     0.040 A 
ATOM     71  F   UNL     1      12.057   2.050   5.307  1.00  0.00    -0.206 F 
ATOM     72  C   UNL     1      11.455   2.044   8.878  1.00  0.00     0.006 A 
ENDBRANCH  51  65
BRANCH  52  73
ATOM     73  C   UNL     1       8.537  -5.009  -1.352  1.00  0.00     0.057 A 
ATOM     74  C   UNL     1       8.633  -6.405  -1.380  1.00  0.00     0.134 A 
ATOM     75  C   UNL     1       8.168  -4.370  -2.544  1.00  0.00     0.134 A 
ATOM     76  F   UNL     1       9.025  -7.077  -0.287  1.00  0.00    -0.206 F 
ATOM     77  C   UNL     1       8.379  -7.135  -2.545  1.00  0.00     0.040 A 
ATOM     78  C   UNL     1       7.878  -5.088  -3.705  1.00  0.00     0.040 A 
ATOM     79  F   UNL     1       8.073  -3.033  -2.595  1.00  0.00    -0.206 F 
ATOM     80  C   UNL     1       7.991  -6.476  -3.709  1.00  0.00     0.006 A 
ENDBRANCH  52  73
BRANCH  64  81
ATOM     81  C   UNL     1      14.518  -3.668   1.949  1.00  0.00     0.057 A 
ATOM     82  C   UNL     1      15.258  -3.122   0.893  1.00  0.00     0.134 A 
ATOM     83  C   UNL     1      15.167  -4.581   2.789  1.00  0.00     0.134 A 
ATOM     84  F   UNL     1      14.690  -2.254   0.042  1.00  0.00    -0.206 F 
ATOM     85  C   UNL     1      16.591  -3.478   0.675  1.00  0.00     0.040 A 
ATOM     86  C   UNL     1      16.505  -4.929   2.595  1.00  0.00     0.040 A 
ATOM     87  F   UNL     1      14.516  -5.138   3.822  1.00  0.00    -0.206 F 
ATOM     88  C   UNL     1      17.220  -4.378   1.533  1.00  0.00     0.006 A 
ENDBRANCH  64  81
ENDBRANCH  38  39
ENDBRANCH  31  33
ENDBRANCH  30  31
ENDBRANCH  29  30
ENDBRANCH  28  29
ENDBRANCH   1  28
TORSDOF 17
