REMARK SMILES Cc1ccc(OCC(=O)NC(=S)Nc2ccc(C(=O)OCCOC(=O)c3ccc(-c4c5nc(c(-c6c(F)cccc6F)c6ccc([nH]6)c(-c6c(F)cccc6F)c6nc(c(-c7c(F)cccc7F)c7ccc4[nH]7)C=C6)C=C5)cc3)cc2)cc1
REMARK SMILES IDX 18 1 19 2 17 3 14 4 15 5 81 6 16 7 80 8 13 9 11 11 12 12
REMARK SMILES IDX 10 13 8 14 9 15 7 17 6 18 5 19 1 20 2 21 3 22 83 23 4 24
REMARK SMILES IDX 82 25 20 26 21 27 22 28 23 29 24 30 25 31 26 32 27 33 79 34
REMARK SMILES IDX 28 35 78 36 29 37 30 38 31 39 72 40 32 41 77 42 71 43 73 44
REMARK SMILES IDX 33 45 76 46 70 47 69 48 34 50 60 51 43 52 59 53 44 54 47 55
REMARK SMILES IDX 58 56 74 57 45 58 46 59 57 61 75 62 48 63 35 64 36 65 41 66
REMARK SMILES IDX 37 67 38 68 40 69 42 70 39 71 61 72 62 73 67 74 63 75 64 76
REMARK SMILES IDX 66 77 68 78 65 79 49 80 50 81 55 82 51 83 52 84 54 85 56 86
REMARK SMILES IDX 53 87
REMARK H PARENT 13 10 10 16 73 49 47 60
REMARK Flexibility Score: inf
ROOT
ATOM      1  C   UNL     1      -2.698  -0.153  -3.980  1.00  0.00     0.338 C 
ATOM      2  O   UNL     1      -2.581  -0.992  -4.867  1.00  0.00    -0.246 OA
ENDROOT
BRANCH   1   3
ATOM      3  C   UNL     1      -3.362  -0.371  -2.685  1.00  0.00     0.060 A 
ATOM      4  C   UNL     1      -4.635  -0.572  -0.188  1.00  0.00     0.040 A 
ATOM      5  C   UNL     1      -3.266  -0.411  -0.277  1.00  0.00     0.027 A 
ATOM      6  C   UNL     1      -5.353  -0.779  -1.372  1.00  0.00     0.027 A 
ATOM      7  C   UNL     1      -2.626  -0.248  -1.508  1.00  0.00     0.018 A 
ATOM      8  C   UNL     1      -4.716  -0.702  -2.619  1.00  0.00     0.018 A 
BRANCH   4   9
ATOM      9  N   UNL     1      -5.303  -0.704   1.034  1.00  0.00    -0.332 N 
ATOM     10  H   UNL     1      -6.181  -1.135   0.926  1.00  0.00     0.169 HD
BRANCH   9  11
ATOM     11  C   UNL     1      -5.052  -0.393   2.317  1.00  0.00     0.177 C 
ATOM     12  S   UNL     1      -5.755  -1.394   3.475  1.00  0.00    -0.040 S 
BRANCH  11  13
ATOM     13  N   UNL     1      -4.515   0.775   2.800  1.00  0.00    -0.300 N 
ATOM     14  C   UNL     1      -3.921   2.002   2.491  1.00  0.00     0.264 C 
ATOM     15  O   UNL     1      -4.337   3.010   3.073  1.00  0.00    -0.271 OA
ATOM     16  H   UNL     1      -4.574   0.729   3.782  1.00  0.00     0.172 HD
BRANCH  14  17
ATOM     17  C   UNL     1      -2.711   2.073   1.591  1.00  0.00     0.329 C 
BRANCH  17  18
ATOM     18  O   UNL     1      -1.795   1.127   2.148  1.00  0.00    -0.484 OA
BRANCH  18  19
ATOM     19  C   UNL     1      -0.633   0.909   1.471  1.00  0.00     0.120 A 
ATOM     20  C   UNL     1       3.075  -0.174  -0.419  1.00  0.00     0.044 C 
ATOM     21  C   UNL     1       1.773   0.212   0.217  1.00  0.00    -0.051 A 
ATOM     22  C   UNL     1       0.979  -0.774   0.805  1.00  0.00     0.007 A 
ATOM     23  C   UNL     1       1.339   1.546   0.243  1.00  0.00     0.007 A 
ATOM     24  C   UNL     1      -0.198  -0.420   1.457  1.00  0.00     0.047 A 
ATOM     25  C   UNL     1       0.134   1.896   0.864  1.00  0.00     0.047 A 
ENDBRANCH  18  19
ENDBRANCH  17  18
ENDBRANCH  14  17
ENDBRANCH  11  13
ENDBRANCH   9  11
ENDBRANCH   4   9
ENDBRANCH   1   3
BRANCH   1  26
ATOM     26  O   UNL     1      -2.297   1.129  -4.012  1.00  0.00    -0.458 OA
BRANCH  26  27
ATOM     27  C   UNL     1      -1.558   1.624  -5.135  1.00  0.00     0.275 C 
BRANCH  27  28
ATOM     28  C   UNL     1      -2.000   1.295  -6.578  1.00  0.00     0.275 C 
BRANCH  28  29
ATOM     29  O   UNL     1      -3.362   0.940  -6.960  1.00  0.00    -0.458 OA
BRANCH  29  30
ATOM     30  C   UNL     1      -4.562   1.202  -6.407  1.00  0.00     0.338 C 
ATOM     31  O   UNL     1      -5.577   0.569  -6.669  1.00  0.00    -0.246 OA
BRANCH  30  32
ATOM     32  C   UNL     1      -4.619   2.295  -5.444  1.00  0.00     0.060 A 
ATOM     33  C   UNL     1      -5.369   2.130  -4.268  1.00  0.00     0.016 A 
ATOM     34  C   UNL     1      -3.890   3.450  -5.697  1.00  0.00     0.016 A 
ATOM     35  C   UNL     1      -5.325   3.102  -3.284  1.00  0.00     0.010 A 
ATOM     36  C   UNL     1      -3.748   4.360  -4.685  1.00  0.00     0.010 A 
ATOM     37  C   UNL     1      -4.519   4.212  -3.519  1.00  0.00    -0.014 A 
BRANCH  37  38
ATOM     38  C   UNL     1      -4.750   5.479  -2.863  1.00  0.00     0.031 A 
ATOM     39  C   UNL     1      -4.030   5.890  -1.661  1.00  0.00     0.074 A 
ATOM     40  C   UNL     1      -5.522   6.282  -3.626  1.00  0.00     0.049 A 
ATOM     41  N   UNL     1      -4.482   6.768  -0.838  1.00  0.00    -0.248 NA
ATOM     42  C   UNL     1      -2.745   5.325  -1.256  1.00  0.00     0.031 C 
ATOM     43  C   UNL     1      -5.671   7.721  -3.634  1.00  0.00     0.029 A 
ATOM     44  N   UNL     1      -6.428   5.842  -4.595  1.00  0.00    -0.354 N 
ATOM     45  C   UNL     1      -3.429   7.141  -0.033  1.00  0.00     0.074 A 
ATOM     46  C   UNL     1      -2.423   6.121  -0.226  1.00  0.00     0.031 C 
ATOM     47  C   UNL     1      -6.763   8.033  -4.362  1.00  0.00     0.029 A 
ATOM     48  C   UNL     1      -7.441   6.785  -4.704  1.00  0.00     0.049 A 
ATOM     49  H   UNL     1      -6.360   5.006  -5.112  1.00  0.00     0.167 HD
ATOM     50  C   UNL     1      -3.438   8.387   0.523  1.00  0.00     0.037 A 
ATOM     51  C   UNL     1      -8.692   6.420  -4.292  1.00  0.00     0.037 A 
ATOM     52  C   UNL     1      -4.612   9.126   0.061  1.00  0.00     0.049 A 
ATOM     53  C   UNL     1      -9.082   7.182  -3.050  1.00  0.00     0.074 A 
ATOM     54  C   UNL     1      -4.765   9.992  -1.010  1.00  0.00     0.029 A 
ATOM     55  N   UNL     1      -5.891   8.729   0.435  1.00  0.00    -0.354 N 
ATOM     56  N   UNL     1      -8.232   7.603  -2.152  1.00  0.00    -0.248 NA
ATOM     57  C   UNL     1     -10.453   7.587  -2.771  1.00  0.00     0.031 C 
ATOM     58  C   UNL     1      -6.143  10.076  -1.315  1.00  0.00     0.029 A 
ATOM     59  C   UNL     1      -6.830   9.266  -0.427  1.00  0.00     0.049 A 
ATOM     60  H   UNL     1      -6.099   8.149   1.204  1.00  0.00     0.167 HD
ATOM     61  C   UNL     1      -8.895   8.378  -1.238  1.00  0.00     0.074 A 
ATOM     62  C   UNL     1     -10.284   8.321  -1.658  1.00  0.00     0.031 C 
ATOM     63  C   UNL     1      -8.252   9.041  -0.231  1.00  0.00     0.037 A 
BRANCH  50  64
ATOM     64  C   UNL     1      -2.233   9.054   1.145  1.00  0.00     0.057 A 
ATOM     65  C   UNL     1      -2.038  10.447   1.038  1.00  0.00     0.134 A 
ATOM     66  C   UNL     1      -1.227   8.379   1.856  1.00  0.00     0.134 A 
ATOM     67  F   UNL     1      -2.943  11.248   0.463  1.00  0.00    -0.206 F 
ATOM     68  C   UNL     1      -0.895  11.101   1.515  1.00  0.00     0.040 A 
ATOM     69  C   UNL     1      -0.062   9.017   2.314  1.00  0.00     0.040 A 
ATOM     70  F   UNL     1      -1.344   7.080   2.165  1.00  0.00    -0.206 F 
ATOM     71  C   UNL     1       0.113  10.383   2.135  1.00  0.00     0.006 A 
ENDBRANCH  50  64
BRANCH  51  72
ATOM     72  C   UNL     1      -9.021   4.982  -4.561  1.00  0.00     0.057 A 
ATOM     73  C   UNL     1      -8.986   4.516  -5.892  1.00  0.00     0.134 A 
ATOM     74  C   UNL     1      -9.051   4.003  -3.562  1.00  0.00     0.134 A 
ATOM     75  F   UNL     1      -8.953   5.392  -6.910  1.00  0.00    -0.206 F 
ATOM     76  C   UNL     1      -8.880   3.158  -6.211  1.00  0.00     0.040 A 
ATOM     77  C   UNL     1      -8.964   2.635  -3.870  1.00  0.00     0.040 A 
ATOM     78  F   UNL     1      -9.077   4.345  -2.267  1.00  0.00    -0.206 F 
ATOM     79  C   UNL     1      -8.845   2.212  -5.194  1.00  0.00     0.006 A 
ENDBRANCH  51  72
BRANCH  63  80
ATOM     80  C   UNL     1      -8.912   9.667   0.971  1.00  0.00     0.057 A 
ATOM     81  C   UNL     1     -10.141   9.245   1.494  1.00  0.00     0.134 A 
ATOM     82  C   UNL     1      -8.227  10.630   1.750  1.00  0.00     0.134 A 
ATOM     83  F   UNL     1     -10.843   8.253   0.932  1.00  0.00    -0.206 F 
ATOM     84  C   UNL     1     -10.682   9.787   2.665  1.00  0.00     0.040 A 
ATOM     85  C   UNL     1      -8.726  11.125   2.956  1.00  0.00     0.040 A 
ATOM     86  F   UNL     1      -7.027  11.112   1.396  1.00  0.00    -0.206 F 
ATOM     87  C   UNL     1      -9.968  10.718   3.409  1.00  0.00     0.006 A 
ENDBRANCH  63  80
ENDBRANCH  37  38
ENDBRANCH  30  32
ENDBRANCH  29  30
ENDBRANCH  28  29
ENDBRANCH  27  28
ENDBRANCH  26  27
ENDBRANCH   1  26
TORSDOF 17
