REMARK SMILES CS(=O)(=O)c1ccc(/C=C(/C(=O)OCCOC(=O)c2ccc(-c3c4nc(c(-c5c(F)cccc5F)c5ccc([nH]5)c(-c5c(F)cccc5F)c5nc(c(-c6c(F)cccc6F)c6ccc3[nH]6)C=C5)C=C4)cc2)c2ccc(-c3ccc(F)cc3F)cc2)cc1
REMARK SMILES IDX 14 1 13 2 11 3 12 4 10 5 9 6 8 7 5 8 6 9 88 10 7 11 87 12
REMARK SMILES IDX 2 13 1 14 3 15 4 16 73 17 74 18 86 19 75 20 85 21 76 22
REMARK SMILES IDX 77 23 78 24 83 25 79 26 82 27 84 28 80 29 81 30 15 31 16 32
REMARK SMILES IDX 17 33 18 34 19 35 20 36 72 37 21 38 71 39 22 40 23 41 24 42
REMARK SMILES IDX 65 43 25 44 70 45 64 46 66 47 26 48 69 49 63 50 62 51 27 53
REMARK SMILES IDX 53 54 36 55 52 56 37 57 40 58 51 59 67 60 38 61 39 62 50 64
REMARK SMILES IDX 68 65 41 66 28 67 29 68 34 69 30 70 31 71 33 72 35 73 32 74
REMARK SMILES IDX 54 75 55 76 60 77 56 78 57 79 59 80 61 81 58 82 42 83 43 84
REMARK SMILES IDX 48 85 44 86 45 87 47 88 49 89 46 90
REMARK H PARENT 66 52 40 63
REMARK Flexibility Score: inf
ROOT
ATOM      1  C   UNL     1       3.523  -9.634   3.865  1.00  0.00     0.275 C 
ENDROOT
BRANCH   1   2
ATOM      2  O   UNL     1       2.838  -8.377   3.681  1.00  0.00    -0.458 OA
BRANCH   2   3
ATOM      3  C   UNL     1       2.630  -8.014   2.389  1.00  0.00     0.338 C 
ATOM      4  O   UNL     1       3.006  -8.637   1.406  1.00  0.00    -0.246 OA
BRANCH   3   5
ATOM      5  C   UNL     1       1.825  -6.759   2.282  1.00  0.00     0.067 C 
ATOM      6  C   UNL     1       2.163  -5.698   3.051  1.00  0.00     0.024 C 
BRANCH   6   7
ATOM      7  C   UNL     1       1.694  -4.297   2.917  1.00  0.00    -0.025 A 
ATOM      8  C   UNL     1       1.053  -1.621   2.358  1.00  0.00     0.067 A 
ATOM      9  C   UNL     1       0.090  -2.608   2.189  1.00  0.00     0.021 A 
ATOM     10  C   UNL     1       2.298  -1.933   2.904  1.00  0.00     0.021 A 
ATOM     11  C   UNL     1       0.406  -3.931   2.501  1.00  0.00     0.009 A 
ATOM     12  C   UNL     1       2.615  -3.270   3.174  1.00  0.00     0.009 A 
BRANCH   8  13
ATOM     13  S   UNL     1       0.688   0.043   1.864  1.00  0.00     0.175 S 
ATOM     14  C   UNL     1       1.218   0.076   0.169  1.00  0.00     0.163 C 
ATOM     15  O   UNL     1       1.544   0.926   2.627  1.00  0.00    -0.224 OA
ATOM     16  O   UNL     1      -0.757   0.199   1.887  1.00  0.00    -0.224 OA
ENDBRANCH   8  13
ENDBRANCH   6   7
BRANCH   5  17
ATOM     17  C   UNL     1       0.801  -6.696   1.224  1.00  0.00    -0.011 A 
ATOM     18  C   UNL     1      -0.518  -7.047   1.526  1.00  0.00     0.009 A 
ATOM     19  C   UNL     1       1.100  -6.237  -0.059  1.00  0.00     0.009 A 
ATOM     20  C   UNL     1      -1.524  -6.928   0.559  1.00  0.00     0.009 A 
ATOM     21  C   UNL     1       0.086  -6.121  -1.021  1.00  0.00     0.009 A 
ATOM     22  C   UNL     1      -1.248  -6.474  -0.745  1.00  0.00    -0.015 A 
BRANCH  22  23
ATOM     23  C   UNL     1      -2.318  -6.402  -1.775  1.00  0.00     0.018 A 
ATOM     24  C   UNL     1      -3.658  -6.134  -1.417  1.00  0.00     0.015 A 
ATOM     25  C   UNL     1      -2.066  -6.614  -3.147  1.00  0.00     0.133 A 
ATOM     26  C   UNL     1      -4.677  -6.090  -2.375  1.00  0.00     0.040 A 
ATOM     27  C   UNL     1      -3.072  -6.553  -4.109  1.00  0.00     0.079 A 
ATOM     28  F   UNL     1      -0.826  -6.895  -3.578  1.00  0.00    -0.206 F 
ATOM     29  C   UNL     1      -4.372  -6.294  -3.712  1.00  0.00     0.126 A 
ATOM     30  F   UNL     1      -5.343  -6.221  -4.631  1.00  0.00    -0.207 F 
ENDBRANCH  22  23
ENDBRANCH   5  17
ENDBRANCH   3   5
ENDBRANCH   2   3
ENDBRANCH   1   2
BRANCH   1  31
ATOM     31  C   UNL     1       2.534 -10.746   4.215  1.00  0.00     0.275 C 
BRANCH  31  32
ATOM     32  O   UNL     1       1.635 -10.967   3.112  1.00  0.00    -0.458 OA
BRANCH  32  33
ATOM     33  C   UNL     1       0.326 -10.749   3.367  1.00  0.00     0.338 C 
ATOM     34  O   UNL     1      -0.181 -10.444   4.435  1.00  0.00    -0.246 OA
BRANCH  33  35
ATOM     35  C   UNL     1      -0.471 -10.893   2.133  1.00  0.00     0.060 A 
ATOM     36  C   UNL     1      -0.091 -10.221   0.978  1.00  0.00     0.016 A 
ATOM     37  C   UNL     1      -1.703 -11.547   2.178  1.00  0.00     0.016 A 
ATOM     38  C   UNL     1      -1.003 -10.076  -0.067  1.00  0.00     0.010 A 
ATOM     39  C   UNL     1      -2.566 -11.494   1.074  1.00  0.00     0.010 A 
ATOM     40  C   UNL     1      -2.263 -10.697  -0.043  1.00  0.00    -0.014 A 
BRANCH  40  41
ATOM     41  C   UNL     1      -3.269 -10.455  -1.130  1.00  0.00     0.031 A 
ATOM     42  C   UNL     1      -4.695 -10.068  -0.796  1.00  0.00     0.074 A 
ATOM     43  C   UNL     1      -2.929 -10.544  -2.433  1.00  0.00     0.049 A 
ATOM     44  N   UNL     1      -5.756 -10.059  -1.567  1.00  0.00    -0.248 NA
ATOM     45  C   UNL     1      -4.970  -9.653   0.589  1.00  0.00     0.031 C 
ATOM     46  C   UNL     1      -1.595 -10.847  -2.949  1.00  0.00     0.029 A 
ATOM     47  N   UNL     1      -3.686 -10.373  -3.570  1.00  0.00    -0.354 N 
ATOM     48  C   UNL     1      -6.830  -9.736  -0.744  1.00  0.00     0.074 A 
ATOM     49  C   UNL     1      -6.291  -9.530   0.583  1.00  0.00     0.031 C 
ATOM     50  C   UNL     1      -1.607 -10.768  -4.286  1.00  0.00     0.029 A 
ATOM     51  C   UNL     1      -2.975 -10.546  -4.733  1.00  0.00     0.049 A 
ATOM     52  H   UNL     1      -4.644 -10.147  -3.552  1.00  0.00     0.167 HD
ATOM     53  C   UNL     1      -8.144  -9.632  -1.062  1.00  0.00     0.037 A 
ATOM     54  C   UNL     1      -3.371 -10.594  -6.019  1.00  0.00     0.037 A 
ATOM     55  C   UNL     1      -8.675  -9.744  -2.398  1.00  0.00     0.049 A 
ATOM     56  C   UNL     1      -4.829 -10.486  -6.351  1.00  0.00     0.074 A 
ATOM     57  C   UNL     1      -9.992  -9.632  -2.815  1.00  0.00     0.029 A 
ATOM     58  N   UNL     1      -7.916  -9.961  -3.536  1.00  0.00    -0.354 N 
ATOM     59  N   UNL     1      -5.846 -10.299  -5.548  1.00  0.00    -0.248 NA
ATOM     60  C   UNL     1      -5.196 -10.636  -7.766  1.00  0.00     0.031 C 
ATOM     61  C   UNL     1     -10.032  -9.812  -4.202  1.00  0.00     0.029 A 
ATOM     62  C   UNL     1      -8.736  -9.996  -4.653  1.00  0.00     0.049 A 
ATOM     63  H   UNL     1      -6.938 -10.073  -3.550  1.00  0.00     0.167 HD
ATOM     64  C   UNL     1      -6.973 -10.310  -6.358  1.00  0.00     0.074 A 
ATOM     65  C   UNL     1      -6.513 -10.497  -7.718  1.00  0.00     0.031 C 
ATOM     66  C   UNL     1      -8.274 -10.189  -6.001  1.00  0.00     0.037 A 
BRANCH  53  67
ATOM     67  C   UNL     1      -9.124  -9.422   0.058  1.00  0.00     0.057 A 
ATOM     68  C   UNL     1      -9.264  -8.194   0.714  1.00  0.00     0.134 A 
ATOM     69  C   UNL     1      -9.990 -10.459   0.436  1.00  0.00     0.134 A 
ATOM     70  F   UNL     1      -8.460  -7.165   0.409  1.00  0.00    -0.206 F 
ATOM     71  C   UNL     1     -10.219  -8.009   1.718  1.00  0.00     0.040 A 
ATOM     72  C   UNL     1     -10.964 -10.279   1.420  1.00  0.00     0.040 A 
ATOM     73  F   UNL     1      -9.917 -11.659  -0.160  1.00  0.00    -0.206 F 
ATOM     74  C   UNL     1     -11.077  -9.051   2.067  1.00  0.00     0.006 A 
ENDBRANCH  53  67
BRANCH  54  75
ATOM     75  C   UNL     1      -2.366 -10.829  -7.085  1.00  0.00     0.057 A 
ATOM     76  C   UNL     1      -2.021  -9.819  -7.988  1.00  0.00     0.134 A 
ATOM     77  C   UNL     1      -1.710 -12.061  -7.210  1.00  0.00     0.134 A 
ATOM     78  F   UNL     1      -2.633  -8.626  -7.933  1.00  0.00    -0.206 F 
ATOM     79  C   UNL     1      -1.058 -10.024  -8.977  1.00  0.00     0.040 A 
ATOM     80  C   UNL     1      -0.724 -12.269  -8.173  1.00  0.00     0.040 A 
ATOM     81  F   UNL     1      -1.997 -13.069  -6.373  1.00  0.00    -0.206 F 
ATOM     82  C   UNL     1      -0.398 -11.249  -9.063  1.00  0.00     0.006 A 
ENDBRANCH  54  75
BRANCH  66  83
ATOM     83  C   UNL     1      -9.289 -10.235  -7.103  1.00  0.00     0.057 A 
ATOM     84  C   UNL     1      -9.631 -11.435  -7.738  1.00  0.00     0.134 A 
ATOM     85  C   UNL     1      -9.938  -9.069  -7.526  1.00  0.00     0.134 A 
ATOM     86  F   UNL     1      -9.032 -12.584  -7.388  1.00  0.00    -0.206 F 
ATOM     87  C   UNL     1     -10.568 -11.471  -8.772  1.00  0.00     0.040 A 
ATOM     88  C   UNL     1     -10.892  -9.095  -8.544  1.00  0.00     0.040 A 
ATOM     89  F   UNL     1      -9.660  -7.888  -6.954  1.00  0.00    -0.206 F 
ATOM     90  C   UNL     1     -11.204 -10.298  -9.175  1.00  0.00     0.006 A 
ENDBRANCH  66  83
ENDBRANCH  40  41
ENDBRANCH  33  35
ENDBRANCH  32  33
ENDBRANCH  31  32
ENDBRANCH   1  31
TORSDOF 15
