REMARK SMILES CCOc1ccc(-c2csc3ncn([C@H](C)C(=O)OCCOC(=O)c4ccc(-c5c6nc(c(-c7c(F)cccc7F)c7ccc([nH]7)c(-c7c(F)cccc7F)c7nc(c(-c8c(F)cccc8F)c8ccc5[nH]8)C=C7)C=C6)cc4)c(=O)c23)cc1
REMARK SMILES IDX 20 1 19 2 17 3 18 4 15 5 16 6 14 7 8 8 9 9 81 10 10 11 11 12
REMARK SMILES IDX 79 13 12 14 80 15 13 16 7 17 4 18 5 19 83 20 6 21 82 22 3 23
REMARK SMILES IDX 2 24 1 25 21 26 22 27 23 28 24 29 25 30 26 31 78 32 27 33
REMARK SMILES IDX 77 34 28 35 29 36 30 37 71 38 31 39 76 40 70 41 72 42 32 43
REMARK SMILES IDX 75 44 69 45 68 46 33 48 59 49 42 50 58 51 43 52 46 53 57 54
REMARK SMILES IDX 73 55 44 56 45 57 56 59 74 60 47 61 34 62 35 63 40 64 36 65
REMARK SMILES IDX 37 66 39 67 41 68 38 69 60 70 61 71 66 72 62 73 63 74 65 75
REMARK SMILES IDX 67 76 64 77 48 78 49 79 54 80 50 81 51 82 53 83 55 84 52 85
REMARK H PARENT 72 47 46 58
REMARK Flexibility Score: inf
ROOT
ATOM      1  C   UNL     1       5.412  -5.282  -0.160  1.00  0.00     0.274 C 
ENDROOT
BRANCH   1   2
ATOM      2  O   UNL     1       6.058  -5.043   1.106  1.00  0.00    -0.461 OA
BRANCH   2   3
ATOM      3  C   UNL     1       7.020  -5.949   1.444  1.00  0.00     0.329 C 
ATOM      4  O   UNL     1       7.220  -6.990   0.825  1.00  0.00    -0.250 OA
BRANCH   3   5
ATOM      5  C   UNL     1       7.728  -5.608   2.759  1.00  0.00     0.198 C 
ATOM      6  C   UNL     1       8.041  -4.138   3.022  1.00  0.00     0.044 C 
BRANCH   5   7
ATOM      7  N   UNL     1       6.925  -6.257   3.793  1.00  0.00    -0.284 N 
ATOM      8  C   UNL     1       6.009  -9.625   5.231  1.00  0.00     0.007 A 
ATOM      9  C   UNL     1       5.002  -9.769   6.170  1.00  0.00     0.076 A 
ATOM     10  C   UNL     1       6.210  -8.240   4.914  1.00  0.00     0.085 A 
ATOM     11  S   UNL     1       4.267  -8.284   6.587  1.00  0.00    -0.123 S 
ATOM     12  C   UNL     1       5.270  -7.425   5.512  1.00  0.00     0.131 A 
ATOM     13  C   UNL     1       7.164  -7.613   4.021  1.00  0.00     0.263 A 
ATOM     14  N   UNL     1       5.085  -6.100   5.294  1.00  0.00    -0.227 NA
ATOM     15  O   UNL     1       8.110  -8.216   3.520  1.00  0.00    -0.268 OA
ATOM     16  C   UNL     1       5.892  -5.590   4.423  1.00  0.00     0.204 A 
BRANCH   8  17
ATOM     17  C   UNL     1       6.637 -10.803   4.638  1.00  0.00    -0.016 A 
ATOM     18  C   UNL     1       7.772 -13.073   3.445  1.00  0.00     0.119 A 
ATOM     19  C   UNL     1       8.592 -12.096   4.005  1.00  0.00     0.047 A 
ATOM     20  C   UNL     1       6.389 -12.937   3.504  1.00  0.00     0.047 A 
ATOM     21  C   UNL     1       8.026 -10.963   4.603  1.00  0.00     0.012 A 
ATOM     22  C   UNL     1       5.825 -11.799   4.078  1.00  0.00     0.012 A 
BRANCH  18  23
ATOM     23  O   UNL     1       8.359 -14.210   2.963  1.00  0.00    -0.494 OA
BRANCH  23  24
ATOM     24  C   UNL     1       8.190 -14.393   1.551  1.00  0.00     0.226 C 
ATOM     25  C   UNL     1       6.956 -15.221   1.227  1.00  0.00     0.049 C 
ENDBRANCH  23  24
ENDBRANCH  18  23
ENDBRANCH   8  17
ENDBRANCH   5   7
ENDBRANCH   3   5
ENDBRANCH   2   3
ENDBRANCH   1   2
BRANCH   1  26
ATOM     26  C   UNL     1       6.138  -4.590  -1.310  1.00  0.00     0.275 C 
BRANCH  26  27
ATOM     27  O   UNL     1       7.446  -5.122  -1.531  1.00  0.00    -0.458 OA
BRANCH  27  28
ATOM     28  C   UNL     1       8.411  -4.517  -0.805  1.00  0.00     0.338 C 
ATOM     29  O   UNL     1       8.253  -3.761   0.140  1.00  0.00    -0.246 OA
BRANCH  28  30
ATOM     30  C   UNL     1       9.724  -4.713  -1.412  1.00  0.00     0.060 A 
ATOM     31  C   UNL     1      10.837  -4.312  -0.661  1.00  0.00     0.016 A 
ATOM     32  C   UNL     1       9.800  -4.957  -2.787  1.00  0.00     0.016 A 
ATOM     33  C   UNL     1      11.997  -3.986  -1.327  1.00  0.00     0.010 A 
ATOM     34  C   UNL     1      10.953  -4.614  -3.451  1.00  0.00     0.010 A 
ATOM     35  C   UNL     1      12.009  -4.067  -2.722  1.00  0.00    -0.014 A 
BRANCH  35  36
ATOM     36  C   UNL     1      13.197  -3.622  -3.417  1.00  0.00     0.031 A 
ATOM     37  C   UNL     1      14.336  -4.564  -3.336  1.00  0.00     0.074 A 
ATOM     38  C   UNL     1      13.192  -2.530  -4.203  1.00  0.00     0.049 A 
ATOM     39  N   UNL     1      15.525  -4.344  -2.884  1.00  0.00    -0.248 NA
ATOM     40  C   UNL     1      14.080  -5.964  -3.713  1.00  0.00     0.031 C 
ATOM     41  C   UNL     1      12.041  -1.714  -4.600  1.00  0.00     0.029 A 
ATOM     42  N   UNL     1      14.213  -1.999  -4.927  1.00  0.00    -0.354 N 
ATOM     43  C   UNL     1      16.226  -5.527  -3.094  1.00  0.00     0.074 A 
ATOM     44  C   UNL     1      15.258  -6.528  -3.454  1.00  0.00     0.031 C 
ATOM     45  C   UNL     1      12.389  -0.949  -5.659  1.00  0.00     0.029 A 
ATOM     46  C   UNL     1      13.803  -1.142  -5.936  1.00  0.00     0.049 A 
ATOM     47  H   UNL     1      15.159  -2.205  -4.749  1.00  0.00     0.167 HD
ATOM     48  C   UNL     1      17.580  -5.540  -3.197  1.00  0.00     0.037 A 
ATOM     49  C   UNL     1      14.560  -0.709  -6.974  1.00  0.00     0.037 A 
ATOM     50  C   UNL     1      18.174  -4.369  -2.610  1.00  0.00     0.049 A 
ATOM     51  C   UNL     1      15.985  -0.933  -6.618  1.00  0.00     0.074 A 
ATOM     52  C   UNL     1      18.154  -3.799  -1.351  1.00  0.00     0.029 A 
ATOM     53  N   UNL     1      18.655  -3.396  -3.449  1.00  0.00    -0.354 N 
ATOM     54  N   UNL     1      16.630  -0.265  -5.705  1.00  0.00    -0.248 NA
ATOM     55  C   UNL     1      16.593  -2.197  -7.008  1.00  0.00     0.031 C 
ATOM     56  C   UNL     1      18.159  -2.392  -1.580  1.00  0.00     0.029 A 
ATOM     57  C   UNL     1      18.219  -2.191  -2.959  1.00  0.00     0.049 A 
ATOM     58  H   UNL     1      19.209  -3.535  -4.250  1.00  0.00     0.167 HD
ATOM     59  C   UNL     1      17.461  -1.199  -5.104  1.00  0.00     0.074 A 
ATOM     60  C   UNL     1      17.479  -2.336  -6.019  1.00  0.00     0.031 C 
ATOM     61  C   UNL     1      17.825  -1.081  -3.793  1.00  0.00     0.037 A 
BRANCH  48  62
ATOM     62  C   UNL     1      18.318  -6.435  -4.158  1.00  0.00     0.057 A 
ATOM     63  C   UNL     1      19.715  -6.536  -4.071  1.00  0.00     0.134 A 
ATOM     64  C   UNL     1      17.747  -6.967  -5.335  1.00  0.00     0.134 A 
ATOM     65  F   UNL     1      20.376  -6.040  -3.014  1.00  0.00    -0.206 F 
ATOM     66  C   UNL     1      20.491  -7.072  -5.106  1.00  0.00     0.040 A 
ATOM     67  C   UNL     1      18.507  -7.554  -6.347  1.00  0.00     0.040 A 
ATOM     68  F   UNL     1      16.442  -6.853  -5.616  1.00  0.00    -0.206 F 
ATOM     69  C   UNL     1      19.887  -7.580  -6.250  1.00  0.00     0.006 A 
ENDBRANCH  48  62
BRANCH  49  70
ATOM     70  C   UNL     1      14.139  -0.393  -8.358  1.00  0.00     0.057 A 
ATOM     71  C   UNL     1      15.000   0.288  -9.232  1.00  0.00     0.134 A 
ATOM     72  C   UNL     1      13.002  -0.976  -8.946  1.00  0.00     0.134 A 
ATOM     73  F   UNL     1      16.131   0.846  -8.777  1.00  0.00    -0.206 F 
ATOM     74  C   UNL     1      14.761   0.357 -10.611  1.00  0.00     0.040 A 
ATOM     75  C   UNL     1      12.744  -0.901 -10.318  1.00  0.00     0.040 A 
ATOM     76  F   UNL     1      12.147  -1.716  -8.227  1.00  0.00    -0.206 F 
ATOM     77  C   UNL     1      13.635  -0.247 -11.159  1.00  0.00     0.006 A 
ENDBRANCH  49  70
BRANCH  61  78
ATOM     78  C   UNL     1      17.542   0.225  -3.105  1.00  0.00     0.057 A 
ATOM     79  C   UNL     1      16.255   0.753  -2.918  1.00  0.00     0.134 A 
ATOM     80  C   UNL     1      18.599   0.912  -2.497  1.00  0.00     0.134 A 
ATOM     81  F   UNL     1      15.169   0.110  -3.365  1.00  0.00    -0.206 F 
ATOM     82  C   UNL     1      16.039   1.941  -2.214  1.00  0.00     0.040 A 
ATOM     83  C   UNL     1      18.393   2.080  -1.759  1.00  0.00     0.040 A 
ATOM     84  F   UNL     1      19.851   0.435  -2.578  1.00  0.00    -0.206 F 
ATOM     85  C   UNL     1      17.110   2.606  -1.628  1.00  0.00     0.006 A 
ENDBRANCH  61  78
ENDBRANCH  35  36
ENDBRANCH  28  30
ENDBRANCH  27  28
ENDBRANCH  26  27
ENDBRANCH   1  26
TORSDOF 15
