REMARK SMILES COc1ccc(OCCNc2ccccc2C(=O)OCCOC(=O)c2ccc(-c3c4nc(c(-c5c(F)cccc5F)c5ccc([nH]5)c(-c5c(F)cccc5F)c5nc(c(-c6c(F)cccc6F)c6ccc3[nH]6)C=C5)C=C4)cc2)cc1
REMARK SMILES IDX 17 1 18 2 16 3 11 4 12 5 13 6 15 7 14 8 10 9 9 11 8 12 7 13
REMARK SMILES IDX 6 14 3 15 4 16 80 17 5 18 79 19 2 20 1 21 19 22 20 23 21 24
REMARK SMILES IDX 22 25 23 26 24 27 25 28 26 29 78 30 27 31 77 32 28 33 29 34
REMARK SMILES IDX 30 35 71 36 31 37 76 38 70 39 72 40 32 41 75 42 69 43 68 44
REMARK SMILES IDX 33 46 59 47 42 48 58 49 43 50 46 51 57 52 73 53 44 54 45 55
REMARK SMILES IDX 56 57 74 58 47 59 34 60 35 61 40 62 36 63 37 64 39 65 41 66
REMARK SMILES IDX 38 67 60 68 61 69 66 70 62 71 63 72 65 73 67 74 64 75 48 76
REMARK SMILES IDX 49 77 54 78 50 79 51 80 53 81 55 82 52 83
REMARK H PARENT 10 10 72 45 46 56
REMARK Flexibility Score: inf
ROOT
ATOM      1  C   UNL     1       5.664  -0.346   6.167  1.00  0.00     0.340 C 
ATOM      2  O   UNL     1       6.665  -0.214   6.836  1.00  0.00    -0.246 OA
ENDROOT
BRANCH   1   3
ATOM      3  C   UNL     1       5.659  -0.176   4.689  1.00  0.00     0.083 A 
ATOM      4  C   UNL     1       4.627   0.461   3.985  1.00  0.00     0.049 A 
ATOM      5  C   UNL     1       4.737   0.486   2.580  1.00  0.00     0.026 A 
ATOM      6  C   UNL     1       5.808  -0.097   1.895  1.00  0.00     0.002 A 
ATOM      7  C   UNL     1       6.753  -0.740   3.999  1.00  0.00     0.018 A 
ATOM      8  C   UNL     1       6.817  -0.720   2.608  1.00  0.00     0.001 A 
BRANCH   4   9
ATOM      9  N   UNL     1       3.548   1.128   4.529  1.00  0.00    -0.381 N 
ATOM     10  H   UNL     1       2.695   1.042   4.046  1.00  0.00     0.160 HD
BRANCH   9  11
ATOM     11  C   UNL     1       3.526   1.945   5.736  1.00  0.00     0.154 C 
BRANCH  11  12
ATOM     12  C   UNL     1       3.093   3.397   5.448  1.00  0.00     0.250 C 
BRANCH  12  13
ATOM     13  O   UNL     1       1.700   3.534   5.125  1.00  0.00    -0.492 OA
BRANCH  13  14
ATOM     14  C   UNL     1       1.299   3.152   3.876  1.00  0.00     0.119 A 
ATOM     15  C   UNL     1       0.362   2.021   1.500  1.00  0.00     0.119 A 
ATOM     16  C   UNL     1      -0.489   2.134   2.595  1.00  0.00     0.050 A 
ATOM     17  C   UNL     1       1.639   2.574   1.550  1.00  0.00     0.050 A 
ATOM     18  C   UNL     1      -0.018   2.696   3.784  1.00  0.00     0.050 A 
ATOM     19  C   UNL     1       2.102   3.151   2.735  1.00  0.00     0.050 A 
BRANCH  15  20
ATOM     20  O   UNL     1      -0.116   1.412   0.373  1.00  0.00    -0.497 OA
ATOM     21  C   UNL     1       0.647   0.249   0.040  1.00  0.00     0.278 C 
ENDBRANCH  15  20
ENDBRANCH  13  14
ENDBRANCH  12  13
ENDBRANCH  11  12
ENDBRANCH   9  11
ENDBRANCH   4   9
ENDBRANCH   1   3
BRANCH   1  22
ATOM     22  O   UNL     1       4.442  -0.748   6.606  1.00  0.00    -0.458 OA
BRANCH  22  23
ATOM     23  C   UNL     1       4.277  -0.882   8.033  1.00  0.00     0.275 C 
BRANCH  23  24
ATOM     24  C   UNL     1       3.837  -2.299   8.384  1.00  0.00     0.275 C 
BRANCH  24  25
ATOM     25  O   UNL     1       4.902  -3.201   8.046  1.00  0.00    -0.458 OA
BRANCH  25  26
ATOM     26  C   UNL     1       4.645  -4.060   7.037  1.00  0.00     0.338 C 
ATOM     27  O   UNL     1       3.578  -4.294   6.493  1.00  0.00    -0.246 OA
BRANCH  26  28
ATOM     28  C   UNL     1       5.917  -4.644   6.598  1.00  0.00     0.060 A 
ATOM     29  C   UNL     1       6.827  -3.818   5.944  1.00  0.00     0.016 A 
ATOM     30  C   UNL     1       6.166  -6.007   6.722  1.00  0.00     0.016 A 
ATOM     31  C   UNL     1       7.956  -4.355   5.339  1.00  0.00     0.010 A 
ATOM     32  C   UNL     1       7.351  -6.532   6.196  1.00  0.00     0.010 A 
ATOM     33  C   UNL     1       8.245  -5.719   5.470  1.00  0.00    -0.014 A 
BRANCH  33  34
ATOM     34  C   UNL     1       9.447  -6.304   4.813  1.00  0.00     0.031 A 
ATOM     35  C   UNL     1       9.286  -7.443   3.841  1.00  0.00     0.074 A 
ATOM     36  C   UNL     1      10.681  -5.826   5.076  1.00  0.00     0.049 A 
ATOM     37  N   UNL     1      10.191  -8.253   3.356  1.00  0.00    -0.248 NA
ATOM     38  C   UNL     1       7.919  -7.720   3.369  1.00  0.00     0.031 C 
ATOM     39  C   UNL     1      10.987  -4.691   5.949  1.00  0.00     0.029 A 
ATOM     40  N   UNL     1      11.914  -6.243   4.635  1.00  0.00    -0.354 N 
ATOM     41  C   UNL     1       9.497  -9.180   2.588  1.00  0.00     0.074 A 
ATOM     42  C   UNL     1       8.096  -8.825   2.659  1.00  0.00     0.031 C 
ATOM     43  C   UNL     1      12.312  -4.488   5.962  1.00  0.00     0.029 A 
ATOM     44  C   UNL     1      12.959  -5.537   5.184  1.00  0.00     0.049 A 
ATOM     45  H   UNL     1      12.037  -6.976   3.990  1.00  0.00     0.167 HD
ATOM     46  C   UNL     1       9.987 -10.236   1.897  1.00  0.00     0.037 A 
ATOM     47  C   UNL     1      14.288  -5.746   5.125  1.00  0.00     0.037 A 
ATOM     48  C   UNL     1      11.390 -10.536   1.769  1.00  0.00     0.049 A 
ATOM     49  C   UNL     1      14.808  -6.932   4.364  1.00  0.00     0.074 A 
ATOM     50  C   UNL     1      11.992 -11.560   1.059  1.00  0.00     0.029 A 
ATOM     51  N   UNL     1      12.410  -9.799   2.351  1.00  0.00    -0.354 N 
ATOM     52  N   UNL     1      14.141  -7.838   3.692  1.00  0.00    -0.248 NA
ATOM     53  C   UNL     1      16.262  -7.139   4.374  1.00  0.00     0.031 C 
ATOM     54  C   UNL     1      13.376 -11.464   1.241  1.00  0.00     0.029 A 
ATOM     55  C   UNL     1      13.637 -10.355   2.029  1.00  0.00     0.049 A 
ATOM     56  H   UNL     1      12.281  -8.998   2.910  1.00  0.00     0.167 HD
ATOM     57  C   UNL     1      15.091  -8.719   3.195  1.00  0.00     0.074 A 
ATOM     58  C   UNL     1      16.384  -8.223   3.621  1.00  0.00     0.031 C 
ATOM     59  C   UNL     1      14.911  -9.843   2.461  1.00  0.00     0.037 A 
BRANCH  46  60
ATOM     60  C   UNL     1       9.005 -11.175   1.258  1.00  0.00     0.057 A 
ATOM     61  C   UNL     1       8.284 -10.840   0.107  1.00  0.00     0.134 A 
ATOM     62  C   UNL     1       8.820 -12.461   1.786  1.00  0.00     0.134 A 
ATOM     63  F   UNL     1       8.404  -9.621  -0.441  1.00  0.00    -0.206 F 
ATOM     64  C   UNL     1       7.403 -11.745  -0.490  1.00  0.00     0.040 A 
ATOM     65  C   UNL     1       7.961 -13.382   1.185  1.00  0.00     0.040 A 
ATOM     66  F   UNL     1       9.484 -12.848   2.886  1.00  0.00    -0.206 F 
ATOM     67  C   UNL     1       7.246 -13.023   0.045  1.00  0.00     0.006 A 
ENDBRANCH  46  60
BRANCH  47  68
ATOM     68  C   UNL     1      15.213  -4.855   5.872  1.00  0.00     0.057 A 
ATOM     69  C   UNL     1      16.099  -4.002   5.205  1.00  0.00     0.134 A 
ATOM     70  C   UNL     1      15.233  -4.836   7.273  1.00  0.00     0.134 A 
ATOM     71  F   UNL     1      16.147  -3.992   3.865  1.00  0.00    -0.206 F 
ATOM     72  C   UNL     1      16.977  -3.169   5.903  1.00  0.00     0.040 A 
ATOM     73  C   UNL     1      16.082  -3.987   7.983  1.00  0.00     0.040 A 
ATOM     74  F   UNL     1      14.409  -5.630   7.973  1.00  0.00    -0.206 F 
ATOM     75  C   UNL     1      16.963  -3.155   7.297  1.00  0.00     0.006 A 
ENDBRANCH  47  68
BRANCH  59  76
ATOM     76  C   UNL     1      16.143 -10.593   2.052  1.00  0.00     0.057 A 
ATOM     77  C   UNL     1      16.874 -11.361   2.967  1.00  0.00     0.134 A 
ATOM     78  C   UNL     1      16.586 -10.566   0.725  1.00  0.00     0.134 A 
ATOM     79  F   UNL     1      16.508 -11.414   4.256  1.00  0.00    -0.206 F 
ATOM     80  C   UNL     1      18.017 -12.062   2.578  1.00  0.00     0.040 A 
ATOM     81  C   UNL     1      17.713 -11.281   0.319  1.00  0.00     0.040 A 
ATOM     82  F   UNL     1      15.925  -9.854  -0.200  1.00  0.00    -0.206 F 
ATOM     83  C   UNL     1      18.435 -12.027   1.249  1.00  0.00     0.006 A 
ENDBRANCH  59  76
ENDBRANCH  33  34
ENDBRANCH  26  28
ENDBRANCH  25  26
ENDBRANCH  24  25
ENDBRANCH  23  24
ENDBRANCH  22  23
ENDBRANCH   1  22
TORSDOF 17
