REMARK SMILES CCNc1nc(C)c(C(=O)N2CC[NH2+][C@H](C(=O)OCCOC(=O)c3ccc(-c4c5nc(c(-c6c(F)cccc6F)c6ccc([nH]6)c(-c6c(F)cccc6F)c6nc(c(-c7c(F)cccc7F)c7ccc4[nH]7)C=C6)C=C5)cc3)C2)s1
REMARK SMILES IDX 19 1 18 2 16 3 17 4 15 5 11 6 12 7 78 8 13 9 14 10 9 13
REMARK SMILES IDX 10 14 8 15 4 16 5 17 79 18 6 19 7 20 3 21 2 23 1 24 20 25
REMARK SMILES IDX 21 26 22 27 23 28 24 29 25 30 77 31 26 32 76 33 27 34 28 35
REMARK SMILES IDX 29 36 70 37 30 38 75 39 69 40 71 41 31 42 74 43 68 44 67 45
REMARK SMILES IDX 32 47 58 48 41 49 57 50 42 51 45 52 56 53 72 54 43 55 44 56
REMARK SMILES IDX 55 58 73 59 46 60 33 61 34 62 39 63 35 64 36 65 38 66 40 67
REMARK SMILES IDX 37 68 59 69 60 70 65 71 61 72 62 73 64 74 66 75 63 76 47 77
REMARK SMILES IDX 48 78 53 79 49 80 50 81 52 82 54 83 51 84
REMARK H PARENT 14 11 14 12 3 22 71 46 45 57
REMARK Flexibility Score: inf
ROOT
ATOM      1  C   UNL     1      -4.171   5.867  -7.614  1.00  0.00     0.274 C 
ENDROOT
BRANCH   1   2
ATOM      2  O   UNL     1      -4.109   6.479  -6.313  1.00  0.00    -0.458 OA
BRANCH   2   3
ATOM      3  C   UNL     1      -3.362   5.822  -5.387  1.00  0.00     0.366 C 
ATOM      4  O   UNL     1      -2.895   4.697  -5.537  1.00  0.00    -0.245 OA
BRANCH   3   5
ATOM      5  C   UNL     1      -3.098   6.638  -4.127  1.00  0.00     0.313 C 
ATOM      6  N   UNL     1      -3.208   6.577  -1.661  1.00  0.00    -0.326 N 
ATOM      7  C   UNL     1      -3.690   7.960  -1.633  1.00  0.00     0.181 C 
ATOM      8  C   UNL     1      -3.520   5.836  -2.888  1.00  0.00     0.197 C 
ATOM      9  C   UNL     1      -3.271   8.718  -2.910  1.00  0.00     0.283 C 
ATOM     10  N   UNL     1      -3.645   8.023  -4.157  1.00  0.00    -0.332 N 
ATOM     11  H   UNL     1      -3.260   8.525  -4.957  1.00  0.00     0.347 HD
ATOM     12  H   UNL     1      -4.661   7.989  -4.239  1.00  0.00     0.347 HD
BRANCH   6  13
ATOM     13  C   UNL     1      -2.779   5.982  -0.475  1.00  0.00     0.266 C 
ATOM     14  O   UNL     1      -3.197   6.412   0.601  1.00  0.00    -0.268 OA
BRANCH  13  15
ATOM     15  C   UNL     1      -1.760   4.946  -0.551  1.00  0.00     0.117 A 
ATOM     16  C   UNL     1      -0.205   3.164   0.052  1.00  0.00     0.183 A 
ATOM     17  N   UNL     1       0.243   3.827  -0.982  1.00  0.00    -0.225 NA
ATOM     18  S   UNL     1      -1.753   3.665   0.603  1.00  0.00    -0.092 S 
ATOM     19  C   UNL     1      -0.621   4.844  -1.337  1.00  0.00     0.063 A 
ATOM     20  C   UNL     1      -0.154   5.716  -2.437  1.00  0.00     0.068 C 
BRANCH  16  21
ATOM     21  N   UNL     1       0.575   2.232   0.633  1.00  0.00    -0.362 N 
ATOM     22  H   UNL     1       1.530   2.440   0.755  1.00  0.00     0.162 HD
BRANCH  21  23
ATOM     23  C   UNL     1       0.098   0.949   1.087  1.00  0.00     0.112 C 
ATOM     24  C   UNL     1       0.660  -0.132   0.172  1.00  0.00     0.027 C 
ENDBRANCH  21  23
ENDBRANCH  16  21
ENDBRANCH  13  15
ENDBRANCH   6  13
ENDBRANCH   3   5
ENDBRANCH   2   3
ENDBRANCH   1   2
BRANCH   1  25
ATOM     25  C   UNL     1      -3.232   6.588  -8.579  1.00  0.00     0.275 C 
BRANCH  25  26
ATOM     26  O   UNL     1      -1.870   6.514  -8.113  1.00  0.00    -0.458 OA
BRANCH  26  27
ATOM     27  C   UNL     1      -1.302   7.696  -7.777  1.00  0.00     0.338 C 
ATOM     28  O   UNL     1      -1.798   8.807  -7.823  1.00  0.00    -0.246 OA
BRANCH  27  29
ATOM     29  C   UNL     1       0.082   7.461  -7.340  1.00  0.00     0.060 A 
ATOM     30  C   UNL     1       0.332   7.078  -6.024  1.00  0.00     0.016 A 
ATOM     31  C   UNL     1       1.139   7.731  -8.208  1.00  0.00     0.016 A 
ATOM     32  C   UNL     1       1.641   6.984  -5.555  1.00  0.00     0.010 A 
ATOM     33  C   UNL     1       2.453   7.598  -7.750  1.00  0.00     0.010 A 
ATOM     34  C   UNL     1       2.714   7.240  -6.415  1.00  0.00    -0.014 A 
BRANCH  34  35
ATOM     35  C   UNL     1       4.109   7.179  -5.914  1.00  0.00     0.031 A 
ATOM     36  C   UNL     1       4.920   8.438  -5.810  1.00  0.00     0.074 A 
ATOM     37  C   UNL     1       4.655   5.999  -5.564  1.00  0.00     0.049 A 
ATOM     38  N   UNL     1       6.200   8.584  -5.578  1.00  0.00    -0.248 NA
ATOM     39  C   UNL     1       4.193   9.703  -5.997  1.00  0.00     0.031 C 
ATOM     40  C   UNL     1       3.959   4.713  -5.557  1.00  0.00     0.029 A 
ATOM     41  N   UNL     1       5.931   5.692  -5.161  1.00  0.00    -0.354 N 
ATOM     42  C   UNL     1       6.440   9.950  -5.631  1.00  0.00     0.074 A 
ATOM     43  C   UNL     1       5.173  10.591  -5.917  1.00  0.00     0.031 C 
ATOM     44  C   UNL     1       4.819   3.752  -5.181  1.00  0.00     0.029 A 
ATOM     45  C   UNL     1       6.138   4.346  -4.982  1.00  0.00     0.049 A 
ATOM     46  H   UNL     1       6.630   6.370  -5.016  1.00  0.00     0.167 HD
ATOM     47  C   UNL     1       7.612  10.607  -5.462  1.00  0.00     0.037 A 
ATOM     48  C   UNL     1       7.271   3.663  -4.733  1.00  0.00     0.037 A 
ATOM     49  C   UNL     1       8.863   9.968  -5.149  1.00  0.00     0.049 A 
ATOM     50  C   UNL     1       8.570   4.407  -4.605  1.00  0.00     0.074 A 
ATOM     51  C   UNL     1      10.102  10.551  -4.943  1.00  0.00     0.029 A 
ATOM     52  N   UNL     1       9.033   8.601  -4.992  1.00  0.00    -0.354 N 
ATOM     53  N   UNL     1       8.795   5.696  -4.689  1.00  0.00    -0.248 NA
ATOM     54  C   UNL     1       9.775   3.601  -4.361  1.00  0.00     0.031 C 
ATOM     55  C   UNL     1      11.029   9.532  -4.698  1.00  0.00     0.029 A 
ATOM     56  C   UNL     1      10.360   8.319  -4.711  1.00  0.00     0.049 A 
ATOM     57  H   UNL     1       8.316   7.930  -5.069  1.00  0.00     0.167 HD
ATOM     58  C   UNL     1      10.160   5.857  -4.489  1.00  0.00     0.074 A 
ATOM     59  C   UNL     1      10.710   4.536  -4.270  1.00  0.00     0.031 C 
ATOM     60  C   UNL     1      10.891   6.999  -4.489  1.00  0.00     0.037 A 
BRANCH  47  61
ATOM     61  C   UNL     1       7.602  12.094  -5.656  1.00  0.00     0.057 A 
ATOM     62  C   UNL     1       7.044  12.965  -4.713  1.00  0.00     0.134 A 
ATOM     63  C   UNL     1       8.184  12.661  -6.797  1.00  0.00     0.134 A 
ATOM     64  F   UNL     1       6.457  12.484  -3.607  1.00  0.00    -0.206 F 
ATOM     65  C   UNL     1       7.046  14.348  -4.908  1.00  0.00     0.040 A 
ATOM     66  C   UNL     1       8.213  14.043  -6.992  1.00  0.00     0.040 A 
ATOM     67  F   UNL     1       8.739  11.882  -7.737  1.00  0.00    -0.206 F 
ATOM     68  C   UNL     1       7.638  14.890  -6.048  1.00  0.00     0.006 A 
ENDBRANCH  47  61
BRANCH  48  69
ATOM     69  C   UNL     1       7.231   2.183  -4.637  1.00  0.00     0.057 A 
ATOM     70  C   UNL     1       7.428   1.530  -3.416  1.00  0.00     0.134 A 
ATOM     71  C   UNL     1       6.998   1.387  -5.766  1.00  0.00     0.134 A 
ATOM     72  F   UNL     1       7.681   2.237  -2.305  1.00  0.00    -0.206 F 
ATOM     73  C   UNL     1       7.401   0.137  -3.321  1.00  0.00     0.040 A 
ATOM     74  C   UNL     1       6.944  -0.005  -5.681  1.00  0.00     0.040 A 
ATOM     75  F   UNL     1       6.803   1.954  -6.965  1.00  0.00    -0.206 F 
ATOM     76  C   UNL     1       7.151  -0.633  -4.455  1.00  0.00     0.006 A 
ENDBRANCH  48  69
BRANCH  60  77
ATOM     77  C   UNL     1      12.359   6.872  -4.211  1.00  0.00     0.057 A 
ATOM     78  C   UNL     1      13.251   6.380  -5.171  1.00  0.00     0.134 A 
ATOM     79  C   UNL     1      12.889   7.286  -2.983  1.00  0.00     0.134 A 
ATOM     80  F   UNL     1      12.803   5.954  -6.361  1.00  0.00    -0.206 F 
ATOM     81  C   UNL     1      14.620   6.289  -4.912  1.00  0.00     0.040 A 
ATOM     82  C   UNL     1      14.258   7.221  -2.721  1.00  0.00     0.040 A 
ATOM     83  F   UNL     1      12.087   7.774  -2.024  1.00  0.00    -0.206 F 
ATOM     84  C   UNL     1      15.127   6.716  -3.686  1.00  0.00     0.006 A 
ENDBRANCH  60  77
ENDBRANCH  34  35
ENDBRANCH  27  29
ENDBRANCH  26  27
ENDBRANCH  25  26
ENDBRANCH   1  25
TORSDOF 15
