REMARK SMILES O=C(OCCOC(=O)C1(O)CCC(F)(F)CC1)c1ccc(-c2c3nc(c(-c4c(F)cccc4F)c4ccc([nH]4)c(-c4c(F)cccc4F)c4nc(c(-c5c(F)cccc5F)c5ccc2[nH]5)C=C4)C=C3)cc1
REMARK SMILES IDX 4 1 3 2 2 3 1 4 18 5 19 6 71 7 20 8 70 9 21 10 22 11 23 12
REMARK SMILES IDX 64 13 24 14 69 15 63 16 65 17 25 18 68 19 62 20 61 21 26 23
REMARK SMILES IDX 52 24 35 25 51 26 36 27 39 28 50 29 66 30 37 31 38 32 49 34
REMARK SMILES IDX 67 35 40 36 27 37 28 38 33 39 29 40 30 41 32 42 34 43 31 44
REMARK SMILES IDX 53 45 54 46 59 47 55 48 56 49 58 50 60 51 57 52 41 53 42 54
REMARK SMILES IDX 47 55 43 56 44 57 46 58 48 59 45 60 5 61 6 62 7 63 8 64 9 65
REMARK SMILES IDX 11 66 17 67 12 68 16 69 13 70 14 71 15 72 10 73
REMARK H PARENT 65 22 39 33 10 74
REMARK Flexibility Score: inf
ROOT
ATOM      1  C   UNL     1       4.162   0.417   1.231  1.00  0.00     0.275 C 
ENDROOT
BRANCH   1   2
ATOM      2  O   UNL     1       2.965   0.961   0.640  1.00  0.00    -0.458 OA
BRANCH   2   3
ATOM      3  C   UNL     1       2.702   1.402  -0.613  1.00  0.00     0.338 C 
ATOM      4  O   UNL     1       1.725   2.132  -0.778  1.00  0.00    -0.246 OA
BRANCH   3   5
ATOM      5  C   UNL     1       3.398   0.916  -1.851  1.00  0.00     0.060 A 
ATOM      6  C   UNL     1       4.727   0.505  -1.951  1.00  0.00     0.016 A 
ATOM      7  C   UNL     1       2.615   0.863  -3.030  1.00  0.00     0.016 A 
ATOM      8  C   UNL     1       5.224  -0.037  -3.152  1.00  0.00     0.010 A 
ATOM      9  C   UNL     1       3.112   0.334  -4.237  1.00  0.00     0.010 A 
ATOM     10  C   UNL     1       4.418  -0.152  -4.300  1.00  0.00    -0.014 A 
BRANCH  10  11
ATOM     11  C   UNL     1       5.038  -0.634  -5.567  1.00  0.00     0.031 A 
ATOM     12  C   UNL     1       5.893   0.323  -6.327  1.00  0.00     0.074 A 
ATOM     13  C   UNL     1       4.922  -1.901  -6.016  1.00  0.00     0.049 A 
ATOM     14  N   UNL     1       6.647   0.105  -7.369  1.00  0.00    -0.248 NA
ATOM     15  C   UNL     1       5.852   1.721  -5.875  1.00  0.00     0.031 C 
ATOM     16  C   UNL     1       4.018  -2.889  -5.466  1.00  0.00     0.029 A 
ATOM     17  N   UNL     1       5.592  -2.599  -6.994  1.00  0.00    -0.354 N 
ATOM     18  C   UNL     1       7.144   1.345  -7.724  1.00  0.00     0.074 A 
ATOM     19  C   UNL     1       6.630   2.305  -6.769  1.00  0.00     0.031 C 
ATOM     20  C   UNL     1       4.310  -4.103  -5.955  1.00  0.00     0.029 A 
ATOM     21  C   UNL     1       5.337  -3.958  -6.976  1.00  0.00     0.049 A 
ATOM     22  H   UNL     1       6.196  -2.173  -7.644  1.00  0.00     0.167 HD
ATOM     23  C   UNL     1       7.917   1.662  -8.786  1.00  0.00     0.037 A 
ATOM     24  C   UNL     1       5.848  -4.964  -7.717  1.00  0.00     0.037 A 
ATOM     25  C   UNL     1       8.344   0.720  -9.783  1.00  0.00     0.049 A 
ATOM     26  C   UNL     1       6.745  -4.592  -8.866  1.00  0.00     0.074 A 
ATOM     27  C   UNL     1       9.064   0.955 -10.939  1.00  0.00     0.029 A 
ATOM     28  N   UNL     1       8.062  -0.640  -9.753  1.00  0.00    -0.354 N 
ATOM     29  N   UNL     1       7.220  -3.413  -9.189  1.00  0.00    -0.248 NA
ATOM     30  C   UNL     1       7.112  -5.665  -9.801  1.00  0.00     0.031 C 
ATOM     31  C   UNL     1       9.182  -0.256 -11.631  1.00  0.00     0.029 A 
ATOM     32  C   UNL     1       8.585  -1.255 -10.878  1.00  0.00     0.049 A 
ATOM     33  H   UNL     1       7.564  -1.098  -9.039  1.00  0.00     0.167 HD
ATOM     34  C   UNL     1       7.906  -3.593 -10.380  1.00  0.00     0.074 A 
ATOM     35  C   UNL     1       7.842  -5.007 -10.691  1.00  0.00     0.031 C 
ATOM     36  C   UNL     1       8.503  -2.665 -11.166  1.00  0.00     0.037 A 
BRANCH  23  37
ATOM     37  C   UNL     1       8.228   3.116  -8.947  1.00  0.00     0.057 A 
ATOM     38  C   UNL     1       9.110   3.781  -8.086  1.00  0.00     0.134 A 
ATOM     39  C   UNL     1       7.545   3.880  -9.900  1.00  0.00     0.134 A 
ATOM     40  F   UNL     1       9.757   3.108  -7.122  1.00  0.00    -0.206 F 
ATOM     41  C   UNL     1       9.272   5.166  -8.142  1.00  0.00     0.040 A 
ATOM     42  C   UNL     1       7.718   5.261  -9.982  1.00  0.00     0.040 A 
ATOM     43  F   UNL     1       6.671   3.303 -10.738  1.00  0.00    -0.206 F 
ATOM     44  C   UNL     1       8.573   5.909  -9.092  1.00  0.00     0.006 A 
ENDBRANCH  23  37
BRANCH  24  45
ATOM     45  C   UNL     1       5.491  -6.394  -7.472  1.00  0.00     0.057 A 
ATOM     46  C   UNL     1       6.476  -7.340  -7.146  1.00  0.00     0.134 A 
ATOM     47  C   UNL     1       4.181  -6.873  -7.605  1.00  0.00     0.134 A 
ATOM     48  F   UNL     1       7.761  -6.969  -7.043  1.00  0.00    -0.206 F 
ATOM     49  C   UNL     1       6.174  -8.696  -6.974  1.00  0.00     0.040 A 
ATOM     50  C   UNL     1       3.858  -8.217  -7.397  1.00  0.00     0.040 A 
ATOM     51  F   UNL     1       3.186  -6.040  -7.944  1.00  0.00    -0.206 F 
ATOM     52  C   UNL     1       4.858  -9.136  -7.090  1.00  0.00     0.006 A 
ENDBRANCH  24  45
BRANCH  36  53
ATOM     53  C   UNL     1       9.139  -3.156 -12.431  1.00  0.00     0.057 A 
ATOM     54  C   UNL     1       8.375  -3.544 -13.539  1.00  0.00     0.134 A 
ATOM     55  C   UNL     1      10.533  -3.194 -12.555  1.00  0.00     0.134 A 
ATOM     56  F   UNL     1       7.035  -3.545 -13.476  1.00  0.00    -0.206 F 
ATOM     57  C   UNL     1       8.977  -3.967 -14.724  1.00  0.00     0.040 A 
ATOM     58  C   UNL     1      11.146  -3.592 -13.742  1.00  0.00     0.040 A 
ATOM     59  F   UNL     1      11.317  -2.831 -11.529  1.00  0.00    -0.206 F 
ATOM     60  C   UNL     1      10.367  -3.983 -14.830  1.00  0.00     0.006 A 
ENDBRANCH  36  53
ENDBRANCH  10  11
ENDBRANCH   3   5
ENDBRANCH   2   3
ENDBRANCH   1   2
BRANCH   1  61
ATOM     61  C   UNL     1       4.081  -1.092   1.447  1.00  0.00     0.274 C 
BRANCH  61  62
ATOM     62  O   UNL     1       3.629  -1.765   0.265  1.00  0.00    -0.460 OA
BRANCH  62  63
ATOM     63  C   UNL     1       2.433  -2.416   0.340  1.00  0.00     0.338 C 
ATOM     64  O   UNL     1       1.725  -2.454   1.339  1.00  0.00    -0.249 OA
BRANCH  63  65
ATOM     65  C   UNL     1       2.068  -3.096  -1.006  1.00  0.00     0.162 C 
ATOM     66  C   UNL     1       2.957  -2.685  -2.171  1.00  0.00     0.053 C 
ATOM     67  C   UNL     1       2.082  -4.626  -0.890  1.00  0.00     0.053 C 
ATOM     68  C   UNL     1       4.372  -3.263  -2.143  1.00  0.00     0.080 C 
ATOM     69  C   UNL     1       3.492  -5.216  -0.845  1.00  0.00     0.080 C 
ATOM     70  C   UNL     1       4.330  -4.769  -2.030  1.00  0.00     0.248 C 
ATOM     71  F   UNL     1       5.590  -5.248  -1.913  1.00  0.00    -0.207 F 
ATOM     72  F   UNL     1       3.813  -5.294  -3.168  1.00  0.00    -0.207 F 
BRANCH  65  73
ATOM     73  O   UNL     1       0.726  -2.720  -1.359  1.00  0.00    -0.378 OA
ATOM     74  H   UNL     1       0.671  -1.756  -1.442  1.00  0.00     0.212 HD
ENDBRANCH  65  73
ENDBRANCH  63  65
ENDBRANCH  62  63
ENDBRANCH  61  62
ENDBRANCH   1  61
TORSDOF 12
