REMARK SMILES CC[C@@](C)([NH2+]CC(=O)N[C@@H](C)c1ccc(F)cc1)C(=O)OCCOC(=O)c1ccc(-c2c3nc(c(-c4c(F)cccc4F)c4ccc([nH]4)c(-c4c(F)cccc4F)c4nc(c(-c5c(F)cccc5F)c5ccc2[nH]5)C=C4)C=C3)cc1
REMARK SMILES IDX 21 1 19 2 20 3 3 4 4 5 2 6 1 7 5 8 6 11 7 12 8 13 9 14 10 16
REMARK SMILES IDX 11 17 12 18 13 19 18 20 14 21 17 22 15 23 16 24 22 25 23 26
REMARK SMILES IDX 24 27 25 28 26 29 27 30 28 31 80 32 29 33 79 34 30 35 31 36
REMARK SMILES IDX 32 37 73 38 33 39 78 40 72 41 74 42 34 43 77 44 71 45 70 46
REMARK SMILES IDX 35 48 61 49 44 50 60 51 45 52 48 53 59 54 75 55 46 56 47 57
REMARK SMILES IDX 58 59 76 60 49 61 36 62 37 63 42 64 38 65 39 66 41 67 43 68
REMARK SMILES IDX 40 69 62 70 63 71 68 72 64 73 65 74 67 75 69 76 66 77 50 78
REMARK SMILES IDX 51 79 56 80 52 81 53 82 55 83 57 84 54 85
REMARK H PARENT 5 9 5 10 9 15 74 47 48 58
REMARK Flexibility Score: inf
ROOT
ATOM      1  O   UNL     1       2.643   2.807  -0.315  1.00  0.00    -0.457 OA
ENDROOT
BRANCH   1   2
ATOM      2  C   UNL     1       1.687   1.940  -0.775  1.00  0.00     0.367 C 
ATOM      3  O   UNL     1       1.940   0.824  -1.217  1.00  0.00    -0.245 OA
BRANCH   2   4
ATOM      4  C   UNL     1       0.250   2.558  -0.718  1.00  0.00     0.191 C 
ATOM      5  C   UNL     1      -0.747   1.994  -1.744  1.00  0.00     0.092 C 
BRANCH   4   6
ATOM      6  C   UNL     1      -0.309   2.177   0.686  1.00  0.00     0.077 C 
ATOM      7  C   UNL     1      -0.516   0.663   0.869  1.00  0.00     0.011 C 
ENDBRANCH   4   6
BRANCH   4   8
ATOM      8  N   UNL     1       0.282   4.040  -0.893  1.00  0.00    -0.325 N 
ATOM      9  H   UNL     1       0.630   4.438  -0.021  1.00  0.00     0.347 HD
ATOM     10  H   UNL     1      -0.676   4.280  -1.149  1.00  0.00     0.347 HD
BRANCH   8  11
ATOM     11  C   UNL     1       1.105   4.609  -1.994  1.00  0.00     0.362 C 
BRANCH  11  12
ATOM     12  C   UNL     1       0.569   4.454  -3.427  1.00  0.00     0.275 C 
ATOM     13  O   UNL     1      -0.381   5.135  -3.822  1.00  0.00    -0.268 OA
ATOM     14  N   UNL     1       1.170   3.596  -4.322  1.00  0.00    -0.345 N 
ATOM     15  H   UNL     1       1.095   3.845  -5.272  1.00  0.00     0.164 HD
BRANCH  14  16
ATOM     16  C   UNL     1       1.905   2.366  -4.040  1.00  0.00     0.109 C 
ATOM     17  C   UNL     1       1.058   1.152  -4.457  1.00  0.00     0.036 C 
BRANCH  16  18
ATOM     18  C   UNL     1       3.331   2.292  -4.563  1.00  0.00    -0.026 A 
ATOM     19  C   UNL     1       4.073   3.442  -4.868  1.00  0.00     0.009 A 
ATOM     20  C   UNL     1       3.994   1.043  -4.618  1.00  0.00     0.009 A 
ATOM     21  C   UNL     1       5.416   3.341  -5.248  1.00  0.00     0.039 A 
ATOM     22  C   UNL     1       5.329   0.943  -5.008  1.00  0.00     0.039 A 
ATOM     23  C   UNL     1       6.029   2.095  -5.321  1.00  0.00     0.123 A 
ATOM     24  F   UNL     1       7.316   2.007  -5.680  1.00  0.00    -0.207 F 
ENDBRANCH  16  18
ENDBRANCH  14  16
ENDBRANCH  11  12
ENDBRANCH   8  11
ENDBRANCH   4   8
ENDBRANCH   2   4
ENDBRANCH   1   2
BRANCH   1  25
ATOM     25  C   UNL     1       4.007   2.584  -0.742  1.00  0.00     0.274 C 
BRANCH  25  26
ATOM     26  C   UNL     1       4.970   3.169   0.288  1.00  0.00     0.275 C 
BRANCH  26  27
ATOM     27  O   UNL     1       4.944   2.283   1.415  1.00  0.00    -0.458 OA
BRANCH  27  28
ATOM     28  C   UNL     1       4.431   2.788   2.552  1.00  0.00     0.338 C 
ATOM     29  O   UNL     1       4.322   3.960   2.886  1.00  0.00    -0.246 OA
BRANCH  28  30
ATOM     30  C   UNL     1       3.827   1.666   3.274  1.00  0.00     0.060 A 
ATOM     31  C   UNL     1       2.714   1.058   2.693  1.00  0.00     0.016 A 
ATOM     32  C   UNL     1       4.266   1.286   4.537  1.00  0.00     0.016 A 
ATOM     33  C   UNL     1       1.979   0.125   3.404  1.00  0.00     0.010 A 
ATOM     34  C   UNL     1       3.558   0.298   5.229  1.00  0.00     0.010 A 
ATOM     35  C   UNL     1       2.380  -0.251   4.686  1.00  0.00    -0.014 A 
BRANCH  35  36
ATOM     36  C   UNL     1       1.453  -1.061   5.512  1.00  0.00     0.031 A 
ATOM     37  C   UNL     1       0.828  -0.420   6.719  1.00  0.00     0.074 A 
ATOM     38  C   UNL     1       1.075  -2.299   5.142  1.00  0.00     0.049 A 
ATOM     39  N   UNL     1       0.151  -0.969   7.692  1.00  0.00    -0.248 NA
ATOM     40  C   UNL     1       0.991   1.039   6.845  1.00  0.00     0.031 C 
ATOM     41  C   UNL     1       1.485  -2.984   3.915  1.00  0.00     0.029 A 
ATOM     42  N   UNL     1       0.233  -3.191   5.756  1.00  0.00    -0.354 N 
ATOM     43  C   UNL     1      -0.130   0.063   8.578  1.00  0.00     0.074 A 
ATOM     44  C   UNL     1       0.438   1.272   8.024  1.00  0.00     0.031 C 
ATOM     45  C   UNL     1       0.870  -4.176   3.854  1.00  0.00     0.029 A 
ATOM     46  C   UNL     1       0.093  -4.374   5.074  1.00  0.00     0.049 A 
ATOM     47  H   UNL     1      -0.227  -3.001   6.606  1.00  0.00     0.167 HD
ATOM     48  C   UNL     1      -0.796   0.000   9.754  1.00  0.00     0.037 A 
ATOM     49  C   UNL     1      -0.552  -5.505   5.418  1.00  0.00     0.037 A 
ATOM     50  C   UNL     1      -1.408  -1.196  10.263  1.00  0.00     0.049 A 
ATOM     51  C   UNL     1      -1.244  -5.574   6.751  1.00  0.00     0.074 A 
ATOM     52  C   UNL     1      -2.049  -1.393  11.472  1.00  0.00     0.029 A 
ATOM     53  N   UNL     1      -1.482  -2.393   9.567  1.00  0.00    -0.354 N 
ATOM     54  N   UNL     1      -1.373  -4.640   7.663  1.00  0.00    -0.248 NA
ATOM     55  C   UNL     1      -1.857  -6.858   7.116  1.00  0.00     0.031 C 
ATOM     56  C   UNL     1      -2.499  -2.717  11.514  1.00  0.00     0.029 A 
ATOM     57  C   UNL     1      -2.169  -3.331  10.316  1.00  0.00     0.049 A 
ATOM     58  H   UNL     1      -1.103  -2.551   8.672  1.00  0.00     0.167 HD
ATOM     59  C   UNL     1      -2.088  -5.218   8.703  1.00  0.00     0.074 A 
ATOM     60  C   UNL     1      -2.381  -6.579   8.303  1.00  0.00     0.031 C 
ATOM     61  C   UNL     1      -2.462  -4.674   9.886  1.00  0.00     0.037 A 
BRANCH  48  62
ATOM     62  C   UNL     1      -0.846   1.247  10.582  1.00  0.00     0.057 A 
ATOM     63  C   UNL     1      -0.054   1.360  11.732  1.00  0.00     0.134 A 
ATOM     64  C   UNL     1      -1.670   2.329  10.253  1.00  0.00     0.134 A 
ATOM     65  F   UNL     1       0.761   0.358  12.098  1.00  0.00    -0.206 F 
ATOM     66  C   UNL     1      -0.083   2.504  12.529  1.00  0.00     0.040 A 
ATOM     67  C   UNL     1      -1.691   3.489  11.031  1.00  0.00     0.040 A 
ATOM     68  F   UNL     1      -2.432   2.293   9.150  1.00  0.00    -0.206 F 
ATOM     69  C   UNL     1      -0.901   3.575  12.176  1.00  0.00     0.006 A 
ENDBRANCH  48  62
BRANCH  49  70
ATOM     70  C   UNL     1      -0.534  -6.675   4.504  1.00  0.00     0.057 A 
ATOM     71  C   UNL     1       0.643  -7.394   4.261  1.00  0.00     0.134 A 
ATOM     72  C   UNL     1      -1.693  -7.096   3.844  1.00  0.00     0.134 A 
ATOM     73  F   UNL     1       1.788  -7.042   4.865  1.00  0.00    -0.206 F 
ATOM     74  C   UNL     1       0.673  -8.473   3.377  1.00  0.00     0.040 A 
ATOM     75  C   UNL     1      -1.684  -8.189   2.975  1.00  0.00     0.040 A 
ATOM     76  F   UNL     1      -2.857  -6.464   4.054  1.00  0.00    -0.206 F 
ATOM     77  C   UNL     1      -0.495  -8.875   2.733  1.00  0.00     0.006 A 
ENDBRANCH  49  70
BRANCH  61  78
ATOM     78  C   UNL     1      -3.260  -5.534  10.818  1.00  0.00     0.057 A 
ATOM     79  C   UNL     1      -4.627  -5.298  11.006  1.00  0.00     0.134 A 
ATOM     80  C   UNL     1      -2.662  -6.544  11.579  1.00  0.00     0.134 A 
ATOM     81  F   UNL     1      -5.254  -4.337  10.311  1.00  0.00    -0.206 F 
ATOM     82  C   UNL     1      -5.372  -6.033  11.928  1.00  0.00     0.040 A 
ATOM     83  C   UNL     1      -3.401  -7.300  12.491  1.00  0.00     0.040 A 
ATOM     84  F   UNL     1      -1.357  -6.822  11.437  1.00  0.00    -0.206 F 
ATOM     85  C   UNL     1      -4.758  -7.039  12.672  1.00  0.00     0.006 A 
ENDBRANCH  61  78
ENDBRANCH  35  36
ENDBRANCH  28  30
ENDBRANCH  27  28
ENDBRANCH  26  27
ENDBRANCH  25  26
ENDBRANCH   1  25
TORSDOF 17
