REMARK SMILES O=C(OCCOC(=O)c1ccc(-c2c3nc(c(-c4c(F)cccc4F)c4ccc([nH]4)c(-c4c(F)cccc4F)c4nc(c(-c5c(F)cccc5F)c5ccc2[nH]5)C=C4)C=C3)cc1)C1=Cc2cc(S(F)(F)(F)(F)F)cc(Br)c2O[C@@H]1C(F)(F)F
REMARK SMILES IDX 5 1 4 2 3 3 2 4 1 5 63 6 64 7 79 8 65 9 78 10 66 11 77 12
REMARK SMILES IDX 67 13 75 14 74 15 76 16 80 17 81 18 82 19 83 20 68 21 69 22
REMARK SMILES IDX 70 23 71 24 72 25 73 26 6 27 7 28 8 29 9 30 10 31 62 32
REMARK SMILES IDX 11 33 61 34 12 35 13 36 14 37 55 38 15 39 60 40 54 41 56 42
REMARK SMILES IDX 16 43 59 44 53 45 52 46 17 48 43 49 26 50 42 51 27 52 30 53
REMARK SMILES IDX 41 54 57 55 28 56 29 57 40 59 58 60 31 61 18 62 19 63 24 64
REMARK SMILES IDX 20 65 21 66 23 67 25 68 22 69 44 70 45 71 50 72 46 73 47 74
REMARK SMILES IDX 49 75 51 76 48 77 32 78 33 79 38 80 34 81 35 82 37 83 39 84
REMARK SMILES IDX 36 85
REMARK H PARENT 56 47 30 58
REMARK Flexibility Score: inf
ROOT
ATOM      1  C   UNL     1       4.859   0.774   1.108  1.00  0.00     0.275 C 
ENDROOT
BRANCH   1   2
ATOM      2  C   UNL     1       4.352   1.117  -0.283  1.00  0.00     0.275 C 
BRANCH   2   3
ATOM      3  O   UNL     1       2.932   1.117  -0.283  1.00  0.00    -0.459 OA
BRANCH   3   4
ATOM      4  C   UNL     1       2.222  -0.065   0.059  1.00  0.00     0.338 C 
ATOM      5  O   UNL     1       0.951  -0.065   0.059  1.00  0.00    -0.246 OA
BRANCH   4   6
ATOM      6  C   UNL     1       2.982  -1.329   0.425  1.00  0.00     0.087 C 
ATOM      7  C   UNL     1       4.342  -1.329   0.425  1.00  0.00     0.027 C 
ATOM      8  C   UNL     1       2.222  -2.593   0.791  1.00  0.00     0.316 C 
ATOM      9  C   UNL     1       5.102  -0.065   0.059  1.00  0.00     0.020 A 
ATOM     10  O   UNL     1       3.491   1.107   1.355  1.00  0.00    -0.474 OA
ATOM     11  C   UNL     1       6.177  -0.103  -0.815  1.00  0.00     0.036 A 
ATOM     12  C   UNL     1       4.690   1.079   0.594  1.00  0.00     0.142 A 
ATOM     13  C   UNL     1       6.939   1.089  -0.838  1.00  0.00     0.109 A 
ATOM     14  C   UNL     1       5.412   2.234   0.417  1.00  0.00     0.062 A 
ATOM     15  C   UNL     1       6.519   2.256  -0.385  1.00  0.00     0.044 A 
ATOM     16  Br  UNL     1       4.848   3.875   1.329  1.00  0.00    -0.047 Br
BRANCH   8  17
ATOM     17  C   UNL     1       2.589  -3.014   2.204  1.00  0.00     0.430 C 
ATOM     18  F   UNL     1       2.268  -2.042   3.054  1.00  0.00    -0.167 F 
ATOM     19  F   UNL     1       1.924  -4.120   2.525  1.00  0.00    -0.167 F 
ATOM     20  F   UNL     1       3.897  -3.247   2.272  1.00  0.00    -0.167 F 
ENDBRANCH   8  17
BRANCH  13  21
ATOM     21  S   UNL     1       8.607   1.008  -1.536  1.00  0.00     0.310 S 
ATOM     22  F   UNL     1       9.277   0.993  -0.099  1.00  0.00    -0.094 F 
ATOM     23  F   UNL     1       8.678   2.580  -1.478  1.00  0.00    -0.094 F 
ATOM     24  F   UNL     1      10.040   0.938  -2.137  1.00  0.00    -0.094 F 
ATOM     25  F   UNL     1       8.573  -0.570  -1.456  1.00  0.00    -0.094 F 
ATOM     26  F   UNL     1       7.198   1.060  -0.822  1.00  0.00    -0.094 F 
ENDBRANCH  13  21
ENDBRANCH   4   6
ENDBRANCH   3   4
ENDBRANCH   2   3
ENDBRANCH   1   2
BRANCH   1  27
ATOM     27  O   UNL     1       4.385  -0.512   1.480  1.00  0.00    -0.458 OA
BRANCH  27  28
ATOM     28  C   UNL     1       2.989  -0.762   1.552  1.00  0.00     0.338 C 
ATOM     29  O   UNL     1       2.163   0.166   1.284  1.00  0.00    -0.246 OA
BRANCH  28  30
ATOM     30  C   UNL     1       2.482  -2.138   1.951  1.00  0.00     0.060 A 
ATOM     31  C   UNL     1       1.416  -2.726   1.292  1.00  0.00     0.016 A 
ATOM     32  C   UNL     1       3.062  -2.731   2.989  1.00  0.00     0.016 A 
ATOM     33  C   UNL     1       0.841  -3.816   1.988  1.00  0.00     0.010 A 
ATOM     34  C   UNL     1       2.522  -3.870   3.534  1.00  0.00     0.010 A 
ATOM     35  C   UNL     1       1.432  -4.472   2.969  1.00  0.00    -0.014 A 
BRANCH  35  36
ATOM     36  C   UNL     1       0.928  -5.825   3.446  1.00  0.00     0.031 A 
ATOM     37  C   UNL     1       0.545  -5.867   4.787  1.00  0.00     0.074 A 
ATOM     38  C   UNL     1       0.797  -6.888   2.569  1.00  0.00     0.049 A 
ATOM     39  N   UNL     1      -0.025  -6.882   5.439  1.00  0.00    -0.248 NA
ATOM     40  C   UNL     1       0.715  -4.751   5.729  1.00  0.00     0.031 C 
ATOM     41  C   UNL     1       1.173  -6.851   1.212  1.00  0.00     0.029 A 
ATOM     42  N   UNL     1       0.295  -8.144   2.832  1.00  0.00    -0.354 N 
ATOM     43  C   UNL     1      -0.263  -6.541   6.707  1.00  0.00     0.074 A 
ATOM     44  C   UNL     1       0.216  -5.167   6.913  1.00  0.00     0.031 C 
ATOM     45  C   UNL     1       0.913  -8.069   0.668  1.00  0.00     0.029 A 
ATOM     46  C   UNL     1       0.370  -8.888   1.676  1.00  0.00     0.049 A 
ATOM     47  H   UNL     1      -0.056  -8.456   3.698  1.00  0.00     0.167 HD
ATOM     48  C   UNL     1      -0.860  -7.320   7.699  1.00  0.00     0.037 A 
ATOM     49  C   UNL     1      -0.008 -10.209   1.491  1.00  0.00     0.037 A 
ATOM     50  C   UNL     1      -1.278  -8.627   7.501  1.00  0.00     0.049 A 
ATOM     51  C   UNL     1      -0.553 -11.008   2.498  1.00  0.00     0.074 A 
ATOM     52  C   UNL     1      -1.890  -9.424   8.488  1.00  0.00     0.029 A 
ATOM     53  N   UNL     1      -1.181  -9.379   6.351  1.00  0.00    -0.354 N 
ATOM     54  N   UNL     1      -0.826 -10.653   3.755  1.00  0.00    -0.248 NA
ATOM     55  C   UNL     1      -0.927 -12.417   2.322  1.00  0.00     0.031 C 
ATOM     56  C   UNL     1      -2.150 -10.643   7.944  1.00  0.00     0.029 A 
ATOM     57  C   UNL     1      -1.704 -10.627   6.609  1.00  0.00     0.049 A 
ATOM     58  H   UNL     1      -0.804  -9.076   5.494  1.00  0.00     0.167 HD
ATOM     59  C   UNL     1      -1.358 -11.682   4.418  1.00  0.00     0.074 A 
ATOM     60  C   UNL     1      -1.424 -12.834   3.508  1.00  0.00     0.031 C 
ATOM     61  C   UNL     1      -1.795 -11.706   5.743  1.00  0.00     0.037 A 
BRANCH  48  62
ATOM     62  C   UNL     1      -1.064  -6.701   9.072  1.00  0.00     0.057 A 
ATOM     63  C   UNL     1      -1.749  -5.504   9.203  1.00  0.00     0.134 A 
ATOM     64  C   UNL     1      -0.479  -7.278  10.114  1.00  0.00     0.134 A 
ATOM     65  F   UNL     1      -2.555  -5.022   8.261  1.00  0.00    -0.206 F 
ATOM     66  C   UNL     1      -1.512  -4.841  10.431  1.00  0.00     0.040 A 
ATOM     67  C   UNL     1      -0.403  -6.628  11.322  1.00  0.00     0.040 A 
ATOM     68  F   UNL     1       0.039  -8.497   9.989  1.00  0.00    -0.206 F 
ATOM     69  C   UNL     1      -1.006  -5.415  11.507  1.00  0.00     0.006 A 
ENDBRANCH  48  62
BRANCH  49  70
ATOM     70  C   UNL     1       0.180 -10.822   0.113  1.00  0.00     0.057 A 
ATOM     71  C   UNL     1      -0.964 -11.199  -0.571  1.00  0.00     0.134 A 
ATOM     72  C   UNL     1       1.379 -10.906  -0.452  1.00  0.00     0.134 A 
ATOM     73  F   UNL     1      -2.190 -10.901  -0.153  1.00  0.00    -0.206 F 
ATOM     74  C   UNL     1      -0.709 -11.930  -1.756  1.00  0.00     0.040 A 
ATOM     75  C   UNL     1       1.536 -11.514  -1.674  1.00  0.00     0.040 A 
ATOM     76  F   UNL     1       2.438 -10.398   0.172  1.00  0.00    -0.206 F 
ATOM     77  C   UNL     1       0.455 -11.963  -2.379  1.00  0.00     0.006 A 
ENDBRANCH  49  70
BRANCH  61  78
ATOM     78  C   UNL     1      -2.408 -12.993   6.270  1.00  0.00     0.057 A 
ATOM     79  C   UNL     1      -1.726 -14.198   6.222  1.00  0.00     0.134 A 
ATOM     80  C   UNL     1      -3.661 -12.928   6.706  1.00  0.00     0.134 A 
ATOM     81  F   UNL     1      -0.412 -14.281   6.038  1.00  0.00    -0.206 F 
ATOM     82  C   UNL     1      -2.555 -15.333   6.386  1.00  0.00     0.040 A 
ATOM     83  C   UNL     1      -4.368 -14.074   6.977  1.00  0.00     0.040 A 
ATOM     84  F   UNL     1      -4.236 -11.742   6.881  1.00  0.00    -0.206 F 
ATOM     85  C   UNL     1      -3.774 -15.303   6.893  1.00  0.00     0.006 A 
ENDBRANCH  61  78
ENDBRANCH  35  36
ENDBRANCH  28  30
ENDBRANCH  27  28
ENDBRANCH   1  27
TORSDOF 13
