REMARK SMILES Cc1cccc(C(=O)Nc2cc(C(=O)OCCOC(=O)c3ccc(-c4c5nc(c(-c6c(F)cccc6F)c6ccc([nH]6)c(-c6c(F)cccc6F)c6nc(c(-c7c(F)cccc7F)c7ccc4[nH]7)C=C6)C=C5)cc3)ccc2N2CC[NH+](CC(=O)NC(C)(C)C)CC2)c1
REMARK SMILES IDX 16 1 15 2 13 3 14 4 12 5 10 6 11 7 77 8 76 9 75 10 9 11 7 12
REMARK SMILES IDX 8 13 6 15 1 16 2 17 3 18 92 19 4 20 5 21 78 22 79 23 91 24
REMARK SMILES IDX 80 25 90 26 81 27 82 29 83 30 84 31 85 32 86 34 87 35 88 36
REMARK SMILES IDX 89 37 17 38 18 39 19 40 20 41 21 42 22 43 74 44 23 45 73 46
REMARK SMILES IDX 24 47 25 48 26 49 67 50 27 51 72 52 66 53 68 54 28 55 71 56
REMARK SMILES IDX 65 57 64 58 29 60 55 61 38 62 54 63 39 64 42 65 53 66 69 67
REMARK SMILES IDX 40 68 41 69 52 71 70 72 43 73 30 74 31 75 36 76 32 77 33 78
REMARK SMILES IDX 35 79 37 80 34 81 56 82 57 83 62 84 58 85 59 86 61 87 63 88
REMARK SMILES IDX 60 89 44 90 45 91 50 92 46 93 47 94 49 95 51 96 48 97
REMARK H PARENT 9 14 81 28 85 33 68 59 42 70
REMARK Flexibility Score: inf
ROOT
ATOM      1  C   UNL     1       2.783   1.828  -5.136  1.00  0.00     0.275 C 
ENDROOT
BRANCH   1   2
ATOM      2  O   UNL     1       2.372   2.988  -4.405  1.00  0.00    -0.458 OA
BRANCH   2   3
ATOM      3  C   UNL     1       1.914   2.673  -3.185  1.00  0.00     0.338 C 
ATOM      4  O   UNL     1       1.857   1.550  -2.690  1.00  0.00    -0.246 OA
BRANCH   3   5
ATOM      5  C   UNL     1       1.345   3.785  -2.450  1.00  0.00     0.062 A 
ATOM      6  C   UNL     1      -0.488   4.251  -0.987  1.00  0.00     0.065 A 
ATOM      7  C   UNL     1       0.034   3.559  -2.056  1.00  0.00     0.044 A 
ATOM      8  C   UNL     1       0.239   5.343  -0.401  1.00  0.00     0.061 A 
ATOM      9  C   UNL     1       1.533   5.603  -0.902  1.00  0.00     0.029 A 
ATOM     10  C   UNL     1       2.109   4.803  -1.894  1.00  0.00     0.018 A 
BRANCH   6  11
ATOM     11  N   UNL     1      -1.750   3.888  -0.493  1.00  0.00    -0.320 N 
ATOM     12  C   UNL     1      -2.464   2.715  -0.351  1.00  0.00     0.255 C 
ATOM     13  O   UNL     1      -3.550   2.833   0.232  1.00  0.00    -0.269 OA
ATOM     14  H   UNL     1      -2.254   4.667  -0.164  1.00  0.00     0.170 HD
BRANCH  12  15
ATOM     15  C   UNL     1      -2.074   1.329  -0.776  1.00  0.00     0.040 A 
ATOM     16  C   UNL     1       0.788  -0.983  -1.826  1.00  0.00     0.044 C 
ATOM     17  C   UNL     1      -0.571  -0.485  -1.432  1.00  0.00    -0.050 A 
ATOM     18  C   UNL     1      -1.659  -1.325  -1.668  1.00  0.00     0.003 A 
ATOM     19  C   UNL     1      -0.779   0.817  -0.919  1.00  0.00     0.017 A 
ATOM     20  C   UNL     1      -2.945  -0.869  -1.433  1.00  0.00     0.001 A 
ATOM     21  C   UNL     1      -3.147   0.448  -1.014  1.00  0.00     0.014 A 
ENDBRANCH  12  15
ENDBRANCH   6  11
BRANCH   8  22
ATOM     22  N   UNL     1      -0.259   6.091   0.659  1.00  0.00    -0.359 N 
ATOM     23  C   UNL     1       0.222   7.434   1.056  1.00  0.00     0.178 C 
ATOM     24  C   UNL     1      -0.865   5.405   1.794  1.00  0.00     0.178 C 
ATOM     25  C   UNL     1      -0.895   8.240   1.814  1.00  0.00     0.284 C 
ATOM     26  C   UNL     1      -2.140   6.185   2.157  1.00  0.00     0.284 C 
ATOM     27  N   UNL     1      -1.860   7.522   2.681  1.00  0.00    -0.324 N 
ATOM     28  H   UNL     1      -2.716   8.075   2.624  1.00  0.00     0.348 HD
BRANCH  27  29
ATOM     29  C   UNL     1      -1.612   7.557   4.133  1.00  0.00     0.363 C 
BRANCH  29  30
ATOM     30  C   UNL     1      -0.426   6.738   4.623  1.00  0.00     0.275 C 
ATOM     31  O   UNL     1       0.721   7.193   4.510  1.00  0.00    -0.268 OA
ATOM     32  N   UNL     1      -0.525   5.508   5.199  1.00  0.00    -0.347 N 
ATOM     33  H   UNL     1       0.335   5.255   5.607  1.00  0.00     0.164 HD
BRANCH  32  34
ATOM     34  C   UNL     1      -1.528   4.423   5.405  1.00  0.00     0.032 C 
ATOM     35  C   UNL     1      -1.465   3.390   4.263  1.00  0.00     0.034 C 
ATOM     36  C   UNL     1      -1.099   3.674   6.686  1.00  0.00     0.034 C 
ATOM     37  C   UNL     1      -2.973   4.882   5.617  1.00  0.00     0.034 C 
ENDBRANCH  32  34
ENDBRANCH  29  30
ENDBRANCH  27  29
ENDBRANCH   8  22
ENDBRANCH   3   5
ENDBRANCH   2   3
ENDBRANCH   1   2
BRANCH   1  38
ATOM     38  C   UNL     1       4.172   2.009  -5.732  1.00  0.00     0.275 C 
BRANCH  38  39
ATOM     39  O   UNL     1       5.139   2.819  -5.004  1.00  0.00    -0.458 OA
BRANCH  39  40
ATOM     40  C   UNL     1       5.335   3.016  -3.677  1.00  0.00     0.338 C 
ATOM     41  O   UNL     1       5.819   4.059  -3.265  1.00  0.00    -0.246 OA
BRANCH  40  42
ATOM     42  C   UNL     1       4.991   1.953  -2.702  1.00  0.00     0.060 A 
ATOM     43  C   UNL     1       4.740   2.298  -1.355  1.00  0.00     0.016 A 
ATOM     44  C   UNL     1       4.917   0.626  -3.094  1.00  0.00     0.016 A 
ATOM     45  C   UNL     1       4.366   1.324  -0.416  1.00  0.00     0.010 A 
ATOM     46  C   UNL     1       4.437  -0.312  -2.204  1.00  0.00     0.010 A 
ATOM     47  C   UNL     1       4.213   0.009  -0.848  1.00  0.00    -0.014 A 
BRANCH  47  48
ATOM     48  C   UNL     1       4.123  -1.184   0.003  1.00  0.00     0.031 A 
ATOM     49  C   UNL     1       2.877  -1.748   0.565  1.00  0.00     0.074 A 
ATOM     50  C   UNL     1       5.261  -1.911  -0.041  1.00  0.00     0.049 A 
ATOM     51  N   UNL     1       2.588  -3.009   0.504  1.00  0.00    -0.248 NA
ATOM     52  C   UNL     1       1.839  -0.942   1.223  1.00  0.00     0.031 C 
ATOM     53  C   UNL     1       5.513  -3.300   0.294  1.00  0.00     0.029 A 
ATOM     54  N   UNL     1       6.540  -1.380  -0.271  1.00  0.00    -0.354 N 
ATOM     55  C   UNL     1       1.388  -3.203   1.145  1.00  0.00     0.074 A 
ATOM     56  C   UNL     1       0.929  -1.878   1.538  1.00  0.00     0.031 C 
ATOM     57  C   UNL     1       6.821  -3.430   0.586  1.00  0.00     0.029 A 
ATOM     58  C   UNL     1       7.385  -2.086   0.595  1.00  0.00     0.049 A 
ATOM     59  H   UNL     1       6.788  -0.667  -0.902  1.00  0.00     0.167 HD
ATOM     60  C   UNL     1       1.145  -4.344   1.846  1.00  0.00     0.037 A 
ATOM     61  C   UNL     1       7.841  -1.431   1.705  1.00  0.00     0.037 A 
ATOM     62  C   UNL     1       2.374  -4.905   2.355  1.00  0.00     0.049 A 
ATOM     63  C   UNL     1       7.313  -2.057   2.974  1.00  0.00     0.074 A 
ATOM     64  C   UNL     1       3.312  -5.804   1.883  1.00  0.00     0.029 A 
ATOM     65  N   UNL     1       2.934  -4.275   3.451  1.00  0.00    -0.354 N 
ATOM     66  N   UNL     1       6.174  -2.694   3.066  1.00  0.00    -0.248 NA
ATOM     67  C   UNL     1       8.070  -2.074   4.219  1.00  0.00     0.031 C 
ATOM     68  C   UNL     1       4.499  -5.613   2.645  1.00  0.00     0.029 A 
ATOM     69  C   UNL     1       4.253  -4.636   3.597  1.00  0.00     0.049 A 
ATOM     70  H   UNL     1       2.454  -3.654   4.046  1.00  0.00     0.167 HD
ATOM     71  C   UNL     1       6.077  -3.262   4.308  1.00  0.00     0.074 A 
ATOM     72  C   UNL     1       7.277  -2.827   5.000  1.00  0.00     0.031 C 
ATOM     73  C   UNL     1       5.039  -4.067   4.678  1.00  0.00     0.037 A 
BRANCH  60  74
ATOM     74  C   UNL     1      -0.147  -5.090   1.636  1.00  0.00     0.057 A 
ATOM     75  C   UNL     1      -0.222  -6.482   1.838  1.00  0.00     0.134 A 
ATOM     76  C   UNL     1      -1.325  -4.501   1.139  1.00  0.00     0.134 A 
ATOM     77  F   UNL     1       0.816  -7.175   2.329  1.00  0.00    -0.206 F 
ATOM     78  C   UNL     1      -1.360  -7.237   1.519  1.00  0.00     0.040 A 
ATOM     79  C   UNL     1      -2.473  -5.244   0.824  1.00  0.00     0.040 A 
ATOM     80  F   UNL     1      -1.411  -3.182   0.926  1.00  0.00    -0.206 F 
ATOM     81  C   UNL     1      -2.489  -6.620   0.999  1.00  0.00     0.006 A 
ENDBRANCH  60  74
BRANCH  61  82
ATOM     82  C   UNL     1       8.084   0.030   1.470  1.00  0.00     0.057 A 
ATOM     83  C   UNL     1       8.940   0.404   0.410  1.00  0.00     0.134 A 
ATOM     84  C   UNL     1       7.285   1.044   2.007  1.00  0.00     0.134 A 
ATOM     85  F   UNL     1       9.734  -0.513  -0.169  1.00  0.00    -0.206 F 
ATOM     86  C   UNL     1       8.925   1.683  -0.156  1.00  0.00     0.040 A 
ATOM     87  C   UNL     1       7.284   2.342   1.466  1.00  0.00     0.040 A 
ATOM     88  F   UNL     1       6.428   0.786   3.005  1.00  0.00    -0.206 F 
ATOM     89  C   UNL     1       8.077   2.654   0.361  1.00  0.00     0.006 A 
ENDBRANCH  61  82
BRANCH  73  90
ATOM     90  C   UNL     1       4.693  -4.434   6.099  1.00  0.00     0.057 A 
ATOM     91  C   UNL     1       4.988  -3.616   7.199  1.00  0.00     0.134 A 
ATOM     92  C   UNL     1       3.871  -5.548   6.382  1.00  0.00     0.134 A 
ATOM     93  F   UNL     1       5.642  -2.456   7.057  1.00  0.00    -0.206 F 
ATOM     94  C   UNL     1       4.561  -3.920   8.497  1.00  0.00     0.040 A 
ATOM     95  C   UNL     1       3.388  -5.826   7.663  1.00  0.00     0.040 A 
ATOM     96  F   UNL     1       3.467  -6.391   5.419  1.00  0.00    -0.206 F 
ATOM     97  C   UNL     1       3.748  -5.021   8.731  1.00  0.00     0.006 A 
ENDBRANCH  73  90
ENDBRANCH  47  48
ENDBRANCH  40  42
ENDBRANCH  39  40
ENDBRANCH  38  39
ENDBRANCH   1  38
TORSDOF 17
