REMARK SMILES C[C@@H](C(=O)OCCOC(=O)c1ccc(-c2c3nc(c(-c4c(F)cccc4F)c4ccc([nH]4)c(-c4c(F)cccc4F)c4nc(c(-c5c(F)cccc5F)c5ccc2[nH]5)C=C4)C=C3)cc1)c1ccc(-c2cccc(OC(=O)NCCC3CCCCC3)c2)c(F)c1
REMARK SMILES IDX 3 1 4 2 2 3 1 4 65 5 66 6 89 7 67 8 87 9 68 10 88 11 69 12
REMARK SMILES IDX 70 13 86 14 71 15 73 16 72 17 74 18 75 19 76 20 77 21 78 23
REMARK SMILES IDX 79 24 80 25 81 26 85 27 82 28 84 29 83 30 5 31 6 32 7 33
REMARK SMILES IDX 8 34 9 35 10 36 11 37 12 38 64 39 13 40 63 41 14 42 15 43
REMARK SMILES IDX 16 44 57 45 17 46 62 47 56 48 58 49 18 50 61 51 55 52 54 53
REMARK SMILES IDX 19 55 45 56 28 57 44 58 29 59 32 60 43 61 59 62 30 63 31 64
REMARK SMILES IDX 42 66 60 67 33 68 20 69 21 70 26 71 22 72 23 73 25 74 27 75
REMARK SMILES IDX 24 76 46 77 47 78 52 79 48 80 49 81 51 82 53 83 50 84 34 85
REMARK SMILES IDX 35 86 40 87 36 88 37 89 39 90 41 91 38 92
REMARK H PARENT 77 22 58 54 32 65
REMARK Flexibility Score: inf
ROOT
ATOM      1  C   UNL     1       0.618  -2.458  -0.522  1.00  0.00     0.313 C 
ATOM      2  O   UNL     1       0.281  -3.590  -0.849  1.00  0.00    -0.252 OA
ENDROOT
BRANCH   1   3
ATOM      3  C   UNL     1       0.027  -1.166  -1.153  1.00  0.00     0.126 C 
ATOM      4  C   UNL     1       0.739   0.080  -0.591  1.00  0.00     0.025 C 
BRANCH   3   5
ATOM      5  C   UNL     1      -1.524  -1.066  -1.149  1.00  0.00    -0.031 A 
ATOM      6  C   UNL     1      -2.218   0.074  -0.699  1.00  0.00     0.005 A 
ATOM      7  C   UNL     1      -2.332  -2.103  -1.648  1.00  0.00     0.044 A 
ATOM      8  C   UNL     1      -3.635   0.146  -0.680  1.00  0.00     0.012 A 
ATOM      9  C   UNL     1      -3.751  -2.030  -1.620  1.00  0.00     0.131 A 
ATOM     10  C   UNL     1      -4.444  -0.918  -1.111  1.00  0.00     0.018 A 
ATOM     11  F   UNL     1      -4.434  -3.100  -2.053  1.00  0.00    -0.206 F 
BRANCH  10  12
ATOM     12  C   UNL     1      -5.924  -0.898  -0.891  1.00  0.00    -0.012 A 
ATOM     13  C   UNL     1      -6.833  -0.256  -1.734  1.00  0.00     0.009 A 
ATOM     14  C   UNL     1      -6.473  -1.489   0.267  1.00  0.00     0.056 A 
ATOM     15  C   UNL     1      -8.218  -0.239  -1.432  1.00  0.00     0.004 A 
ATOM     16  C   UNL     1      -7.854  -1.485   0.571  1.00  0.00     0.133 A 
ATOM     17  C   UNL     1      -8.748  -0.857  -0.283  1.00  0.00     0.047 A 
BRANCH  16  18
ATOM     18  O   UNL     1      -8.437  -2.147   2.032  1.00  0.00    -0.410 OA
BRANCH  18  19
ATOM     19  C   UNL     1      -8.587  -2.878   3.517  1.00  0.00     0.412 C 
ATOM     20  O   UNL     1      -7.622  -3.328   4.145  1.00  0.00    -0.224 OA
ATOM     21  N   UNL     1      -9.737  -2.831   4.247  1.00  0.00    -0.321 N 
ATOM     22  H   UNL     1      -9.840  -2.077   4.872  1.00  0.00     0.167 HD
BRANCH  21  23
ATOM     23  C   UNL     1     -10.815  -3.784   4.187  1.00  0.00     0.119 C 
BRANCH  23  24
ATOM     24  C   UNL     1     -10.490  -5.275   4.138  1.00  0.00     0.025 C 
BRANCH  24  25
ATOM     25  C   UNL     1      -9.875  -5.937   5.387  1.00  0.00    -0.009 C 
ATOM     26  C   UNL     1     -10.501  -5.462   6.706  1.00  0.00     0.003 C 
ATOM     27  C   UNL     1     -10.015  -7.469   5.235  1.00  0.00     0.003 C 
ATOM     28  C   UNL     1      -9.987  -6.251   7.909  1.00  0.00     0.000 C 
ATOM     29  C   UNL     1      -9.529  -8.243   6.456  1.00  0.00     0.000 C 
ATOM     30  C   UNL     1     -10.200  -7.748   7.731  1.00  0.00     0.000 C 
ENDBRANCH  24  25
ENDBRANCH  23  24
ENDBRANCH  21  23
ENDBRANCH  18  19
ENDBRANCH  16  18
ENDBRANCH  10  12
ENDBRANCH   3   5
ENDBRANCH   1   3
BRANCH   1  31
ATOM     31  O   UNL     1       1.580  -2.200   0.418  1.00  0.00    -0.462 OA
BRANCH  31  32
ATOM     32  C   UNL     1       2.284  -3.318   1.017  1.00  0.00     0.274 C 
BRANCH  32  33
ATOM     33  C   UNL     1       2.358  -3.156   2.539  1.00  0.00     0.275 C 
BRANCH  33  34
ATOM     34  O   UNL     1       1.038  -3.333   3.072  1.00  0.00    -0.458 OA
BRANCH  34  35
ATOM     35  C   UNL     1       0.438  -2.230   3.564  1.00  0.00     0.338 C 
ATOM     36  O   UNL     1       0.934  -1.149   3.844  1.00  0.00    -0.246 OA
BRANCH  35  37
ATOM     37  C   UNL     1      -1.001  -2.480   3.484  1.00  0.00     0.060 A 
ATOM     38  C   UNL     1      -1.566  -2.404   2.216  1.00  0.00     0.016 A 
ATOM     39  C   UNL     1      -1.787  -2.753   4.600  1.00  0.00     0.016 A 
ATOM     40  C   UNL     1      -2.923  -2.580   2.048  1.00  0.00     0.010 A 
ATOM     41  C   UNL     1      -3.161  -2.950   4.426  1.00  0.00     0.010 A 
ATOM     42  C   UNL     1      -3.735  -2.836   3.150  1.00  0.00    -0.014 A 
BRANCH  42  43
ATOM     43  C   UNL     1      -5.197  -2.811   2.936  1.00  0.00     0.031 A 
ATOM     44  C   UNL     1      -5.880  -1.410   3.454  1.00  0.00     0.074 A 
ATOM     45  C   UNL     1      -5.741  -3.857   2.190  1.00  0.00     0.049 A 
ATOM     46  N   UNL     1      -7.053  -0.902   3.171  1.00  0.00    -0.248 NA
ATOM     47  C   UNL     1      -5.167  -0.448   4.321  1.00  0.00     0.031 C 
ATOM     48  C   UNL     1      -5.080  -5.008   1.537  1.00  0.00     0.029 A 
ATOM     49  N   UNL     1      -7.020  -4.064   1.710  1.00  0.00    -0.354 N 
ATOM     50  C   UNL     1      -7.356   0.205   3.912  1.00  0.00     0.074 A 
ATOM     51  C   UNL     1      -6.086   0.506   4.554  1.00  0.00     0.031 C 
ATOM     52  C   UNL     1      -5.966  -5.675   0.739  1.00  0.00     0.029 A 
ATOM     53  C   UNL     1      -7.294  -5.065   0.831  1.00  0.00     0.049 A 
ATOM     54  H   UNL     1      -7.749  -3.475   2.011  1.00  0.00     0.167 HD
ATOM     55  C   UNL     1      -8.584   0.799   4.086  1.00  0.00     0.037 A 
ATOM     56  C   UNL     1      -8.489  -5.334   0.217  1.00  0.00     0.037 A 
ATOM     57  C   UNL     1      -9.919   0.394   3.553  1.00  0.00     0.049 A 
ATOM     58  C   UNL     1      -9.837  -4.539   0.459  1.00  0.00     0.074 A 
ATOM     59  C   UNL     1     -11.196   0.813   3.916  1.00  0.00     0.029 A 
ATOM     60  N   UNL     1     -10.181  -0.527   2.546  1.00  0.00    -0.354 N 
ATOM     61  N   UNL     1     -10.052  -3.349   0.960  1.00  0.00    -0.248 NA
ATOM     62  C   UNL     1     -11.118  -5.158   0.063  1.00  0.00     0.031 C 
ATOM     63  C   UNL     1     -12.164   0.018   3.243  1.00  0.00     0.029 A 
ATOM     64  C   UNL     1     -11.519  -0.889   2.410  1.00  0.00     0.049 A 
ATOM     65  H   UNL     1      -9.472  -0.897   1.970  1.00  0.00     0.167 HD
ATOM     66  C   UNL     1     -11.408  -3.049   0.982  1.00  0.00     0.074 A 
ATOM     67  C   UNL     1     -12.015  -4.204   0.334  1.00  0.00     0.031 C 
ATOM     68  C   UNL     1     -12.078  -2.009   1.597  1.00  0.00     0.037 A 
BRANCH  55  69
ATOM     69  C   UNL     1      -8.606   1.922   5.079  1.00  0.00     0.057 A 
ATOM     70  C   UNL     1      -8.226   3.222   4.735  1.00  0.00     0.134 A 
ATOM     71  C   UNL     1      -9.108   1.710   6.371  1.00  0.00     0.134 A 
ATOM     72  F   UNL     1      -7.735   3.488   3.515  1.00  0.00    -0.206 F 
ATOM     73  C   UNL     1      -8.350   4.277   5.642  1.00  0.00     0.040 A 
ATOM     74  C   UNL     1      -9.253   2.758   7.279  1.00  0.00     0.040 A 
ATOM     75  F   UNL     1      -9.501   0.485   6.756  1.00  0.00    -0.206 F 
ATOM     76  C   UNL     1      -8.875   4.048   6.915  1.00  0.00     0.006 A 
ENDBRANCH  55  69
BRANCH  56  77
ATOM     77  C   UNL     1      -8.576  -6.466  -0.750  1.00  0.00     0.057 A 
ATOM     78  C   UNL     1      -9.052  -6.255  -2.054  1.00  0.00     0.134 A 
ATOM     79  C   UNL     1      -8.318  -7.788  -0.374  1.00  0.00     0.134 A 
ATOM     80  F   UNL     1      -9.365  -5.019  -2.470  1.00  0.00    -0.206 F 
ATOM     81  C   UNL     1      -9.290  -7.315  -2.933  1.00  0.00     0.040 A 
ATOM     82  C   UNL     1      -8.521  -8.854  -1.253  1.00  0.00     0.040 A 
ATOM     83  F   UNL     1      -7.901  -8.072   0.869  1.00  0.00    -0.206 F 
ATOM     84  C   UNL     1      -9.020  -8.620  -2.533  1.00  0.00     0.006 A 
ENDBRANCH  56  77
BRANCH  68  85
ATOM     85  C   UNL     1     -13.590  -2.138   1.625  1.00  0.00     0.057 A 
ATOM     86  C   UNL     1     -14.241  -3.136   2.374  1.00  0.00     0.134 A 
ATOM     87  C   UNL     1     -14.407  -1.198   0.987  1.00  0.00     0.134 A 
ATOM     88  F   UNL     1     -13.541  -4.075   3.028  1.00  0.00    -0.206 F 
ATOM     89  C   UNL     1     -15.633  -3.213   2.462  1.00  0.00     0.040 A 
ATOM     90  C   UNL     1     -15.803  -1.253   1.084  1.00  0.00     0.040 A 
ATOM     91  F   UNL     1     -13.866  -0.197   0.278  1.00  0.00    -0.206 F 
ATOM     92  C   UNL     1     -16.419  -2.265   1.818  1.00  0.00     0.006 A 
ENDBRANCH  68  85
ENDBRANCH  42  43
ENDBRANCH  35  37
ENDBRANCH  34  35
ENDBRANCH  33  34
ENDBRANCH  32  33
ENDBRANCH  31  32
ENDBRANCH   1  31
TORSDOF 18
