REMARK SMILES CC(C)[NH2+][C@]1(C(=O)OCCOC(=O)c2ccc(-c3c4nc(c(-c5c(F)cccc5F)c5ccc([nH]5)c(-c5c(F)cccc5F)c5nc(c(-c6c(F)cccc6F)c6ccc3[nH]6)C=C5)C=C4)cc2)CC[C@@H]([N@@H+](C)[C@@H](C)C(C)C)C1
REMARK SMILES IDX 9 1 8 2 6 3 7 4 5 5 68 6 78 7 69 8 70 9 4 10 2 13 1 14 3 15
REMARK SMILES IDX 71 16 72 17 73 19 74 20 75 21 76 22 77 23 10 24 11 25 12 26
REMARK SMILES IDX 13 27 14 28 15 29 67 30 16 31 66 32 17 33 18 34 19 35 60 36
REMARK SMILES IDX 20 37 65 38 59 39 61 40 21 41 64 42 58 43 57 44 22 46 48 47
REMARK SMILES IDX 31 48 47 49 32 50 35 51 46 52 62 53 33 54 34 55 45 57 63 58
REMARK SMILES IDX 36 59 23 60 24 61 29 62 25 63 26 64 28 65 30 66 27 67 49 68
REMARK SMILES IDX 50 69 55 70 51 71 52 72 54 73 56 74 53 75 37 76 38 77 43 78
REMARK SMILES IDX 39 79 40 80 42 81 44 82 41 83
REMARK H PARENT 4 11 4 12 71 18 61 45 35 56
REMARK Flexibility Score: inf
ROOT
ATOM      1  C   UNL     1       0.232   0.885  -0.448  1.00  0.00     0.274 C 
ENDROOT
BRANCH   1   2
ATOM      2  O   UNL     1      -0.508   0.017  -1.329  1.00  0.00    -0.457 OA
BRANCH   2   3
ATOM      3  C   UNL     1      -0.582  -1.272  -0.899  1.00  0.00     0.368 C 
ATOM      4  O   UNL     1      -0.029  -1.654   0.126  1.00  0.00    -0.245 OA
BRANCH   3   5
ATOM      5  C   UNL     1      -1.414  -2.186  -1.839  1.00  0.00     0.200 C 
ATOM      6  C   UNL     1      -0.593  -2.450  -3.112  1.00  0.00     0.087 C 
ATOM      7  C   UNL     1      -1.535  -3.611  -1.202  1.00  0.00     0.146 C 
ATOM      8  C   UNL     1      -0.898  -3.877  -3.537  1.00  0.00     0.072 C 
ATOM      9  C   UNL     1      -1.104  -4.661  -2.241  1.00  0.00     0.191 C 
BRANCH   5  10
ATOM     10  N   UNL     1      -2.816  -1.724  -1.978  1.00  0.00    -0.330 N 
ATOM     11  H   UNL     1      -3.374  -2.559  -2.158  1.00  0.00     0.347 HD
ATOM     12  H   UNL     1      -2.958  -1.208  -1.109  1.00  0.00     0.347 HD
BRANCH  10  13
ATOM     13  C   UNL     1      -3.215  -0.744  -2.982  1.00  0.00     0.176 C 
ATOM     14  C   UNL     1      -4.571  -1.218  -3.523  1.00  0.00     0.075 C 
ATOM     15  C   UNL     1      -3.408   0.664  -2.414  1.00  0.00     0.075 C 
ENDBRANCH  10  13
ENDBRANCH   5  10
BRANCH   9  16
ATOM     16  N   UNL     1      -0.106  -5.657  -1.786  1.00  0.00    -0.332 N 
ATOM     17  C   UNL     1      -0.262  -6.918  -2.522  1.00  0.00     0.333 C 
ATOM     18  H   UNL     1      -0.384  -5.691  -0.805  1.00  0.00     0.348 HD
BRANCH  16  19
ATOM     19  C   UNL     1       1.330  -5.344  -1.565  1.00  0.00     0.183 C 
ATOM     20  C   UNL     1       2.105  -4.942  -2.828  1.00  0.00     0.075 C 
BRANCH  19  21
ATOM     21  C   UNL     1       1.603  -4.389  -0.369  1.00  0.00     0.041 C 
ATOM     22  C   UNL     1       1.065  -4.953   0.956  1.00  0.00     0.013 C 
ATOM     23  C   UNL     1       3.083  -4.034  -0.166  1.00  0.00     0.013 C 
ENDBRANCH  19  21
ENDBRANCH  16  19
ENDBRANCH   9  16
ENDBRANCH   3   5
ENDBRANCH   2   3
ENDBRANCH   1   2
BRANCH   1  24
ATOM     24  C   UNL     1      -0.637   1.451   0.681  1.00  0.00     0.275 C 
BRANCH  24  25
ATOM     25  O   UNL     1      -1.244   0.407   1.470  1.00  0.00    -0.458 OA
BRANCH  25  26
ATOM     26  C   UNL     1      -2.596   0.386   1.463  1.00  0.00     0.338 C 
ATOM     27  O   UNL     1      -3.337   1.187   0.918  1.00  0.00    -0.246 OA
BRANCH  26  28
ATOM     28  C   UNL     1      -3.144  -0.768   2.204  1.00  0.00     0.060 A 
ATOM     29  C   UNL     1      -2.822  -2.075   1.843  1.00  0.00     0.016 A 
ATOM     30  C   UNL     1      -4.167  -0.538   3.125  1.00  0.00     0.016 A 
ATOM     31  C   UNL     1      -3.588  -3.144   2.308  1.00  0.00     0.010 A 
ATOM     32  C   UNL     1      -4.882  -1.615   3.656  1.00  0.00     0.010 A 
ATOM     33  C   UNL     1      -4.633  -2.924   3.214  1.00  0.00    -0.014 A 
BRANCH  33  34
ATOM     34  C   UNL     1      -5.489  -4.046   3.679  1.00  0.00     0.031 A 
ATOM     35  C   UNL     1      -6.963  -4.057   3.373  1.00  0.00     0.074 A 
ATOM     36  C   UNL     1      -4.949  -5.051   4.393  1.00  0.00     0.049 A 
ATOM     37  N   UNL     1      -7.901  -4.846   3.836  1.00  0.00    -0.248 NA
ATOM     38  C   UNL     1      -7.450  -3.034   2.434  1.00  0.00     0.031 C 
ATOM     39  C   UNL     1      -3.533  -5.176   4.737  1.00  0.00     0.029 A 
ATOM     40  N   UNL     1      -5.532  -6.154   4.965  1.00  0.00    -0.354 N 
ATOM     41  C   UNL     1      -9.092  -4.382   3.291  1.00  0.00     0.074 A 
ATOM     42  C   UNL     1      -8.759  -3.246   2.457  1.00  0.00     0.031 C 
ATOM     43  C   UNL     1      -3.352  -6.300   5.445  1.00  0.00     0.029 A 
ATOM     44  C   UNL     1      -4.647  -6.937   5.662  1.00  0.00     0.049 A 
ATOM     45  H   UNL     1      -6.491  -6.362   4.883  1.00  0.00     0.167 HD
ATOM     46  C   UNL     1     -10.348  -4.856   3.477  1.00  0.00     0.037 A 
ATOM     47  C   UNL     1      -4.854  -8.027   6.423  1.00  0.00     0.037 A 
ATOM     48  C   UNL     1     -10.669  -6.014   4.273  1.00  0.00     0.049 A 
ATOM     49  C   UNL     1      -6.247  -8.552   6.594  1.00  0.00     0.074 A 
ATOM     50  C   UNL     1     -11.909  -6.580   4.518  1.00  0.00     0.029 A 
ATOM     51  N   UNL     1      -9.738  -6.793   4.943  1.00  0.00    -0.354 N 
ATOM     52  N   UNL     1      -7.370  -8.075   6.117  1.00  0.00    -0.248 NA
ATOM     53  C   UNL     1      -6.402  -9.759   7.415  1.00  0.00     0.031 C 
ATOM     54  C   UNL     1     -11.729  -7.688   5.355  1.00  0.00     0.029 A 
ATOM     55  C   UNL     1     -10.374  -7.833   5.603  1.00  0.00     0.049 A 
ATOM     56  H   UNL     1      -8.766  -6.632   4.949  1.00  0.00     0.167 HD
ATOM     57  C   UNL     1      -8.368  -8.923   6.576  1.00  0.00     0.074 A 
ATOM     58  C   UNL     1      -7.712  -9.957   7.351  1.00  0.00     0.031 C 
ATOM     59  C   UNL     1      -9.706  -8.847   6.377  1.00  0.00     0.037 A 
BRANCH  46  60
ATOM     60  C   UNL     1     -11.474  -4.096   2.839  1.00  0.00     0.057 A 
ATOM     61  C   UNL     1     -11.723  -4.143   1.462  1.00  0.00     0.134 A 
ATOM     62  C   UNL     1     -12.335  -3.316   3.624  1.00  0.00     0.134 A 
ATOM     63  F   UNL     1     -10.928  -4.858   0.652  1.00  0.00    -0.206 F 
ATOM     64  C   UNL     1     -12.772  -3.423   0.885  1.00  0.00     0.040 A 
ATOM     65  C   UNL     1     -13.400  -2.611   3.062  1.00  0.00     0.040 A 
ATOM     66  F   UNL     1     -12.157  -3.231   4.951  1.00  0.00    -0.206 F 
ATOM     67  C   UNL     1     -13.617  -2.658   1.687  1.00  0.00     0.006 A 
ENDBRANCH  46  60
BRANCH  47  68
ATOM     68  C   UNL     1      -3.695  -8.671   7.085  1.00  0.00     0.057 A 
ATOM     69  C   UNL     1      -3.170  -9.876   6.609  1.00  0.00     0.134 A 
ATOM     70  C   UNL     1      -3.042  -8.057   8.161  1.00  0.00     0.134 A 
ATOM     71  F   UNL     1      -3.765 -10.517   5.593  1.00  0.00    -0.206 F 
ATOM     72  C   UNL     1      -2.028 -10.445   7.173  1.00  0.00     0.040 A 
ATOM     73  C   UNL     1      -1.887  -8.603   8.720  1.00  0.00     0.040 A 
ATOM     74  F   UNL     1      -3.495  -6.895   8.655  1.00  0.00    -0.206 F 
ATOM     75  C   UNL     1      -1.376  -9.801   8.225  1.00  0.00     0.006 A 
ENDBRANCH  47  68
BRANCH  59  76
ATOM     76  C   UNL     1     -10.539  -9.925   7.000  1.00  0.00     0.057 A 
ATOM     77  C   UNL     1     -10.809  -9.943   8.374  1.00  0.00     0.134 A 
ATOM     78  C   UNL     1     -11.078 -10.954   6.218  1.00  0.00     0.134 A 
ATOM     79  F   UNL     1     -10.308  -8.993   9.178  1.00  0.00    -0.206 F 
ATOM     80  C   UNL     1     -11.564 -10.964   8.954  1.00  0.00     0.040 A 
ATOM     81  C   UNL     1     -11.850 -11.969   6.783  1.00  0.00     0.040 A 
ATOM     82  F   UNL     1     -10.859 -10.989   4.895  1.00  0.00    -0.206 F 
ATOM     83  C   UNL     1     -12.089 -11.979   8.156  1.00  0.00     0.006 A 
ENDBRANCH  59  76
ENDBRANCH  33  34
ENDBRANCH  26  28
ENDBRANCH  25  26
ENDBRANCH  24  25
ENDBRANCH   1  24
TORSDOF 16
