REMARK SMILES CC1(C)[C@H](C(=O)Nc2ccccc2C(=O)Nc2nccs2)[C@H]1C(=O)OCCOC(=O)c1ccc(-c2c3nc(c(-c4c(F)cccc4F)c4ccc([nH]4)c(-c4c(F)cccc4F)c4nc(c(-c5c(F)cccc5F)c5ccc2[nH]5)C=C4)C=C3)cc1
REMARK SMILES IDX 26 1 25 2 23 3 24 4 22 5 1 6 2 7 3 8 4 9 5 10 6 11 7 12 8 14
REMARK SMILES IDX 9 15 13 16 10 17 12 18 11 19 14 20 15 21 16 22 17 24 18 25
REMARK SMILES IDX 21 26 19 27 20 28 27 29 28 30 29 31 30 32 31 33 32 34 84 35
REMARK SMILES IDX 33 36 83 37 34 38 35 39 36 40 77 41 37 42 82 43 76 44 78 45
REMARK SMILES IDX 38 46 81 47 75 48 74 49 39 51 65 52 48 53 64 54 49 55 52 56
REMARK SMILES IDX 63 57 79 58 50 59 51 60 62 62 80 63 53 64 40 65 41 66 46 67
REMARK SMILES IDX 42 68 43 69 45 70 47 71 44 72 66 73 67 74 72 75 68 76 69 77
REMARK SMILES IDX 71 78 73 79 70 80 54 81 55 82 60 83 56 84 57 85 59 86 61 87
REMARK SMILES IDX 58 88
REMARK H PARENT 7 13 16 23 78 50 52 61
REMARK Flexibility Score: inf
ROOT
ATOM      1  C   UNL     1      -1.915  -3.658   2.835  1.00  0.00     0.274 C 
ENDROOT
BRANCH   1   2
ATOM      2  O   UNL     1      -1.171  -2.830   1.930  1.00  0.00    -0.462 OA
BRANCH   2   3
ATOM      3  C   UNL     1      -1.930  -1.968   1.207  1.00  0.00     0.310 C 
ATOM      4  O   UNL     1      -3.133  -2.025   1.052  1.00  0.00    -0.252 OA
BRANCH   3   5
ATOM      5  C   UNL     1      -1.185  -0.749   0.876  1.00  0.00     0.118 C 
ATOM      6  C   UNL     1       0.962  -1.738  -0.171  1.00  0.00     0.013 C 
ATOM      7  C   UNL     1       0.149  -0.540   0.271  1.00  0.00    -0.009 C 
ATOM      8  C   UNL     1       0.993   0.493   0.975  1.00  0.00     0.013 C 
ATOM      9  C   UNL     1      -1.102  -0.256  -0.568  1.00  0.00     0.100 C 
BRANCH   9  10
ATOM     10  C   UNL     1      -2.163   0.771  -0.740  1.00  0.00     0.228 C 
ATOM     11  O   UNL     1      -3.284   0.370  -1.055  1.00  0.00    -0.274 OA
ATOM     12  N   UNL     1      -2.043   2.092  -0.447  1.00  0.00    -0.325 N 
ATOM     13  H   UNL     1      -2.912   2.507  -0.243  1.00  0.00     0.169 HD
BRANCH  12  14
ATOM     14  C   UNL     1      -0.989   3.006  -0.363  1.00  0.00     0.054 A 
ATOM     15  C   UNL     1      -1.272   4.088   0.500  1.00  0.00     0.027 A 
ATOM     16  C   UNL     1       0.248   2.969  -1.024  1.00  0.00     0.063 A 
ATOM     17  C   UNL     1      -0.303   5.029   0.838  1.00  0.00     0.002 A 
ATOM     18  C   UNL     1       1.226   3.920  -0.651  1.00  0.00     0.016 A 
ATOM     19  C   UNL     1       0.962   4.925   0.284  1.00  0.00     0.001 A 
BRANCH  16  20
ATOM     20  C   UNL     1       0.701   1.998  -2.059  1.00  0.00     0.259 C 
ATOM     21  O   UNL     1       1.869   1.599  -2.002  1.00  0.00    -0.269 OA
ATOM     22  N   UNL     1      -0.074   1.488  -3.063  1.00  0.00    -0.298 N 
ATOM     23  H   UNL     1       0.307   0.712  -3.535  1.00  0.00     0.172 HD
BRANCH  22  24
ATOM     24  C   UNL     1      -1.293   1.895  -3.505  1.00  0.00     0.189 A 
ATOM     25  N   UNL     1      -1.982   2.966  -3.213  1.00  0.00    -0.229 NA
ATOM     26  S   UNL     1      -2.030   0.768  -4.560  1.00  0.00    -0.105 S 
ATOM     27  C   UNL     1      -3.243   2.846  -3.770  1.00  0.00     0.125 A 
ATOM     28  C   UNL     1      -3.469   1.698  -4.501  1.00  0.00     0.088 A 
ENDBRANCH  22  24
ENDBRANCH  16  20
ENDBRANCH  12  14
ENDBRANCH   9  10
ENDBRANCH   3   5
ENDBRANCH   2   3
ENDBRANCH   1   2
BRANCH   1  29
ATOM     29  C   UNL     1      -1.604  -3.224   4.266  1.00  0.00     0.275 C 
BRANCH  29  30
ATOM     30  O   UNL     1      -1.981  -1.845   4.495  1.00  0.00    -0.458 OA
BRANCH  30  31
ATOM     31  C   UNL     1      -0.944  -0.983   4.610  1.00  0.00     0.338 C 
ATOM     32  O   UNL     1       0.244  -1.235   4.487  1.00  0.00    -0.246 OA
BRANCH  31  33
ATOM     33  C   UNL     1      -1.402   0.377   4.949  1.00  0.00     0.060 A 
ATOM     34  C   UNL     1      -1.972   1.187   3.973  1.00  0.00     0.016 A 
ATOM     35  C   UNL     1      -1.054   0.924   6.184  1.00  0.00     0.016 A 
ATOM     36  C   UNL     1      -2.040   2.565   4.165  1.00  0.00     0.010 A 
ATOM     37  C   UNL     1      -1.262   2.289   6.425  1.00  0.00     0.010 A 
ATOM     38  C   UNL     1      -1.705   3.141   5.399  1.00  0.00    -0.014 A 
BRANCH  38  39
ATOM     39  C   UNL     1      -1.801   4.620   5.597  1.00  0.00     0.031 A 
ATOM     40  C   UNL     1      -0.612   5.414   6.085  1.00  0.00     0.074 A 
ATOM     41  C   UNL     1      -2.951   5.272   5.324  1.00  0.00     0.049 A 
ATOM     42  N   UNL     1      -0.555   6.665   6.472  1.00  0.00    -0.248 NA
ATOM     43  C   UNL     1       0.676   4.708   6.166  1.00  0.00     0.031 C 
ATOM     44  C   UNL     1      -4.180   4.655   4.822  1.00  0.00     0.029 A 
ATOM     45  N   UNL     1      -3.272   6.605   5.422  1.00  0.00    -0.354 N 
ATOM     46  C   UNL     1       0.749   6.873   6.907  1.00  0.00     0.074 A 
ATOM     47  C   UNL     1       1.454   5.621   6.731  1.00  0.00     0.031 C 
ATOM     48  C   UNL     1      -5.097   5.608   4.601  1.00  0.00     0.029 A 
ATOM     49  C   UNL     1      -4.561   6.890   5.038  1.00  0.00     0.049 A 
ATOM     50  H   UNL     1      -2.639   7.290   5.737  1.00  0.00     0.167 HD
ATOM     51  C   UNL     1       1.310   8.002   7.407  1.00  0.00     0.037 A 
ATOM     52  C   UNL     1      -5.257   8.042   5.071  1.00  0.00     0.037 A 
ATOM     53  C   UNL     1       0.635   9.270   7.518  1.00  0.00     0.049 A 
ATOM     54  C   UNL     1      -4.615   9.279   5.623  1.00  0.00     0.074 A 
ATOM     55  C   UNL     1       1.130  10.473   7.995  1.00  0.00     0.029 A 
ATOM     56  N   UNL     1      -0.673   9.506   7.127  1.00  0.00    -0.354 N 
ATOM     57  N   UNL     1      -3.400   9.441   6.085  1.00  0.00    -0.248 NA
ATOM     58  C   UNL     1      -5.448  10.488   5.679  1.00  0.00     0.031 C 
ATOM     59  C   UNL     1       0.113  11.431   7.913  1.00  0.00     0.029 A 
ATOM     60  C   UNL     1      -1.003  10.833   7.353  1.00  0.00     0.049 A 
ATOM     61  H   UNL     1      -1.279   8.830   6.745  1.00  0.00     0.167 HD
ATOM     62  C   UNL     1      -3.319  10.769   6.479  1.00  0.00     0.074 A 
ATOM     63  C   UNL     1      -4.601  11.375   6.181  1.00  0.00     0.031 C 
ATOM     64  C   UNL     1      -2.278  11.425   7.045  1.00  0.00     0.037 A 
BRANCH  51  65
ATOM     65  C   UNL     1       2.725   7.916   7.901  1.00  0.00     0.057 A 
ATOM     66  C   UNL     1       3.817   7.839   7.029  1.00  0.00     0.134 A 
ATOM     67  C   UNL     1       2.998   7.955   9.275  1.00  0.00     0.134 A 
ATOM     68  F   UNL     1       3.624   7.787   5.702  1.00  0.00    -0.206 F 
ATOM     69  C   UNL     1       5.129   7.784   7.505  1.00  0.00     0.040 A 
ATOM     70  C   UNL     1       4.305   7.924   9.763  1.00  0.00     0.040 A 
ATOM     71  F   UNL     1       1.998   8.038  10.166  1.00  0.00    -0.206 F 
ATOM     72  C   UNL     1       5.376   7.833   8.876  1.00  0.00     0.006 A 
ENDBRANCH  51  65
BRANCH  52  73
ATOM     73  C   UNL     1      -6.662   8.067   4.592  1.00  0.00     0.057 A 
ATOM     74  C   UNL     1      -7.008   8.727   3.408  1.00  0.00     0.134 A 
ATOM     75  C   UNL     1      -7.687   7.424   5.297  1.00  0.00     0.134 A 
ATOM     76  F   UNL     1      -6.074   9.380   2.701  1.00  0.00    -0.206 F 
ATOM     77  C   UNL     1      -8.324   8.752   2.944  1.00  0.00     0.040 A 
ATOM     78  C   UNL     1      -9.002   7.417   4.831  1.00  0.00     0.040 A 
ATOM     79  F   UNL     1      -7.417   6.770   6.436  1.00  0.00    -0.206 F 
ATOM     80  C   UNL     1      -9.324   8.088   3.653  1.00  0.00     0.006 A 
ENDBRANCH  52  73
BRANCH  64  81
ATOM     81  C   UNL     1      -2.474  12.880   7.348  1.00  0.00     0.057 A 
ATOM     82  C   UNL     1      -3.252  13.308   8.430  1.00  0.00     0.134 A 
ATOM     83  C   UNL     1      -1.865  13.861   6.556  1.00  0.00     0.134 A 
ATOM     84  F   UNL     1      -3.875  12.416   9.216  1.00  0.00    -0.206 F 
ATOM     85  C   UNL     1      -3.434  14.665   8.703  1.00  0.00     0.040 A 
ATOM     86  C   UNL     1      -2.023  15.219   6.831  1.00  0.00     0.040 A 
ATOM     87  F   UNL     1      -1.105  13.514   5.507  1.00  0.00    -0.206 F 
ATOM     88  C   UNL     1      -2.814  15.625   7.904  1.00  0.00     0.006 A 
ENDBRANCH  64  81
ENDBRANCH  38  39
ENDBRANCH  31  33
ENDBRANCH  30  31
ENDBRANCH  29  30
ENDBRANCH   1  29
TORSDOF 15
