REMARK SMILES Cc1nc2cc(C(=O)OCCOC(=O)c3ccc(-c4c5nc(c(-c6c(F)cccc6F)c6ccc([nH]6)c(-c6c(F)cccc6F)c6nc(c(-c7c(F)cccc7F)c7ccc4[nH]7)C=C6)C=C5)cc3)ccc2n1CCC[NH+]1CCOCC1
REMARK SMILES IDX 10 1 9 2 7 3 8 4 6 5 1 6 2 7 3 8 72 9 4 10 71 11 5 12 70 13
REMARK SMILES IDX 69 14 73 15 74 16 75 17 76 18 77 19 81 20 78 22 80 23 79 24
REMARK SMILES IDX 11 25 12 26 13 27 14 28 15 29 16 30 68 31 17 32 67 33 18 34
REMARK SMILES IDX 19 35 20 36 61 37 21 38 66 39 60 40 62 41 22 42 65 43 59 44
REMARK SMILES IDX 58 45 23 47 49 48 32 49 48 50 33 51 36 52 47 53 63 54 34 55
REMARK SMILES IDX 35 56 46 58 64 59 37 60 24 61 25 62 30 63 26 64 27 65 29 66
REMARK SMILES IDX 31 67 28 68 50 69 51 70 56 71 52 72 53 73 55 74 57 75 54 76
REMARK SMILES IDX 38 77 39 78 44 79 40 80 41 81 43 82 45 83 42 84
REMARK H PARENT 76 21 62 46 36 57
REMARK Flexibility Score: inf
ROOT
ATOM      1  C   UNL     1      -1.161  -9.420  -0.097  1.00  0.00     0.275 C 
ENDROOT
BRANCH   1   2
ATOM      2  O   UNL     1      -1.549  -8.024  -0.210  1.00  0.00    -0.458 OA
BRANCH   2   3
ATOM      3  C   UNL     1      -1.379  -7.265   0.902  1.00  0.00     0.338 C 
ATOM      4  O   UNL     1      -0.934  -7.641   1.975  1.00  0.00    -0.246 OA
BRANCH   3   5
ATOM      5  C   UNL     1      -1.611  -5.830   0.608  1.00  0.00     0.062 A 
ATOM      6  C   UNL     1       0.888  -0.607  -0.712  1.00  0.00     0.088 C 
ATOM      7  C   UNL     1       0.060  -1.728  -0.196  1.00  0.00     0.106 A 
ATOM      8  N   UNL     1       0.550  -2.820   0.348  1.00  0.00    -0.233 NA
ATOM      9  N   UNL     1      -1.319  -1.787  -0.168  1.00  0.00    -0.328 N 
ATOM     10  C   UNL     1      -0.503  -3.688   0.439  1.00  0.00     0.090 A 
ATOM     11  C   UNL     1      -1.681  -3.111  -0.004  1.00  0.00     0.068 A 
ATOM     12  C   UNL     1      -0.522  -5.013   0.864  1.00  0.00     0.046 A 
ATOM     13  C   UNL     1      -2.866  -3.864  -0.123  1.00  0.00     0.029 A 
ATOM     14  C   UNL     1      -2.786  -5.259   0.125  1.00  0.00     0.018 A 
BRANCH   9  15
ATOM     15  C   UNL     1      -2.214  -0.648  -0.102  1.00  0.00     0.130 C 
BRANCH  15  16
ATOM     16  C   UNL     1      -2.179   0.047   1.273  1.00  0.00     0.083 C 
BRANCH  16  17
ATOM     17  C   UNL     1      -1.032   1.053   1.480  1.00  0.00     0.264 C 
BRANCH  17  18
ATOM     18  N   UNL     1      -0.860   1.978   0.349  1.00  0.00    -0.331 N 
ATOM     19  C   UNL     1       0.360   2.809   0.479  1.00  0.00     0.291 C 
ATOM     20  C   UNL     1      -2.007   2.890   0.157  1.00  0.00     0.291 C 
ATOM     21  H   UNL     1      -0.782   1.365  -0.462  1.00  0.00     0.348 HD
ATOM     22  C   UNL     1       0.245   3.940   1.513  1.00  0.00     0.221 C 
ATOM     23  C   UNL     1      -2.100   3.985   1.230  1.00  0.00     0.221 C 
ATOM     24  O   UNL     1      -0.900   4.766   1.272  1.00  0.00    -0.370 OA
ENDBRANCH  17  18
ENDBRANCH  16  17
ENDBRANCH  15  16
ENDBRANCH   9  15
ENDBRANCH   3   5
ENDBRANCH   2   3
ENDBRANCH   1   2
BRANCH   1  25
ATOM     25  C   UNL     1      -0.080  -9.788  -1.123  1.00  0.00     0.275 C 
BRANCH  25  26
ATOM     26  O   UNL     1       1.194  -9.372  -0.607  1.00  0.00    -0.458 OA
BRANCH  26  27
ATOM     27  C   UNL     1       1.879  -8.463  -1.335  1.00  0.00     0.338 C 
ATOM     28  O   UNL     1       1.737  -8.202  -2.520  1.00  0.00    -0.246 OA
BRANCH  27  29
ATOM     29  C   UNL     1       2.534  -7.586  -0.346  1.00  0.00     0.060 A 
ATOM     30  C   UNL     1       3.067  -8.059   0.863  1.00  0.00     0.016 A 
ATOM     31  C   UNL     1       2.345  -6.231  -0.539  1.00  0.00     0.016 A 
ATOM     32  C   UNL     1       3.188  -7.196   1.962  1.00  0.00     0.010 A 
ATOM     33  C   UNL     1       2.511  -5.391   0.547  1.00  0.00     0.010 A 
ATOM     34  C   UNL     1       2.782  -5.869   1.843  1.00  0.00    -0.014 A 
BRANCH  34  35
ATOM     35  C   UNL     1       2.849  -4.889   2.957  1.00  0.00     0.031 A 
ATOM     36  C   UNL     1       4.011  -3.998   2.734  1.00  0.00     0.074 A 
ATOM     37  C   UNL     1       1.985  -4.586   3.965  1.00  0.00     0.049 A 
ATOM     38  N   UNL     1       5.232  -4.250   3.080  1.00  0.00    -0.248 NA
ATOM     39  C   UNL     1       3.877  -2.893   1.766  1.00  0.00     0.031 C 
ATOM     40  C   UNL     1       0.623  -5.071   4.202  1.00  0.00     0.029 A 
ATOM     41  N   UNL     1       2.143  -3.678   4.998  1.00  0.00    -0.354 N 
ATOM     42  C   UNL     1       5.954  -3.181   2.573  1.00  0.00     0.074 A 
ATOM     43  C   UNL     1       5.164  -2.660   1.499  1.00  0.00     0.031 C 
ATOM     44  C   UNL     1       0.017  -4.318   5.159  1.00  0.00     0.029 A 
ATOM     45  C   UNL     1       0.980  -3.384   5.726  1.00  0.00     0.049 A 
ATOM     46  H   UNL     1       3.012  -3.266   5.208  1.00  0.00     0.167 HD
ATOM     47  C   UNL     1       6.867  -2.538   3.351  1.00  0.00     0.037 A 
ATOM     48  C   UNL     1       0.827  -2.455   6.718  1.00  0.00     0.037 A 
ATOM     49  C   UNL     1       7.097  -3.295   4.565  1.00  0.00     0.049 A 
ATOM     50  C   UNL     1       2.177  -2.141   7.231  1.00  0.00     0.074 A 
ATOM     51  C   UNL     1       7.594  -4.534   4.908  1.00  0.00     0.029 A 
ATOM     52  N   UNL     1       6.353  -2.854   5.626  1.00  0.00    -0.354 N 
ATOM     53  N   UNL     1       2.876  -2.942   7.978  1.00  0.00    -0.248 NA
ATOM     54  C   UNL     1       2.905  -1.011   6.670  1.00  0.00     0.031 C 
ATOM     55  C   UNL     1       6.946  -4.897   6.128  1.00  0.00     0.029 A 
ATOM     56  C   UNL     1       6.116  -3.851   6.525  1.00  0.00     0.049 A 
ATOM     57  H   UNL     1       6.029  -1.929   5.728  1.00  0.00     0.167 HD
ATOM     58  C   UNL     1       4.176  -2.715   7.579  1.00  0.00     0.074 A 
ATOM     59  C   UNL     1       4.152  -1.404   6.940  1.00  0.00     0.031 C 
ATOM     60  C   UNL     1       5.048  -3.760   7.495  1.00  0.00     0.037 A 
BRANCH  47  61
ATOM     61  C   UNL     1       7.114  -1.030   3.336  1.00  0.00     0.057 A 
ATOM     62  C   UNL     1       6.284  -0.044   2.757  1.00  0.00     0.134 A 
ATOM     63  C   UNL     1       8.080  -0.521   4.227  1.00  0.00     0.134 A 
ATOM     64  F   UNL     1       5.300  -0.310   1.896  1.00  0.00    -0.206 F 
ATOM     65  C   UNL     1       6.354   1.310   3.095  1.00  0.00     0.040 A 
ATOM     66  C   UNL     1       8.130   0.827   4.602  1.00  0.00     0.040 A 
ATOM     67  F   UNL     1       8.954  -1.338   4.834  1.00  0.00    -0.206 F 
ATOM     68  C   UNL     1       7.252   1.747   4.049  1.00  0.00     0.006 A 
ENDBRANCH  47  61
BRANCH  48  69
ATOM     69  C   UNL     1      -0.330  -1.688   7.269  1.00  0.00     0.057 A 
ATOM     70  C   UNL     1      -1.402  -1.300   6.455  1.00  0.00     0.134 A 
ATOM     71  C   UNL     1      -0.255  -1.033   8.520  1.00  0.00     0.134 A 
ATOM     72  F   UNL     1      -1.546  -1.811   5.224  1.00  0.00    -0.206 F 
ATOM     73  C   UNL     1      -2.309  -0.295   6.833  1.00  0.00     0.040 A 
ATOM     74  C   UNL     1      -1.151  -0.024   8.906  1.00  0.00     0.040 A 
ATOM     75  F   UNL     1       0.742  -1.299   9.377  1.00  0.00    -0.206 F 
ATOM     76  C   UNL     1      -2.175   0.362   8.052  1.00  0.00     0.006 A 
ENDBRANCH  48  69
BRANCH  60  77
ATOM     77  C   UNL     1       4.779  -4.952   8.364  1.00  0.00     0.057 A 
ATOM     78  C   UNL     1       5.768  -5.312   9.288  1.00  0.00     0.134 A 
ATOM     79  C   UNL     1       3.645  -5.773   8.291  1.00  0.00     0.134 A 
ATOM     80  F   UNL     1       6.894  -4.588   9.390  1.00  0.00    -0.206 F 
ATOM     81  C   UNL     1       5.641  -6.433  10.107  1.00  0.00     0.040 A 
ATOM     82  C   UNL     1       3.487  -6.875   9.138  1.00  0.00     0.040 A 
ATOM     83  F   UNL     1       2.680  -5.557   7.385  1.00  0.00    -0.206 F 
ATOM     84  C   UNL     1       4.490  -7.211  10.043  1.00  0.00     0.006 A 
ENDBRANCH  60  77
ENDBRANCH  34  35
ENDBRANCH  27  29
ENDBRANCH  26  27
ENDBRANCH  25  26
ENDBRANCH   1  25
TORSDOF 15
