REMARK SMILES O=C(OCCOC(=O)c1ccc(-c2c3nc(c(-c4c(F)cccc4F)c4ccc([nH]4)c(-c4c(F)cccc4F)c4nc(c(-c5c(F)cccc5F)c5ccc2[nH]5)C=C4)C=C3)cc1)C1=Cc2c(ccc(Cl)c2Cl)O[C@H]1C(F)(F)F
REMARK SMILES IDX 5 1 4 2 3 3 2 4 1 5 63 6 64 7 74 8 65 9 73 10 66 11 71 12
REMARK SMILES IDX 67 13 69 14 72 15 68 16 70 17 75 18 76 19 77 20 78 21 6 22
REMARK SMILES IDX 7 23 8 24 9 25 10 26 62 27 11 28 61 29 12 30 13 31 14 32
REMARK SMILES IDX 55 33 15 34 60 35 54 36 56 37 16 38 59 39 53 40 52 41 17 43
REMARK SMILES IDX 43 44 26 45 42 46 27 47 30 48 41 49 57 50 28 51 29 52 40 54
REMARK SMILES IDX 58 55 31 56 18 57 19 58 24 59 20 60 21 61 23 62 25 63 22 64
REMARK SMILES IDX 44 65 45 66 50 67 46 68 47 69 49 70 51 71 48 72 32 73 33 74
REMARK SMILES IDX 38 75 34 76 35 77 37 78 39 79 36 80
REMARK H PARENT 56 42 30 53
REMARK Flexibility Score: inf
ROOT
ATOM      1  C   UNL     1       2.508  -2.640  -1.220  1.00  0.00     0.275 C 
ENDROOT
BRANCH   1   2
ATOM      2  C   UNL     1       2.432  -1.920   0.134  1.00  0.00     0.275 C 
BRANCH   2   3
ATOM      3  O   UNL     1       1.958  -0.557   0.028  1.00  0.00    -0.459 OA
BRANCH   3   4
ATOM      4  C   UNL     1       2.627   0.574  -0.291  1.00  0.00     0.338 C 
ATOM      5  O   UNL     1       2.026   1.645  -0.256  1.00  0.00    -0.246 OA
BRANCH   4   6
ATOM      6  C   UNL     1       4.099   0.594  -0.450  1.00  0.00     0.087 C 
ATOM      7  C   UNL     1       4.929  -0.423  -0.708  1.00  0.00     0.029 C 
ATOM      8  C   UNL     1       4.722   1.973  -0.304  1.00  0.00     0.316 C 
ATOM      9  C   UNL     1       6.111  -0.461   0.155  1.00  0.00     0.037 A 
ATOM     10  O   UNL     1       6.100   1.967   0.165  1.00  0.00    -0.475 OA
ATOM     11  C   UNL     1       6.614   0.770   0.581  1.00  0.00     0.129 A 
ATOM     12  C   UNL     1       6.660  -1.653   0.683  1.00  0.00     0.070 A 
ATOM     13  C   UNL     1       7.674   0.833   1.479  1.00  0.00     0.049 A 
ATOM     14  C   UNL     1       7.693  -1.582   1.632  1.00  0.00     0.060 A 
ATOM     15  Cl  UNL     1       6.022  -3.202   0.216  1.00  0.00    -0.082 Cl
ATOM     16  C   UNL     1       8.199  -0.339   2.020  1.00  0.00     0.026 A 
ATOM     17  Cl  UNL     1       8.366  -2.984   2.391  1.00  0.00    -0.083 Cl
BRANCH   8  18
ATOM     18  C   UNL     1       4.674   2.718  -1.665  1.00  0.00     0.430 C 
ATOM     19  F   UNL     1       3.432   2.779  -2.190  1.00  0.00    -0.167 F 
ATOM     20  F   UNL     1       5.113   3.994  -1.544  1.00  0.00    -0.167 F 
ATOM     21  F   UNL     1       5.457   2.114  -2.595  1.00  0.00    -0.167 F 
ENDBRANCH   8  18
ENDBRANCH   4   6
ENDBRANCH   3   4
ENDBRANCH   2   3
ENDBRANCH   1   2
BRANCH   1  22
ATOM     22  O   UNL     1       2.448  -1.715  -2.315  1.00  0.00    -0.458 OA
BRANCH  22  23
ATOM     23  C   UNL     1       1.184  -1.329  -2.624  1.00  0.00     0.338 C 
ATOM     24  O   UNL     1       0.151  -1.846  -2.223  1.00  0.00    -0.246 OA
BRANCH  23  25
ATOM     25  C   UNL     1       1.231  -0.055  -3.367  1.00  0.00     0.060 A 
ATOM     26  C   UNL     1       0.243   0.894  -3.084  1.00  0.00     0.016 A 
ATOM     27  C   UNL     1       2.222   0.216  -4.316  1.00  0.00     0.016 A 
ATOM     28  C   UNL     1       0.205   2.094  -3.789  1.00  0.00     0.010 A 
ATOM     29  C   UNL     1       2.188   1.423  -5.018  1.00  0.00     0.010 A 
ATOM     30  C   UNL     1       1.157   2.350  -4.784  1.00  0.00    -0.014 A 
BRANCH  30  31
ATOM     31  C   UNL     1       0.976   3.513  -5.683  1.00  0.00     0.031 A 
ATOM     32  C   UNL     1       0.390   3.281  -7.048  1.00  0.00     0.074 A 
ATOM     33  C   UNL     1       1.306   4.754  -5.285  1.00  0.00     0.049 A 
ATOM     34  N   UNL     1       0.134   4.143  -7.998  1.00  0.00    -0.248 NA
ATOM     35  C   UNL     1       0.045   1.891  -7.390  1.00  0.00     0.031 C 
ATOM     36  C   UNL     1       1.863   5.105  -3.980  1.00  0.00     0.029 A 
ATOM     37  N   UNL     1       1.230   5.953  -5.950  1.00  0.00    -0.354 N 
ATOM     38  C   UNL     1      -0.402   3.403  -9.043  1.00  0.00     0.074 A 
ATOM     39  C   UNL     1      -0.399   2.017  -8.632  1.00  0.00     0.031 C 
ATOM     40  C   UNL     1       2.108   6.426  -3.949  1.00  0.00     0.029 A 
ATOM     41  C   UNL     1       1.733   7.011  -5.233  1.00  0.00     0.049 A 
ATOM     42  H   UNL     1       0.851   6.045  -6.854  1.00  0.00     0.167 HD
ATOM     43  C   UNL     1      -0.872   3.843 -10.233  1.00  0.00     0.037 A 
ATOM     44  C   UNL     1       1.884   8.303  -5.586  1.00  0.00     0.037 A 
ATOM     45  C   UNL     1      -0.891   5.223 -10.631  1.00  0.00     0.049 A 
ATOM     46  C   UNL     1       1.411   8.754  -6.943  1.00  0.00     0.074 A 
ATOM     47  C   UNL     1      -1.408   5.778 -11.788  1.00  0.00     0.029 A 
ATOM     48  N   UNL     1      -0.357   6.263  -9.887  1.00  0.00    -0.354 N 
ATOM     49  N   UNL     1       0.823   8.059  -7.887  1.00  0.00    -0.248 NA
ATOM     50  C   UNL     1       1.613  10.171  -7.281  1.00  0.00     0.031 C 
ATOM     51  C   UNL     1      -1.139   7.150 -11.768  1.00  0.00     0.029 A 
ATOM     52  C   UNL     1      -0.493   7.454 -10.580  1.00  0.00     0.049 A 
ATOM     53  H   UNL     1       0.057   6.170  -8.999  1.00  0.00     0.167 HD
ATOM     54  C   UNL     1       0.563   8.957  -8.915  1.00  0.00     0.074 A 
ATOM     55  C   UNL     1       1.042  10.249  -8.474  1.00  0.00     0.031 C 
ATOM     56  C   UNL     1      -0.019   8.732 -10.118  1.00  0.00     0.037 A 
BRANCH  43  57
ATOM     57  C   UNL     1      -1.396   2.821 -11.194  1.00  0.00     0.057 A 
ATOM     58  C   UNL     1      -2.631   2.190 -11.000  1.00  0.00     0.134 A 
ATOM     59  C   UNL     1      -0.679   2.501 -12.353  1.00  0.00     0.134 A 
ATOM     60  F   UNL     1      -3.360   2.445  -9.902  1.00  0.00    -0.206 F 
ATOM     61  C   UNL     1      -3.129   1.266 -11.919  1.00  0.00     0.040 A 
ATOM     62  C   UNL     1      -1.176   1.594 -13.290  1.00  0.00     0.040 A 
ATOM     63  F   UNL     1       0.510   3.071 -12.597  1.00  0.00    -0.206 F 
ATOM     64  C   UNL     1      -2.404   0.972 -13.072  1.00  0.00     0.006 A 
ENDBRANCH  43  57
BRANCH  44  65
ATOM     65  C   UNL     1       2.533   9.265  -4.659  1.00  0.00     0.057 A 
ATOM     66  C   UNL     1       1.817  10.319  -4.080  1.00  0.00     0.134 A 
ATOM     67  C   UNL     1       3.903   9.188  -4.380  1.00  0.00     0.134 A 
ATOM     68  F   UNL     1       0.507  10.461  -4.329  1.00  0.00    -0.206 F 
ATOM     69  C   UNL     1       2.444  11.279  -3.283  1.00  0.00     0.040 A 
ATOM     70  C   UNL     1       4.538  10.126  -3.564  1.00  0.00     0.040 A 
ATOM     71  F   UNL     1       4.648   8.204  -4.905  1.00  0.00    -0.206 F 
ATOM     72  C   UNL     1       3.809  11.183  -3.023  1.00  0.00     0.006 A 
ENDBRANCH  44  65
BRANCH  56  73
ATOM     73  C   UNL     1      -0.188   9.906 -11.034  1.00  0.00     0.057 A 
ATOM     74  C   UNL     1       0.898  10.465 -11.718  1.00  0.00     0.134 A 
ATOM     75  C   UNL     1      -1.458  10.441 -11.284  1.00  0.00     0.134 A 
ATOM     76  F   UNL     1       2.142  10.006 -11.510  1.00  0.00    -0.206 F 
ATOM     77  C   UNL     1       0.729  11.524 -12.611  1.00  0.00     0.040 A 
ATOM     78  C   UNL     1      -1.643  11.482 -12.194  1.00  0.00     0.040 A 
ATOM     79  F   UNL     1      -2.541   9.943 -10.668  1.00  0.00    -0.206 F 
ATOM     80  C   UNL     1      -0.547  12.029 -12.858  1.00  0.00     0.006 A 
ENDBRANCH  56  73
ENDBRANCH  30  31
ENDBRANCH  23  25
ENDBRANCH  22  23
ENDBRANCH   1  22
TORSDOF 12
