REMARK SMILES O=Cc1ccc2c(c1)C=C(C(=O)OCCOC(=O)c1ccc(-c3c4nc(c(-c5c(F)cccc5F)c5ccc([nH]5)c(-c5c(F)cccc5F)c5nc(c(-c6c(F)cccc6F)c6ccc3[nH]6)C=C5)C=C4)cc1)[C@H](C(F)(F)F)O2
REMARK SMILES IDX 15 1 14 2 13 3 11 4 12 5 10 6 3 7 4 8 8 9 5 10 7 11 6 12
REMARK SMILES IDX 9 13 78 14 73 15 2 16 1 17 74 18 75 19 76 20 77 21 16 22
REMARK SMILES IDX 17 23 18 24 19 25 20 26 72 27 21 28 71 29 22 30 23 31 24 32
REMARK SMILES IDX 65 33 25 34 70 35 64 36 66 37 26 38 69 39 63 40 62 41 27 43
REMARK SMILES IDX 53 44 36 45 52 46 37 47 40 48 51 49 67 50 38 51 39 52 50 54
REMARK SMILES IDX 68 55 41 56 28 57 29 58 34 59 30 60 31 61 33 62 35 63 32 64
REMARK SMILES IDX 54 65 55 66 60 67 56 68 57 69 59 70 61 71 58 72 42 73 43 74
REMARK SMILES IDX 48 75 44 76 45 77 47 78 49 79 46 80
REMARK H PARENT 66 42 40 53
REMARK Flexibility Score: inf
ROOT
ATOM      1  C   UNL     1       9.539   6.433   0.125  1.00  0.00     0.275 C 
ENDROOT
BRANCH   1   2
ATOM      2  C   UNL     1       9.663   4.916   0.302  1.00  0.00     0.275 C 
BRANCH   2   3
ATOM      3  O   UNL     1       8.396   4.303   0.624  1.00  0.00    -0.459 OA
BRANCH   3   4
ATOM      4  C   UNL     1       8.257   3.867   1.903  1.00  0.00     0.338 C 
ATOM      5  O   UNL     1       9.102   3.969   2.775  1.00  0.00    -0.246 OA
BRANCH   4   6
ATOM      6  C   UNL     1       6.921   3.272   2.144  1.00  0.00     0.087 C 
ATOM      7  C   UNL     1       2.940   0.926   0.739  1.00  0.00     0.015 A 
ATOM      8  C   UNL     1       2.472   0.932   2.056  1.00  0.00     0.015 A 
ATOM      9  C   UNL     1       4.188   1.481   0.421  1.00  0.00     0.023 A 
ATOM     10  C   UNL     1       3.270   1.463   3.067  1.00  0.00     0.048 A 
ATOM     11  C   UNL     1       4.979   2.035   1.434  1.00  0.00     0.018 A 
ATOM     12  C   UNL     1       4.516   2.004   2.753  1.00  0.00     0.128 A 
ATOM     13  C   UNL     1       6.298   2.603   1.157  1.00  0.00     0.027 C 
ATOM     14  O   UNL     1       5.281   2.419   3.805  1.00  0.00    -0.475 OA
ATOM     15  C   UNL     1       6.276   3.439   3.511  1.00  0.00     0.316 C 
BRANCH   7  16
ATOM     16  C   UNL     1       2.126   0.302  -0.323  1.00  0.00     0.260 C 
ATOM     17  O   UNL     1       1.004  -0.141  -0.108  1.00  0.00    -0.298 OA
ENDBRANCH   7  16
BRANCH  15  18
ATOM     18  C   UNL     1       7.188   3.546   4.750  1.00  0.00     0.430 C 
ATOM     19  F   UNL     1       7.849   4.726   4.794  1.00  0.00    -0.167 F 
ATOM     20  F   UNL     1       6.443   3.509   5.888  1.00  0.00    -0.167 F 
ATOM     21  F   UNL     1       8.079   2.536   4.834  1.00  0.00    -0.167 F 
ENDBRANCH  15  18
ENDBRANCH   4   6
ENDBRANCH   3   4
ENDBRANCH   2   3
ENDBRANCH   1   2
BRANCH   1  22
ATOM     22  O   UNL     1       9.062   7.067   1.326  1.00  0.00    -0.458 OA
BRANCH  22  23
ATOM     23  C   UNL     1       7.726   7.289   1.355  1.00  0.00     0.338 C 
ATOM     24  O   UNL     1       6.929   7.071   0.456  1.00  0.00    -0.246 OA
BRANCH  23  25
ATOM     25  C   UNL     1       7.299   7.664   2.718  1.00  0.00     0.060 A 
ATOM     26  C   UNL     1       6.134   7.058   3.196  1.00  0.00     0.016 A 
ATOM     27  C   UNL     1       7.989   8.583   3.514  1.00  0.00     0.016 A 
ATOM     28  C   UNL     1       5.685   7.315   4.489  1.00  0.00     0.010 A 
ATOM     29  C   UNL     1       7.509   8.880   4.799  1.00  0.00     0.010 A 
ATOM     30  C   UNL     1       6.360   8.240   5.294  1.00  0.00    -0.014 A 
BRANCH  30  31
ATOM     31  C   UNL     1       5.774   8.594   6.609  1.00  0.00     0.031 A 
ATOM     32  C   UNL     1       4.713   9.655   6.673  1.00  0.00     0.074 A 
ATOM     33  C   UNL     1       6.112   7.913   7.719  1.00  0.00     0.049 A 
ATOM     34  N   UNL     1       4.007  10.062   7.696  1.00  0.00    -0.248 NA
ATOM     35  C   UNL     1       4.391  10.333   5.407  1.00  0.00     0.031 C 
ATOM     36  C   UNL     1       7.074   6.814   7.779  1.00  0.00     0.029 A 
ATOM     37  N   UNL     1       5.665   8.042   9.011  1.00  0.00    -0.354 N 
ATOM     38  C   UNL     1       3.134  11.018   7.194  1.00  0.00     0.074 A 
ATOM     39  C   UNL     1       3.425  11.159   5.783  1.00  0.00     0.031 C 
ATOM     40  C   UNL     1       7.149   6.372   9.047  1.00  0.00     0.029 A 
ATOM     41  C   UNL     1       6.256   7.167   9.889  1.00  0.00     0.049 A 
ATOM     42  H   UNL     1       4.984   8.700   9.282  1.00  0.00     0.167 HD
ATOM     43  C   UNL     1       2.169  11.709   7.846  1.00  0.00     0.037 A 
ATOM     44  C   UNL     1       6.099   7.034  11.220  1.00  0.00     0.037 A 
ATOM     45  C   UNL     1       1.907  11.610   9.258  1.00  0.00     0.049 A 
ATOM     46  C   UNL     1       5.114   7.917  11.944  1.00  0.00     0.074 A 
ATOM     47  C   UNL     1       0.980  12.305  10.014  1.00  0.00     0.029 A 
ATOM     48  N   UNL     1       2.584  10.771  10.129  1.00  0.00    -0.354 N 
ATOM     49  N   UNL     1       4.281   8.805  11.459  1.00  0.00    -0.248 NA
ATOM     50  C   UNL     1       5.046   7.772  13.407  1.00  0.00     0.031 C 
ATOM     51  C   UNL     1       1.126  11.920  11.351  1.00  0.00     0.029 A 
ATOM     52  C   UNL     1       2.110  10.947  11.419  1.00  0.00     0.049 A 
ATOM     53  H   UNL     1       3.297  10.143   9.870  1.00  0.00     0.167 HD
ATOM     54  C   UNL     1       3.564   9.292  12.547  1.00  0.00     0.074 A 
ATOM     55  C   UNL     1       4.053   8.593  13.716  1.00  0.00     0.031 C 
ATOM     56  C   UNL     1       2.589  10.233  12.575  1.00  0.00     0.037 A 
BRANCH  43  57
ATOM     57  C   UNL     1       1.338  12.654   7.033  1.00  0.00     0.057 A 
ATOM     58  C   UNL     1       0.361  12.191   6.143  1.00  0.00     0.134 A 
ATOM     59  C   UNL     1       1.494  14.040   7.160  1.00  0.00     0.134 A 
ATOM     60  F   UNL     1       0.174  10.874   5.963  1.00  0.00    -0.206 F 
ATOM     61  C   UNL     1      -0.421  13.073   5.395  1.00  0.00     0.040 A 
ATOM     62  C   UNL     1       0.704  14.931   6.435  1.00  0.00     0.040 A 
ATOM     63  F   UNL     1       2.412  14.547   7.997  1.00  0.00    -0.206 F 
ATOM     64  C   UNL     1      -0.255  14.448   5.546  1.00  0.00     0.006 A 
ENDBRANCH  43  57
BRANCH  44  65
ATOM     65  C   UNL     1       6.902   6.042  11.983  1.00  0.00     0.057 A 
ATOM     66  C   UNL     1       6.296   4.953  12.622  1.00  0.00     0.134 A 
ATOM     67  C   UNL     1       8.280   6.207  12.160  1.00  0.00     0.134 A 
ATOM     68  F   UNL     1       4.973   4.758  12.517  1.00  0.00    -0.206 F 
ATOM     69  C   UNL     1       7.026   4.084  13.436  1.00  0.00     0.040 A 
ATOM     70  C   UNL     1       9.027   5.330  12.948  1.00  0.00     0.040 A 
ATOM     71  F   UNL     1       8.920   7.234  11.582  1.00  0.00    -0.206 F 
ATOM     72  C   UNL     1       8.397   4.271  13.600  1.00  0.00     0.006 A 
ENDBRANCH  44  65
BRANCH  56  73
ATOM     73  C   UNL     1       1.947  10.524  13.902  1.00  0.00     0.057 A 
ATOM     74  C   UNL     1       2.624  11.204  14.922  1.00  0.00     0.134 A 
ATOM     75  C   UNL     1       0.622  10.143  14.150  1.00  0.00     0.134 A 
ATOM     76  F   UNL     1       3.898  11.588  14.755  1.00  0.00    -0.206 F 
ATOM     77  C   UNL     1       2.016  11.469  16.151  1.00  0.00     0.040 A 
ATOM     78  C   UNL     1      -0.006  10.426  15.364  1.00  0.00     0.040 A 
ATOM     79  F   UNL     1      -0.089   9.497  13.213  1.00  0.00    -0.206 F 
ATOM     80  C   UNL     1       0.695  11.084  16.372  1.00  0.00     0.006 A 
ENDBRANCH  56  73
ENDBRANCH  30  31
ENDBRANCH  23  25
ENDBRANCH  22  23
ENDBRANCH   1  22
TORSDOF 13
