REMARK SMILES CCn1nc(C(C)C)cc1C(=O)N[C@@H](CC(N)=O)C(=O)OCCOC(=O)c1ccc(-c2c3nc(c(-c4c(F)cccc4F)c4ccc([nH]4)c(-c4c(F)cccc4F)c4nc(c(-c5c(F)cccc5F)c5ccc2[nH]5)C=C4)C=C3)cc1
REMARK SMILES IDX 22 1 21 2 19 3 20 4 14 5 13 6 11 7 12 8 10 10 3 11 4 12 5 13
REMARK SMILES IDX 9 14 2 15 1 16 6 17 7 18 8 19 15 20 16 21 17 22 18 23 23 26
REMARK SMILES IDX 24 27 25 28 26 29 27 30 28 31 80 32 29 33 79 34 30 35 31 36
REMARK SMILES IDX 32 37 73 38 33 39 78 40 72 41 74 42 34 43 77 44 71 45 70 46
REMARK SMILES IDX 35 48 61 49 44 50 60 51 45 52 48 53 59 54 75 55 46 56 47 57
REMARK SMILES IDX 58 59 76 60 49 61 36 62 37 63 42 64 38 65 39 66 41 67 43 68
REMARK SMILES IDX 40 69 62 70 63 71 68 72 64 73 65 74 67 75 69 76 66 77 50 78
REMARK SMILES IDX 51 79 56 80 52 81 53 82 55 83 57 84 54 85
REMARK H PARENT 13 9 17 24 17 25 74 47 48 58
REMARK Flexibility Score: inf
ROOT
ATOM      1  C   UNL     1      -2.973  -7.166  -2.245  1.00  0.00     0.274 C 
ENDROOT
BRANCH   1   2
ATOM      2  O   UNL     1      -1.864  -6.410  -1.732  1.00  0.00    -0.461 OA
BRANCH   2   3
ATOM      3  C   UNL     1      -0.786  -6.321  -2.551  1.00  0.00     0.329 C 
ATOM      4  O   UNL     1      -0.609  -7.023  -3.545  1.00  0.00    -0.250 OA
BRANCH   3   5
ATOM      5  C   UNL     1       0.301  -5.367  -2.037  1.00  0.00     0.201 C 
BRANCH   5   6
ATOM      6  N   UNL     1      -0.088  -4.300  -1.115  1.00  0.00    -0.337 N 
ATOM      7  C   UNL     1       0.057  -2.934  -1.136  1.00  0.00     0.270 C 
ATOM      8  O   UNL     1      -0.484  -2.334  -0.205  1.00  0.00    -0.268 OA
ATOM      9  H   UNL     1      -0.550  -4.630  -0.310  1.00  0.00     0.164 HD
BRANCH   7  10
ATOM     10  C   UNL     1       0.775  -2.227  -2.188  1.00  0.00     0.126 A 
ATOM     11  N   UNL     1       0.791  -0.844  -2.315  1.00  0.00    -0.260 N 
ATOM     12  N   UNL     1       1.331  -0.410  -3.478  1.00  0.00    -0.177 NA
ATOM     13  C   UNL     1       1.796  -1.514  -4.059  1.00  0.00     0.066 A 
ATOM     14  C   UNL     1       1.583  -2.640  -3.236  1.00  0.00     0.059 A 
BRANCH  11  15
ATOM     15  C   UNL     1       0.289   0.165  -1.394  1.00  0.00     0.142 C 
ATOM     16  C   UNL     1       1.159   0.327  -0.156  1.00  0.00     0.029 C 
ENDBRANCH  11  15
BRANCH  13  17
ATOM     17  C   UNL     1       2.433  -1.501  -5.421  1.00  0.00     0.034 C 
ATOM     18  C   UNL     1       1.651  -0.657  -6.431  1.00  0.00     0.014 C 
ATOM     19  C   UNL     1       3.896  -1.068  -5.366  1.00  0.00     0.014 C 
ENDBRANCH  13  17
ENDBRANCH   7  10
ENDBRANCH   5   6
BRANCH   5  20
ATOM     20  C   UNL     1       1.419  -6.212  -1.428  1.00  0.00     0.136 C 
BRANCH  20  21
ATOM     21  C   UNL     1       0.860  -7.119  -0.355  1.00  0.00     0.220 C 
ATOM     22  N   UNL     1       0.594  -8.397  -0.745  1.00  0.00    -0.370 N 
ATOM     23  O   UNL     1       0.591  -6.739   0.778  1.00  0.00    -0.275 OA
ATOM     24  H   UNL     1       0.816  -8.689  -1.659  1.00  0.00     0.159 HD
ATOM     25  H   UNL     1       0.180  -9.029  -0.113  1.00  0.00     0.159 HD
ENDBRANCH  20  21
ENDBRANCH   5  20
ENDBRANCH   3   5
ENDBRANCH   2   3
ENDBRANCH   1   2
BRANCH   1  26
ATOM     26  C   UNL     1      -4.090  -6.232  -2.690  1.00  0.00     0.275 C 
BRANCH  26  27
ATOM     27  O   UNL     1      -3.708  -5.395  -3.789  1.00  0.00    -0.458 OA
BRANCH  27  28
ATOM     28  C   UNL     1      -3.168  -4.216  -3.402  1.00  0.00     0.338 C 
ATOM     29  O   UNL     1      -2.591  -3.981  -2.357  1.00  0.00    -0.246 OA
BRANCH  28  30
ATOM     30  C   UNL     1      -3.577  -3.136  -4.296  1.00  0.00     0.060 A 
ATOM     31  C   UNL     1      -2.928  -1.905  -4.149  1.00  0.00     0.016 A 
ATOM     32  C   UNL     1      -4.751  -3.268  -5.047  1.00  0.00     0.016 A 
ATOM     33  C   UNL     1      -3.518  -0.775  -4.678  1.00  0.00     0.010 A 
ATOM     34  C   UNL     1      -5.343  -2.137  -5.566  1.00  0.00     0.010 A 
ATOM     35  C   UNL     1      -4.744  -0.897  -5.338  1.00  0.00    -0.014 A 
BRANCH  35  36
ATOM     36  C   UNL     1      -5.336   0.308  -5.887  1.00  0.00     0.031 A 
ATOM     37  C   UNL     1      -4.645   0.849  -7.080  1.00  0.00     0.074 A 
ATOM     38  C   UNL     1      -6.509   0.813  -5.467  1.00  0.00     0.049 A 
ATOM     39  N   UNL     1      -4.139   2.026  -7.241  1.00  0.00    -0.248 NA
ATOM     40  C   UNL     1      -4.431  -0.065  -8.213  1.00  0.00     0.031 C 
ATOM     41  C   UNL     1      -7.461   0.213  -4.531  1.00  0.00     0.029 A 
ATOM     42  N   UNL     1      -7.151   1.933  -5.901  1.00  0.00    -0.354 N 
ATOM     43  C   UNL     1      -3.694   2.066  -8.557  1.00  0.00     0.074 A 
ATOM     44  C   UNL     1      -3.783   0.724  -9.070  1.00  0.00     0.031 C 
ATOM     45  C   UNL     1      -8.642   0.864  -4.633  1.00  0.00     0.029 A 
ATOM     46  C   UNL     1      -8.490   1.984  -5.549  1.00  0.00     0.049 A 
ATOM     47  H   UNL     1      -6.705   2.642  -6.418  1.00  0.00     0.167 HD
ATOM     48  C   UNL     1      -3.492   3.243  -9.205  1.00  0.00     0.037 A 
ATOM     49  C   UNL     1      -9.419   2.838  -6.040  1.00  0.00     0.037 A 
ATOM     50  C   UNL     1      -3.333   4.344  -8.293  1.00  0.00     0.049 A 
ATOM     51  C   UNL     1      -8.710   3.990  -6.649  1.00  0.00     0.074 A 
ATOM     52  C   UNL     1      -2.472   4.628  -7.250  1.00  0.00     0.029 A 
ATOM     53  N   UNL     1      -4.360   5.246  -8.180  1.00  0.00    -0.354 N 
ATOM     54  N   UNL     1      -8.083   4.914  -5.978  1.00  0.00    -0.248 NA
ATOM     55  C   UNL     1      -8.393   3.933  -8.069  1.00  0.00     0.031 C 
ATOM     56  C   UNL     1      -3.254   5.358  -6.307  1.00  0.00     0.029 A 
ATOM     57  C   UNL     1      -4.535   5.490  -6.843  1.00  0.00     0.049 A 
ATOM     58  H   UNL     1      -4.873   5.644  -8.920  1.00  0.00     0.167 HD
ATOM     59  C   UNL     1      -7.000   5.254  -6.774  1.00  0.00     0.074 A 
ATOM     60  C   UNL     1      -7.320   4.725  -8.095  1.00  0.00     0.031 C 
ATOM     61  C   UNL     1      -5.825   5.677  -6.223  1.00  0.00     0.037 A 
BRANCH  48  62
ATOM     62  C   UNL     1      -3.800   3.438 -10.664  1.00  0.00     0.057 A 
ATOM     63  C   UNL     1      -3.356   4.600 -11.316  1.00  0.00     0.134 A 
ATOM     64  C   UNL     1      -4.759   2.679 -11.367  1.00  0.00     0.134 A 
ATOM     65  F   UNL     1      -2.467   5.419 -10.732  1.00  0.00    -0.206 F 
ATOM     66  C   UNL     1      -3.873   5.008 -12.551  1.00  0.00     0.040 A 
ATOM     67  C   UNL     1      -5.242   3.048 -12.624  1.00  0.00     0.040 A 
ATOM     68  F   UNL     1      -5.352   1.604 -10.831  1.00  0.00    -0.206 F 
ATOM     69  C   UNL     1      -4.822   4.233 -13.207  1.00  0.00     0.006 A 
ENDBRANCH  48  62
BRANCH  49  70
ATOM     70  C   UNL     1     -10.872   2.629  -6.217  1.00  0.00     0.057 A 
ATOM     71  C   UNL     1     -11.734   3.711  -6.444  1.00  0.00     0.134 A 
ATOM     72  C   UNL     1     -11.420   1.350  -6.423  1.00  0.00     0.134 A 
ATOM     73  F   UNL     1     -11.295   4.971  -6.317  1.00  0.00    -0.206 F 
ATOM     74  C   UNL     1     -13.056   3.534  -6.871  1.00  0.00     0.040 A 
ATOM     75  C   UNL     1     -12.743   1.159  -6.833  1.00  0.00     0.040 A 
ATOM     76  F   UNL     1     -10.670   0.244  -6.318  1.00  0.00    -0.206 F 
ATOM     77  C   UNL     1     -13.562   2.254  -7.074  1.00  0.00     0.006 A 
ENDBRANCH  49  70
BRANCH  61  78
ATOM     78  C   UNL     1      -5.839   6.098  -4.782  1.00  0.00     0.057 A 
ATOM     79  C   UNL     1      -6.177   5.249  -3.717  1.00  0.00     0.134 A 
ATOM     80  C   UNL     1      -5.383   7.379  -4.450  1.00  0.00     0.134 A 
ATOM     81  F   UNL     1      -6.518   3.971  -3.928  1.00  0.00    -0.206 F 
ATOM     82  C   UNL     1      -6.126   5.681  -2.388  1.00  0.00     0.040 A 
ATOM     83  C   UNL     1      -5.291   7.809  -3.125  1.00  0.00     0.040 A 
ATOM     84  F   UNL     1      -4.983   8.226  -5.413  1.00  0.00    -0.206 F 
ATOM     85  C   UNL     1      -5.680   6.964  -2.089  1.00  0.00     0.006 A 
ENDBRANCH  61  78
ENDBRANCH  35  36
ENDBRANCH  28  30
ENDBRANCH  27  28
ENDBRANCH  26  27
ENDBRANCH   1  26
TORSDOF 17
