REMARK SMILES Cc1ccc2[nH]cc([C@@H](C(=O)OCCOC(=O)c3ccc(-c4c5nc(c(-c6c(F)cccc6F)c6ccc([nH]6)c(-c6c(F)cccc6F)c6nc(c(-c7c(F)cccc7F)c7ccc4[nH]7)C=C6)C=C5)cc3)[NH+]3CCN(c4cccc(Cl)c4)CC3)c2c1
REMARK SMILES IDX 13 1 12 2 10 3 11 4 9 5 8 6 1 7 2 8 3 9 86 10 4 11 85 12
REMARK SMILES IDX 5 13 6 14 7 15 72 17 73 18 84 19 74 21 83 22 75 23 76 24
REMARK SMILES IDX 77 25 82 26 78 27 80 28 79 29 81 30 14 31 15 32 16 33 17 34
REMARK SMILES IDX 18 35 19 36 71 37 20 38 70 39 21 40 22 41 23 42 64 43 24 44
REMARK SMILES IDX 69 45 63 46 65 47 25 48 68 49 62 50 61 51 26 53 52 54 35 55
REMARK SMILES IDX 51 56 36 57 39 58 50 59 66 60 37 61 38 62 49 64 67 65 40 66
REMARK SMILES IDX 27 67 28 68 33 69 29 70 30 71 32 72 34 73 31 74 53 75 54 76
REMARK SMILES IDX 59 77 55 78 56 79 58 80 60 81 57 82 41 83 42 84 47 85 43 86
REMARK SMILES IDX 44 87 46 88 48 89 45 90
REMARK H PARENT 6 16 72 20 65 52 39 63
REMARK Flexibility Score: inf
ROOT
ATOM      1  C   UNL     1      -2.779  -3.465   3.551  1.00  0.00     0.274 C 
ENDROOT
BRANCH   1   2
ATOM      2  O   UNL     1      -2.210  -2.717   2.457  1.00  0.00    -0.457 OA
BRANCH   2   3
ATOM      3  C   UNL     1      -2.119  -3.358   1.256  1.00  0.00     0.370 C 
ATOM      4  O   UNL     1      -2.464  -4.527   1.090  1.00  0.00    -0.245 OA
BRANCH   3   5
ATOM      5  C   UNL     1      -1.470  -2.498   0.143  1.00  0.00     0.328 C 
BRANCH   5   6
ATOM      6  C   UNL     1      -1.222  -1.050   0.475  1.00  0.00     0.046 A 
ATOM      7  C   UNL     1       3.796  -0.404  -0.293  1.00  0.00     0.044 C 
ATOM      8  C   UNL     1       2.405   0.094  -0.026  1.00  0.00    -0.050 A 
ATOM      9  C   UNL     1       2.151   1.451   0.190  1.00  0.00     0.005 A 
ATOM     10  C   UNL     1       1.350  -0.828   0.038  1.00  0.00     0.014 A 
ATOM     11  C   UNL     1       0.869   1.911   0.512  1.00  0.00     0.027 A 
ATOM     12  C   UNL     1       0.048  -0.391   0.361  1.00  0.00     0.009 A 
ATOM     13  C   UNL     1      -0.153   0.963   0.617  1.00  0.00     0.046 A 
ATOM     14  N   UNL     1      -1.472   1.115   0.970  1.00  0.00    -0.361 N 
ATOM     15  C   UNL     1      -2.110  -0.095   0.941  1.00  0.00     0.094 A 
ATOM     16  H   UNL     1      -1.897   1.971   1.208  1.00  0.00     0.166 HD
ENDBRANCH   5   6
BRANCH   5  17
ATOM     17  N   UNL     1      -2.179  -2.665  -1.145  1.00  0.00    -0.316 N 
ATOM     18  C   UNL     1      -3.546  -2.146  -1.239  1.00  0.00     0.284 C 
ATOM     19  C   UNL     1      -1.404  -2.392  -2.366  1.00  0.00     0.284 C 
ATOM     20  H   UNL     1      -2.292  -3.678  -1.109  1.00  0.00     0.349 HD
ATOM     21  C   UNL     1      -3.769  -0.770  -1.894  1.00  0.00     0.178 C 
ATOM     22  C   UNL     1      -1.582  -0.997  -3.019  1.00  0.00     0.178 C 
ATOM     23  N   UNL     1      -3.008  -0.657  -3.138  1.00  0.00    -0.360 N 
BRANCH  23  24
ATOM     24  C   UNL     1      -3.342   0.392  -3.987  1.00  0.00     0.038 A 
ATOM     25  C   UNL     1      -3.560   1.697  -3.521  1.00  0.00     0.026 A 
ATOM     26  C   UNL     1      -3.513   0.139  -5.353  1.00  0.00     0.046 A 
ATOM     27  C   UNL     1      -3.970   2.715  -4.385  1.00  0.00     0.004 A 
ATOM     28  C   UNL     1      -3.930   1.154  -6.215  1.00  0.00     0.043 A 
ATOM     29  C   UNL     1      -4.165   2.441  -5.736  1.00  0.00     0.020 A 
ATOM     30  Cl  UNL     1      -4.177   0.812  -7.884  1.00  0.00    -0.084 Cl
ENDBRANCH  23  24
ENDBRANCH   5  17
ENDBRANCH   3   5
ENDBRANCH   2   3
ENDBRANCH   1   2
BRANCH   1  31
ATOM     31  C   UNL     1      -4.255  -3.114   3.727  1.00  0.00     0.275 C 
BRANCH  31  32
ATOM     32  O   UNL     1      -4.997  -3.606   2.598  1.00  0.00    -0.458 OA
BRANCH  32  33
ATOM     33  C   UNL     1      -5.926  -2.777   2.078  1.00  0.00     0.338 C 
ATOM     34  O   UNL     1      -6.253  -1.679   2.517  1.00  0.00    -0.246 OA
BRANCH  33  35
ATOM     35  C   UNL     1      -6.497  -3.347   0.836  1.00  0.00     0.060 A 
ATOM     36  C   UNL     1      -5.741  -4.181   0.011  1.00  0.00     0.016 A 
ATOM     37  C   UNL     1      -7.764  -2.937   0.416  1.00  0.00     0.016 A 
ATOM     38  C   UNL     1      -6.199  -4.506  -1.267  1.00  0.00     0.010 A 
ATOM     39  C   UNL     1      -8.265  -3.359  -0.821  1.00  0.00     0.010 A 
ATOM     40  C   UNL     1      -7.476  -4.124  -1.698  1.00  0.00    -0.014 A 
BRANCH  40  41
ATOM     41  C   UNL     1      -7.993  -4.504  -3.046  1.00  0.00     0.031 A 
ATOM     42  C   UNL     1      -8.562  -3.456  -3.968  1.00  0.00     0.074 A 
ATOM     43  C   UNL     1      -7.987  -5.789  -3.455  1.00  0.00     0.049 A 
ATOM     44  N   UNL     1      -9.358  -3.603  -4.998  1.00  0.00    -0.248 NA
ATOM     45  C   UNL     1      -8.204  -2.057  -3.683  1.00  0.00     0.031 C 
ATOM     46  C   UNL     1      -7.412  -6.918  -2.723  1.00  0.00     0.029 A 
ATOM     47  N   UNL     1      -8.497  -6.364  -4.595  1.00  0.00    -0.354 N 
ATOM     48  C   UNL     1      -9.659  -2.317  -5.434  1.00  0.00     0.074 A 
ATOM     49  C   UNL     1      -8.942  -1.402  -4.570  1.00  0.00     0.031 C 
ATOM     50  C   UNL     1      -7.565  -8.038  -3.443  1.00  0.00     0.029 A 
ATOM     51  C   UNL     1      -8.355  -7.730  -4.628  1.00  0.00     0.049 A 
ATOM     52  H   UNL     1      -8.921  -5.847  -5.318  1.00  0.00     0.167 HD
ATOM     53  C   UNL     1     -10.470  -1.941  -6.452  1.00  0.00     0.037 A 
ATOM     54  C   UNL     1      -8.861  -8.651  -5.468  1.00  0.00     0.037 A 
ATOM     55  C   UNL     1     -11.114  -2.856  -7.361  1.00  0.00     0.049 A 
ATOM     56  C   UNL     1      -9.778  -8.220  -6.572  1.00  0.00     0.074 A 
ATOM     57  C   UNL     1     -11.954  -2.572  -8.424  1.00  0.00     0.029 A 
ATOM     58  N   UNL     1     -10.957  -4.233  -7.334  1.00  0.00    -0.354 N 
ATOM     59  N   UNL     1     -10.173  -7.013  -6.891  1.00  0.00    -0.248 NA
ATOM     60  C   UNL     1     -10.349  -9.284  -7.410  1.00  0.00     0.031 C 
ATOM     61  C   UNL     1     -12.321  -3.779  -9.030  1.00  0.00     0.029 A 
ATOM     62  C   UNL     1     -11.684  -4.811  -8.362  1.00  0.00     0.049 A 
ATOM     63  H   UNL     1     -10.410  -4.727  -6.682  1.00  0.00     0.167 HD
ATOM     64  C   UNL     1     -11.040  -7.169  -7.963  1.00  0.00     0.074 A 
ATOM     65  C   UNL     1     -11.097  -8.587  -8.255  1.00  0.00     0.031 C 
ATOM     66  C   UNL     1     -11.733  -6.222  -8.639  1.00  0.00     0.037 A 
BRANCH  53  67
ATOM     67  C   UNL     1     -10.746  -0.476  -6.625  1.00  0.00     0.057 A 
ATOM     68  C   UNL     1      -9.811   0.400  -7.187  1.00  0.00     0.134 A 
ATOM     69  C   UNL     1     -12.000   0.048  -6.282  1.00  0.00     0.134 A 
ATOM     70  F   UNL     1      -8.590  -0.037  -7.527  1.00  0.00    -0.206 F 
ATOM     71  C   UNL     1     -10.109   1.749  -7.391  1.00  0.00     0.040 A 
ATOM     72  C   UNL     1     -12.317   1.390  -6.501  1.00  0.00     0.040 A 
ATOM     73  F   UNL     1     -12.944  -0.740  -5.746  1.00  0.00    -0.206 F 
ATOM     74  C   UNL     1     -11.368   2.245  -7.056  1.00  0.00     0.006 A 
ENDBRANCH  53  67
BRANCH  54  75
ATOM     75  C   UNL     1      -8.567 -10.087  -5.238  1.00  0.00     0.057 A 
ATOM     76  C   UNL     1      -7.714 -10.793  -6.091  1.00  0.00     0.134 A 
ATOM     77  C   UNL     1      -9.104 -10.774  -4.142  1.00  0.00     0.134 A 
ATOM     78  F   UNL     1      -7.191 -10.195  -7.171  1.00  0.00    -0.206 F 
ATOM     79  C   UNL     1      -7.399 -12.133  -5.859  1.00  0.00     0.040 A 
ATOM     80  C   UNL     1      -8.777 -12.105  -3.883  1.00  0.00     0.040 A 
ATOM     81  F   UNL     1      -9.928 -10.149  -3.288  1.00  0.00    -0.206 F 
ATOM     82  C   UNL     1      -7.923 -12.789  -4.745  1.00  0.00     0.006 A 
ENDBRANCH  54  75
BRANCH  66  83
ATOM     83  C   UNL     1     -12.591  -6.692  -9.771  1.00  0.00     0.057 A 
ATOM     84  C   UNL     1     -13.834  -7.296  -9.547  1.00  0.00     0.134 A 
ATOM     85  C   UNL     1     -12.177  -6.525 -11.098  1.00  0.00     0.134 A 
ATOM     86  F   UNL     1     -14.276  -7.498  -8.297  1.00  0.00    -0.206 F 
ATOM     87  C   UNL     1     -14.629  -7.735 -10.606  1.00  0.00     0.040 A 
ATOM     88  C   UNL     1     -12.971  -6.944 -12.165  1.00  0.00     0.040 A 
ATOM     89  F   UNL     1     -10.997  -5.950 -11.376  1.00  0.00    -0.206 F 
ATOM     90  C   UNL     1     -14.200  -7.556 -11.920  1.00  0.00     0.006 A 
ENDBRANCH  66  83
ENDBRANCH  40  41
ENDBRANCH  33  35
ENDBRANCH  32  33
ENDBRANCH  31  32
ENDBRANCH   1  31
TORSDOF 14
