REMARK SMILES CC(C)C(=O)Nc1ccc(NC(=O)[C@@H]2[C@@H](C(=O)OCCOC(=O)c3ccc(-c4c5nc(c(-c6c(F)cccc6F)c6ccc([nH]6)c(-c6c(F)cccc6F)c6nc(c(-c7c(F)cccc7F)c7ccc4[nH]7)C=C6)C=C5)cc3)C2(C)C)cc1Cl
REMARK SMILES IDX 19 1 18 2 16 3 17 4 15 5 14 6 78 7 79 8 80 9 12 10 11 11
REMARK SMILES IDX 13 13 10 14 7 15 8 16 82 17 9 18 81 19 83 20 6 21 4 22 5 23
REMARK SMILES IDX 2 25 1 26 3 27 20 28 21 29 22 30 23 31 24 32 25 33 77 34
REMARK SMILES IDX 26 35 76 36 27 37 28 38 29 39 70 40 30 41 75 42 69 43 71 44
REMARK SMILES IDX 31 45 74 46 68 47 67 48 32 50 58 51 41 52 57 53 42 54 45 55
REMARK SMILES IDX 56 56 72 57 43 58 44 59 55 61 73 62 46 63 33 64 34 65 39 66
REMARK SMILES IDX 35 67 36 68 38 69 40 70 37 71 59 72 60 73 65 74 61 75 62 76
REMARK SMILES IDX 64 77 66 78 63 79 47 80 48 81 53 82 49 83 50 84 52 85 54 86
REMARK SMILES IDX 51 87
REMARK H PARENT 11 12 6 24 71 49 45 60
REMARK Flexibility Score: inf
ROOT
ATOM      1  C   UNL     1       0.189   1.845  11.417  1.00  0.00     0.274 C 
ENDROOT
BRANCH   1   2
ATOM      2  O   UNL     1      -0.122   1.544  10.044  1.00  0.00    -0.462 OA
BRANCH   2   3
ATOM      3  C   UNL     1       0.023   0.248   9.680  1.00  0.00     0.310 C 
ATOM      4  O   UNL     1       0.585  -0.612  10.344  1.00  0.00    -0.252 OA
BRANCH   3   5
ATOM      5  C   UNL     1      -0.687  -0.133   8.436  1.00  0.00     0.118 C 
ATOM      6  C   UNL     1      -0.333   0.403   7.069  1.00  0.00     0.100 C 
ATOM      7  C   UNL     1      -1.731   0.664   7.662  1.00  0.00    -0.009 C 
ATOM      8  C   UNL     1      -2.049   2.123   7.945  1.00  0.00     0.013 C 
ATOM      9  C   UNL     1      -2.946  -0.132   7.224  1.00  0.00     0.013 C 
BRANCH   6  10
ATOM     10  C   UNL     1       0.015  -0.627   6.051  1.00  0.00     0.228 C 
ATOM     11  N   UNL     1      -0.443  -0.596   4.758  1.00  0.00    -0.326 N 
ATOM     12  H   UNL     1      -0.102  -1.334   4.202  1.00  0.00     0.169 HD
ATOM     13  O   UNL     1       0.747  -1.557   6.387  1.00  0.00    -0.274 OA
BRANCH  11  14
ATOM     14  C   UNL     1      -1.297   0.274   4.068  1.00  0.00     0.042 A 
ATOM     15  C   UNL     1      -3.429   1.646   2.861  1.00  0.00     0.060 A 
ATOM     16  C   UNL     1      -2.751   2.203   3.946  1.00  0.00     0.030 A 
ATOM     17  C   UNL     1      -2.845   0.550   2.223  1.00  0.00     0.066 A 
ATOM     18  C   UNL     1      -1.667   1.533   4.520  1.00  0.00     0.028 A 
ATOM     19  C   UNL     1      -1.822  -0.168   2.853  1.00  0.00     0.048 A 
ATOM     20  Cl  UNL     1      -3.122   0.221   0.548  1.00  0.00    -0.082 Cl
BRANCH  15  21
ATOM     21  N   UNL     1      -4.598   2.300   2.452  1.00  0.00    -0.325 N 
ATOM     22  C   UNL     1      -5.856   1.847   2.183  1.00  0.00     0.226 C 
ATOM     23  O   UNL     1      -6.658   2.698   1.772  1.00  0.00    -0.274 OA
ATOM     24  H   UNL     1      -4.492   3.272   2.337  1.00  0.00     0.169 HD
BRANCH  22  25
ATOM     25  C   UNL     1      -6.377   0.432   2.478  1.00  0.00     0.072 C 
ATOM     26  C   UNL     1      -6.021  -0.635   1.459  1.00  0.00     0.018 C 
ATOM     27  C   UNL     1      -6.149  -0.042   3.909  1.00  0.00     0.018 C 
ENDBRANCH  22  25
ENDBRANCH  15  21
ENDBRANCH  11  14
ENDBRANCH   6  10
ENDBRANCH   3   5
ENDBRANCH   2   3
ENDBRANCH   1   2
BRANCH   1  28
ATOM     28  C   UNL     1      -1.101   1.977  12.233  1.00  0.00     0.275 C 
BRANCH  28  29
ATOM     29  O   UNL     1      -1.799   0.717  12.311  1.00  0.00    -0.458 OA
BRANCH  29  30
ATOM     30  C   UNL     1      -2.924   0.621  11.565  1.00  0.00     0.338 C 
ATOM     31  O   UNL     1      -3.427   1.476  10.856  1.00  0.00    -0.246 OA
BRANCH  30  32
ATOM     32  C   UNL     1      -3.460  -0.745  11.645  1.00  0.00     0.060 A 
ATOM     33  C   UNL     1      -3.209  -1.611  10.582  1.00  0.00     0.016 A 
ATOM     34  C   UNL     1      -4.309  -1.131  12.680  1.00  0.00     0.016 A 
ATOM     35  C   UNL     1      -3.819  -2.858  10.527  1.00  0.00     0.010 A 
ATOM     36  C   UNL     1      -4.901  -2.400  12.643  1.00  0.00     0.010 A 
ATOM     37  C   UNL     1      -4.673  -3.267  11.558  1.00  0.00    -0.014 A 
BRANCH  37  38
ATOM     38  C   UNL     1      -5.350  -4.584  11.465  1.00  0.00     0.031 A 
ATOM     39  C   UNL     1      -6.832  -4.656  11.235  1.00  0.00     0.074 A 
ATOM     40  C   UNL     1      -4.626  -5.717  11.546  1.00  0.00     0.049 A 
ATOM     41  N   UNL     1      -7.617  -5.703  11.209  1.00  0.00    -0.248 NA
ATOM     42  C   UNL     1      -7.525  -3.379  11.002  1.00  0.00     0.031 C 
ATOM     43  C   UNL     1      -3.173  -5.781  11.710  1.00  0.00     0.029 A 
ATOM     44  N   UNL     1      -5.014  -7.032  11.496  1.00  0.00    -0.354 N 
ATOM     45  C   UNL     1      -8.897  -5.213  10.987  1.00  0.00     0.074 A 
ATOM     46  C   UNL     1      -8.787  -3.772  10.896  1.00  0.00     0.031 C 
ATOM     47  C   UNL     1      -2.791  -7.067  11.736  1.00  0.00     0.029 A 
ATOM     48  C   UNL     1      -3.975  -7.917  11.649  1.00  0.00     0.049 A 
ATOM     49  H   UNL     1      -5.948  -7.314  11.363  1.00  0.00     0.167 HD
ATOM     50  C   UNL     1     -10.057  -5.902  10.869  1.00  0.00     0.037 A 
ATOM     51  C   UNL     1      -3.979  -9.260  11.743  1.00  0.00     0.037 A 
ATOM     52  C   UNL     1     -10.159  -7.337  10.937  1.00  0.00     0.049 A 
ATOM     53  C   UNL     1      -5.286  -9.997  11.669  1.00  0.00     0.074 A 
ATOM     54  C   UNL     1     -11.288  -8.129  10.820  1.00  0.00     0.029 A 
ATOM     55  N   UNL     1      -9.088  -8.196  11.135  1.00  0.00    -0.354 N 
ATOM     56  N   UNL     1      -6.493  -9.522  11.483  1.00  0.00    -0.248 NA
ATOM     57  C   UNL     1      -5.232 -11.457  11.829  1.00  0.00     0.031 C 
ATOM     58  C   UNL     1     -10.906  -9.465  10.987  1.00  0.00     0.029 A 
ATOM     59  C   UNL     1      -9.533  -9.508  11.164  1.00  0.00     0.049 A 
ATOM     60  H   UNL     1      -8.150  -7.915  11.239  1.00  0.00     0.167 HD
ATOM     61  C   UNL     1      -7.340 -10.622  11.488  1.00  0.00     0.074 A 
ATOM     62  C   UNL     1      -6.506 -11.791  11.678  1.00  0.00     0.031 C 
ATOM     63  C   UNL     1      -8.688 -10.660  11.352  1.00  0.00     0.037 A 
BRANCH  50  64
ATOM     64  C   UNL     1     -11.317  -5.109  10.688  1.00  0.00     0.057 A 
ATOM     65  C   UNL     1     -11.627  -4.470   9.482  1.00  0.00     0.134 A 
ATOM     66  C   UNL     1     -12.247  -5.008  11.731  1.00  0.00     0.134 A 
ATOM     67  F   UNL     1     -10.773  -4.515   8.449  1.00  0.00    -0.206 F 
ATOM     68  C   UNL     1     -12.808  -3.740   9.326  1.00  0.00     0.040 A 
ATOM     69  C   UNL     1     -13.441  -4.301  11.580  1.00  0.00     0.040 A 
ATOM     70  F   UNL     1     -12.014  -5.600  12.912  1.00  0.00    -0.206 F 
ATOM     71  C   UNL     1     -13.722  -3.660  10.375  1.00  0.00     0.006 A 
ENDBRANCH  50  64
BRANCH  51  72
ATOM     72  C   UNL     1      -2.704  -9.992  11.950  1.00  0.00     0.057 A 
ATOM     73  C   UNL     1      -2.165 -10.808  10.950  1.00  0.00     0.134 A 
ATOM     74  C   UNL     1      -1.998  -9.896  13.156  1.00  0.00     0.134 A 
ATOM     75  F   UNL     1      -2.808 -10.960   9.783  1.00  0.00    -0.206 F 
ATOM     76  C   UNL     1      -0.975 -11.512  11.145  1.00  0.00     0.040 A 
ATOM     77  C   UNL     1      -0.794 -10.573  13.355  1.00  0.00     0.040 A 
ATOM     78  F   UNL     1      -2.463  -9.130  14.154  1.00  0.00    -0.206 F 
ATOM     79  C   UNL     1      -0.283 -11.389  12.348  1.00  0.00     0.006 A 
ENDBRANCH  51  72
BRANCH  63  80
ATOM     80  C   UNL     1      -9.338 -12.011  11.376  1.00  0.00     0.057 A 
ATOM     81  C   UNL     1      -9.482 -12.739  12.563  1.00  0.00     0.134 A 
ATOM     82  C   UNL     1      -9.852 -12.577  10.202  1.00  0.00     0.134 A 
ATOM     83  F   UNL     1      -8.998 -12.258  13.718  1.00  0.00    -0.206 F 
ATOM     84  C   UNL     1     -10.097 -13.992  12.579  1.00  0.00     0.040 A 
ATOM     85  C   UNL     1     -10.489 -13.818  10.209  1.00  0.00     0.040 A 
ATOM     86  F   UNL     1      -9.751 -11.928   9.032  1.00  0.00    -0.206 F 
ATOM     87  C   UNL     1     -10.609 -14.531  11.400  1.00  0.00     0.006 A 
ENDBRANCH  63  80
ENDBRANCH  37  38
ENDBRANCH  30  32
ENDBRANCH  29  30
ENDBRANCH  28  29
ENDBRANCH   1  28
TORSDOF 15
