REMARK SMILES CCC([NH3+])(CC)C(=O)N(CCC(=O)OCCOC(=O)c1ccc(-c2c3nc(c(-c4c(F)cccc4F)c4ccc([nH]4)c(-c4c(F)cccc4F)c4nc(c(-c5c(F)cccc5F)c5ccc2[nH]5)C=C4)C=C3)cc1)C(C)C
REMARK SMILES IDX 14 1 12 2 13 3 11 4 10 5 9 6 7 7 8 8 3 9 2 10 1 11 4 12 5 16
REMARK SMILES IDX 6 17 74 18 75 19 76 20 15 21 16 22 17 23 18 24 19 25 20 26
REMARK SMILES IDX 21 27 73 28 22 29 72 30 23 31 24 32 25 33 66 34 26 35 71 36
REMARK SMILES IDX 65 37 67 38 27 39 70 40 64 41 63 42 28 44 54 45 37 46 53 47
REMARK SMILES IDX 38 48 41 49 52 50 68 51 39 52 40 53 51 55 69 56 42 57 29 58
REMARK SMILES IDX 30 59 35 60 31 61 32 62 34 63 36 64 33 65 55 66 56 67 61 68
REMARK SMILES IDX 57 69 58 70 60 71 62 72 59 73 43 74 44 75 49 76 45 77 46 78
REMARK SMILES IDX 48 79 50 80 47 81
REMARK H PARENT 4 13 4 14 4 15 67 43 41 54
REMARK Flexibility Score: inf
ROOT
ATOM      1  O   UNL     1       5.535   2.472   5.383  1.00  0.00    -0.462 OA
ENDROOT
BRANCH   1   2
ATOM      2  C   UNL     1       4.397   2.783   6.048  1.00  0.00     0.307 C 
ATOM      3  O   UNL     1       4.342   3.454   7.069  1.00  0.00    -0.252 OA
BRANCH   2   4
ATOM      4  C   UNL     1       3.183   2.174   5.385  1.00  0.00     0.144 C 
BRANCH   4   5
ATOM      5  C   UNL     1       2.920   2.699   3.970  1.00  0.00     0.131 C 
BRANCH   5   6
ATOM      6  N   UNL     1       3.304   1.763   2.899  1.00  0.00    -0.334 N 
BRANCH   6   7
ATOM      7  C   UNL     1       2.478   0.826   2.270  1.00  0.00     0.284 C 
ATOM      8  O   UNL     1       2.993  -0.117   1.655  1.00  0.00    -0.268 OA
BRANCH   7   9
ATOM      9  C   UNL     1       0.902   0.939   2.289  1.00  0.00     0.173 C 
BRANCH   9  10
ATOM     10  C   UNL     1       0.291  -0.147   1.336  1.00  0.00     0.075 C 
ATOM     11  C   UNL     1       0.569   0.018  -0.161  1.00  0.00     0.011 C 
ENDBRANCH   9  10
BRANCH   9  12
ATOM     12  N   UNL     1       0.470   2.258   1.757  1.00  0.00    -0.345 N 
ATOM     13  H   UNL     1      -0.549   2.314   1.776  1.00  0.00     0.345 HD
ATOM     14  H   UNL     1       0.798   2.362   0.797  1.00  0.00     0.345 HD
ATOM     15  H   UNL     1       0.862   3.002   2.334  1.00  0.00     0.345 HD
ENDBRANCH   9  12
BRANCH   9  16
ATOM     16  C   UNL     1       0.296   0.724   3.700  1.00  0.00     0.075 C 
ATOM     17  C   UNL     1       0.760  -0.547   4.404  1.00  0.00     0.011 C 
ENDBRANCH   9  16
ENDBRANCH   7   9
ENDBRANCH   6   7
BRANCH   6  18
ATOM     18  C   UNL     1       4.750   1.742   2.570  1.00  0.00     0.079 C 
ATOM     19  C   UNL     1       5.462   0.481   3.068  1.00  0.00     0.031 C 
ATOM     20  C   UNL     1       5.034   2.010   1.090  1.00  0.00     0.031 C 
ENDBRANCH   6  18
ENDBRANCH   5   6
ENDBRANCH   4   5
ENDBRANCH   2   4
ENDBRANCH   1   2
BRANCH   1  21
ATOM     21  C   UNL     1       6.776   3.030   5.856  1.00  0.00     0.274 C 
BRANCH  21  22
ATOM     22  C   UNL     1       7.121   4.314   5.097  1.00  0.00     0.275 C 
BRANCH  22  23
ATOM     23  O   UNL     1       6.313   5.404   5.575  1.00  0.00    -0.458 OA
BRANCH  23  24
ATOM     24  C   UNL     1       5.298   5.790   4.769  1.00  0.00     0.338 C 
ATOM     25  O   UNL     1       5.047   5.395   3.646  1.00  0.00    -0.246 OA
BRANCH  24  26
ATOM     26  C   UNL     1       4.406   6.676   5.533  1.00  0.00     0.060 A 
ATOM     27  C   UNL     1       3.122   6.219   5.840  1.00  0.00     0.016 A 
ATOM     28  C   UNL     1       4.823   7.949   5.926  1.00  0.00     0.016 A 
ATOM     29  C   UNL     1       2.248   7.029   6.558  1.00  0.00     0.010 A 
ATOM     30  C   UNL     1       3.944   8.762   6.647  1.00  0.00     0.010 A 
ATOM     31  C   UNL     1       2.653   8.306   6.967  1.00  0.00    -0.014 A 
BRANCH  31  32
ATOM     32  C   UNL     1       1.705   9.168   7.709  1.00  0.00     0.031 A 
ATOM     33  C   UNL     1       1.030  10.312   7.012  1.00  0.00     0.074 A 
ATOM     34  C   UNL     1       1.434   8.900   9.000  1.00  0.00     0.049 A 
ATOM     35  N   UNL     1       0.202  11.201   7.495  1.00  0.00    -0.248 NA
ATOM     36  C   UNL     1       1.326  10.476   5.580  1.00  0.00     0.031 C 
ATOM     37  C   UNL     1       2.010   7.798   9.773  1.00  0.00     0.029 A 
ATOM     38  N   UNL     1       0.605   9.536   9.889  1.00  0.00    -0.354 N 
ATOM     39  C   UNL     1      -0.124  12.031   6.430  1.00  0.00     0.074 A 
ATOM     40  C   UNL     1       0.621  11.558   5.282  1.00  0.00     0.031 C 
ATOM     41  C   UNL     1       1.519   7.838  11.023  1.00  0.00     0.029 A 
ATOM     42  C   UNL     1       0.624   8.985  11.147  1.00  0.00     0.049 A 
ATOM     43  H   UNL     1       0.051  10.313   9.648  1.00  0.00     0.167 HD
ATOM     44  C   UNL     1      -0.975  13.084   6.412  1.00  0.00     0.037 A 
ATOM     45  C   UNL     1       0.006   9.378  12.277  1.00  0.00     0.037 A 
ATOM     46  C   UNL     1      -1.709  13.554   7.558  1.00  0.00     0.049 A 
ATOM     47  C   UNL     1      -0.890  10.585  12.239  1.00  0.00     0.074 A 
ATOM     48  C   UNL     1      -2.587  14.621   7.644  1.00  0.00     0.029 A 
ATOM     49  N   UNL     1      -1.651  12.982   8.820  1.00  0.00    -0.354 N 
ATOM     50  N   UNL     1      -1.192  11.361  11.226  1.00  0.00    -0.248 NA
ATOM     51  C   UNL     1      -1.535  10.970  13.503  1.00  0.00     0.031 C 
ATOM     52  C   UNL     1      -3.032  14.716   8.966  1.00  0.00     0.029 A 
ATOM     53  C   UNL     1      -2.466  13.682   9.694  1.00  0.00     0.049 A 
ATOM     54  H   UNL     1      -1.109  12.195   9.060  1.00  0.00     0.167 HD
ATOM     55  C   UNL     1      -2.072  12.312  11.724  1.00  0.00     0.074 A 
ATOM     56  C   UNL     1      -2.276  12.001  13.123  1.00  0.00     0.031 C 
ATOM     57  C   UNL     1      -2.655  13.355  11.084  1.00  0.00     0.037 A 
BRANCH  44  58
ATOM     58  C   UNL     1      -1.149  13.809   5.110  1.00  0.00     0.057 A 
ATOM     59  C   UNL     1      -1.875  13.251   4.050  1.00  0.00     0.134 A 
ATOM     60  C   UNL     1      -0.624  15.094   4.930  1.00  0.00     0.134 A 
ATOM     61  F   UNL     1      -2.390  12.017   4.153  1.00  0.00    -0.206 F 
ATOM     62  C   UNL     1      -2.060  13.942   2.850  1.00  0.00     0.040 A 
ATOM     63  C   UNL     1      -0.822  15.804   3.744  1.00  0.00     0.040 A 
ATOM     64  F   UNL     1       0.079  15.686   5.907  1.00  0.00    -0.206 F 
ATOM     65  C   UNL     1      -1.540  15.226   2.699  1.00  0.00     0.006 A 
ENDBRANCH  44  58
BRANCH  45  66
ATOM     66  C   UNL     1       0.230   8.640  13.546  1.00  0.00     0.057 A 
ATOM     67  C   UNL     1      -0.795   7.906  14.153  1.00  0.00     0.134 A 
ATOM     68  C   UNL     1       1.468   8.681  14.200  1.00  0.00     0.134 A 
ATOM     69  F   UNL     1      -2.010   7.849  13.588  1.00  0.00    -0.206 F 
ATOM     70  C   UNL     1      -0.606   7.259  15.376  1.00  0.00     0.040 A 
ATOM     71  C   UNL     1       1.679   8.017  15.408  1.00  0.00     0.040 A 
ATOM     72  F   UNL     1       2.491   9.367  13.670  1.00  0.00    -0.206 F 
ATOM     73  C   UNL     1       0.637   7.311  16.004  1.00  0.00     0.006 A 
ENDBRANCH  45  66
BRANCH  57  74
ATOM     74  C   UNL     1      -3.583  14.214  11.892  1.00  0.00     0.057 A 
ATOM     75  C   UNL     1      -3.108  15.095  12.871  1.00  0.00     0.134 A 
ATOM     76  C   UNL     1      -4.967  14.167  11.680  1.00  0.00     0.134 A 
ATOM     77  F   UNL     1      -1.794  15.177  13.133  1.00  0.00    -0.206 F 
ATOM     78  C   UNL     1      -3.978  15.877  13.633  1.00  0.00     0.040 A 
ATOM     79  C   UNL     1      -5.845  14.963  12.416  1.00  0.00     0.040 A 
ATOM     80  F   UNL     1      -5.487  13.350  10.751  1.00  0.00    -0.206 F 
ATOM     81  C   UNL     1      -5.351  15.815  13.402  1.00  0.00     0.006 A 
ENDBRANCH  57  74
ENDBRANCH  31  32
ENDBRANCH  24  26
ENDBRANCH  23  24
ENDBRANCH  22  23
ENDBRANCH  21  22
ENDBRANCH   1  21
TORSDOF 19
