REMARK SMILES Nc1nc(SCc2c(C(=O)OCCOC(=O)c3ccc(-c4c5nc(c(-c6c(F)cccc6F)c6ccc([nH]6)c(-c6c(F)cccc6F)c6nc(c(-c7c(F)cccc7F)c7ccc4[nH]7)C=C6)C=C5)cc3)sc3cccc(F)c23)n[nH]1
REMARK SMILES IDX 12 1 11 2 9 3 10 4 8 5 7 6 78 7 71 8 72 9 76 10 73 11 75 12
REMARK SMILES IDX 77 13 74 14 6 15 5 16 4 17 2 18 3 19 80 20 79 21 1 23 13 26
REMARK SMILES IDX 14 27 15 28 16 29 17 30 18 31 70 32 19 33 69 34 20 35 21 36
REMARK SMILES IDX 22 37 63 38 23 39 68 40 62 41 64 42 24 43 67 44 61 45 60 46
REMARK SMILES IDX 25 48 51 49 34 50 50 51 35 52 38 53 49 54 65 55 36 56 37 57
REMARK SMILES IDX 48 59 66 60 39 61 26 62 27 63 32 64 28 65 29 66 31 67 33 68
REMARK SMILES IDX 30 69 52 70 53 71 58 72 54 73 55 74 57 75 59 76 56 77 40 78
REMARK SMILES IDX 41 79 46 80 42 81 43 82 45 83 47 84 44 85
REMARK H PARENT 80 22 1 24 1 25 64 47 38 58
REMARK Flexibility Score: inf
ROOT
ATOM      1  C   UNL     1       1.813  -0.829  -1.691  1.00  0.00     0.275 C 
ENDROOT
BRANCH   1   2
ATOM      2  O   UNL     1       1.821   0.596  -1.535  1.00  0.00    -0.458 OA
BRANCH   2   3
ATOM      3  C   UNL     1       1.881   1.330  -2.678  1.00  0.00     0.348 C 
ATOM      4  O   UNL     1       2.120   0.829  -3.768  1.00  0.00    -0.245 OA
BRANCH   3   5
ATOM      5  C   UNL     1       1.515   2.734  -2.465  1.00  0.00     0.118 A 
ATOM      6  C   UNL     1       1.578   3.663  -1.421  1.00  0.00    -0.001 A 
ATOM      7  C   UNL     1       1.118   4.992  -1.897  1.00  0.00     0.033 A 
ATOM      8  S   UNL     1       0.710   3.401  -3.848  1.00  0.00    -0.128 S 
ATOM      9  C   UNL     1       0.563   4.949  -3.171  1.00  0.00     0.038 A 
ATOM     10  C   UNL     1       1.140   6.269  -1.270  1.00  0.00     0.132 A 
ATOM     11  C   UNL     1      -0.014   6.081  -3.788  1.00  0.00     0.020 A 
ATOM     12  C   UNL     1       0.629   7.411  -1.891  1.00  0.00     0.040 A 
ATOM     13  F   UNL     1       1.696   6.416  -0.058  1.00  0.00    -0.206 F 
ATOM     14  C   UNL     1       0.037   7.313  -3.138  1.00  0.00     0.005 A 
BRANCH   6  15
ATOM     15  C   UNL     1       2.046   3.581   0.026  1.00  0.00     0.116 C 
BRANCH  15  16
ATOM     16  S   UNL     1       2.769   2.116   0.750  1.00  0.00    -0.080 SA
BRANCH  16  17
ATOM     17  C   UNL     1       1.365   1.280   1.359  1.00  0.00     0.210 A 
ATOM     18  C   UNL     1      -0.635   0.688   1.606  1.00  0.00     0.216 A 
ATOM     19  N   UNL     1       0.075   1.697   1.177  1.00  0.00    -0.186 NA
ATOM     20  N   UNL     1       0.202  -0.238   2.160  1.00  0.00    -0.245 N 
ATOM     21  N   UNL     1       1.490   0.097   1.978  1.00  0.00    -0.145 NA
ATOM     22  H   UNL     1      -0.100  -1.048   2.632  1.00  0.00     0.193 HD
BRANCH  18  23
ATOM     23  N   UNL     1      -1.952   0.494   1.478  1.00  0.00    -0.368 N 
ATOM     24  H   UNL     1      -2.515   1.192   1.072  1.00  0.00     0.159 HD
ATOM     25  H   UNL     1      -2.359  -0.346   1.791  1.00  0.00     0.159 HD
ENDBRANCH  18  23
ENDBRANCH  16  17
ENDBRANCH  15  16
ENDBRANCH   6  15
ENDBRANCH   3   5
ENDBRANCH   2   3
ENDBRANCH   1   2
BRANCH   1  26
ATOM     26  C   UNL     1       0.431  -1.420  -1.422  1.00  0.00     0.275 C 
BRANCH  26  27
ATOM     27  O   UNL     1      -0.607  -1.054  -2.341  1.00  0.00    -0.458 OA
BRANCH  27  28
ATOM     28  C   UNL     1      -1.204   0.122  -2.055  1.00  0.00     0.338 C 
ATOM     29  O   UNL     1      -0.686   1.157  -1.680  1.00  0.00    -0.246 OA
BRANCH  28  30
ATOM     30  C   UNL     1      -2.656   0.008  -2.015  1.00  0.00     0.060 A 
ATOM     31  C   UNL     1      -3.389   1.187  -2.182  1.00  0.00     0.016 A 
ATOM     32  C   UNL     1      -3.256  -1.181  -1.585  1.00  0.00     0.016 A 
ATOM     33  C   UNL     1      -4.741   1.175  -1.913  1.00  0.00     0.010 A 
ATOM     34  C   UNL     1      -4.610  -1.189  -1.303  1.00  0.00     0.010 A 
ATOM     35  C   UNL     1      -5.344  -0.013  -1.474  1.00  0.00    -0.014 A 
BRANCH  35  36
ATOM     36  C   UNL     1      -6.797  -0.053  -1.506  1.00  0.00     0.031 A 
ATOM     37  C   UNL     1      -7.335  -0.005  -2.890  1.00  0.00     0.074 A 
ATOM     38  C   UNL     1      -7.601  -0.258  -0.449  1.00  0.00     0.049 A 
ATOM     39  N   UNL     1      -8.059   0.918  -3.428  1.00  0.00    -0.248 NA
ATOM     40  C   UNL     1      -6.895  -1.051  -3.829  1.00  0.00     0.031 C 
ATOM     41  C   UNL     1      -7.209  -0.642   0.906  1.00  0.00     0.029 A 
ATOM     42  N   UNL     1      -8.966  -0.253  -0.400  1.00  0.00    -0.354 N 
ATOM     43  C   UNL     1      -8.328   0.476  -4.721  1.00  0.00     0.074 A 
ATOM     44  C   UNL     1      -7.460  -0.643  -4.965  1.00  0.00     0.031 C 
ATOM     45  C   UNL     1      -8.312  -1.020   1.593  1.00  0.00     0.029 A 
ATOM     46  C   UNL     1      -9.489  -0.779   0.770  1.00  0.00     0.049 A 
ATOM     47  H   UNL     1      -9.527   0.093  -1.131  1.00  0.00     0.167 HD
ATOM     48  C   UNL     1      -9.441   0.893  -5.380  1.00  0.00     0.037 A 
ATOM     49  C   UNL     1     -10.793  -1.029   1.039  1.00  0.00     0.037 A 
ATOM     50  C   UNL     1     -10.001   2.069  -4.767  1.00  0.00     0.049 A 
ATOM     51  C   UNL     1     -11.628  -0.225   0.119  1.00  0.00     0.074 A 
ATOM     52  C   UNL     1      -9.728   3.417  -4.720  1.00  0.00     0.029 A 
ATOM     53  N   UNL     1     -10.895   1.799  -3.769  1.00  0.00    -0.354 N 
ATOM     54  N   UNL     1     -11.761   1.067   0.202  1.00  0.00    -0.248 NA
ATOM     55  C   UNL     1     -12.151  -0.829  -1.103  1.00  0.00     0.031 C 
ATOM     56  C   UNL     1     -10.363   3.913  -3.541  1.00  0.00     0.029 A 
ATOM     57  C   UNL     1     -11.002   2.852  -2.904  1.00  0.00     0.049 A 
ATOM     58  H   UNL     1     -11.396   0.956  -3.684  1.00  0.00     0.167 HD
ATOM     59  C   UNL     1     -11.980   1.471  -1.099  1.00  0.00     0.074 A 
ATOM     60  C   UNL     1     -12.409   0.276  -1.807  1.00  0.00     0.031 C 
ATOM     61  C   UNL     1     -11.468   2.649  -1.552  1.00  0.00     0.037 A 
BRANCH  48  62
ATOM     62  C   UNL     1     -10.315  -0.019  -6.221  1.00  0.00     0.057 A 
ATOM     63  C   UNL     1     -10.316  -1.427  -6.137  1.00  0.00     0.134 A 
ATOM     64  C   UNL     1     -11.434   0.538  -6.870  1.00  0.00     0.134 A 
ATOM     65  F   UNL     1      -9.364  -2.116  -5.499  1.00  0.00    -0.206 F 
ATOM     66  C   UNL     1     -11.367  -2.215  -6.617  1.00  0.00     0.040 A 
ATOM     67  C   UNL     1     -12.513  -0.239  -7.309  1.00  0.00     0.040 A 
ATOM     68  F   UNL     1     -11.554   1.866  -7.018  1.00  0.00    -0.206 F 
ATOM     69  C   UNL     1     -12.488  -1.620  -7.170  1.00  0.00     0.006 A 
ENDBRANCH  48  62
BRANCH  49  70
ATOM     70  C   UNL     1     -11.405  -1.996   1.971  1.00  0.00     0.057 A 
ATOM     71  C   UNL     1     -10.814  -3.244   2.221  1.00  0.00     0.134 A 
ATOM     72  C   UNL     1     -12.721  -1.828   2.428  1.00  0.00     0.134 A 
ATOM     73  F   UNL     1      -9.584  -3.529   1.771  1.00  0.00    -0.206 F 
ATOM     74  C   UNL     1     -11.502  -4.277   2.866  1.00  0.00     0.040 A 
ATOM     75  C   UNL     1     -13.423  -2.856   3.065  1.00  0.00     0.040 A 
ATOM     76  F   UNL     1     -13.379  -0.680   2.211  1.00  0.00    -0.206 F 
ATOM     77  C   UNL     1     -12.818  -4.090   3.274  1.00  0.00     0.006 A 
ENDBRANCH  49  70
BRANCH  61  78
ATOM     78  C   UNL     1     -11.193   3.701  -0.528  1.00  0.00     0.057 A 
ATOM     79  C   UNL     1     -11.940   4.882  -0.571  1.00  0.00     0.134 A 
ATOM     80  C   UNL     1     -10.214   3.595   0.469  1.00  0.00     0.134 A 
ATOM     81  F   UNL     1     -12.865   5.064  -1.527  1.00  0.00    -0.206 F 
ATOM     82  C   UNL     1     -11.743   5.909   0.352  1.00  0.00     0.040 A 
ATOM     83  C   UNL     1     -10.031   4.601   1.421  1.00  0.00     0.040 A 
ATOM     84  F   UNL     1      -9.402   2.530   0.533  1.00  0.00    -0.206 F 
ATOM     85  C   UNL     1     -10.797   5.763   1.363  1.00  0.00     0.006 A 
ENDBRANCH  61  78
ENDBRANCH  35  36
ENDBRANCH  28  30
ENDBRANCH  27  28
ENDBRANCH  26  27
ENDBRANCH   1  26
TORSDOF 15
