REMARK SMILES CC[C@@H](C(=O)Nc1ccc(OC(C)=O)cc1C(=O)OCCOC(=O)c1ccc(-c2c3nc(c(-c4c(F)cccc4F)c4ccc([nH]4)c(-c4c(F)cccc4F)c4nc(c(-c5c(F)cccc5F)c5ccc2[nH]5)C=C4)C=C3)cc1)c1ccccc1
REMARK SMILES IDX 20 1 19 2 17 3 18 4 16 5 7 6 8 7 9 8 15 9 10 10 6 11 4 12
REMARK SMILES IDX 5 13 3 15 2 16 1 17 79 18 80 19 84 20 81 21 83 22 82 23
REMARK SMILES IDX 11 24 12 25 13 26 14 27 21 28 22 29 23 30 24 31 25 32 26 33
REMARK SMILES IDX 78 34 27 35 77 36 28 37 29 38 30 39 71 40 31 41 76 42 70 43
REMARK SMILES IDX 72 44 32 45 75 46 69 47 68 48 33 50 59 51 42 52 58 53 43 54
REMARK SMILES IDX 46 55 57 56 73 57 44 58 45 59 56 61 74 62 47 63 34 64 35 65
REMARK SMILES IDX 40 66 36 67 37 68 39 69 41 70 38 71 60 72 61 73 66 74 62 75
REMARK SMILES IDX 63 76 65 77 67 78 64 79 48 80 49 81 54 82 50 83 51 84 53 85
REMARK SMILES IDX 55 86 52 87
REMARK H PARENT 6 14 72 49 46 60
REMARK Flexibility Score: inf
ROOT
ATOM      1  C   UNL     1      -2.174  -1.244  -0.053  1.00  0.00     0.275 C 
ENDROOT
BRANCH   1   2
ATOM      2  O   UNL     1      -1.292  -0.737   0.975  1.00  0.00    -0.458 OA
BRANCH   2   3
ATOM      3  C   UNL     1      -0.181  -0.155   0.486  1.00  0.00     0.340 C 
ATOM      4  O   UNL     1       0.012   0.195  -0.662  1.00  0.00    -0.246 OA
BRANCH   3   5
ATOM      5  C   UNL     1       0.902  -0.003   1.450  1.00  0.00     0.087 A 
ATOM      6  C   UNL     1       1.610  -1.093   1.980  1.00  0.00     0.056 A 
ATOM      7  C   UNL     1       2.674  -0.837   2.859  1.00  0.00     0.031 A 
ATOM      8  C   UNL     1       3.131   0.469   3.060  1.00  0.00     0.049 A 
ATOM      9  C   UNL     1       1.329   1.314   1.683  1.00  0.00     0.065 A 
ATOM     10  C   UNL     1       2.482   1.525   2.427  1.00  0.00     0.131 A 
BRANCH   6  11
ATOM     11  N   UNL     1       1.394  -2.454   1.675  1.00  0.00    -0.325 N 
ATOM     12  C   UNL     1       0.788  -2.995   0.566  1.00  0.00     0.231 C 
ATOM     13  O   UNL     1      -0.276  -3.597   0.741  1.00  0.00    -0.274 OA
ATOM     14  H   UNL     1       1.720  -3.100   2.344  1.00  0.00     0.169 HD
BRANCH  12  15
ATOM     15  C   UNL     1       1.647  -3.150  -0.737  1.00  0.00     0.108 C 
BRANCH  15  16
ATOM     16  C   UNL     1       2.030  -1.905  -1.559  1.00  0.00     0.015 C 
ATOM     17  C   UNL     1       3.207  -1.086  -1.058  1.00  0.00     0.005 C 
ENDBRANCH  15  16
BRANCH  15  18
ATOM     18  C   UNL     1       0.960  -4.160  -1.673  1.00  0.00    -0.036 A 
ATOM     19  C   UNL     1      -0.009  -3.762  -2.614  1.00  0.00     0.004 A 
ATOM     20  C   UNL     1       1.266  -5.524  -1.566  1.00  0.00     0.004 A 
ATOM     21  C   UNL     1      -0.625  -4.697  -3.446  1.00  0.00     0.000 A 
ATOM     22  C   UNL     1       0.641  -6.459  -2.393  1.00  0.00     0.000 A 
ATOM     23  C   UNL     1      -0.297  -6.045  -3.337  1.00  0.00     0.000 A 
ENDBRANCH  15  18
ENDBRANCH  12  15
ENDBRANCH   6  11
BRANCH  10  24
ATOM     24  O   UNL     1       3.004   2.816   2.600  1.00  0.00    -0.427 OA
BRANCH  24  25
ATOM     25  C   UNL     1       3.832   3.377   1.626  1.00  0.00     0.308 C 
ATOM     26  C   UNL     1       3.521   3.021   0.199  1.00  0.00     0.139 C 
ATOM     27  O   UNL     1       4.718   4.171   1.927  1.00  0.00    -0.252 OA
ENDBRANCH  24  25
ENDBRANCH  10  24
ENDBRANCH   3   5
ENDBRANCH   2   3
ENDBRANCH   1   2
BRANCH   1  28
ATOM     28  C   UNL     1      -3.165  -0.210  -0.592  1.00  0.00     0.275 C 
BRANCH  28  29
ATOM     29  O   UNL     1      -2.498   0.829  -1.339  1.00  0.00    -0.458 OA
BRANCH  29  30
ATOM     30  C   UNL     1      -2.689   2.088  -0.885  1.00  0.00     0.338 C 
ATOM     31  O   UNL     1      -3.422   2.423   0.034  1.00  0.00    -0.246 OA
BRANCH  30  32
ATOM     32  C   UNL     1      -1.876   3.091  -1.613  1.00  0.00     0.060 A 
ATOM     33  C   UNL     1      -0.526   2.888  -1.896  1.00  0.00     0.016 A 
ATOM     34  C   UNL     1      -2.427   4.355  -1.821  1.00  0.00     0.016 A 
ATOM     35  C   UNL     1       0.306   3.966  -2.196  1.00  0.00     0.010 A 
ATOM     36  C   UNL     1      -1.614   5.413  -2.238  1.00  0.00     0.010 A 
ATOM     37  C   UNL     1      -0.221   5.251  -2.349  1.00  0.00    -0.014 A 
BRANCH  37  38
ATOM     38  C   UNL     1       0.653   6.452  -2.480  1.00  0.00     0.031 A 
ATOM     39  C   UNL     1       0.446   7.601  -1.526  1.00  0.00     0.074 A 
ATOM     40  C   UNL     1       1.643   6.548  -3.389  1.00  0.00     0.049 A 
ATOM     41  N   UNL     1       0.758   8.863  -1.662  1.00  0.00    -0.248 NA
ATOM     42  C   UNL     1      -0.233   7.283  -0.258  1.00  0.00     0.031 C 
ATOM     43  C   UNL     1       2.085   5.494  -4.299  1.00  0.00     0.029 A 
ATOM     44  N   UNL     1       2.466   7.608  -3.687  1.00  0.00    -0.354 N 
ATOM     45  C   UNL     1       0.210   9.505  -0.559  1.00  0.00     0.074 A 
ATOM     46  C   UNL     1      -0.415   8.489   0.259  1.00  0.00     0.031 C 
ATOM     47  C   UNL     1       3.129   5.940  -5.016  1.00  0.00     0.029 A 
ATOM     48  C   UNL     1       3.341   7.351  -4.713  1.00  0.00     0.049 A 
ATOM     49  H   UNL     1       2.431   8.469  -3.211  1.00  0.00     0.167 HD
ATOM     50  C   UNL     1       0.207  10.830  -0.278  1.00  0.00     0.037 A 
ATOM     51  C   UNL     1       4.167   8.174  -5.388  1.00  0.00     0.037 A 
ATOM     52  C   UNL     1       0.922  11.812  -1.048  1.00  0.00     0.049 A 
ATOM     53  C   UNL     1       4.147   9.645  -5.083  1.00  0.00     0.074 A 
ATOM     54  C   UNL     1       0.962  13.186  -0.885  1.00  0.00     0.029 A 
ATOM     55  N   UNL     1       1.767  11.509  -2.104  1.00  0.00    -0.354 N 
ATOM     56  N   UNL     1       3.460  10.292  -4.172  1.00  0.00    -0.248 NA
ATOM     57  C   UNL     1       4.977  10.508  -5.936  1.00  0.00     0.031 C 
ATOM     58  C   UNL     1       1.827  13.715  -1.851  1.00  0.00     0.029 A 
ATOM     59  C   UNL     1       2.345  12.666  -2.595  1.00  0.00     0.049 A 
ATOM     60  H   UNL     1       1.932  10.604  -2.454  1.00  0.00     0.167 HD
ATOM     61  C   UNL     1       3.772  11.634  -4.344  1.00  0.00     0.074 A 
ATOM     62  C   UNL     1       4.726  11.708  -5.431  1.00  0.00     0.031 C 
ATOM     63  C   UNL     1       3.299  12.712  -3.672  1.00  0.00     0.037 A 
BRANCH  50  64
ATOM     64  C   UNL     1      -0.648  11.292   0.863  1.00  0.00     0.057 A 
ATOM     65  C   UNL     1      -0.297  11.089   2.202  1.00  0.00     0.134 A 
ATOM     66  C   UNL     1      -1.853  11.961   0.606  1.00  0.00     0.134 A 
ATOM     67  F   UNL     1       0.832  10.436   2.517  1.00  0.00    -0.206 F 
ATOM     68  C   UNL     1      -1.124  11.514   3.244  1.00  0.00     0.040 A 
ATOM     69  C   UNL     1      -2.677  12.411   1.638  1.00  0.00     0.040 A 
ATOM     70  F   UNL     1      -2.249  12.189  -0.656  1.00  0.00    -0.206 F 
ATOM     71  C   UNL     1      -2.316  12.181   2.963  1.00  0.00     0.006 A 
ENDBRANCH  50  64
BRANCH  51  72
ATOM     72  C   UNL     1       5.022   7.635  -6.475  1.00  0.00     0.057 A 
ATOM     73  C   UNL     1       6.411   7.564  -6.329  1.00  0.00     0.134 A 
ATOM     74  C   UNL     1       4.474   7.165  -7.676  1.00  0.00     0.134 A 
ATOM     75  F   UNL     1       6.996   8.026  -5.214  1.00  0.00    -0.206 F 
ATOM     76  C   UNL     1       7.226   7.040  -7.334  1.00  0.00     0.040 A 
ATOM     77  C   UNL     1       5.273   6.614  -8.678  1.00  0.00     0.040 A 
ATOM     78  F   UNL     1       3.149   7.209  -7.879  1.00  0.00    -0.206 F 
ATOM     79  C   UNL     1       6.655   6.554  -8.509  1.00  0.00     0.006 A 
ENDBRANCH  51  72
BRANCH  63  80
ATOM     80  C   UNL     1       3.831  14.052  -4.074  1.00  0.00     0.057 A 
ATOM     81  C   UNL     1       3.372  14.709  -5.221  1.00  0.00     0.134 A 
ATOM     82  C   UNL     1       4.783  14.707  -3.283  1.00  0.00     0.134 A 
ATOM     83  F   UNL     1       2.469  14.126  -6.024  1.00  0.00    -0.206 F 
ATOM     84  C   UNL     1       3.853  15.970  -5.577  1.00  0.00     0.040 A 
ATOM     85  C   UNL     1       5.260  15.973  -3.620  1.00  0.00     0.040 A 
ATOM     86  F   UNL     1       5.257  14.128  -2.170  1.00  0.00    -0.206 F 
ATOM     87  C   UNL     1       4.796  16.607  -4.772  1.00  0.00     0.006 A 
ENDBRANCH  63  80
ENDBRANCH  37  38
ENDBRANCH  30  32
ENDBRANCH  29  30
ENDBRANCH  28  29
ENDBRANCH   1  28
TORSDOF 17
