REMARK SMILES COCCS(=O)(=O)CCn1cc(C(=O)OCCOC(=O)c2ccc(-c3c4nc(c(-c5c(F)cccc5F)c5ccc([nH]5)c(-c5c(F)cccc5F)c5nc(c(-c6c(F)cccc6F)c6ccc3[nH]6)C=C5)C=C4)cc2)nn1
REMARK SMILES IDX 13 1 14 2 12 3 10 4 11 5 76 6 75 7 9 8 8 9 5 10 6 11 7 12
REMARK SMILES IDX 4 13 3 14 2 15 1 16 15 17 16 18 17 19 18 20 19 21 20 22
REMARK SMILES IDX 21 23 22 24 74 25 23 26 73 27 24 28 25 29 26 30 67 31 27 32
REMARK SMILES IDX 72 33 66 34 68 35 28 36 71 37 65 38 64 39 29 41 55 42 38 43
REMARK SMILES IDX 54 44 39 45 42 46 53 47 69 48 40 49 41 50 52 52 70 53 43 54
REMARK SMILES IDX 30 55 31 56 36 57 32 58 33 59 35 60 37 61 34 62 56 63 57 64
REMARK SMILES IDX 62 65 58 66 59 67 61 68 63 69 60 70 44 71 45 72 50 73 46 74
REMARK SMILES IDX 47 75 49 76 51 77 48 78
REMARK H PARENT 68 40 42 51
REMARK Flexibility Score: inf
ROOT
ATOM      1  C   UNL     1      -1.242  -2.788  -1.734  1.00  0.00     0.360 C 
ATOM      2  O   UNL     1      -1.296  -3.329  -2.833  1.00  0.00    -0.244 OA
ENDROOT
BRANCH   1   3
ATOM      3  C   UNL     1      -1.746  -1.446  -1.491  1.00  0.00     0.190 A 
ATOM      4  N   UNL     1      -1.903   0.609  -0.875  1.00  0.00    -0.251 N 
ATOM      5  C   UNL     1      -1.532  -0.615  -0.405  1.00  0.00     0.147 A 
ATOM      6  N   UNL     1      -2.575   0.508  -2.029  1.00  0.00    -0.067 NA
ATOM      7  N   UNL     1      -2.458  -0.747  -2.439  1.00  0.00    -0.123 NA
BRANCH   4   8
ATOM      8  C   UNL     1      -1.459   1.906  -0.423  1.00  0.00     0.162 C 
BRANCH   8   9
ATOM      9  C   UNL     1       0.049   2.046  -0.323  1.00  0.00     0.160 C 
BRANCH   9  10
ATOM     10  S   UNL     1       0.956   2.144  -1.856  1.00  0.00     0.154 S 
ATOM     11  O   UNL     1       2.345   2.357  -1.483  1.00  0.00    -0.229 OA
ATOM     12  O   UNL     1       0.286   3.143  -2.668  1.00  0.00    -0.229 OA
BRANCH  10  13
ATOM     13  C   UNL     1       0.896   0.603  -2.752  1.00  0.00     0.165 C 
BRANCH  13  14
ATOM     14  C   UNL     1       1.832  -0.468  -2.225  1.00  0.00     0.176 C 
BRANCH  14  15
ATOM     15  O   UNL     1       1.299  -1.105  -1.069  1.00  0.00    -0.384 OA
ATOM     16  C   UNL     1       2.139  -1.065   0.075  1.00  0.00     0.194 C 
ENDBRANCH  14  15
ENDBRANCH  13  14
ENDBRANCH  10  13
ENDBRANCH   9  10
ENDBRANCH   8   9
ENDBRANCH   4   8
ENDBRANCH   1   3
BRANCH   1  17
ATOM     17  O   UNL     1      -0.719  -3.386  -0.616  1.00  0.00    -0.457 OA
BRANCH  17  18
ATOM     18  C   UNL     1      -0.406  -4.780  -0.764  1.00  0.00     0.275 C 
BRANCH  18  19
ATOM     19  C   UNL     1      -1.605  -5.659  -0.422  1.00  0.00     0.275 C 
BRANCH  19  20
ATOM     20  O   UNL     1      -2.681  -5.498  -1.349  1.00  0.00    -0.458 OA
BRANCH  20  21
ATOM     21  C   UNL     1      -3.577  -4.539  -1.018  1.00  0.00     0.338 C 
ATOM     22  O   UNL     1      -3.457  -3.684  -0.157  1.00  0.00    -0.246 OA
BRANCH  21  23
ATOM     23  C   UNL     1      -4.828  -4.757  -1.748  1.00  0.00     0.060 A 
ATOM     24  C   UNL     1      -5.745  -3.704  -1.807  1.00  0.00     0.016 A 
ATOM     25  C   UNL     1      -5.171  -6.058  -2.135  1.00  0.00     0.016 A 
ATOM     26  C   UNL     1      -7.058  -3.986  -2.135  1.00  0.00     0.010 A 
ATOM     27  C   UNL     1      -6.481  -6.338  -2.452  1.00  0.00     0.010 A 
ATOM     28  C   UNL     1      -7.424  -5.312  -2.389  1.00  0.00    -0.014 A 
BRANCH  28  29
ATOM     29  C   UNL     1      -8.819  -5.603  -2.664  1.00  0.00     0.031 A 
ATOM     30  C   UNL     1      -9.302  -5.156  -3.993  1.00  0.00     0.074 A 
ATOM     31  C   UNL     1      -9.567  -6.378  -1.855  1.00  0.00     0.049 A 
ATOM     32  N   UNL     1     -10.316  -4.403  -4.265  1.00  0.00    -0.248 NA
ATOM     33  C   UNL     1      -8.507  -5.551  -5.168  1.00  0.00     0.031 C 
ATOM     34  C   UNL     1      -9.122  -7.142  -0.685  1.00  0.00     0.029 A 
ATOM     35  N   UNL     1     -10.873  -6.743  -1.989  1.00  0.00    -0.354 N 
ATOM     36  C   UNL     1     -10.396  -4.372  -5.654  1.00  0.00     0.074 A 
ATOM     37  C   UNL     1      -9.196  -4.986  -6.158  1.00  0.00     0.031 C 
ATOM     38  C   UNL     1     -10.080  -8.035  -0.350  1.00  0.00     0.029 A 
ATOM     39  C   UNL     1     -11.241  -7.824  -1.201  1.00  0.00     0.049 A 
ATOM     40  H   UNL     1     -11.499  -6.281  -2.591  1.00  0.00     0.167 HD
ATOM     41  C   UNL     1     -11.550  -4.051  -6.294  1.00  0.00     0.037 A 
ATOM     42  C   UNL     1     -12.389  -8.537  -1.289  1.00  0.00     0.037 A 
ATOM     43  C   UNL     1     -12.442  -3.296  -5.458  1.00  0.00     0.049 A 
ATOM     44  C   UNL     1     -13.370  -7.737  -2.060  1.00  0.00     0.074 A 
ATOM     45  C   UNL     1     -12.351  -2.099  -4.773  1.00  0.00     0.029 A 
ATOM     46  N   UNL     1     -13.551  -3.925  -4.953  1.00  0.00    -0.354 N 
ATOM     47  N   UNL     1     -13.968  -6.670  -1.615  1.00  0.00    -0.248 NA
ATOM     48  C   UNL     1     -13.423  -7.923  -3.502  1.00  0.00     0.031 C 
ATOM     49  C   UNL     1     -13.111  -2.291  -3.582  1.00  0.00     0.029 A 
ATOM     50  C   UNL     1     -13.642  -3.580  -3.629  1.00  0.00     0.049 A 
ATOM     51  H   UNL     1     -14.165  -4.514  -5.448  1.00  0.00     0.167 HD
ATOM     52  C   UNL     1     -14.084  -5.845  -2.722  1.00  0.00     0.074 A 
ATOM     53  C   UNL     1     -13.857  -6.716  -3.869  1.00  0.00     0.031 C 
ATOM     54  C   UNL     1     -14.071  -4.486  -2.590  1.00  0.00     0.037 A 
BRANCH  41  55
ATOM     55  C   UNL     1     -11.995  -4.738  -7.557  1.00  0.00     0.057 A 
ATOM     56  C   UNL     1     -13.064  -4.212  -8.299  1.00  0.00     0.134 A 
ATOM     57  C   UNL     1     -11.597  -6.045  -7.913  1.00  0.00     0.134 A 
ATOM     58  F   UNL     1     -13.556  -2.995  -8.026  1.00  0.00    -0.206 F 
ATOM     59  C   UNL     1     -13.719  -4.951  -9.292  1.00  0.00     0.040 A 
ATOM     60  C   UNL     1     -12.208  -6.770  -8.938  1.00  0.00     0.040 A 
ATOM     61  F   UNL     1     -10.670  -6.723  -7.223  1.00  0.00    -0.206 F 
ATOM     62  C   UNL     1     -13.292  -6.235  -9.613  1.00  0.00     0.006 A 
ENDBRANCH  41  55
BRANCH  42  63
ATOM     63  C   UNL     1     -12.639  -9.955  -0.957  1.00  0.00     0.057 A 
ATOM     64  C   UNL     1     -13.944 -10.434  -0.770  1.00  0.00     0.134 A 
ATOM     65  C   UNL     1     -11.634 -10.930  -1.076  1.00  0.00     0.134 A 
ATOM     66  F   UNL     1     -14.976  -9.583  -0.682  1.00  0.00    -0.206 F 
ATOM     67  C   UNL     1     -14.237 -11.802  -0.733  1.00  0.00     0.040 A 
ATOM     68  C   UNL     1     -11.911 -12.300  -1.028  1.00  0.00     0.040 A 
ATOM     69  F   UNL     1     -10.363 -10.589  -1.331  1.00  0.00    -0.206 F 
ATOM     70  C   UNL     1     -13.219 -12.741  -0.873  1.00  0.00     0.006 A 
ENDBRANCH  42  63
BRANCH  54  71
ATOM     71  C   UNL     1     -14.252  -3.921  -1.209  1.00  0.00     0.057 A 
ATOM     72  C   UNL     1     -13.384  -4.170  -0.135  1.00  0.00     0.134 A 
ATOM     73  C   UNL     1     -15.288  -3.007  -0.984  1.00  0.00     0.134 A 
ATOM     74  F   UNL     1     -12.299  -4.942  -0.282  1.00  0.00    -0.206 F 
ATOM     75  C   UNL     1     -13.583  -3.593   1.123  1.00  0.00     0.040 A 
ATOM     76  C   UNL     1     -15.474  -2.393   0.257  1.00  0.00     0.040 A 
ATOM     77  F   UNL     1     -16.122  -2.669  -1.981  1.00  0.00    -0.206 F 
ATOM     78  C   UNL     1     -14.631  -2.699   1.321  1.00  0.00     0.006 A 
ENDBRANCH  54  71
ENDBRANCH  28  29
ENDBRANCH  21  23
ENDBRANCH  20  21
ENDBRANCH  19  20
ENDBRANCH  18  19
ENDBRANCH  17  18
ENDBRANCH   1  17
TORSDOF 17
