REMARK SMILES O=C(CSc1nnnn1C1CC1)N[C@H](CO)C(=O)OCCOC(=O)c1ccc(-c2c3nc(c(-c4c(F)cccc4F)c4ccc([nH]4)c(-c4c(F)cccc4F)c4nc(c(-c5c(F)cccc5F)c5ccc2[nH]5)C=C4)C=C3)cc1
REMARK SMILES IDX 19 1 17 2 18 3 14 4 13 5 1 6 2 7 3 9 4 10 5 11 6 12 9 13
REMARK SMILES IDX 7 14 8 15 10 16 11 17 12 18 15 19 16 20 20 22 21 23 22 24
REMARK SMILES IDX 23 25 24 26 25 27 26 28 78 29 27 30 77 31 28 32 29 33 30 34
REMARK SMILES IDX 71 35 31 36 76 37 70 38 72 39 32 40 75 41 69 42 68 43 33 45
REMARK SMILES IDX 59 46 42 47 58 48 43 49 46 50 57 51 73 52 44 53 45 54 56 56
REMARK SMILES IDX 74 57 47 58 34 59 35 60 40 61 36 62 37 63 39 64 41 65 38 66
REMARK SMILES IDX 60 67 61 68 66 69 62 70 63 71 65 72 67 73 64 74 48 75 49 76
REMARK SMILES IDX 54 77 50 78 51 79 53 80 55 81 52 82
REMARK H PARENT 13 8 16 21 72 44 46 55
REMARK Flexibility Score: inf
ROOT
ATOM      1  O   UNL     1       3.966   3.376  -1.275  1.00  0.00    -0.460 OA
ENDROOT
BRANCH   1   2
ATOM      2  C   UNL     1       2.732   3.430  -0.700  1.00  0.00     0.331 C 
ATOM      3  O   UNL     1       1.911   4.317  -0.923  1.00  0.00    -0.250 OA
BRANCH   2   4
ATOM      4  C   UNL     1       2.538   2.408   0.430  1.00  0.00     0.218 C 
BRANCH   4   5
ATOM      5  N   UNL     1       2.713   3.144   1.706  1.00  0.00    -0.340 N 
ATOM      6  O   UNL     1       3.794   1.536   2.929  1.00  0.00    -0.274 OA
ATOM      7  C   UNL     1       3.299   2.657   2.850  1.00  0.00     0.231 C 
ATOM      8  H   UNL     1       2.377   4.069   1.737  1.00  0.00     0.164 HD
BRANCH   7   9
ATOM      9  C   UNL     1       3.292   3.592   4.047  1.00  0.00     0.178 C 
BRANCH   9  10
ATOM     10  S   UNL     1       4.431   4.989   3.861  1.00  0.00    -0.075 SA
BRANCH  10  11
ATOM     11  C   UNL     1       5.878   4.200   3.344  1.00  0.00     0.210 A 
ATOM     12  N   UNL     1       6.654   3.468   4.110  1.00  0.00    -0.102 NA
ATOM     13  N   UNL     1       6.329   4.107   2.050  1.00  0.00    -0.217 N 
ATOM     14  N   UNL     1       7.567   2.879   3.266  1.00  0.00    -0.023 NA
ATOM     15  N   UNL     1       7.345   3.224   2.005  1.00  0.00    -0.044 NA
BRANCH  13  16
ATOM     16  C   UNL     1       5.852   4.728   0.838  1.00  0.00     0.112 C 
ATOM     17  C   UNL     1       4.811   5.825   0.716  1.00  0.00     0.029 C 
ATOM     18  C   UNL     1       6.245   6.134   0.439  1.00  0.00     0.029 C 
ENDBRANCH  13  16
ENDBRANCH  10  11
ENDBRANCH   9  10
ENDBRANCH   7   9
ENDBRANCH   4   5
BRANCH   4  19
ATOM     19  C   UNL     1       3.321   1.104   0.237  1.00  0.00     0.193 C 
BRANCH  19  20
ATOM     20  O   UNL     1       2.791   0.067   1.071  1.00  0.00    -0.394 OA
ATOM     21  H   UNL     1       2.862   0.333   2.001  1.00  0.00     0.210 HD
ENDBRANCH  19  20
ENDBRANCH   4  19
ENDBRANCH   2   4
ENDBRANCH   1   2
BRANCH   1  22
ATOM     22  C   UNL     1       4.274   4.359  -2.293  1.00  0.00     0.274 C 
BRANCH  22  23
ATOM     23  C   UNL     1       4.220   3.781  -3.694  1.00  0.00     0.275 C 
BRANCH  23  24
ATOM     24  O   UNL     1       2.874   3.459  -4.046  1.00  0.00    -0.458 OA
BRANCH  24  25
ATOM     25  C   UNL     1       2.505   2.232  -3.628  1.00  0.00     0.338 C 
ATOM     26  O   UNL     1       3.125   1.488  -2.893  1.00  0.00    -0.246 OA
BRANCH  25  27
ATOM     27  C   UNL     1       1.308   1.787  -4.326  1.00  0.00     0.060 A 
ATOM     28  C   UNL     1       0.704   0.620  -3.840  1.00  0.00     0.016 A 
ATOM     29  C   UNL     1       1.035   2.304  -5.599  1.00  0.00     0.016 A 
ATOM     30  C   UNL     1      -0.040  -0.141  -4.710  1.00  0.00     0.010 A 
ATOM     31  C   UNL     1       0.299   1.535  -6.467  1.00  0.00     0.010 A 
ATOM     32  C   UNL     1      -0.159   0.289  -6.033  1.00  0.00    -0.014 A 
BRANCH  32  33
ATOM     33  C   UNL     1      -0.760  -0.622  -6.981  1.00  0.00     0.031 A 
ATOM     34  C   UNL     1      -2.233  -0.707  -6.946  1.00  0.00     0.074 A 
ATOM     35  C   UNL     1      -0.026  -1.225  -7.933  1.00  0.00     0.049 A 
ATOM     36  N   UNL     1      -2.968  -1.761  -6.818  1.00  0.00    -0.248 NA
ATOM     37  C   UNL     1      -2.983   0.557  -7.006  1.00  0.00     0.031 C 
ATOM     38  C   UNL     1       1.378  -0.989  -8.276  1.00  0.00     0.029 A 
ATOM     39  N   UNL     1      -0.446  -2.091  -8.893  1.00  0.00    -0.354 N 
ATOM     40  C   UNL     1      -4.280  -1.319  -6.935  1.00  0.00     0.074 A 
ATOM     41  C   UNL     1      -4.239   0.121  -6.941  1.00  0.00     0.031 C 
ATOM     42  C   UNL     1       1.622  -1.517  -9.495  1.00  0.00     0.029 A 
ATOM     43  C   UNL     1       0.428  -2.207  -9.959  1.00  0.00     0.049 A 
ATOM     44  H   UNL     1      -1.293  -2.588  -8.835  1.00  0.00     0.167 HD
ATOM     45  C   UNL     1      -5.307  -2.165  -7.207  1.00  0.00     0.037 A 
ATOM     46  C   UNL     1       0.146  -2.746 -11.168  1.00  0.00     0.037 A 
ATOM     47  C   UNL     1      -4.982  -3.535  -6.931  1.00  0.00     0.049 A 
ATOM     48  C   UNL     1      -1.070  -3.588 -11.021  1.00  0.00     0.074 A 
ATOM     49  C   UNL     1      -4.576  -4.223  -5.803  1.00  0.00     0.029 A 
ATOM     50  N   UNL     1      -4.735  -4.380  -7.985  1.00  0.00    -0.354 N 
ATOM     51  N   UNL     1      -1.109  -4.725 -10.384  1.00  0.00    -0.248 NA
ATOM     52  C   UNL     1      -2.366  -2.963 -11.250  1.00  0.00     0.031 C 
ATOM     53  C   UNL     1      -3.676  -5.221  -6.276  1.00  0.00     0.029 A 
ATOM     54  C   UNL     1      -3.602  -5.084  -7.662  1.00  0.00     0.049 A 
ATOM     55  H   UNL     1      -5.266  -4.463  -8.810  1.00  0.00     0.167 HD
ATOM     56  C   UNL     1      -2.357  -4.753  -9.778  1.00  0.00     0.074 A 
ATOM     57  C   UNL     1      -3.125  -3.704 -10.439  1.00  0.00     0.031 C 
ATOM     58  C   UNL     1      -2.567  -5.426  -8.608  1.00  0.00     0.037 A 
BRANCH  45  59
ATOM     59  C   UNL     1      -6.512  -1.750  -7.995  1.00  0.00     0.057 A 
ATOM     60  C   UNL     1      -7.684  -2.518  -7.947  1.00  0.00     0.134 A 
ATOM     61  C   UNL     1      -6.473  -0.756  -8.994  1.00  0.00     0.134 A 
ATOM     62  F   UNL     1      -7.811  -3.523  -7.067  1.00  0.00    -0.206 F 
ATOM     63  C   UNL     1      -8.737  -2.323  -8.846  1.00  0.00     0.040 A 
ATOM     64  C   UNL     1      -7.539  -0.516  -9.861  1.00  0.00     0.040 A 
ATOM     65  F   UNL     1      -5.367  -0.036  -9.233  1.00  0.00    -0.206 F 
ATOM     66  C   UNL     1      -8.669  -1.316  -9.804  1.00  0.00     0.006 A 
ENDBRANCH  45  59
BRANCH  46  67
ATOM     67  C   UNL     1       0.727  -2.390 -12.480  1.00  0.00     0.057 A 
ATOM     68  C   UNL     1       0.594  -3.238 -13.586  1.00  0.00     0.134 A 
ATOM     69  C   UNL     1       1.243  -1.108 -12.746  1.00  0.00     0.134 A 
ATOM     70  F   UNL     1       0.057  -4.459 -13.449  1.00  0.00    -0.206 F 
ATOM     71  C   UNL     1       0.958  -2.838 -14.879  1.00  0.00     0.040 A 
ATOM     72  C   UNL     1       1.630  -0.703 -14.027  1.00  0.00     0.040 A 
ATOM     73  F   UNL     1       1.317  -0.172 -11.789  1.00  0.00    -0.206 F 
ATOM     74  C   UNL     1       1.479  -1.567 -15.102  1.00  0.00     0.006 A 
ENDBRANCH  46  67
BRANCH  58  75
ATOM     75  C   UNL     1      -1.488  -6.355  -8.128  1.00  0.00     0.057 A 
ATOM     76  C   UNL     1      -0.197  -5.927  -7.782  1.00  0.00     0.134 A 
ATOM     77  C   UNL     1      -1.802  -7.692  -7.866  1.00  0.00     0.134 A 
ATOM     78  F   UNL     1       0.158  -4.640  -7.888  1.00  0.00    -0.206 F 
ATOM     79  C   UNL     1       0.755  -6.805  -7.257  1.00  0.00     0.040 A 
ATOM     80  C   UNL     1      -0.870  -8.572  -7.308  1.00  0.00     0.040 A 
ATOM     81  F   UNL     1      -3.039  -8.158  -8.105  1.00  0.00    -0.206 F 
ATOM     82  C   UNL     1       0.418  -8.133  -7.015  1.00  0.00     0.006 A 
ENDBRANCH  58  75
ENDBRANCH  32  33
ENDBRANCH  25  27
ENDBRANCH  24  25
ENDBRANCH  23  24
ENDBRANCH  22  23
ENDBRANCH   1  22
TORSDOF 18
