REMARK SMILES C[C@@H](C(=O)OCCOC(=O)c1ccc(-c2c3nc(c(-c4c(F)cccc4F)c4ccc([nH]4)c(-c4c(F)cccc4F)c4nc(c(-c5c(F)cccc5F)c5ccc2[nH]5)C=C4)C=C3)cc1)c1ccc(-c2cccc(OC(=O)NCCCc3ccccc3)c2)c(F)c1
REMARK SMILES IDX 1 1 2 2 3 3 4 4 5 5 6 6 7 7 8 8 9 9 10 10 11 11 12 12 64 13
REMARK SMILES IDX 13 14 63 15 14 16 15 17 16 18 57 19 17 20 62 21 56 22 58 23
REMARK SMILES IDX 18 24 61 25 55 26 54 27 19 29 45 30 28 31 44 32 29 33 32 34
REMARK SMILES IDX 43 35 59 36 30 37 31 38 42 40 60 41 33 42 20 43 21 44 26 45
REMARK SMILES IDX 22 46 23 47 25 48 27 49 24 50 46 51 47 52 52 53 48 54 49 55
REMARK SMILES IDX 51 56 53 57 50 58 34 59 35 60 40 61 36 62 37 63 39 64 41 65
REMARK SMILES IDX 38 66 65 67 66 68 90 69 67 70 88 71 68 72 89 73 69 74 70 75
REMARK SMILES IDX 87 76 71 77 73 78 72 79 74 80 75 81 76 82 77 83 78 85 79 86
REMARK SMILES IDX 80 87 81 88 82 89 86 90 83 91 85 92 84 93
REMARK H PARENT 58 28 32 39 77 84
REMARK Flexibility Score: inf
ROOT
ATOM      1  C   UNL     1       1.513   0.138   0.187  1.00  0.00     0.025 C 
ATOM      2  C   UNL     1       0.822   1.249  -0.613  1.00  0.00     0.126 C 
ENDROOT
BRANCH   2   3
ATOM      3  C   UNL     1       1.234   1.283  -2.091  1.00  0.00     0.313 C 
ATOM      4  O   UNL     1       0.715   2.024  -2.920  1.00  0.00    -0.252 OA
BRANCH   3   5
ATOM      5  O   UNL     1       2.261   0.435  -2.368  1.00  0.00    -0.462 OA
BRANCH   5   6
ATOM      6  C   UNL     1       2.700   0.365  -3.739  1.00  0.00     0.274 C 
BRANCH   6   7
ATOM      7  C   UNL     1       2.224  -0.934  -4.385  1.00  0.00     0.275 C 
BRANCH   7   8
ATOM      8  O   UNL     1       0.795  -0.911  -4.548  1.00  0.00    -0.458 OA
BRANCH   8   9
ATOM      9  C   UNL     1       0.097  -1.697  -3.698  1.00  0.00     0.338 C 
ATOM     10  O   UNL     1       0.537  -2.445  -2.842  1.00  0.00    -0.246 OA
BRANCH   9  11
ATOM     11  C   UNL     1      -1.344  -1.501  -3.916  1.00  0.00     0.060 A 
ATOM     12  C   UNL     1      -1.911  -0.273  -3.599  1.00  0.00     0.016 A 
ATOM     13  C   UNL     1      -2.157  -2.578  -4.270  1.00  0.00     0.016 A 
ATOM     14  C   UNL     1      -3.297  -0.160  -3.516  1.00  0.00     0.010 A 
ATOM     15  C   UNL     1      -3.552  -2.425  -4.279  1.00  0.00     0.010 A 
ATOM     16  C   UNL     1      -4.147  -1.229  -3.842  1.00  0.00    -0.014 A 
BRANCH  16  17
ATOM     17  C   UNL     1      -5.630  -1.102  -3.659  1.00  0.00     0.031 A 
ATOM     18  C   UNL     1      -6.401  -2.114  -2.839  1.00  0.00     0.074 A 
ATOM     19  C   UNL     1      -6.302  -0.050  -4.173  1.00  0.00     0.049 A 
ATOM     20  N   UNL     1      -7.699  -2.277  -2.727  1.00  0.00    -0.248 NA
ATOM     21  C   UNL     1      -5.615  -3.089  -2.068  1.00  0.00     0.031 C 
ATOM     22  C   UNL     1      -5.707   1.053  -4.926  1.00  0.00     0.029 A 
ATOM     23  N   UNL     1      -7.633   0.289  -4.098  1.00  0.00    -0.354 N 
ATOM     24  C   UNL     1      -7.877  -3.420  -1.954  1.00  0.00     0.074 A 
ATOM     25  C   UNL     1      -6.557  -3.902  -1.610  1.00  0.00     0.031 C 
ATOM     26  C   UNL     1      -6.635   1.996  -5.139  1.00  0.00     0.029 A 
ATOM     27  C   UNL     1      -7.923   1.510  -4.657  1.00  0.00     0.049 A 
ATOM     28  H   UNL     1      -8.313  -0.288  -3.682  1.00  0.00     0.167 HD
ATOM     29  C   UNL     1      -9.035  -4.018  -1.578  1.00  0.00     0.037 A 
ATOM     30  C   UNL     1      -9.092   2.163  -4.797  1.00  0.00     0.037 A 
ATOM     31  C   UNL     1     -10.348  -3.478  -1.829  1.00  0.00     0.049 A 
ATOM     32  C   UNL     1     -10.362   1.499  -4.349  1.00  0.00     0.074 A 
ATOM     33  C   UNL     1     -11.581  -4.017  -1.500  1.00  0.00     0.029 A 
ATOM     34  N   UNL     1     -10.597  -2.259  -2.440  1.00  0.00    -0.354 N 
ATOM     35  N   UNL     1     -10.524   0.362  -3.719  1.00  0.00    -0.248 NA
ATOM     36  C   UNL     1     -11.618   2.193  -4.668  1.00  0.00     0.031 C 
ATOM     37  C   UNL     1     -12.577  -3.139  -1.942  1.00  0.00     0.029 A 
ATOM     38  C   UNL     1     -11.963  -2.033  -2.504  1.00  0.00     0.049 A 
ATOM     39  H   UNL     1      -9.905  -1.645  -2.777  1.00  0.00     0.167 HD
ATOM     40  C   UNL     1     -11.895   0.195  -3.583  1.00  0.00     0.074 A 
ATOM     41  C   UNL     1     -12.519   1.374  -4.146  1.00  0.00     0.031 C 
ATOM     42  C   UNL     1     -12.575  -0.855  -3.062  1.00  0.00     0.037 A 
BRANCH  29  43
ATOM     43  C   UNL     1      -8.948  -5.360  -0.906  1.00  0.00     0.057 A 
ATOM     44  C   UNL     1      -8.524  -5.519   0.417  1.00  0.00     0.134 A 
ATOM     45  C   UNL     1      -9.352  -6.513  -1.596  1.00  0.00     0.134 A 
ATOM     46  F   UNL     1      -8.127  -4.459   1.137  1.00  0.00    -0.206 F 
ATOM     47  C   UNL     1      -8.476  -6.779   1.021  1.00  0.00     0.040 A 
ATOM     48  C   UNL     1      -9.340  -7.772  -0.994  1.00  0.00     0.040 A 
ATOM     49  F   UNL     1      -9.788  -6.432  -2.863  1.00  0.00    -0.206 F 
ATOM     50  C   UNL     1      -8.893  -7.909   0.317  1.00  0.00     0.006 A 
ENDBRANCH  29  43
BRANCH  30  51
ATOM     51  C   UNL     1      -9.121   3.512  -5.421  1.00  0.00     0.057 A 
ATOM     52  C   UNL     1      -9.492   4.639  -4.679  1.00  0.00     0.134 A 
ATOM     53  C   UNL     1      -8.773   3.712  -6.763  1.00  0.00     0.134 A 
ATOM     54  F   UNL     1      -9.860   4.511  -3.395  1.00  0.00    -0.206 F 
ATOM     55  C   UNL     1      -9.518   5.914  -5.248  1.00  0.00     0.040 A 
ATOM     56  C   UNL     1      -8.758   4.985  -7.334  1.00  0.00     0.040 A 
ATOM     57  F   UNL     1      -8.412   2.674  -7.532  1.00  0.00    -0.206 F 
ATOM     58  C   UNL     1      -9.138   6.090  -6.577  1.00  0.00     0.006 A 
ENDBRANCH  30  51
BRANCH  42  59
ATOM     59  C   UNL     1     -14.073  -0.770  -3.068  1.00  0.00     0.057 A 
ATOM     60  C   UNL     1     -14.812  -0.894  -4.252  1.00  0.00     0.134 A 
ATOM     61  C   UNL     1     -14.786  -0.590  -1.877  1.00  0.00     0.134 A 
ATOM     62  F   UNL     1     -14.188  -1.056  -5.429  1.00  0.00    -0.206 F 
ATOM     63  C   UNL     1     -16.206  -0.816  -4.254  1.00  0.00     0.040 A 
ATOM     64  C   UNL     1     -16.180  -0.536  -1.862  1.00  0.00     0.040 A 
ATOM     65  F   UNL     1     -14.139  -0.474  -0.707  1.00  0.00    -0.206 F 
ATOM     66  C   UNL     1     -16.894  -0.642  -3.055  1.00  0.00     0.006 A 
ENDBRANCH  42  59
ENDBRANCH  16  17
ENDBRANCH   9  11
ENDBRANCH   8   9
ENDBRANCH   7   8
ENDBRANCH   6   7
ENDBRANCH   5   6
ENDBRANCH   3   5
ENDBRANCH   2   3
BRANCH   2  67
ATOM     67  C   UNL     1      -0.697   1.233  -0.465  1.00  0.00    -0.031 A 
ATOM     68  C   UNL     1      -1.425   2.429  -0.571  1.00  0.00     0.005 A 
ATOM     69  C   UNL     1      -1.419   0.048  -0.289  1.00  0.00     0.044 A 
ATOM     70  C   UNL     1      -2.827   2.438  -0.506  1.00  0.00     0.012 A 
ATOM     71  C   UNL     1      -2.814   0.064  -0.233  1.00  0.00     0.131 A 
ATOM     72  C   UNL     1      -3.561   1.252  -0.343  1.00  0.00     0.018 A 
ATOM     73  F   UNL     1      -3.430  -1.126  -0.145  1.00  0.00    -0.206 F 
BRANCH  72  74
ATOM     74  C   UNL     1      -5.042   1.251  -0.309  1.00  0.00    -0.012 A 
ATOM     75  C   UNL     1      -5.818   2.111  -1.109  1.00  0.00     0.009 A 
ATOM     76  C   UNL     1      -5.730   0.370   0.540  1.00  0.00     0.056 A 
ATOM     77  C   UNL     1      -7.218   2.081  -1.065  1.00  0.00     0.004 A 
ATOM     78  C   UNL     1      -7.122   0.361   0.606  1.00  0.00     0.133 A 
ATOM     79  C   UNL     1      -7.873   1.198  -0.213  1.00  0.00     0.047 A 
BRANCH  78  80
ATOM     80  O   UNL     1      -7.858  -0.470   1.478  1.00  0.00    -0.410 OA
BRANCH  80  81
ATOM     81  C   UNL     1      -7.329  -1.033   2.634  1.00  0.00     0.412 C 
ATOM     82  O   UNL     1      -6.170  -0.968   3.026  1.00  0.00    -0.224 OA
ATOM     83  N   UNL     1      -8.261  -1.671   3.399  1.00  0.00    -0.321 N 
ATOM     84  H   UNL     1      -7.931  -2.198   4.162  1.00  0.00     0.167 HD
BRANCH  83  85
ATOM     85  C   UNL     1      -9.687  -1.642   3.189  1.00  0.00     0.120 C 
BRANCH  85  86
ATOM     86  C   UNL     1     -10.426  -2.857   3.749  1.00  0.00     0.026 C 
BRANCH  86  87
ATOM     87  C   UNL     1      -9.879  -3.521   5.022  1.00  0.00     0.037 C 
BRANCH  87  88
ATOM     88  C   UNL     1      -9.967  -2.822   6.361  1.00  0.00    -0.048 A 
ATOM     89  C   UNL     1     -10.161  -1.449   6.534  1.00  0.00     0.004 A 
ATOM     90  C   UNL     1      -9.785  -3.610   7.513  1.00  0.00     0.004 A 
ATOM     91  C   UNL     1     -10.174  -0.880   7.813  1.00  0.00     0.000 A 
ATOM     92  C   UNL     1      -9.808  -3.046   8.791  1.00  0.00     0.000 A 
ATOM     93  C   UNL     1      -9.999  -1.677   8.940  1.00  0.00     0.000 A 
ENDBRANCH  87  88
ENDBRANCH  86  87
ENDBRANCH  85  86
ENDBRANCH  83  85
ENDBRANCH  80  81
ENDBRANCH  78  80
ENDBRANCH  72  74
ENDBRANCH   2  67
TORSDOF 19
