REMARK SMILES CC1=C(C#N)C(=O)N(C)C(=O)/C1=C\Nc1ccc(C(=O)OCCOC(=O)c2ccc(-c3c4nc(c(-c5c(F)cccc5F)c5ccc([nH]5)c(-c5c(F)cccc5F)c5nc(c(-c6c(F)cccc6F)c6ccc3[nH]6)C=C5)C=C4)cc2)c(O)c1
REMARK SMILES IDX 22 1 21 2 19 3 20 4 18 5 15 6 16 7 83 8 17 9 81 10 14 11
REMARK SMILES IDX 13 13 1 14 2 15 3 16 12 17 6 18 10 19 7 20 8 21 11 22 9 23
REMARK SMILES IDX 4 24 5 25 82 26 23 28 24 29 25 30 26 31 27 32 28 33 80 34
REMARK SMILES IDX 29 35 79 36 30 37 31 38 32 39 73 40 33 41 78 42 72 43 74 44
REMARK SMILES IDX 34 45 77 46 71 47 70 48 35 50 61 51 44 52 60 53 45 54 48 55
REMARK SMILES IDX 59 56 75 57 46 58 47 59 58 61 76 62 49 63 36 64 37 65 42 66
REMARK SMILES IDX 38 67 39 68 41 69 43 70 40 71 62 72 63 73 68 74 64 75 65 76
REMARK SMILES IDX 67 77 69 78 66 79 50 80 51 81 56 82 52 83 53 84 55 85 57 86
REMARK SMILES IDX 54 87
REMARK H PARENT 14 12 82 27 74 49 48 60
REMARK Flexibility Score: inf
ROOT
ATOM      1  C   UNL     1      -2.125   9.296   4.855  1.00  0.00     0.275 C 
ENDROOT
BRANCH   1   2
ATOM      2  O   UNL     1      -1.764   7.899   4.932  1.00  0.00    -0.458 OA
BRANCH   2   3
ATOM      3  C   UNL     1      -2.643   7.030   4.365  1.00  0.00     0.342 C 
ATOM      4  O   UNL     1      -3.722   7.316   3.870  1.00  0.00    -0.246 OA
BRANCH   3   5
ATOM      5  C   UNL     1      -2.063   5.665   4.304  1.00  0.00     0.101 A 
ATOM      6  C   UNL     1      -1.010   3.066   3.972  1.00  0.00     0.042 A 
ATOM      7  C   UNL     1      -1.987   3.549   3.101  1.00  0.00     0.027 A 
ATOM      8  C   UNL     1      -0.575   3.891   5.018  1.00  0.00     0.073 A 
ATOM      9  C   UNL     1      -2.542   4.816   3.294  1.00  0.00     0.022 A 
ATOM     10  C   UNL     1      -1.073   5.188   5.167  1.00  0.00     0.132 A 
BRANCH   6  11
ATOM     11  N   UNL     1      -0.455   1.790   3.821  1.00  0.00    -0.361 N 
ATOM     12  H   UNL     1      -0.267   1.301   4.654  1.00  0.00     0.166 HD
BRANCH  11  13
ATOM     13  C   UNL     1      -0.140   1.134   2.653  1.00  0.00     0.097 C 
ATOM     14  C   UNL     1       0.845   0.153   0.034  1.00  0.00     0.047 C 
ATOM     15  C   UNL     1       0.554  -0.769   1.196  1.00  0.00    -0.013 C 
ATOM     16  C   UNL     1       0.753  -2.100   1.114  1.00  0.00     0.121 C 
ATOM     17  C   UNL     1       0.093  -0.183   2.462  1.00  0.00     0.060 C 
ATOM     18  C   UNL     1       0.435  -3.015   2.242  1.00  0.00     0.271 C 
ATOM     19  C   UNL     1      -0.125  -1.084   3.657  1.00  0.00     0.262 C 
ATOM     20  O   UNL     1       0.604  -4.227   2.116  1.00  0.00    -0.268 OA
ATOM     21  N   UNL     1      -0.032  -2.444   3.413  1.00  0.00    -0.277 N 
ATOM     22  O   UNL     1      -0.364  -0.626   4.776  1.00  0.00    -0.269 OA
ATOM     23  C   UNL     1      -0.349  -3.359   4.497  1.00  0.00     0.157 C 
BRANCH  16  24
ATOM     24  C   UNL     1       1.373  -2.777  -0.097  1.00  0.00     0.105 C 
ATOM     25  N   UNL     1       1.887  -3.340  -1.102  1.00  0.00    -0.192 NA
ENDBRANCH  16  24
ENDBRANCH  11  13
ENDBRANCH   6  11
BRANCH  10  26
ATOM     26  O   UNL     1      -0.538   5.920   6.192  1.00  0.00    -0.507 OA
ATOM     27  H   UNL     1      -0.831   6.797   6.344  1.00  0.00     0.293 HD
ENDBRANCH  10  26
ENDBRANCH   3   5
ENDBRANCH   2   3
ENDBRANCH   1   2
BRANCH   1  28
ATOM     28  C   UNL     1      -1.397   9.973   3.693  1.00  0.00     0.275 C 
BRANCH  28  29
ATOM     29  O   UNL     1      -1.868   9.421   2.450  1.00  0.00    -0.458 OA
BRANCH  29  30
ATOM     30  C   UNL     1      -0.921   9.098   1.543  1.00  0.00     0.338 C 
ATOM     31  O   UNL     1       0.285   9.276   1.628  1.00  0.00    -0.246 OA
BRANCH  30  32
ATOM     32  C   UNL     1      -1.558   8.449   0.386  1.00  0.00     0.060 A 
ATOM     33  C   UNL     1      -2.238   7.248   0.572  1.00  0.00     0.016 A 
ATOM     34  C   UNL     1      -1.390   8.964  -0.898  1.00  0.00     0.016 A 
ATOM     35  C   UNL     1      -2.699   6.521  -0.524  1.00  0.00     0.010 A 
ATOM     36  C   UNL     1      -1.919   8.271  -1.994  1.00  0.00     0.010 A 
ATOM     37  C   UNL     1      -2.548   7.023  -1.825  1.00  0.00    -0.014 A 
BRANCH  37  38
ATOM     38  C   UNL     1      -2.982   6.207  -2.995  1.00  0.00     0.031 A 
ATOM     39  C   UNL     1      -1.974   5.754  -4.021  1.00  0.00     0.074 A 
ATOM     40  C   UNL     1      -4.269   5.827  -3.131  1.00  0.00     0.049 A 
ATOM     41  N   UNL     1      -2.168   5.132  -5.157  1.00  0.00    -0.248 NA
ATOM     42  C   UNL     1      -0.561   6.049  -3.736  1.00  0.00     0.031 C 
ATOM     43  C   UNL     1      -5.353   6.159  -2.206  1.00  0.00     0.029 A 
ATOM     44  N   UNL     1      -4.879   5.063  -4.096  1.00  0.00    -0.354 N 
ATOM     45  C   UNL     1      -0.915   5.016  -5.748  1.00  0.00     0.074 A 
ATOM     46  C   UNL     1       0.034   5.630  -4.844  1.00  0.00     0.031 C 
ATOM     47  C   UNL     1      -6.483   5.564  -2.622  1.00  0.00     0.029 A 
ATOM     48  C   UNL     1      -6.222   4.868  -3.878  1.00  0.00     0.049 A 
ATOM     49  H   UNL     1      -4.400   4.690  -4.871  1.00  0.00     0.167 HD
ATOM     50  C   UNL     1      -0.583   4.449  -6.933  1.00  0.00     0.037 A 
ATOM     51  C   UNL     1      -7.148   4.224  -4.615  1.00  0.00     0.037 A 
ATOM     52  C   UNL     1      -1.509   3.780  -7.809  1.00  0.00     0.049 A 
ATOM     53  C   UNL     1      -6.753   3.593  -5.920  1.00  0.00     0.074 A 
ATOM     54  C   UNL     1      -1.255   3.160  -9.021  1.00  0.00     0.029 A 
ATOM     55  N   UNL     1      -2.862   3.623  -7.558  1.00  0.00    -0.354 N 
ATOM     56  N   UNL     1      -5.573   3.538  -6.487  1.00  0.00    -0.248 NA
ATOM     57  C   UNL     1      -7.824   2.950  -6.695  1.00  0.00     0.031 C 
ATOM     58  C   UNL     1      -2.461   2.648  -9.515  1.00  0.00     0.029 A 
ATOM     59  C   UNL     1      -3.458   2.921  -8.593  1.00  0.00     0.049 A 
ATOM     60  H   UNL     1      -3.332   3.962  -6.761  1.00  0.00     0.167 HD
ATOM     61  C   UNL     1      -5.759   2.855  -7.682  1.00  0.00     0.074 A 
ATOM     62  C   UNL     1      -7.159   2.490  -7.745  1.00  0.00     0.031 C 
ATOM     63  C   UNL     1      -4.852   2.567  -8.646  1.00  0.00     0.037 A 
BRANCH  50  64
ATOM     64  C   UNL     1       0.849   4.554  -7.369  1.00  0.00     0.057 A 
ATOM     65  C   UNL     1       1.863   3.781  -6.790  1.00  0.00     0.134 A 
ATOM     66  C   UNL     1       1.209   5.423  -8.408  1.00  0.00     0.134 A 
ATOM     67  F   UNL     1       1.586   2.944  -5.779  1.00  0.00    -0.206 F 
ATOM     68  C   UNL     1       3.189   3.884  -7.216  1.00  0.00     0.040 A 
ATOM     69  C   UNL     1       2.527   5.517  -8.857  1.00  0.00     0.040 A 
ATOM     70  F   UNL     1       0.284   6.187  -9.007  1.00  0.00    -0.206 F 
ATOM     71  C   UNL     1       3.522   4.750  -8.256  1.00  0.00     0.006 A 
ENDBRANCH  50  64
BRANCH  51  72
ATOM     72  C   UNL     1      -8.555   4.164  -4.146  1.00  0.00     0.057 A 
ATOM     73  C   UNL     1      -9.117   2.963  -3.699  1.00  0.00     0.134 A 
ATOM     74  C   UNL     1      -9.370   5.302  -4.138  1.00  0.00     0.134 A 
ATOM     75  F   UNL     1      -8.392   1.834  -3.708  1.00  0.00    -0.206 F 
ATOM     76  C   UNL     1     -10.442   2.893  -3.268  1.00  0.00     0.040 A 
ATOM     77  C   UNL     1     -10.689   5.252  -3.687  1.00  0.00     0.040 A 
ATOM     78  F   UNL     1      -8.889   6.482  -4.556  1.00  0.00    -0.206 F 
ATOM     79  C   UNL     1     -11.230   4.043  -3.254  1.00  0.00     0.006 A 
ENDBRANCH  51  72
BRANCH  63  80
ATOM     80  C   UNL     1      -5.347   1.809  -9.841  1.00  0.00     0.057 A 
ATOM     81  C   UNL     1      -6.128   2.423 -10.829  1.00  0.00     0.134 A 
ATOM     82  C   UNL     1      -5.033   0.455 -10.011  1.00  0.00     0.134 A 
ATOM     83  F   UNL     1      -6.474   3.714 -10.716  1.00  0.00    -0.206 F 
ATOM     84  C   UNL     1      -6.599   1.710 -11.933  1.00  0.00     0.040 A 
ATOM     85  C   UNL     1      -5.481  -0.263 -11.121  1.00  0.00     0.040 A 
ATOM     86  F   UNL     1      -4.285  -0.190  -9.103  1.00  0.00    -0.206 F 
ATOM     87  C   UNL     1      -6.272   0.364 -12.082  1.00  0.00     0.006 A 
ENDBRANCH  63  80
ENDBRANCH  37  38
ENDBRANCH  30  32
ENDBRANCH  29  30
ENDBRANCH  28  29
ENDBRANCH   1  28
TORSDOF 15
