REMARK SMILES CC(C)(Cn1ccc2ccc([N+](=O)[O-])cc21)C(=O)OCCOC(=O)c1ccc(-c2c3nc(c(-c4c(F)cccc4F)c4ccc([nH]4)c(-c4c(F)cccc4F)c4nc(c(-c5c(F)cccc5F)c5ccc2[nH]5)C=C4)C=C3)cc1
REMARK SMILES IDX 20 1 19 2 17 3 18 4 2 5 1 6 3 7 4 8 5 9 6 10 16 11 7 12 8 13
REMARK SMILES IDX 15 14 9 15 11 16 10 17 12 18 13 19 14 20 21 21 22 22 23 23
REMARK SMILES IDX 24 24 25 25 26 26 78 27 27 28 77 29 28 30 29 31 30 32 71 33
REMARK SMILES IDX 31 34 76 35 70 36 72 37 32 38 75 39 69 40 68 41 33 43 59 44
REMARK SMILES IDX 42 45 58 46 43 47 46 48 57 49 73 50 44 51 45 52 56 54 74 55
REMARK SMILES IDX 47 56 34 57 35 58 40 59 36 60 37 61 39 62 41 63 38 64 60 65
REMARK SMILES IDX 61 66 66 67 62 68 63 69 65 70 67 71 64 72 48 73 49 74 54 75
REMARK SMILES IDX 50 76 51 77 53 78 55 79 52 80
REMARK H PARENT 72 42 46 53
REMARK Flexibility Score: inf
ROOT
ATOM      1  C   UNL     1       1.740   0.842  -4.607  1.00  0.00     0.274 C 
ENDROOT
BRANCH   1   2
ATOM      2  O   UNL     1       0.548   0.407  -3.899  1.00  0.00    -0.462 OA
BRANCH   2   3
ATOM      3  C   UNL     1       0.757   0.008  -2.618  1.00  0.00     0.313 C 
ATOM      4  O   UNL     1       1.856   0.062  -2.094  1.00  0.00    -0.252 OA
BRANCH   3   5
ATOM      5  C   UNL     1      -0.438  -0.674  -1.963  1.00  0.00     0.080 C 
ATOM      6  C   UNL     1      -0.169  -0.914  -0.461  1.00  0.00     0.025 C 
ATOM      7  C   UNL     1      -0.479  -2.092  -2.584  1.00  0.00     0.025 C 
BRANCH   5   8
ATOM      8  C   UNL     1      -1.763   0.104  -2.233  1.00  0.00     0.140 C 
BRANCH   8   9
ATOM      9  N   UNL     1      -2.109   1.227  -1.354  1.00  0.00    -0.346 N 
ATOM     10  C   UNL     1      -2.683   1.030  -0.113  1.00  0.00     0.087 A 
ATOM     11  C   UNL     1      -2.025   2.597  -1.596  1.00  0.00     0.055 A 
ATOM     12  C   UNL     1      -2.762   2.241   0.527  1.00  0.00     0.028 A 
ATOM     13  C   UNL     1      -2.287   3.230  -0.368  1.00  0.00     0.000 A 
ATOM     14  C   UNL     1      -1.653   3.361  -2.731  1.00  0.00     0.112 A 
ATOM     15  C   UNL     1      -2.061   4.615  -0.218  1.00  0.00     0.017 A 
ATOM     16  C   UNL     1      -1.348   4.729  -2.513  1.00  0.00     0.271 A 
ATOM     17  C   UNL     1      -1.542   5.351  -1.280  1.00  0.00     0.086 A 
BRANCH  16  18
ATOM     18  N   UNL     1      -0.677   5.522  -3.548  1.00  0.00     0.062 N 
ATOM     19  O   UNL     1       0.228   4.996  -4.208  1.00  0.00    -0.258 OA
ATOM     20  O   UNL     1      -1.035   6.702  -3.676  1.00  0.00    -0.258 OA
ENDBRANCH  16  18
ENDBRANCH   8   9
ENDBRANCH   5   8
ENDBRANCH   3   5
ENDBRANCH   2   3
ENDBRANCH   1   2
BRANCH   1  21
ATOM     21  C   UNL     1       2.037   2.341  -4.457  1.00  0.00     0.275 C 
BRANCH  21  22
ATOM     22  O   UNL     1       2.752   2.696  -3.256  1.00  0.00    -0.458 OA
BRANCH  22  23
ATOM     23  C   UNL     1       1.956   2.953  -2.193  1.00  0.00     0.338 C 
ATOM     24  O   UNL     1       0.741   2.896  -2.227  1.00  0.00    -0.246 OA
BRANCH  23  25
ATOM     25  C   UNL     1       2.637   2.988  -0.880  1.00  0.00     0.060 A 
ATOM     26  C   UNL     1       4.010   2.781  -0.909  1.00  0.00     0.016 A 
ATOM     27  C   UNL     1       1.847   2.373   0.097  1.00  0.00     0.016 A 
ATOM     28  C   UNL     1       4.470   1.577  -0.412  1.00  0.00     0.010 A 
ATOM     29  C   UNL     1       2.304   1.169   0.580  1.00  0.00     0.010 A 
ATOM     30  C   UNL     1       3.560   0.700   0.183  1.00  0.00    -0.014 A 
BRANCH  30  31
ATOM     31  C   UNL     1       3.984  -0.628   0.593  1.00  0.00     0.031 A 
ATOM     32  C   UNL     1       4.279  -0.627   2.034  1.00  0.00     0.074 A 
ATOM     33  C   UNL     1       4.105  -1.767  -0.121  1.00  0.00     0.049 A 
ATOM     34  N   UNL     1       5.419  -0.306   2.543  1.00  0.00    -0.248 NA
ATOM     35  C   UNL     1       3.175  -0.708   2.998  1.00  0.00     0.031 C 
ATOM     36  C   UNL     1       3.693  -2.120  -1.477  1.00  0.00     0.029 A 
ATOM     37  N   UNL     1       4.667  -2.933   0.318  1.00  0.00    -0.354 N 
ATOM     38  C   UNL     1       5.227  -0.361   3.908  1.00  0.00     0.074 A 
ATOM     39  C   UNL     1       3.804  -0.325   4.111  1.00  0.00     0.031 C 
ATOM     40  C   UNL     1       3.805  -3.458  -1.667  1.00  0.00     0.029 A 
ATOM     41  C   UNL     1       4.502  -4.021  -0.527  1.00  0.00     0.049 A 
ATOM     42  H   UNL     1       5.153  -2.996   1.172  1.00  0.00     0.167 HD
ATOM     43  C   UNL     1       6.241  -0.751   4.723  1.00  0.00     0.037 A 
ATOM     44  C   UNL     1       4.962  -5.280  -0.329  1.00  0.00     0.037 A 
ATOM     45  C   UNL     1       7.511  -0.711   4.028  1.00  0.00     0.049 A 
ATOM     46  C   UNL     1       6.106  -5.182   0.611  1.00  0.00     0.074 A 
ATOM     47  C   UNL     1       8.221   0.266   3.351  1.00  0.00     0.029 A 
ATOM     48  N   UNL     1       8.046  -1.906   3.605  1.00  0.00    -0.354 N 
ATOM     49  N   UNL     1       7.252  -4.645   0.293  1.00  0.00    -0.248 NA
ATOM     50  C   UNL     1       5.826  -5.255   2.036  1.00  0.00     0.031 C 
ATOM     51  C   UNL     1       8.792  -0.398   2.222  1.00  0.00     0.029 A 
ATOM     52  C   UNL     1       8.450  -1.748   2.303  1.00  0.00     0.049 A 
ATOM     53  H   UNL     1       8.126  -2.728   4.141  1.00  0.00     0.167 HD
ATOM     54  C   UNL     1       7.623  -3.919   1.415  1.00  0.00     0.074 A 
ATOM     55  C   UNL     1       6.757  -4.409   2.486  1.00  0.00     0.031 C 
ATOM     56  C   UNL     1       8.395  -2.797   1.309  1.00  0.00     0.037 A 
BRANCH  43  57
ATOM     57  C   UNL     1       6.023  -1.559   5.976  1.00  0.00     0.057 A 
ATOM     58  C   UNL     1       4.869  -2.319   6.268  1.00  0.00     0.134 A 
ATOM     59  C   UNL     1       7.130  -1.820   6.799  1.00  0.00     0.134 A 
ATOM     60  F   UNL     1       3.744  -2.253   5.550  1.00  0.00    -0.206 F 
ATOM     61  C   UNL     1       4.832  -3.288   7.271  1.00  0.00     0.040 A 
ATOM     62  C   UNL     1       7.119  -2.827   7.769  1.00  0.00     0.040 A 
ATOM     63  F   UNL     1       8.286  -1.162   6.626  1.00  0.00    -0.206 F 
ATOM     64  C   UNL     1       5.971  -3.573   7.999  1.00  0.00     0.006 A 
ENDBRANCH  43  57
BRANCH  44  65
ATOM     65  C   UNL     1       4.358  -6.573  -0.714  1.00  0.00     0.057 A 
ATOM     66  C   UNL     1       2.963  -6.722  -0.791  1.00  0.00     0.134 A 
ATOM     67  C   UNL     1       5.107  -7.759  -0.725  1.00  0.00     0.134 A 
ATOM     68  F   UNL     1       2.151  -5.657  -0.723  1.00  0.00    -0.206 F 
ATOM     69  C   UNL     1       2.346  -7.977  -0.846  1.00  0.00     0.040 A 
ATOM     70  C   UNL     1       4.501  -9.023  -0.779  1.00  0.00     0.040 A 
ATOM     71  F   UNL     1       6.443  -7.723  -0.618  1.00  0.00    -0.206 F 
ATOM     72  C   UNL     1       3.115  -9.135  -0.825  1.00  0.00     0.006 A 
ENDBRANCH  44  65
BRANCH  56  73
ATOM     73  C   UNL     1       9.045  -2.516  -0.021  1.00  0.00     0.057 A 
ATOM     74  C   UNL     1      10.436  -2.373  -0.075  1.00  0.00     0.134 A 
ATOM     75  C   UNL     1       8.339  -2.254  -1.206  1.00  0.00     0.134 A 
ATOM     76  F   UNL     1      11.178  -2.555   1.029  1.00  0.00    -0.206 F 
ATOM     77  C   UNL     1      11.097  -1.999  -1.249  1.00  0.00     0.040 A 
ATOM     78  C   UNL     1       8.991  -1.910  -2.396  1.00  0.00     0.040 A 
ATOM     79  F   UNL     1       7.001  -2.272  -1.235  1.00  0.00    -0.206 F 
ATOM     80  C   UNL     1      10.375  -1.776  -2.418  1.00  0.00     0.006 A 
ENDBRANCH  56  73
ENDBRANCH  30  31
ENDBRANCH  23  25
ENDBRANCH  22  23
ENDBRANCH  21  22
ENDBRANCH   1  21
TORSDOF 14
