REMARK SMILES O=C(CCS[C@H]1CC(=O)c2ccccc2C1=O)OCCOC(=O)c1ccc(-c2c3nc(c(-c4c(F)cccc4F)c4ccc([nH]4)c(-c4c(F)cccc4F)c4nc(c(-c5c(F)cccc5F)c5ccc2[nH]5)C=C4)C=C3)cc1
REMARK SMILES IDX 19 1 18 2 2 3 1 4 3 5 4 6 5 7 6 8 7 9 16 10 8 11 15 12 17 13
REMARK SMILES IDX 9 14 10 15 14 16 11 17 13 18 12 19 20 20 21 21 22 22 23 23
REMARK SMILES IDX 24 24 25 25 77 26 26 27 76 28 27 29 28 30 29 31 70 32 30 33
REMARK SMILES IDX 75 34 69 35 71 36 31 37 74 38 68 39 67 40 32 42 58 43 41 44
REMARK SMILES IDX 57 45 42 46 45 47 56 48 72 49 43 50 44 51 55 53 73 54 46 55
REMARK SMILES IDX 33 56 34 57 39 58 35 59 36 60 38 61 40 62 37 63 59 64 60 65
REMARK SMILES IDX 65 66 61 67 62 68 64 69 66 70 63 71 47 72 48 73 53 74 49 75
REMARK SMILES IDX 50 76 52 77 54 78 51 79
REMARK H PARENT 71 41 45 52
REMARK Flexibility Score: inf
ROOT
ATOM      1  C   UNL     1       3.687  -2.103  -3.876  1.00  0.00     0.274 C 
ENDROOT
BRANCH   1   2
ATOM      2  O   UNL     1       4.905  -2.253  -4.615  1.00  0.00    -0.462 OA
BRANCH   2   3
ATOM      3  C   UNL     1       5.976  -2.938  -4.166  1.00  0.00     0.306 C 
ATOM      4  O   UNL     1       6.605  -3.642  -4.957  1.00  0.00    -0.252 OA
BRANCH   3   5
ATOM      5  C   UNL     1       6.402  -2.863  -2.705  1.00  0.00     0.133 C 
BRANCH   5   6
ATOM      6  C   UNL     1       6.128  -1.604  -1.889  1.00  0.00     0.082 C 
BRANCH   6   7
ATOM      7  S   UNL     1       5.827  -1.784  -0.066  1.00  0.00    -0.149 SA
BRANCH   7   8
ATOM      8  C   UNL     1       4.068  -2.323   0.347  1.00  0.00     0.126 C 
ATOM      9  C   UNL     1       2.864  -1.579  -0.205  1.00  0.00     0.104 C 
ATOM     10  C   UNL     1       3.963  -3.827   0.542  1.00  0.00     0.176 C 
ATOM     11  C   UNL     1       1.609  -2.392  -0.455  1.00  0.00     0.165 C 
ATOM     12  C   UNL     1       2.752  -4.543   0.087  1.00  0.00     0.030 A 
ATOM     13  O   UNL     1       4.842  -4.482   1.099  1.00  0.00    -0.293 OA
ATOM     14  O   UNL     1       0.554  -1.836  -0.754  1.00  0.00    -0.294 OA
ATOM     15  C   UNL     1       1.659  -3.868  -0.436  1.00  0.00     0.028 A 
ATOM     16  C   UNL     1       2.758  -5.949   0.091  1.00  0.00     0.012 A 
ATOM     17  C   UNL     1       0.623  -4.599  -1.052  1.00  0.00     0.012 A 
ATOM     18  C   UNL     1       1.751  -6.669  -0.550  1.00  0.00     0.001 A 
ATOM     19  C   UNL     1       0.694  -5.991  -1.146  1.00  0.00     0.001 A 
ENDBRANCH   7   8
ENDBRANCH   6   7
ENDBRANCH   5   6
ENDBRANCH   3   5
ENDBRANCH   2   3
ENDBRANCH   1   2
BRANCH   1  20
ATOM     20  C   UNL     1       3.002  -3.417  -3.527  1.00  0.00     0.275 C 
BRANCH  20  21
ATOM     21  O   UNL     1       3.904  -4.323  -2.866  1.00  0.00    -0.458 OA
BRANCH  21  22
ATOM     22  C   UNL     1       3.854  -5.602  -3.339  1.00  0.00     0.338 C 
ATOM     23  O   UNL     1       2.984  -6.056  -4.049  1.00  0.00    -0.246 OA
BRANCH  22  24
ATOM     24  C   UNL     1       5.096  -6.358  -3.017  1.00  0.00     0.060 A 
ATOM     25  C   UNL     1       5.715  -6.356  -1.763  1.00  0.00     0.016 A 
ATOM     26  C   UNL     1       5.646  -7.124  -4.048  1.00  0.00     0.016 A 
ATOM     27  C   UNL     1       6.866  -7.123  -1.535  1.00  0.00     0.010 A 
ATOM     28  C   UNL     1       6.792  -7.889  -3.825  1.00  0.00     0.010 A 
ATOM     29  C   UNL     1       7.411  -7.896  -2.567  1.00  0.00    -0.014 A 
BRANCH  29  30
ATOM     30  C   UNL     1       8.631  -8.715  -2.359  1.00  0.00     0.031 A 
ATOM     31  C   UNL     1       9.949  -8.255  -2.911  1.00  0.00     0.074 A 
ATOM     32  C   UNL     1       8.537  -9.901  -1.729  1.00  0.00     0.049 A 
ATOM     33  N   UNL     1      11.112  -8.856  -2.892  1.00  0.00    -0.248 NA
ATOM     34  C   UNL     1       9.956  -6.947  -3.583  1.00  0.00     0.031 C 
ATOM     35  C   UNL     1       7.311 -10.457  -1.155  1.00  0.00     0.029 A 
ATOM     36  N   UNL     1       9.487 -10.860  -1.483  1.00  0.00    -0.354 N 
ATOM     37  C   UNL     1      11.990  -8.004  -3.550  1.00  0.00     0.074 A 
ATOM     38  C   UNL     1      11.216  -6.859  -3.985  1.00  0.00     0.031 C 
ATOM     39  C   UNL     1       7.585 -11.659  -0.622  1.00  0.00     0.029 A 
ATOM     40  C   UNL     1       8.994 -11.971  -0.844  1.00  0.00     0.049 A 
ATOM     41  H   UNL     1      10.432 -10.761  -1.740  1.00  0.00     0.167 HD
ATOM     42  C   UNL     1      13.319  -8.160  -3.768  1.00  0.00     0.037 A 
ATOM     43  C   UNL     1       9.610 -13.114  -0.488  1.00  0.00     0.037 A 
ATOM     44  C   UNL     1      14.079  -9.315  -3.358  1.00  0.00     0.049 A 
ATOM     45  C   UNL     1      11.073 -13.285  -0.794  1.00  0.00     0.074 A 
ATOM     46  C   UNL     1      15.432  -9.563  -3.514  1.00  0.00     0.029 A 
ATOM     47  N   UNL     1      13.543 -10.426  -2.722  1.00  0.00    -0.354 N 
ATOM     48  N   UNL     1      11.904 -12.451  -1.371  1.00  0.00    -0.248 NA
ATOM     49  C   UNL     1      11.684 -14.559  -0.390  1.00  0.00     0.031 C 
ATOM     50  C   UNL     1      15.705 -10.843  -3.017  1.00  0.00     0.029 A 
ATOM     51  C   UNL     1      14.533 -11.371  -2.501  1.00  0.00     0.049 A 
ATOM     52  H   UNL     1      12.598 -10.529  -2.466  1.00  0.00     0.167 HD
ATOM     53  C   UNL     1      13.141 -13.082  -1.366  1.00  0.00     0.074 A 
ATOM     54  C   UNL     1      12.953 -14.363  -0.715  1.00  0.00     0.031 C 
ATOM     55  C   UNL     1      14.329 -12.642  -1.851  1.00  0.00     0.037 A 
BRANCH  42  56
ATOM     56  C   UNL     1      14.026  -7.061  -4.510  1.00  0.00     0.057 A 
ATOM     57  C   UNL     1      14.504  -7.265  -5.811  1.00  0.00     0.134 A 
ATOM     58  C   UNL     1      14.245  -5.801  -3.935  1.00  0.00     0.134 A 
ATOM     59  F   UNL     1      14.337  -8.448  -6.420  1.00  0.00    -0.206 F 
ATOM     60  C   UNL     1      15.165  -6.256  -6.514  1.00  0.00     0.040 A 
ATOM     61  C   UNL     1      14.882  -4.776  -4.638  1.00  0.00     0.040 A 
ATOM     62  F   UNL     1      13.806  -5.534  -2.696  1.00  0.00    -0.206 F 
ATOM     63  C   UNL     1      15.348  -5.004  -5.931  1.00  0.00     0.006 A 
ENDBRANCH  42  56
BRANCH  43  64
ATOM     64  C   UNL     1       8.859 -14.184   0.218  1.00  0.00     0.057 A 
ATOM     65  C   UNL     1       7.880 -14.947  -0.428  1.00  0.00     0.134 A 
ATOM     66  C   UNL     1       9.132 -14.486   1.558  1.00  0.00     0.134 A 
ATOM     67  F   UNL     1       7.570 -14.707  -1.710  1.00  0.00    -0.206 F 
ATOM     68  C   UNL     1       7.198 -15.970   0.233  1.00  0.00     0.040 A 
ATOM     69  C   UNL     1       8.476 -15.523   2.223  1.00  0.00     0.040 A 
ATOM     70  F   UNL     1      10.077 -13.806   2.224  1.00  0.00    -0.206 F 
ATOM     71  C   UNL     1       7.502 -16.266   1.560  1.00  0.00     0.006 A 
ENDBRANCH  43  64
BRANCH  55  72
ATOM     72  C   UNL     1      15.516 -13.539  -1.647  1.00  0.00     0.057 A 
ATOM     73  C   UNL     1      16.517 -13.194  -0.730  1.00  0.00     0.134 A 
ATOM     74  C   UNL     1      15.663 -14.750  -2.337  1.00  0.00     0.134 A 
ATOM     75  F   UNL     1      16.444 -12.045  -0.041  1.00  0.00    -0.206 F 
ATOM     76  C   UNL     1      17.614 -14.026  -0.498  1.00  0.00     0.040 A 
ATOM     77  C   UNL     1      16.740 -15.604  -2.092  1.00  0.00     0.040 A 
ATOM     78  F   UNL     1      14.732 -15.148  -3.218  1.00  0.00    -0.206 F 
ATOM     79  C   UNL     1      17.721 -15.241  -1.171  1.00  0.00     0.006 A 
ENDBRANCH  55  72
ENDBRANCH  29  30
ENDBRANCH  22  24
ENDBRANCH  21  22
ENDBRANCH  20  21
ENDBRANCH   1  20
TORSDOF 14
