REMARK SMILES O=C(OCCOC(=O)c1ccc(-n2cc(CSc3nc4ccccc4c(=O)n3-c3ccccc3)nn2)cc1)c1ccc(-c2c3nc(c(-c4c(F)cccc4F)c4ccc([nH]4)c(-c4c(F)cccc4F)c4nc(c(-c5c(F)cccc5F)c5ccc2[nH]5)C=C4)C=C3)cc1
REMARK SMILES IDX 6 1 5 2 4 3 3 4 2 5 1 6 39 7 40 8 92 9 41 10 91 11 42 12
REMARK SMILES IDX 43 13 44 14 85 15 45 16 90 17 84 18 86 19 46 20 89 21 83 22
REMARK SMILES IDX 82 23 47 25 73 26 56 27 72 28 57 29 60 30 71 31 87 32 58 33
REMARK SMILES IDX 59 34 70 36 88 37 61 38 48 39 49 40 54 41 50 42 51 43 53 44
REMARK SMILES IDX 55 45 52 46 74 47 75 48 80 49 76 50 77 51 79 52 81 53 78 54
REMARK SMILES IDX 62 55 63 56 68 57 64 58 65 59 67 60 69 61 66 62 7 63 8 64
REMARK SMILES IDX 9 65 10 66 38 67 11 68 37 69 12 70 13 71 14 72 36 73 15 74
REMARK SMILES IDX 35 75 16 76 17 77 18 78 19 79 28 80 20 81 26 82 21 83 25 84
REMARK SMILES IDX 27 85 22 86 24 87 23 88 29 89 30 90 34 91 31 92 33 93 32 94
REMARK H PARENT 86 24 60 35
REMARK Flexibility Score: inf
ROOT
ATOM      1  O   UNL     1       3.997   1.334  -0.792  1.00  0.00    -0.458 OA
ENDROOT
BRANCH   1   2
ATOM      2  C   UNL     1       4.511   0.226  -1.553  1.00  0.00     0.275 C 
BRANCH   2   3
ATOM      3  C   UNL     1       4.811  -0.945  -0.617  1.00  0.00     0.275 C 
BRANCH   3   4
ATOM      4  O   UNL     1       3.689  -1.592   0.021  1.00  0.00    -0.458 OA
BRANCH   4   5
ATOM      5  C   UNL     1       2.538  -0.899   0.163  1.00  0.00     0.338 C 
ATOM      6  O   UNL     1       1.686  -0.775  -0.700  1.00  0.00    -0.246 OA
BRANCH   5   7
ATOM      7  C   UNL     1       2.368  -0.428   1.556  1.00  0.00     0.060 A 
ATOM      8  C   UNL     1       3.467  -0.212   2.395  1.00  0.00     0.016 A 
ATOM      9  C   UNL     1       1.071  -0.163   2.013  1.00  0.00     0.016 A 
ATOM     10  C   UNL     1       3.270   0.211   3.699  1.00  0.00     0.010 A 
ATOM     11  C   UNL     1       0.875   0.282   3.313  1.00  0.00     0.010 A 
ATOM     12  C   UNL     1       1.973   0.428   4.166  1.00  0.00    -0.014 A 
BRANCH  12  13
ATOM     13  C   UNL     1       1.819   0.847   5.556  1.00  0.00     0.031 A 
ATOM     14  C   UNL     1       2.393   2.174   5.921  1.00  0.00     0.074 A 
ATOM     15  C   UNL     1       1.083   0.149   6.441  1.00  0.00     0.049 A 
ATOM     16  N   UNL     1       3.259   2.458   6.842  1.00  0.00    -0.248 NA
ATOM     17  C   UNL     1       1.978   3.330   5.116  1.00  0.00     0.031 C 
ATOM     18  C   UNL     1       0.226  -1.008   6.172  1.00  0.00     0.029 A 
ATOM     19  N   UNL     1       0.851   0.410   7.759  1.00  0.00    -0.354 N 
ATOM     20  C   UNL     1       3.353   3.851   6.864  1.00  0.00     0.074 A 
ATOM     21  C   UNL     1       2.648   4.322   5.701  1.00  0.00     0.031 C 
ATOM     22  C   UNL     1      -0.600  -1.199   7.223  1.00  0.00     0.029 A 
ATOM     23  C   UNL     1      -0.243  -0.266   8.278  1.00  0.00     0.049 A 
ATOM     24  H   UNL     1       1.408   1.022   8.293  1.00  0.00     0.167 HD
ATOM     25  C   UNL     1       3.801   4.523   7.962  1.00  0.00     0.037 A 
ATOM     26  C   UNL     1      -0.861  -0.031   9.459  1.00  0.00     0.037 A 
ATOM     27  C   UNL     1       4.606   3.682   8.810  1.00  0.00     0.049 A 
ATOM     28  C   UNL     1       0.070   0.730  10.324  1.00  0.00     0.074 A 
ATOM     29  C   UNL     1       5.742   2.913   8.638  1.00  0.00     0.029 A 
ATOM     30  N   UNL     1       4.096   3.298  10.024  1.00  0.00    -0.354 N 
ATOM     31  N   UNL     1       1.147   0.234  10.865  1.00  0.00    -0.248 NA
ATOM     32  C   UNL     1       0.003   2.183  10.290  1.00  0.00     0.031 C 
ATOM     33  C   UNL     1       5.558   1.783   9.491  1.00  0.00     0.029 A 
ATOM     34  C   UNL     1       4.341   1.958  10.148  1.00  0.00     0.049 A 
ATOM     35  H   UNL     1       3.642   3.875  10.680  1.00  0.00     0.167 HD
ATOM     36  C   UNL     1       2.063   1.273  10.836  1.00  0.00     0.074 A 
ATOM     37  C   UNL     1       1.270   2.473  10.591  1.00  0.00     0.031 C 
ATOM     38  C   UNL     1       3.403   1.030  10.729  1.00  0.00     0.037 A 
BRANCH  25  39
ATOM     39  C   UNL     1       3.179   5.811   8.473  1.00  0.00     0.057 A 
ATOM     40  C   UNL     1       3.740   6.441   9.603  1.00  0.00     0.134 A 
ATOM     41  C   UNL     1       1.888   6.259   8.128  1.00  0.00     0.134 A 
ATOM     42  F   UNL     1       4.968   6.117  10.034  1.00  0.00    -0.206 F 
ATOM     43  C   UNL     1       3.021   7.342  10.399  1.00  0.00     0.040 A 
ATOM     44  C   UNL     1       1.184   7.202   8.883  1.00  0.00     0.040 A 
ATOM     45  F   UNL     1       1.193   5.744   7.110  1.00  0.00    -0.206 F 
ATOM     46  C   UNL     1       1.730   7.713  10.049  1.00  0.00     0.006 A 
ENDBRANCH  25  39
BRANCH  26  47
ATOM     47  C   UNL     1      -2.288  -0.217   9.799  1.00  0.00     0.057 A 
ATOM     48  C   UNL     1      -2.718  -0.265  11.131  1.00  0.00     0.134 A 
ATOM     49  C   UNL     1      -3.300  -0.107   8.827  1.00  0.00     0.134 A 
ATOM     50  F   UNL     1      -1.829  -0.323  12.133  1.00  0.00    -0.206 F 
ATOM     51  C   UNL     1      -4.073  -0.195  11.479  1.00  0.00     0.040 A 
ATOM     52  C   UNL     1      -4.656  -0.051   9.159  1.00  0.00     0.040 A 
ATOM     53  F   UNL     1      -3.003   0.034   7.527  1.00  0.00    -0.206 F 
ATOM     54  C   UNL     1      -5.047  -0.082  10.491  1.00  0.00     0.006 A 
ENDBRANCH  26  47
BRANCH  38  55
ATOM     55  C   UNL     1       3.887  -0.372  10.951  1.00  0.00     0.057 A 
ATOM     56  C   UNL     1       3.518  -1.463  10.149  1.00  0.00     0.134 A 
ATOM     57  C   UNL     1       4.869  -0.601  11.921  1.00  0.00     0.134 A 
ATOM     58  F   UNL     1       2.669  -1.316   9.124  1.00  0.00    -0.206 F 
ATOM     59  C   UNL     1       4.062  -2.735  10.344  1.00  0.00     0.040 A 
ATOM     60  C   UNL     1       5.446  -1.859  12.102  1.00  0.00     0.040 A 
ATOM     61  F   UNL     1       5.317   0.410  12.683  1.00  0.00    -0.206 F 
ATOM     62  C   UNL     1       5.033  -2.935  11.321  1.00  0.00     0.006 A 
ENDBRANCH  38  55
ENDBRANCH  12  13
ENDBRANCH   5   7
ENDBRANCH   4   5
ENDBRANCH   3   4
ENDBRANCH   2   3
ENDBRANCH   1   2
BRANCH   1  63
ATOM     63  C   UNL     1       3.018   2.044  -1.415  1.00  0.00     0.338 C 
ATOM     64  O   UNL     1       2.614   1.930  -2.545  1.00  0.00    -0.246 OA
BRANCH  63  65
ATOM     65  C   UNL     1       2.487   3.014  -0.441  1.00  0.00     0.060 A 
ATOM     66  C   UNL     1       1.267   2.749   0.190  1.00  0.00     0.018 A 
ATOM     67  C   UNL     1       3.173   4.208  -0.213  1.00  0.00     0.018 A 
ATOM     68  C   UNL     1       0.744   3.663   1.106  1.00  0.00     0.029 A 
ATOM     69  C   UNL     1       2.616   5.160   0.641  1.00  0.00     0.029 A 
ATOM     70  C   UNL     1       1.413   4.872   1.306  1.00  0.00     0.066 A 
BRANCH  70  71
ATOM     71  N   UNL     1       0.750   5.888   2.011  1.00  0.00    -0.220 N 
ATOM     72  C   UNL     1       0.354   7.080   1.476  1.00  0.00     0.141 A 
ATOM     73  N   UNL     1       0.308   5.782   3.278  1.00  0.00    -0.062 NA
ATOM     74  C   UNL     1      -0.366   7.707   2.465  1.00  0.00     0.093 A 
ATOM     75  N   UNL     1      -0.314   6.918   3.589  1.00  0.00    -0.134 NA
BRANCH  74  76
ATOM     76  C   UNL     1      -0.897   9.089   2.490  1.00  0.00     0.138 C 
BRANCH  76  77
ATOM     77  S   UNL     1      -2.553   9.527   1.962  1.00  0.00    -0.081 SA
BRANCH  77  78
ATOM     78  C   UNL     1      -3.280   8.341   0.911  1.00  0.00     0.176 A 
ATOM     79  N   UNL     1      -4.554   8.202   1.143  1.00  0.00    -0.223 NA
ATOM     80  N   UNL     1      -2.635   7.609  -0.075  1.00  0.00    -0.255 N 
ATOM     81  C   UNL     1      -5.259   7.219   0.440  1.00  0.00     0.079 A 
ATOM     82  C   UNL     1      -3.117   6.301  -0.206  1.00  0.00     0.266 A 
ATOM     83  C   UNL     1      -6.652   7.230   0.378  1.00  0.00     0.029 A 
ATOM     84  C   UNL     1      -4.577   6.157  -0.135  1.00  0.00     0.066 A 
ATOM     85  O   UNL     1      -2.436   5.287  -0.347  1.00  0.00    -0.268 OA
ATOM     86  C   UNL     1      -7.341   6.160  -0.209  1.00  0.00     0.002 A 
ATOM     87  C   UNL     1      -5.246   5.059  -0.681  1.00  0.00     0.016 A 
ATOM     88  C   UNL     1      -6.639   5.062  -0.711  1.00  0.00     0.001 A 
BRANCH  80  89
ATOM     89  C   UNL     1      -1.539   8.031  -0.924  1.00  0.00     0.051 A 
ATOM     90  C   UNL     1      -1.066   7.178  -1.945  1.00  0.00     0.027 A 
ATOM     91  C   UNL     1      -0.892   9.270  -0.825  1.00  0.00     0.027 A 
ATOM     92  C   UNL     1       0.106   7.442  -2.660  1.00  0.00     0.002 A 
ATOM     93  C   UNL     1       0.313   9.523  -1.502  1.00  0.00     0.002 A 
ATOM     94  C   UNL     1       0.829   8.593  -2.394  1.00  0.00     0.000 A 
ENDBRANCH  80  89
ENDBRANCH  77  78
ENDBRANCH  76  77
ENDBRANCH  74  76
ENDBRANCH  70  71
ENDBRANCH  63  65
ENDBRANCH   1  63
TORSDOF 16
