REMARK SMILES NS(=O)(=O)c1ccc(-n2nc(C(=O)OCCOC(=O)c3ccc(-c4c5nc(c(-c6c(F)cccc6F)c6ccc([nH]6)c(-c6c(F)cccc6F)c6nc(c(-c7c(F)cccc7F)c7ccc4[nH]7)C=C6)C=C5)cc3)c(Cl)c2-c2ccc(Cl)cc2)cc1
REMARK SMILES IDX 15 1 14 2 12 3 13 4 11 5 9 6 10 7 76 8 74 9 75 10 8 11 5 12
REMARK SMILES IDX 6 13 85 14 7 15 84 16 2 17 3 18 4 19 1 20 77 23 78 24 83 25
REMARK SMILES IDX 79 26 82 27 80 28 81 29 16 30 17 31 18 32 19 33 20 34 21 35
REMARK SMILES IDX 73 36 22 37 72 38 23 39 24 40 25 41 66 42 26 43 71 44 65 45
REMARK SMILES IDX 67 46 27 47 70 48 64 49 63 50 28 52 54 53 37 54 53 55 38 56
REMARK SMILES IDX 41 57 52 58 68 59 39 60 40 61 51 63 69 64 42 65 29 66 30 67
REMARK SMILES IDX 35 68 31 69 32 70 34 71 36 72 33 73 55 74 56 75 61 76 57 77
REMARK SMILES IDX 58 78 60 79 62 80 59 81 43 82 44 83 49 84 45 85 46 86 48 87
REMARK SMILES IDX 50 88 47 89
REMARK H PARENT 1 21 1 22 67 51 41 62
REMARK Flexibility Score: inf
ROOT
ATOM      1  C   UNL     1       3.110   8.027  -9.776  1.00  0.00     0.275 C 
ENDROOT
BRANCH   1   2
ATOM      2  O   UNL     1       2.885   7.466  -8.476  1.00  0.00    -0.457 OA
BRANCH   2   3
ATOM      3  C   UNL     1       2.252   6.261  -8.346  1.00  0.00     0.360 C 
ATOM      4  O   UNL     1       1.707   5.677  -9.278  1.00  0.00    -0.244 OA
BRANCH   3   5
ATOM      5  C   UNL     1       2.313   5.760  -6.959  1.00  0.00     0.190 A 
ATOM      6  N   UNL     1       2.003   4.500  -5.237  1.00  0.00    -0.231 N 
ATOM      7  N   UNL     1       1.956   4.504  -6.598  1.00  0.00    -0.159 NA
ATOM      8  C   UNL     1       2.437   5.713  -4.727  1.00  0.00     0.094 A 
ATOM      9  C   UNL     1       2.749   6.486  -5.827  1.00  0.00     0.102 A 
ATOM     10  Cl  UNL     1       3.467   8.039  -5.776  1.00  0.00    -0.079 Cl
BRANCH   6  11
ATOM     11  C   UNL     1       1.590   3.355  -4.500  1.00  0.00     0.065 A 
ATOM     12  C   UNL     1       0.932   1.141  -2.929  1.00  0.00     0.082 A 
ATOM     13  C   UNL     1       1.738   0.974  -4.062  1.00  0.00     0.024 A 
ATOM     14  C   UNL     1       0.425   2.399  -2.598  1.00  0.00     0.024 A 
ATOM     15  C   UNL     1       2.046   2.080  -4.868  1.00  0.00     0.030 A 
ATOM     16  C   UNL     1       0.768   3.508  -3.373  1.00  0.00     0.030 A 
BRANCH  12  17
ATOM     17  S   UNL     1       0.515  -0.247  -1.910  1.00  0.00     0.238 S 
ATOM     18  O   UNL     1       1.249  -1.407  -2.345  1.00  0.00    -0.207 OA
ATOM     19  O   UNL     1      -0.919  -0.257  -1.709  1.00  0.00    -0.207 OA
BRANCH  17  20
ATOM     20  N   UNL     1       1.185   0.171  -0.424  1.00  0.00    -0.225 NA
ATOM     21  H   UNL     1       1.002  -0.571   0.252  1.00  0.00     0.137 HD
ATOM     22  H   UNL     1       0.766   1.041  -0.095  1.00  0.00     0.137 HD
ENDBRANCH  17  20
ENDBRANCH  12  17
ENDBRANCH   6  11
BRANCH   8  23
ATOM     23  C   UNL     1       2.639   6.086  -3.330  1.00  0.00     0.002 A 
ATOM     24  C   UNL     1       2.044   7.272  -2.870  1.00  0.00     0.012 A 
ATOM     25  C   UNL     1       3.530   5.396  -2.504  1.00  0.00     0.012 A 
ATOM     26  C   UNL     1       2.382   7.799  -1.628  1.00  0.00     0.021 A 
ATOM     27  C   UNL     1       3.853   5.915  -1.247  1.00  0.00     0.021 A 
ATOM     28  C   UNL     1       3.294   7.123  -0.825  1.00  0.00     0.041 A 
ATOM     29  Cl  UNL     1       3.760   7.804   0.683  1.00  0.00    -0.084 Cl
ENDBRANCH   8  23
ENDBRANCH   3   5
ENDBRANCH   2   3
ENDBRANCH   1   2
BRANCH   1  30
ATOM     30  C   UNL     1       4.417   7.523 -10.363  1.00  0.00     0.275 C 
BRANCH  30  31
ATOM     31  O   UNL     1       4.258   6.178 -10.795  1.00  0.00    -0.458 OA
BRANCH  31  32
ATOM     32  C   UNL     1       4.596   5.229  -9.895  1.00  0.00     0.338 C 
ATOM     33  O   UNL     1       4.865   5.388  -8.716  1.00  0.00    -0.246 OA
BRANCH  32  34
ATOM     34  C   UNL     1       4.804   3.974 -10.616  1.00  0.00     0.060 A 
ATOM     35  C   UNL     1       5.122   2.847  -9.857  1.00  0.00     0.016 A 
ATOM     36  C   UNL     1       4.999   4.024 -12.005  1.00  0.00     0.016 A 
ATOM     37  C   UNL     1       5.845   1.846 -10.466  1.00  0.00     0.010 A 
ATOM     38  C   UNL     1       5.735   3.038 -12.604  1.00  0.00     0.010 A 
ATOM     39  C   UNL     1       6.221   2.010 -11.806  1.00  0.00    -0.014 A 
BRANCH  39  40
ATOM     40  C   UNL     1       7.039   0.996 -12.421  1.00  0.00     0.031 A 
ATOM     41  C   UNL     1       6.278  -0.244 -12.670  1.00  0.00     0.074 A 
ATOM     42  C   UNL     1       8.306   1.211 -12.814  1.00  0.00     0.049 A 
ATOM     43  N   UNL     1       6.374  -1.349 -12.013  1.00  0.00    -0.248 NA
ATOM     44  C   UNL     1       5.133  -0.185 -13.592  1.00  0.00     0.031 C 
ATOM     45  C   UNL     1       9.066   2.461 -12.856  1.00  0.00     0.029 A 
ATOM     46  N   UNL     1       9.173   0.310 -13.345  1.00  0.00    -0.354 N 
ATOM     47  C   UNL     1       5.446  -2.205 -12.591  1.00  0.00     0.074 A 
ATOM     48  C   UNL     1       4.580  -1.382 -13.392  1.00  0.00     0.031 C 
ATOM     49  C   UNL     1      10.192   2.274 -13.588  1.00  0.00     0.029 A 
ATOM     50  C   UNL     1      10.295   0.869 -13.943  1.00  0.00     0.049 A 
ATOM     51  H   UNL     1       9.018  -0.661 -13.308  1.00  0.00     0.167 HD
ATOM     52  C   UNL     1       5.648  -3.549 -12.571  1.00  0.00     0.037 A 
ATOM     53  C   UNL     1      11.182   0.196 -14.721  1.00  0.00     0.037 A 
ATOM     54  C   UNL     1       6.640  -3.904 -11.584  1.00  0.00     0.049 A 
ATOM     55  C   UNL     1      11.034  -1.252 -14.401  1.00  0.00     0.074 A 
ATOM     56  C   UNL     1       6.739  -3.748 -10.214  1.00  0.00     0.029 A 
ATOM     57  N   UNL     1       7.918  -4.147 -12.028  1.00  0.00    -0.354 N 
ATOM     58  N   UNL     1      11.384  -1.769 -13.255  1.00  0.00    -0.248 NA
ATOM     59  C   UNL     1      10.038  -2.009 -15.149  1.00  0.00     0.031 C 
ATOM     60  C   UNL     1       8.107  -3.418  -9.979  1.00  0.00     0.029 A 
ATOM     61  C   UNL     1       8.779  -3.472 -11.201  1.00  0.00     0.049 A 
ATOM     62  H   UNL     1       8.170  -4.704 -12.800  1.00  0.00     0.167 HD
ATOM     63  C   UNL     1      10.359  -2.649 -12.936  1.00  0.00     0.074 A 
ATOM     64  C   UNL     1       9.590  -2.804 -14.171  1.00  0.00     0.031 C 
ATOM     65  C   UNL     1      10.044  -2.929 -11.637  1.00  0.00     0.037 A 
BRANCH  52  66
ATOM     66  C   UNL     1       5.280  -4.468 -13.707  1.00  0.00     0.057 A 
ATOM     67  C   UNL     1       5.472  -5.851 -13.540  1.00  0.00     0.134 A 
ATOM     68  C   UNL     1       5.048  -4.052 -15.034  1.00  0.00     0.134 A 
ATOM     69  F   UNL     1       5.701  -6.373 -12.325  1.00  0.00    -0.206 F 
ATOM     70  C   UNL     1       5.532  -6.734 -14.623  1.00  0.00     0.040 A 
ATOM     71  C   UNL     1       5.053  -4.934 -16.116  1.00  0.00     0.040 A 
ATOM     72  F   UNL     1       4.906  -2.768 -15.380  1.00  0.00    -0.206 F 
ATOM     73  C   UNL     1       5.335  -6.274 -15.918  1.00  0.00     0.006 A 
ENDBRANCH  52  66
BRANCH  53  74
ATOM     74  C   UNL     1      11.891   0.666 -15.934  1.00  0.00     0.057 A 
ATOM     75  C   UNL     1      12.959  -0.061 -16.482  1.00  0.00     0.134 A 
ATOM     76  C   UNL     1      11.360   1.681 -16.749  1.00  0.00     0.134 A 
ATOM     77  F   UNL     1      13.508  -1.079 -15.802  1.00  0.00    -0.206 F 
ATOM     78  C   UNL     1      13.451   0.188 -17.771  1.00  0.00     0.040 A 
ATOM     79  C   UNL     1      11.844   1.943 -18.036  1.00  0.00     0.040 A 
ATOM     80  F   UNL     1      10.292   2.394 -16.361  1.00  0.00    -0.206 F 
ATOM     81  C   UNL     1      12.884   1.186 -18.558  1.00  0.00     0.006 A 
ENDBRANCH  53  74
BRANCH  65  82
ATOM     82  C   UNL     1      10.972  -2.434 -10.561  1.00  0.00     0.057 A 
ATOM     83  C   UNL     1      11.219  -1.079 -10.293  1.00  0.00     0.134 A 
ATOM     84  C   UNL     1      11.502  -3.362  -9.659  1.00  0.00     0.134 A 
ATOM     85  F   UNL     1      10.671  -0.112 -11.040  1.00  0.00    -0.206 F 
ATOM     86  C   UNL     1      11.992  -0.670  -9.200  1.00  0.00     0.040 A 
ATOM     87  C   UNL     1      12.246  -2.967  -8.545  1.00  0.00     0.040 A 
ATOM     88  F   UNL     1      11.258  -4.672  -9.817  1.00  0.00    -0.206 F 
ATOM     89  C   UNL     1      12.502  -1.617  -8.318  1.00  0.00     0.006 A 
ENDBRANCH  65  82
ENDBRANCH  39  40
ENDBRANCH  32  34
ENDBRANCH  31  32
ENDBRANCH  30  31
ENDBRANCH   1  30
TORSDOF 15
