REMARK SMILES CNC(=O)c1cc(S(=O)(=O)N2CCC(C(=O)OCCOC(=O)c3ccc(-c4c5nc(c(-c6c(F)cccc6F)c6ccc([nH]6)c(-c6c(F)cccc6F)c6nc(c(-c7c(F)cccc7F)c7ccc4[nH]7)C=C6)C=C5)cc3)CC2)ccc1OC
REMARK SMILES IDX 18 1 17 2 15 3 16 4 14 5 11 6 12 7 78 8 13 9 77 10 8 11 9 12
REMARK SMILES IDX 10 13 7 14 5 15 6 16 81 17 80 18 79 19 3 20 1 21 2 22 4 24
REMARK SMILES IDX 82 25 83 26 19 27 20 28 21 29 22 30 23 31 24 32 76 33 25 34
REMARK SMILES IDX 75 35 26 36 27 37 28 38 69 39 29 40 74 41 68 42 70 43 30 44
REMARK SMILES IDX 73 45 67 46 66 47 31 49 57 50 40 51 56 52 41 53 44 54 55 55
REMARK SMILES IDX 71 56 42 57 43 58 54 60 72 61 45 62 32 63 33 64 38 65 34 66
REMARK SMILES IDX 35 67 37 68 39 69 36 70 58 71 59 72 64 73 60 74 61 75 63 76
REMARK SMILES IDX 65 77 62 78 46 79 47 80 52 81 48 82 49 83 51 84 53 85 50 86
REMARK H PARENT 2 23 70 48 44 59
REMARK Flexibility Score: inf
ROOT
ATOM      1  C   UNL     1      -5.020   3.146 -10.881  1.00  0.00     0.274 C 
ENDROOT
BRANCH   1   2
ATOM      2  O   UNL     1      -4.301   3.472  -9.675  1.00  0.00    -0.462 OA
BRANCH   2   3
ATOM      3  C   UNL     1      -4.631   2.756  -8.574  1.00  0.00     0.309 C 
ATOM      4  O   UNL     1      -5.523   1.917  -8.521  1.00  0.00    -0.252 OA
BRANCH   3   5
ATOM      5  C   UNL     1      -3.778   3.081  -7.368  1.00  0.00     0.102 C 
ATOM      6  N   UNL     1      -2.328   4.352  -5.251  1.00  0.00    -0.198 NA
ATOM      7  C   UNL     1      -1.586   3.760  -6.390  1.00  0.00     0.103 C 
ATOM      8  C   UNL     1      -3.760   4.011  -5.063  1.00  0.00     0.103 C 
ATOM      9  C   UNL     1      -2.425   3.715  -7.661  1.00  0.00     0.032 C 
ATOM     10  C   UNL     1      -4.520   3.970  -6.383  1.00  0.00     0.032 C 
BRANCH   6  11
ATOM     11  S   UNL     1      -1.427   4.643  -3.827  1.00  0.00     0.243 S 
ATOM     12  O   UNL     1      -2.240   5.484  -2.976  1.00  0.00    -0.207 OA
ATOM     13  O   UNL     1      -0.089   5.030  -4.219  1.00  0.00    -0.207 OA
BRANCH  11  14
ATOM     14  C   UNL     1      -1.252   3.092  -2.954  1.00  0.00     0.083 A 
ATOM     15  C   UNL     1      -0.540   1.994  -0.900  1.00  0.00     0.083 A 
ATOM     16  C   UNL     1      -0.701   3.160  -1.666  1.00  0.00     0.039 A 
ATOM     17  C   UNL     1      -0.995   0.767  -1.397  1.00  0.00     0.131 A 
ATOM     18  C   UNL     1      -1.505   0.701  -2.697  1.00  0.00     0.048 A 
ATOM     19  C   UNL     1      -1.635   1.856  -3.475  1.00  0.00     0.025 A 
BRANCH  15  20
ATOM     20  C   UNL     1       0.101   2.156   0.420  1.00  0.00     0.254 C 
ATOM     21  C   UNL     1       1.981   0.526  -0.088  1.00  0.00     0.143 C 
ATOM     22  N   UNL     1       1.236   1.454   0.732  1.00  0.00    -0.355 N 
ATOM     23  H   UNL     1       1.592   1.603   1.638  1.00  0.00     0.163 HD
ATOM     24  O   UNL     1      -0.382   2.948   1.224  1.00  0.00    -0.269 OA
ENDBRANCH  15  20
BRANCH  17  25
ATOM     25  O   UNL     1      -0.946  -0.428  -0.733  1.00  0.00    -0.496 OA
ATOM     26  C   UNL     1      -1.612  -0.406   0.532  1.00  0.00     0.278 C 
ENDBRANCH  17  25
ENDBRANCH  11  14
ENDBRANCH   6  11
ENDBRANCH   3   5
ENDBRANCH   2   3
ENDBRANCH   1   2
BRANCH   1  27
ATOM     27  C   UNL     1      -4.181   2.268 -11.813  1.00  0.00     0.275 C 
BRANCH  27  28
ATOM     28  O   UNL     1      -3.928   0.968 -11.244  1.00  0.00    -0.458 OA
BRANCH  28  29
ATOM     29  C   UNL     1      -2.743   0.844 -10.604  1.00  0.00     0.338 C 
ATOM     30  O   UNL     1      -1.877   1.693 -10.477  1.00  0.00    -0.246 OA
BRANCH  29  31
ATOM     31  C   UNL     1      -2.662  -0.459  -9.928  1.00  0.00     0.060 A 
ATOM     32  C   UNL     1      -2.573  -0.463  -8.534  1.00  0.00     0.016 A 
ATOM     33  C   UNL     1      -2.557  -1.651 -10.647  1.00  0.00     0.016 A 
ATOM     34  C   UNL     1      -2.373  -1.657  -7.848  1.00  0.00     0.010 A 
ATOM     35  C   UNL     1      -2.357  -2.853  -9.956  1.00  0.00     0.010 A 
ATOM     36  C   UNL     1      -2.250  -2.861  -8.553  1.00  0.00    -0.014 A 
BRANCH  36  37
ATOM     37  C   UNL     1      -1.967  -4.111  -7.805  1.00  0.00     0.031 A 
ATOM     38  C   UNL     1      -0.593  -4.716  -7.835  1.00  0.00     0.074 A 
ATOM     39  C   UNL     1      -2.934  -4.672  -7.056  1.00  0.00     0.049 A 
ATOM     40  N   UNL     1      -0.153  -5.799  -7.245  1.00  0.00    -0.248 NA
ATOM     41  C   UNL     1       0.422  -4.010  -8.632  1.00  0.00     0.031 C 
ATOM     42  C   UNL     1      -4.299  -4.163  -6.923  1.00  0.00     0.029 A 
ATOM     43  N   UNL     1      -2.913  -5.788  -6.259  1.00  0.00    -0.354 N 
ATOM     44  C   UNL     1       1.183  -5.914  -7.609  1.00  0.00     0.074 A 
ATOM     45  C   UNL     1       1.476  -4.801  -8.488  1.00  0.00     0.031 C 
ATOM     46  C   UNL     1      -4.982  -4.959  -6.084  1.00  0.00     0.029 A 
ATOM     47  C   UNL     1      -4.115  -6.051  -5.651  1.00  0.00     0.049 A 
ATOM     48  H   UNL     1      -2.112  -6.347  -6.136  1.00  0.00     0.167 HD
ATOM     49  C   UNL     1       2.083  -6.857  -7.240  1.00  0.00     0.037 A 
ATOM     50  C   UNL     1      -4.481  -7.066  -4.845  1.00  0.00     0.037 A 
ATOM     51  C   UNL     1       1.793  -7.960  -6.359  1.00  0.00     0.049 A 
ATOM     52  C   UNL     1      -3.471  -8.117  -4.478  1.00  0.00     0.074 A 
ATOM     53  C   UNL     1       2.643  -8.962  -5.921  1.00  0.00     0.029 A 
ATOM     54  N   UNL     1       0.557  -8.206  -5.782  1.00  0.00    -0.354 N 
ATOM     55  N   UNL     1      -2.210  -8.210  -4.824  1.00  0.00    -0.248 NA
ATOM     56  C   UNL     1      -3.938  -9.204  -3.606  1.00  0.00     0.031 C 
ATOM     57  C   UNL     1       1.911  -9.834  -5.107  1.00  0.00     0.029 A 
ATOM     58  C   UNL     1       0.617  -9.351  -5.002  1.00  0.00     0.049 A 
ATOM     59  H   UNL     1      -0.246  -7.650  -5.907  1.00  0.00     0.167 HD
ATOM     60  C   UNL     1      -1.727  -9.350  -4.196  1.00  0.00     0.074 A 
ATOM     61  C   UNL     1      -2.826  -9.905  -3.433  1.00  0.00     0.031 C 
ATOM     62  C   UNL     1      -0.485  -9.891  -4.248  1.00  0.00     0.037 A 
BRANCH  49  63
ATOM     63  C   UNL     1       3.466  -6.750  -7.811  1.00  0.00     0.057 A 
ATOM     64  C   UNL     1       4.372  -5.772  -7.380  1.00  0.00     0.134 A 
ATOM     65  C   UNL     1       3.909  -7.658  -8.782  1.00  0.00     0.134 A 
ATOM     66  F   UNL     1       4.005  -4.864  -6.463  1.00  0.00    -0.206 F 
ATOM     67  C   UNL     1       5.661  -5.688  -7.909  1.00  0.00     0.040 A 
ATOM     68  C   UNL     1       5.203  -7.598  -9.301  1.00  0.00     0.040 A 
ATOM     69  F   UNL     1       3.094  -8.622  -9.235  1.00  0.00    -0.206 F 
ATOM     70  C   UNL     1       6.082  -6.608  -8.868  1.00  0.00     0.006 A 
ENDBRANCH  49  63
BRANCH  50  71
ATOM     71  C   UNL     1      -5.871  -7.139  -4.332  1.00  0.00     0.057 A 
ATOM     72  C   UNL     1      -6.157  -6.919  -2.980  1.00  0.00     0.134 A 
ATOM     73  C   UNL     1      -6.944  -7.439  -5.179  1.00  0.00     0.134 A 
ATOM     74  F   UNL     1      -5.167  -6.650  -2.116  1.00  0.00    -0.206 F 
ATOM     75  C   UNL     1      -7.458  -7.010  -2.485  1.00  0.00     0.040 A 
ATOM     76  C   UNL     1      -8.253  -7.508  -4.704  1.00  0.00     0.040 A 
ATOM     77  F   UNL     1      -6.734  -7.657  -6.486  1.00  0.00    -0.206 F 
ATOM     78  C   UNL     1      -8.512  -7.299  -3.350  1.00  0.00     0.006 A 
ENDBRANCH  50  71
BRANCH  62  79
ATOM     79  C   UNL     1      -0.247 -11.126  -3.429  1.00  0.00     0.057 A 
ATOM     80  C   UNL     1      -0.780 -12.369  -3.793  1.00  0.00     0.134 A 
ATOM     81  C   UNL     1       0.532 -11.071  -2.267  1.00  0.00     0.134 A 
ATOM     82  F   UNL     1      -1.547 -12.485  -4.888  1.00  0.00    -0.206 F 
ATOM     83  C   UNL     1      -0.573 -13.508  -3.013  1.00  0.00     0.040 A 
ATOM     84  C   UNL     1       0.767 -12.208  -1.492  1.00  0.00     0.040 A 
ATOM     85  F   UNL     1       1.079  -9.913  -1.866  1.00  0.00    -0.206 F 
ATOM     86  C   UNL     1       0.206 -13.429  -1.860  1.00  0.00     0.006 A 
ENDBRANCH  62  79
ENDBRANCH  36  37
ENDBRANCH  29  31
ENDBRANCH  28  29
ENDBRANCH  27  28
ENDBRANCH   1  27
TORSDOF 15
