REMARK SMILES O=C(OCCOC(=O)c1cc(Br)ccc1OC(=O)c1ccc(F)cc1)c1ccc(-c2c3nc(c(-c4c(F)cccc4F)c4ccc([nH]4)c(-c4c(F)cccc4F)c4nc(c(-c5c(F)cccc5F)c5ccc2[nH]5)C=C4)C=C3)cc1
REMARK SMILES IDX 5 1 4 2 3 3 2 4 1 5 26 6 27 7 79 8 28 9 78 10 29 11 30 12
REMARK SMILES IDX 31 13 72 14 32 15 77 16 71 17 73 18 33 19 76 20 70 21 69 22
REMARK SMILES IDX 34 24 60 25 43 26 59 27 44 28 47 29 58 30 74 31 45 32 46 33
REMARK SMILES IDX 57 35 75 36 48 37 35 38 36 39 41 40 37 41 38 42 40 43 42 44
REMARK SMILES IDX 39 45 61 46 62 47 67 48 63 49 64 50 66 51 68 52 65 53 49 54
REMARK SMILES IDX 50 55 55 56 51 57 52 58 54 59 56 60 53 61 6 62 7 63 8 64
REMARK SMILES IDX 9 65 10 66 15 67 11 68 14 69 12 70 13 71 16 72 17 73 18 74
REMARK SMILES IDX 19 75 20 76 25 77 21 78 24 79 22 80 23 81
REMARK H PARENT 73 23 47 34
REMARK Flexibility Score: inf
ROOT
ATOM      1  C   UNL     1       4.130  -1.942  -1.538  1.00  0.00     0.275 C 
ENDROOT
BRANCH   1   2
ATOM      2  C   UNL     1       5.340  -1.919  -0.583  1.00  0.00     0.275 C 
BRANCH   2   3
ATOM      3  O   UNL     1       5.488  -0.845   0.359  1.00  0.00    -0.458 OA
BRANCH   3   4
ATOM      4  C   UNL     1       4.426  -0.054   0.577  1.00  0.00     0.338 C 
ATOM      5  O   UNL     1       3.359  -0.431   1.041  1.00  0.00    -0.246 OA
BRANCH   4   6
ATOM      6  C   UNL     1       4.703   1.300   0.030  1.00  0.00     0.060 A 
ATOM      7  C   UNL     1       5.834   1.511  -0.770  1.00  0.00     0.016 A 
ATOM      8  C   UNL     1       3.752   2.315   0.169  1.00  0.00     0.016 A 
ATOM      9  C   UNL     1       5.996   2.702  -1.457  1.00  0.00     0.010 A 
ATOM     10  C   UNL     1       3.889   3.498  -0.559  1.00  0.00     0.010 A 
ATOM     11  C   UNL     1       5.019   3.696  -1.366  1.00  0.00    -0.014 A 
BRANCH  11  12
ATOM     12  C   UNL     1       5.305   4.998  -1.993  1.00  0.00     0.031 A 
ATOM     13  C   UNL     1       5.748   6.116  -1.105  1.00  0.00     0.074 A 
ATOM     14  C   UNL     1       5.308   5.128  -3.332  1.00  0.00     0.049 A 
ATOM     15  N   UNL     1       6.217   7.290  -1.431  1.00  0.00    -0.248 NA
ATOM     16  C   UNL     1       5.684   5.871   0.346  1.00  0.00     0.031 C 
ATOM     17  C   UNL     1       4.956   4.075  -4.284  1.00  0.00     0.029 A 
ATOM     18  N   UNL     1       5.639   6.196  -4.124  1.00  0.00    -0.354 N 
ATOM     19  C   UNL     1       6.553   7.894  -0.231  1.00  0.00     0.074 A 
ATOM     20  C   UNL     1       6.142   7.010   0.834  1.00  0.00     0.031 C 
ATOM     21  C   UNL     1       5.074   4.555  -5.533  1.00  0.00     0.029 A 
ATOM     22  C   UNL     1       5.503   5.947  -5.467  1.00  0.00     0.049 A 
ATOM     23  H   UNL     1       5.947   7.059  -3.764  1.00  0.00     0.167 HD
ATOM     24  C   UNL     1       7.207   9.060  -0.036  1.00  0.00     0.037 A 
ATOM     25  C   UNL     1       5.706   6.757  -6.523  1.00  0.00     0.037 A 
ATOM     26  C   UNL     1       7.601   9.934  -1.100  1.00  0.00     0.049 A 
ATOM     27  C   UNL     1       6.281   8.122  -6.279  1.00  0.00     0.074 A 
ATOM     28  C   UNL     1       8.260  11.145  -1.023  1.00  0.00     0.029 A 
ATOM     29  N   UNL     1       7.355   9.688  -2.444  1.00  0.00    -0.354 N 
ATOM     30  N   UNL     1       6.639   8.669  -5.142  1.00  0.00    -0.248 NA
ATOM     31  C   UNL     1       6.515   8.971  -7.455  1.00  0.00     0.031 C 
ATOM     32  C   UNL     1       8.374  11.653  -2.320  1.00  0.00     0.029 A 
ATOM     33  C   UNL     1       7.826  10.738  -3.208  1.00  0.00     0.049 A 
ATOM     34  H   UNL     1       6.911   8.884  -2.800  1.00  0.00     0.167 HD
ATOM     35  C   UNL     1       7.186   9.902  -5.465  1.00  0.00     0.074 A 
ATOM     36  C   UNL     1       7.092  10.033  -6.906  1.00  0.00     0.031 C 
ATOM     37  C   UNL     1       7.736  10.830  -4.644  1.00  0.00     0.037 A 
BRANCH  24  38
ATOM     38  C   UNL     1       7.521   9.419   1.382  1.00  0.00     0.057 A 
ATOM     39  C   UNL     1       6.810  10.425   2.042  1.00  0.00     0.134 A 
ATOM     40  C   UNL     1       8.494   8.721   2.113  1.00  0.00     0.134 A 
ATOM     41  F   UNL     1       5.859  11.120   1.401  1.00  0.00    -0.206 F 
ATOM     42  C   UNL     1       7.048  10.720   3.385  1.00  0.00     0.040 A 
ATOM     43  C   UNL     1       8.724   8.991   3.462  1.00  0.00     0.040 A 
ATOM     44  F   UNL     1       9.187   7.723   1.544  1.00  0.00    -0.206 F 
ATOM     45  C   UNL     1       8.000   9.995   4.101  1.00  0.00     0.006 A 
ENDBRANCH  24  38
BRANCH  25  46
ATOM     46  C   UNL     1       5.376   6.279  -7.888  1.00  0.00     0.057 A 
ATOM     47  C   UNL     1       4.042   6.145  -8.296  1.00  0.00     0.134 A 
ATOM     48  C   UNL     1       6.369   5.914  -8.803  1.00  0.00     0.134 A 
ATOM     49  F   UNL     1       3.045   6.480  -7.464  1.00  0.00    -0.206 F 
ATOM     50  C   UNL     1       3.707   5.653  -9.558  1.00  0.00     0.040 A 
ATOM     51  C   UNL     1       6.048   5.435 -10.075  1.00  0.00     0.040 A 
ATOM     52  F   UNL     1       7.664   6.031  -8.475  1.00  0.00    -0.206 F 
ATOM     53  C   UNL     1       4.713   5.298 -10.454  1.00  0.00     0.006 A 
ENDBRANCH  25  46
BRANCH  37  54
ATOM     54  C   UNL     1       8.328  12.052  -5.273  1.00  0.00     0.057 A 
ATOM     55  C   UNL     1       9.718  12.223  -5.302  1.00  0.00     0.134 A 
ATOM     56  C   UNL     1       7.529  13.110  -5.718  1.00  0.00     0.134 A 
ATOM     57  F   UNL     1      10.534  11.247  -4.876  1.00  0.00    -0.206 F 
ATOM     58  C   UNL     1      10.293  13.420  -5.725  1.00  0.00     0.040 A 
ATOM     59  C   UNL     1       8.094  14.304  -6.164  1.00  0.00     0.040 A 
ATOM     60  F   UNL     1       6.192  12.998  -5.720  1.00  0.00    -0.206 F 
ATOM     61  C   UNL     1       9.479  14.467  -6.154  1.00  0.00     0.006 A 
ENDBRANCH  37  54
ENDBRANCH  11  12
ENDBRANCH   4   6
ENDBRANCH   3   4
ENDBRANCH   2   3
ENDBRANCH   1   2
BRANCH   1  62
ATOM     62  O   UNL     1       3.708  -0.651  -2.019  1.00  0.00    -0.458 OA
BRANCH  62  63
ATOM     63  C   UNL     1       2.393  -0.625  -2.380  1.00  0.00     0.342 C 
ATOM     64  O   UNL     1       1.641  -1.582  -2.460  1.00  0.00    -0.246 OA
BRANCH  63  65
ATOM     65  C   UNL     1       1.952   0.741  -2.696  1.00  0.00     0.103 A 
ATOM     66  C   UNL     1       2.143   1.231  -3.992  1.00  0.00     0.035 A 
ATOM     67  C   UNL     1       1.214   1.491  -1.772  1.00  0.00     0.145 A 
ATOM     68  C   UNL     1       1.624   2.482  -4.334  1.00  0.00     0.019 A 
ATOM     69  C   UNL     1       0.764   2.776  -2.098  1.00  0.00     0.049 A 
ATOM     70  Br  UNL     1       1.751   3.092  -6.121  1.00  0.00    -0.051 Br
ATOM     71  C   UNL     1       0.967   3.270  -3.388  1.00  0.00     0.019 A 
BRANCH  67  72
ATOM     72  O   UNL     1       0.982   0.997  -0.480  1.00  0.00    -0.422 OA
BRANCH  72  73
ATOM     73  C   UNL     1      -0.338   0.662  -0.235  1.00  0.00     0.343 C 
ATOM     74  O   UNL     1      -1.262   0.731  -1.032  1.00  0.00    -0.246 OA
BRANCH  73  75
ATOM     75  C   UNL     1      -0.523   0.205   1.175  1.00  0.00     0.060 A 
ATOM     76  C   UNL     1      -1.801  -0.228   1.560  1.00  0.00     0.019 A 
ATOM     77  C   UNL     1       0.510   0.182   2.121  1.00  0.00     0.019 A 
ATOM     78  C   UNL     1      -2.026  -0.712   2.852  1.00  0.00     0.040 A 
ATOM     79  C   UNL     1       0.291  -0.326   3.405  1.00  0.00     0.040 A 
ATOM     80  C   UNL     1      -0.974  -0.773   3.758  1.00  0.00     0.123 A 
ATOM     81  F   UNL     1      -1.183  -1.266   4.985  1.00  0.00    -0.207 F 
ENDBRANCH  73  75
ENDBRANCH  72  73
ENDBRANCH  67  72
ENDBRANCH  63  65
ENDBRANCH  62  63
ENDBRANCH   1  62
TORSDOF 14
