REMARK SMILES C[NH2+][C@@]1(C(=O)OCCOC(=O)c2ccc(-c3c4nc(c(-c5c(F)cccc5F)c5ccc([nH]5)c(-c5c(F)cccc5F)c5nc(c(-c6c(F)cccc6F)c6ccc3[nH]6)C=C5)C=C4)cc2)CCC[C@H]([N@H+](C)C2CC[NH+](C)CC2)C1
REMARK SMILES IDX 7 1 6 2 4 3 5 4 3 5 66 6 79 7 67 8 69 9 68 10 2 11 1 12
REMARK SMILES IDX 70 15 71 16 72 18 73 19 78 20 74 21 77 22 75 23 76 24 8 26
REMARK SMILES IDX 9 27 10 28 11 29 12 30 13 31 65 32 14 33 64 34 15 35 16 36
REMARK SMILES IDX 17 37 58 38 18 39 63 40 57 41 59 42 19 43 62 44 56 45 55 46
REMARK SMILES IDX 20 48 46 49 29 50 45 51 30 52 33 53 44 54 60 55 31 56 32 57
REMARK SMILES IDX 43 59 61 60 34 61 21 62 22 63 27 64 23 65 24 66 26 67 28 68
REMARK SMILES IDX 25 69 47 70 48 71 53 72 49 73 50 74 52 75 54 76 51 77 35 78
REMARK SMILES IDX 36 79 41 80 37 81 38 82 40 83 42 84 39 85
REMARK H PARENT 2 13 2 14 70 17 75 25 59 47 33 58
REMARK Flexibility Score: inf
ROOT
ATOM      1  C   UNL     1      -1.865  -1.117  -2.264  1.00  0.00     0.274 C 
ENDROOT
BRANCH   1   2
ATOM      2  O   UNL     1      -1.548  -0.623  -0.948  1.00  0.00    -0.457 OA
BRANCH   2   3
ATOM      3  C   UNL     1      -1.361  -1.611  -0.022  1.00  0.00     0.368 C 
ATOM      4  O   UNL     1      -1.315  -2.802  -0.321  1.00  0.00    -0.245 OA
BRANCH   3   5
ATOM      5  C   UNL     1      -1.032  -1.064   1.406  1.00  0.00     0.199 C 
ATOM      6  C   UNL     1      -1.317  -2.171   2.450  1.00  0.00     0.081 C 
ATOM      7  C   UNL     1      -1.844   0.201   1.778  1.00  0.00     0.146 C 
ATOM      8  C   UNL     1      -2.801  -2.402   2.695  1.00  0.00     0.013 C 
ATOM      9  C   UNL     1      -3.384  -0.015   1.943  1.00  0.00     0.190 C 
ATOM     10  C   UNL     1      -3.533  -1.103   3.023  1.00  0.00     0.065 C 
BRANCH   5  11
ATOM     11  N   UNL     1       0.453  -0.893   1.505  1.00  0.00    -0.334 N 
ATOM     12  C   UNL     1       0.976   0.453   1.382  1.00  0.00     0.331 C 
ATOM     13  H   UNL     1       0.742  -1.252   2.415  1.00  0.00     0.347 HD
ATOM     14  H   UNL     1       0.829  -1.395   0.701  1.00  0.00     0.347 HD
ENDBRANCH   5  11
BRANCH   9  15
ATOM     15  N   UNL     1      -4.086  -0.170   0.624  1.00  0.00    -0.332 N 
ATOM     16  C   UNL     1      -4.061   1.164  -0.039  1.00  0.00     0.333 C 
ATOM     17  H   UNL     1      -3.586  -0.903   0.121  1.00  0.00     0.348 HD
BRANCH  15  18
ATOM     18  C   UNL     1      -5.515  -0.655   0.673  1.00  0.00     0.195 C 
ATOM     19  C   UNL     1      -5.707  -2.165   0.932  1.00  0.00     0.126 C 
ATOM     20  C   UNL     1      -6.318  -0.442  -0.650  1.00  0.00     0.126 C 
ATOM     21  C   UNL     1      -5.131  -3.014  -0.199  1.00  0.00     0.268 C 
ATOM     22  C   UNL     1      -5.788  -1.311  -1.799  1.00  0.00     0.268 C 
ATOM     23  N   UNL     1      -5.819  -2.741  -1.467  1.00  0.00    -0.337 N 
ATOM     24  C   UNL     1      -5.228  -3.553  -2.532  1.00  0.00     0.332 C 
ATOM     25  H   UNL     1      -6.801  -2.997  -1.368  1.00  0.00     0.347 HD
ENDBRANCH  15  18
ENDBRANCH   9  15
ENDBRANCH   3   5
ENDBRANCH   2   3
ENDBRANCH   1   2
BRANCH   1  26
ATOM     26  C   UNL     1      -2.041   0.042  -3.248  1.00  0.00     0.275 C 
BRANCH  26  27
ATOM     27  O   UNL     1      -0.731   0.470  -3.654  1.00  0.00    -0.458 OA
BRANCH  27  28
ATOM     28  C   UNL     1      -0.178   1.412  -2.869  1.00  0.00     0.338 C 
ATOM     29  O   UNL     1      -0.740   2.240  -2.158  1.00  0.00    -0.246 OA
BRANCH  28  30
ATOM     30  C   UNL     1       1.246   1.097  -2.787  1.00  0.00     0.060 A 
ATOM     31  C   UNL     1       1.623   0.086  -1.900  1.00  0.00     0.016 A 
ATOM     32  C   UNL     1       2.199   1.812  -3.503  1.00  0.00     0.016 A 
ATOM     33  C   UNL     1       2.961  -0.155  -1.641  1.00  0.00     0.010 A 
ATOM     34  C   UNL     1       3.547   1.514  -3.299  1.00  0.00     0.010 A 
ATOM     35  C   UNL     1       3.938   0.557  -2.339  1.00  0.00    -0.014 A 
BRANCH  35  36
ATOM     36  C   UNL     1       5.368   0.385  -1.995  1.00  0.00     0.031 A 
ATOM     37  C   UNL     1       6.132   1.570  -1.483  1.00  0.00     0.074 A 
ATOM     38  C   UNL     1       5.975  -0.809  -2.114  1.00  0.00     0.049 A 
ATOM     39  N   UNL     1       7.422   1.759  -1.420  1.00  0.00    -0.248 NA
ATOM     40  C   UNL     1       5.329   2.705  -0.999  1.00  0.00     0.031 C 
ATOM     41  C   UNL     1       5.326  -2.064  -2.495  1.00  0.00     0.029 A 
ATOM     42  N   UNL     1       7.289  -1.157  -1.927  1.00  0.00    -0.354 N 
ATOM     43  C   UNL     1       7.586   3.063  -0.975  1.00  0.00     0.074 A 
ATOM     44  C   UNL     1       6.265   3.611  -0.755  1.00  0.00     0.031 C 
ATOM     45  C   UNL     1       6.240  -3.047  -2.500  1.00  0.00     0.029 A 
ATOM     46  C   UNL     1       7.550  -2.472  -2.219  1.00  0.00     0.049 A 
ATOM     47  H   UNL     1       7.976  -0.525  -1.614  1.00  0.00     0.167 HD
ATOM     48  C   UNL     1       8.743   3.741  -0.791  1.00  0.00     0.037 A 
ATOM     49  C   UNL     1       8.724  -3.124  -2.315  1.00  0.00     0.037 A 
ATOM     50  C   UNL     1      10.045   3.151  -0.949  1.00  0.00     0.049 A 
ATOM     51  C   UNL     1       9.998  -2.356  -2.112  1.00  0.00     0.074 A 
ATOM     52  C   UNL     1      11.288   3.742  -0.809  1.00  0.00     0.029 A 
ATOM     53  N   UNL     1      10.266   1.815  -1.252  1.00  0.00    -0.354 N 
ATOM     54  N   UNL     1      10.158  -1.085  -1.829  1.00  0.00    -0.248 NA
ATOM     55  C   UNL     1      11.252  -3.102  -2.274  1.00  0.00     0.031 C 
ATOM     56  C   UNL     1      12.262   2.764  -1.042  1.00  0.00     0.029 A 
ATOM     57  C   UNL     1      11.625   1.560  -1.297  1.00  0.00     0.049 A 
ATOM     58  H   UNL     1       9.560   1.148  -1.412  1.00  0.00     0.167 HD
ATOM     59  C   UNL     1      11.529  -0.877  -1.782  1.00  0.00     0.074 A 
ATOM     60  C   UNL     1      12.155  -2.159  -2.042  1.00  0.00     0.031 C 
ATOM     61  C   UNL     1      12.213   0.272  -1.558  1.00  0.00     0.037 A 
BRANCH  48  62
ATOM     62  C   UNL     1       8.642   5.198  -0.459  1.00  0.00     0.057 A 
ATOM     63  C   UNL     1       8.255   5.655   0.806  1.00  0.00     0.134 A 
ATOM     64  C   UNL     1       8.947   6.162  -1.430  1.00  0.00     0.134 A 
ATOM     65  F   UNL     1       7.925   4.783   1.771  1.00  0.00    -0.206 F 
ATOM     66  C   UNL     1       8.155   7.019   1.089  1.00  0.00     0.040 A 
ATOM     67  C   UNL     1       8.873   7.528  -1.153  1.00  0.00     0.040 A 
ATOM     68  F   UNL     1       9.320   5.791  -2.664  1.00  0.00    -0.206 F 
ATOM     69  C   UNL     1       8.471   7.959   0.109  1.00  0.00     0.006 A 
ENDBRANCH  48  62
BRANCH  49  70
ATOM     70  C   UNL     1       8.740  -4.559  -2.688  1.00  0.00     0.057 A 
ATOM     71  C   UNL     1       9.083  -5.544  -1.756  1.00  0.00     0.134 A 
ATOM     72  C   UNL     1       8.384  -4.983  -3.975  1.00  0.00     0.134 A 
ATOM     73  F   UNL     1       9.455  -5.198  -0.515  1.00  0.00    -0.206 F 
ATOM     74  C   UNL     1       9.073  -6.899  -2.090  1.00  0.00     0.040 A 
ATOM     75  C   UNL     1       8.346  -6.335  -4.315  1.00  0.00     0.040 A 
ATOM     76  F   UNL     1       8.042  -4.087  -4.912  1.00  0.00    -0.206 F 
ATOM     77  C   UNL     1       8.694  -7.298  -3.371  1.00  0.00     0.006 A 
ENDBRANCH  49  70
BRANCH  61  78
ATOM     78  C   UNL     1      13.706   0.179  -1.566  1.00  0.00     0.057 A 
ATOM     79  C   UNL     1      14.427   0.104  -2.763  1.00  0.00     0.134 A 
ATOM     80  C   UNL     1      14.427   0.195  -0.367  1.00  0.00     0.134 A 
ATOM     81  F   UNL     1      13.788   0.072  -3.942  1.00  0.00    -0.206 F 
ATOM     82  C   UNL     1      15.820   0.031  -2.766  1.00  0.00     0.040 A 
ATOM     83  C   UNL     1      15.821   0.139  -0.358  1.00  0.00     0.040 A 
ATOM     84  F   UNL     1      13.790   0.271   0.811  1.00  0.00    -0.206 F 
ATOM     85  C   UNL     1      16.520   0.053  -1.561  1.00  0.00     0.006 A 
ENDBRANCH  61  78
ENDBRANCH  35  36
ENDBRANCH  28  30
ENDBRANCH  27  28
ENDBRANCH  26  27
ENDBRANCH   1  26
TORSDOF 14
