REMARK SMILES CC[N@@H+](C)Cc1cc2c(cc1Cl)C=C(C(=O)OCCOC(=O)c1ccc(-c3c4nc(c(-c5c(F)cccc5F)c5ccc([nH]5)c(-c5c(F)cccc5F)c5nc(c(-c6c(F)cccc6F)c6ccc3[nH]6)C=C5)C=C4)cc1)[C@@H](C(F)(F)F)O2
REMARK SMILES IDX 18 1 17 2 15 3 16 4 14 5 6 6 7 7 11 8 8 9 10 10 12 11 9 12
REMARK SMILES IDX 82 13 13 14 77 15 5 16 3 17 4 18 2 20 1 21 78 22 79 23 80 24
REMARK SMILES IDX 81 25 19 26 20 27 21 28 22 29 23 30 24 31 76 32 25 33 75 34
REMARK SMILES IDX 26 35 27 36 28 37 69 38 29 39 74 40 68 41 70 42 30 43 73 44
REMARK SMILES IDX 67 45 66 46 31 48 57 49 40 50 56 51 41 52 44 53 55 54 71 55
REMARK SMILES IDX 42 56 43 57 54 59 72 60 45 61 32 62 33 63 38 64 34 65 35 66
REMARK SMILES IDX 37 67 39 68 36 69 58 70 59 71 64 72 60 73 61 74 63 75 65 76
REMARK SMILES IDX 62 77 46 78 47 79 52 80 48 81 49 82 51 83 53 84 50 85
REMARK H PARENT 3 19 70 47 44 58
REMARK Flexibility Score: inf
ROOT
ATOM      1  C   UNL     1       5.734  -4.956   9.306  1.00  0.00     0.275 C 
ENDROOT
BRANCH   1   2
ATOM      2  O   UNL     1       5.334  -3.786   8.559  1.00  0.00    -0.459 OA
BRANCH   2   3
ATOM      3  C   UNL     1       5.513  -3.889   7.223  1.00  0.00     0.338 C 
ATOM      4  O   UNL     1       5.999  -4.839   6.630  1.00  0.00    -0.246 OA
BRANCH   3   5
ATOM      5  C   UNL     1       4.970  -2.718   6.514  1.00  0.00     0.087 C 
ATOM      6  C   UNL     1       3.076   0.141   2.831  1.00  0.00     0.029 A 
ATOM      7  C   UNL     1       3.606   0.423   4.118  1.00  0.00     0.058 A 
ATOM      8  C   UNL     1       3.062  -1.194   2.398  1.00  0.00     0.050 A 
ATOM      9  C   UNL     1       4.054  -0.601   4.954  1.00  0.00     0.128 A 
ATOM     10  C   UNL     1       3.417  -2.216   3.269  1.00  0.00     0.033 A 
ATOM     11  Cl  UNL     1       2.700  -1.679   0.782  1.00  0.00    -0.084 Cl
ATOM     12  C   UNL     1       3.897  -1.916   4.541  1.00  0.00     0.019 A 
ATOM     13  O   UNL     1       4.605  -0.274   6.167  1.00  0.00    -0.475 OA
ATOM     14  C   UNL     1       4.269  -2.998   5.415  1.00  0.00     0.027 C 
ATOM     15  C   UNL     1       5.368  -1.315   6.870  1.00  0.00     0.316 C 
BRANCH   6  16
ATOM     16  C   UNL     1       2.535   1.280   1.984  1.00  0.00     0.300 C 
BRANCH  16  17
ATOM     17  N   UNL     1       1.081   1.538   2.052  1.00  0.00    -0.334 N 
ATOM     18  C   UNL     1       0.600   1.719   3.421  1.00  0.00     0.333 C 
ATOM     19  H   UNL     1       0.986   2.419   1.548  1.00  0.00     0.348 HD
BRANCH  17  20
ATOM     20  C   UNL     1       0.229   0.582   1.332  1.00  0.00     0.258 C 
ATOM     21  C   UNL     1       0.381   0.647  -0.186  1.00  0.00     0.071 C 
ENDBRANCH  17  20
ENDBRANCH  16  17
ENDBRANCH   6  16
BRANCH  15  22
ATOM     22  C   UNL     1       6.877  -1.117   6.647  1.00  0.00     0.430 C 
ATOM     23  F   UNL     1       7.266   0.142   6.956  1.00  0.00    -0.167 F 
ATOM     24  F   UNL     1       7.600  -1.952   7.433  1.00  0.00    -0.167 F 
ATOM     25  F   UNL     1       7.242  -1.354   5.366  1.00  0.00    -0.167 F 
ENDBRANCH  15  22
ENDBRANCH   3   5
ENDBRANCH   2   3
ENDBRANCH   1   2
BRANCH   1  26
ATOM     26  C   UNL     1       4.538  -5.856   9.627  1.00  0.00     0.275 C 
BRANCH  26  27
ATOM     27  O   UNL     1       3.983  -6.428   8.426  1.00  0.00    -0.458 OA
BRANCH  27  28
ATOM     28  C   UNL     1       2.738  -6.015   8.102  1.00  0.00     0.338 C 
ATOM     29  O   UNL     1       2.042  -5.210   8.705  1.00  0.00    -0.246 OA
BRANCH  28  30
ATOM     30  C   UNL     1       2.296  -6.655   6.853  1.00  0.00     0.060 A 
ATOM     31  C   UNL     1       1.144  -7.436   6.821  1.00  0.00     0.016 A 
ATOM     32  C   UNL     1       2.954  -6.349   5.668  1.00  0.00     0.016 A 
ATOM     33  C   UNL     1       0.671  -7.919   5.593  1.00  0.00     0.010 A 
ATOM     34  C   UNL     1       2.387  -6.685   4.441  1.00  0.00     0.010 A 
ATOM     35  C   UNL     1       1.262  -7.519   4.379  1.00  0.00    -0.014 A 
BRANCH  35  36
ATOM     36  C   UNL     1       0.767  -8.005   3.053  1.00  0.00     0.031 A 
ATOM     37  C   UNL     1       1.723  -8.661   2.077  1.00  0.00     0.074 A 
ATOM     38  C   UNL     1      -0.520  -7.829   2.686  1.00  0.00     0.049 A 
ATOM     39  N   UNL     1       1.517  -9.048   0.842  1.00  0.00    -0.248 NA
ATOM     40  C   UNL     1       3.108  -8.860   2.532  1.00  0.00     0.031 C 
ATOM     41  C   UNL     1      -1.551  -7.157   3.480  1.00  0.00     0.029 A 
ATOM     42  N   UNL     1      -1.185  -8.209   1.544  1.00  0.00    -0.354 N 
ATOM     43  C   UNL     1       2.753  -9.472   0.364  1.00  0.00     0.074 A 
ATOM     44  C   UNL     1       3.714  -9.236   1.417  1.00  0.00     0.031 C 
ATOM     45  C   UNL     1      -2.725  -7.229   2.832  1.00  0.00     0.029 A 
ATOM     46  C   UNL     1      -2.526  -7.906   1.555  1.00  0.00     0.049 A 
ATOM     47  H   UNL     1      -0.741  -8.656   0.787  1.00  0.00     0.167 HD
ATOM     48  C   UNL     1       3.065 -10.045  -0.823  1.00  0.00     0.037 A 
ATOM     49  C   UNL     1      -3.489  -8.150   0.644  1.00  0.00     0.037 A 
ATOM     50  C   UNL     1       2.102 -10.381  -1.836  1.00  0.00     0.049 A 
ATOM     51  C   UNL     1      -3.136  -8.850  -0.639  1.00  0.00     0.074 A 
ATOM     52  C   UNL     1       2.303 -11.048  -3.032  1.00  0.00     0.029 A 
ATOM     53  N   UNL     1       0.748 -10.095  -1.758  1.00  0.00    -0.354 N 
ATOM     54  N   UNL     1      -1.971  -9.288  -1.048  1.00  0.00    -0.248 NA
ATOM     55  C   UNL     1      -4.235  -9.091  -1.587  1.00  0.00     0.031 C 
ATOM     56  C   UNL     1       1.071 -11.153  -3.686  1.00  0.00     0.029 A 
ATOM     57  C   UNL     1       0.101 -10.574  -2.884  1.00  0.00     0.049 A 
ATOM     58  H   UNL     1       0.312  -9.622  -1.013  1.00  0.00     0.167 HD
ATOM     59  C   UNL     1      -2.199  -9.874  -2.286  1.00  0.00     0.074 A 
ATOM     60  C   UNL     1      -3.616  -9.749  -2.557  1.00  0.00     0.031 C 
ATOM     61  C   UNL     1      -1.313 -10.461  -3.126  1.00  0.00     0.037 A 
BRANCH  48  62
ATOM     62  C   UNL     1       4.509 -10.376  -1.073  1.00  0.00     0.057 A 
ATOM     63  C   UNL     1       5.250  -9.670  -2.028  1.00  0.00     0.134 A 
ATOM     64  C   UNL     1       5.165 -11.400  -0.376  1.00  0.00     0.134 A 
ATOM     65  F   UNL     1       4.682  -8.686  -2.742  1.00  0.00    -0.206 F 
ATOM     66  C   UNL     1       6.594  -9.961  -2.271  1.00  0.00     0.040 A 
ATOM     67  C   UNL     1       6.516 -11.680  -0.588  1.00  0.00     0.040 A 
ATOM     68  F   UNL     1       4.516 -12.108   0.561  1.00  0.00    -0.206 F 
ATOM     69  C   UNL     1       7.234 -10.961  -1.541  1.00  0.00     0.006 A 
ENDBRANCH  48  62
BRANCH  49  70
ATOM     70  C   UNL     1      -4.896  -7.769   0.926  1.00  0.00     0.057 A 
ATOM     71  C   UNL     1      -5.317  -6.435   0.910  1.00  0.00     0.134 A 
ATOM     72  C   UNL     1      -5.860  -8.746   1.203  1.00  0.00     0.134 A 
ATOM     73  F   UNL     1      -4.441  -5.452   0.656  1.00  0.00    -0.206 F 
ATOM     74  C   UNL     1      -6.645  -6.085   1.164  1.00  0.00     0.040 A 
ATOM     75  C   UNL     1      -7.195  -8.413   1.437  1.00  0.00     0.040 A 
ATOM     76  F   UNL     1      -5.521 -10.044   1.212  1.00  0.00    -0.206 F 
ATOM     77  C   UNL     1      -7.590  -7.077   1.421  1.00  0.00     0.006 A 
ENDBRANCH  49  70
BRANCH  61  78
ATOM     78  C   UNL     1      -1.851 -11.050  -4.394  1.00  0.00     0.057 A 
ATOM     79  C   UNL     1      -1.953 -12.438  -4.547  1.00  0.00     0.134 A 
ATOM     80  C   UNL     1      -2.216 -10.247  -5.480  1.00  0.00     0.134 A 
ATOM     81  F   UNL     1      -1.611 -13.261  -3.544  1.00  0.00    -0.206 F 
ATOM     82  C   UNL     1      -2.393 -13.008  -5.741  1.00  0.00     0.040 A 
ATOM     83  C   UNL     1      -2.677 -10.805  -6.673  1.00  0.00     0.040 A 
ATOM     84  F   UNL     1      -2.152  -8.910  -5.389  1.00  0.00    -0.206 F 
ATOM     85  C   UNL     1      -2.759 -12.190  -6.808  1.00  0.00     0.006 A 
ENDBRANCH  61  78
ENDBRANCH  35  36
ENDBRANCH  28  30
ENDBRANCH  27  28
ENDBRANCH  26  27
ENDBRANCH   1  26
TORSDOF 15
