REMARK SMILES Cc1cc2c(c(C)c1Cl)C=C(C(=O)OCCOC(=O)c1ccc(-c3c4nc(c(-c5c(F)cccc5F)c5ccc([nH]5)c(-c5c(F)cccc5F)c5nc(c(-c6c(F)cccc6F)c6ccc3[nH]6)C=C5)C=C4)cc1)[C@@H](C(F)(F)F)O2
REMARK SMILES IDX 16 1 15 2 14 3 12 4 13 5 11 6 1 7 2 8 3 9 8 10 4 11 6 12
REMARK SMILES IDX 9 13 5 14 79 15 7 16 10 17 74 18 75 19 76 20 77 21 78 22
REMARK SMILES IDX 17 23 18 24 19 25 20 26 21 27 73 28 22 29 72 30 23 31 24 32
REMARK SMILES IDX 25 33 66 34 26 35 71 36 65 37 67 38 27 39 70 40 64 41 63 42
REMARK SMILES IDX 28 44 54 45 37 46 53 47 38 48 41 49 52 50 68 51 39 52 40 53
REMARK SMILES IDX 51 55 69 56 42 57 29 58 30 59 35 60 31 61 32 62 34 63 36 64
REMARK SMILES IDX 33 65 55 66 56 67 61 68 57 69 58 70 60 71 62 72 59 73 43 74
REMARK SMILES IDX 44 75 49 76 45 77 46 78 48 79 50 80 47 81
REMARK H PARENT 67 43 41 54
REMARK Flexibility Score: inf
ROOT
ATOM      1  C   UNL     1      -1.894  -7.442  -7.058  1.00  0.00     0.275 C 
ENDROOT
BRANCH   1   2
ATOM      2  C   UNL     1      -0.469  -7.462  -6.508  1.00  0.00     0.275 C 
BRANCH   2   3
ATOM      3  O   UNL     1      -0.348  -6.636  -5.330  1.00  0.00    -0.459 OA
BRANCH   3   4
ATOM      4  C   UNL     1       0.234  -5.430  -5.522  1.00  0.00     0.338 C 
ATOM      5  O   UNL     1       0.660  -4.986  -6.577  1.00  0.00    -0.246 OA
BRANCH   4   6
ATOM      6  C   UNL     1       0.285  -4.670  -4.259  1.00  0.00     0.087 C 
ATOM      7  C   UNL     1       1.080  -0.260   0.421  1.00  0.00     0.046 C 
ATOM      8  C   UNL     1       0.666  -1.018  -0.812  1.00  0.00    -0.028 A 
ATOM      9  C   UNL     1       0.901  -2.401  -0.833  1.00  0.00     0.052 A 
ATOM     10  C   UNL     1       0.129  -0.401  -1.958  1.00  0.00     0.047 A 
ATOM     11  C   UNL     1       0.627  -3.161  -1.967  1.00  0.00     0.128 A 
ATOM     12  C   UNL     1      -0.183  -1.159  -3.110  1.00  0.00    -0.021 A 
ATOM     13  Cl  UNL     1      -0.125   1.319  -1.947  1.00  0.00    -0.084 Cl
ATOM     14  C   UNL     1       0.100  -2.551  -3.109  1.00  0.00     0.022 A 
ATOM     15  O   UNL     1       0.895  -4.498  -1.858  1.00  0.00    -0.475 OA
ATOM     16  C   UNL     1      -0.802  -0.521  -4.333  1.00  0.00     0.047 C 
ATOM     17  C   UNL     1      -0.095  -3.388  -4.288  1.00  0.00     0.027 C 
ATOM     18  C   UNL     1       0.896  -5.319  -3.055  1.00  0.00     0.316 C 
BRANCH  18  19
ATOM     19  C   UNL     1       2.331  -5.792  -3.336  1.00  0.00     0.430 C 
ATOM     20  F   UNL     1       2.892  -6.352  -2.238  1.00  0.00    -0.167 F 
ATOM     21  F   UNL     1       2.363  -6.735  -4.309  1.00  0.00    -0.167 F 
ATOM     22  F   UNL     1       3.135  -4.778  -3.731  1.00  0.00    -0.167 F 
ENDBRANCH  18  19
ENDBRANCH   4   6
ENDBRANCH   3   4
ENDBRANCH   2   3
ENDBRANCH   1   2
BRANCH   1  23
ATOM     23  O   UNL     1      -2.224  -6.125  -7.537  1.00  0.00    -0.458 OA
BRANCH  23  24
ATOM     24  C   UNL     1      -3.127  -5.446  -6.795  1.00  0.00     0.338 C 
ATOM     25  O   UNL     1      -3.720  -5.837  -5.803  1.00  0.00    -0.246 OA
BRANCH  24  26
ATOM     26  C   UNL     1      -3.274  -4.075  -7.308  1.00  0.00     0.060 A 
ATOM     27  C   UNL     1      -2.177  -3.224  -7.266  1.00  0.00     0.016 A 
ATOM     28  C   UNL     1      -4.530  -3.573  -7.642  1.00  0.00     0.016 A 
ATOM     29  C   UNL     1      -2.357  -1.851  -7.399  1.00  0.00     0.010 A 
ATOM     30  C   UNL     1      -4.679  -2.206  -7.917  1.00  0.00     0.010 A 
ATOM     31  C   UNL     1      -3.606  -1.313  -7.741  1.00  0.00    -0.014 A 
BRANCH  31  32
ATOM     32  C   UNL     1      -3.789   0.167  -7.862  1.00  0.00     0.031 A 
ATOM     33  C   UNL     1      -4.889   0.869  -7.100  1.00  0.00     0.074 A 
ATOM     34  C   UNL     1      -2.949   0.909  -8.616  1.00  0.00     0.049 A 
ATOM     35  N   UNL     1      -5.338   2.093  -7.232  1.00  0.00    -0.248 NA
ATOM     36  C   UNL     1      -5.585   0.091  -6.062  1.00  0.00     0.031 C 
ATOM     37  C   UNL     1      -1.795   0.399  -9.359  1.00  0.00     0.029 A 
ATOM     38  N   UNL     1      -2.921   2.262  -8.864  1.00  0.00    -0.354 N 
ATOM     39  C   UNL     1      -6.407   2.207  -6.349  1.00  0.00     0.074 A 
ATOM     40  C   UNL     1      -6.541   0.930  -5.684  1.00  0.00     0.031 C 
ATOM     41  C   UNL     1      -1.130   1.425  -9.907  1.00  0.00     0.029 A 
ATOM     42  C   UNL     1      -1.880   2.652  -9.674  1.00  0.00     0.049 A 
ATOM     43  H   UNL     1      -3.583   2.891  -8.497  1.00  0.00     0.167 HD
ATOM     44  C   UNL     1      -7.202   3.280  -6.117  1.00  0.00     0.037 A 
ATOM     45  C   UNL     1      -1.582   3.846 -10.220  1.00  0.00     0.037 A 
ATOM     46  C   UNL     1      -7.020   4.573  -6.726  1.00  0.00     0.049 A 
ATOM     47  C   UNL     1      -2.505   5.007  -9.991  1.00  0.00     0.074 A 
ATOM     48  C   UNL     1      -7.782   5.718  -6.563  1.00  0.00     0.029 A 
ATOM     49  N   UNL     1      -5.987   4.902  -7.590  1.00  0.00    -0.354 N 
ATOM     50  N   UNL     1      -3.582   5.068  -9.248  1.00  0.00    -0.248 NA
ATOM     51  C   UNL     1      -2.192   6.253 -10.704  1.00  0.00     0.031 C 
ATOM     52  C   UNL     1      -7.230   6.729  -7.354  1.00  0.00     0.029 A 
ATOM     53  C   UNL     1      -6.097   6.229  -7.973  1.00  0.00     0.049 A 
ATOM     54  H   UNL     1      -5.280   4.284  -7.887  1.00  0.00     0.167 HD
ATOM     55  C   UNL     1      -4.072   6.358  -9.396  1.00  0.00     0.074 A 
ATOM     56  C   UNL     1      -3.162   7.053 -10.283  1.00  0.00     0.031 C 
ATOM     57  C   UNL     1      -5.182   6.912  -8.851  1.00  0.00     0.037 A 
BRANCH  44  58
ATOM     58  C   UNL     1      -8.367   3.106  -5.183  1.00  0.00     0.057 A 
ATOM     59  C   UNL     1      -8.205   3.000  -3.796  1.00  0.00     0.134 A 
ATOM     60  C   UNL     1      -9.678   3.117  -5.679  1.00  0.00     0.134 A 
ATOM     61  F   UNL     1      -6.978   2.970  -3.256  1.00  0.00    -0.206 F 
ATOM     62  C   UNL     1      -9.304   2.900  -2.939  1.00  0.00     0.040 A 
ATOM     63  C   UNL     1     -10.784   3.045  -4.831  1.00  0.00     0.040 A 
ATOM     64  F   UNL     1      -9.906   3.225  -6.997  1.00  0.00    -0.206 F 
ATOM     65  C   UNL     1     -10.598   2.933  -3.455  1.00  0.00     0.006 A 
ENDBRANCH  44  58
BRANCH  45  66
ATOM     66  C   UNL     1      -0.378   3.983 -11.081  1.00  0.00     0.057 A 
ATOM     67  C   UNL     1       0.719   4.747 -10.670  1.00  0.00     0.134 A 
ATOM     68  C   UNL     1      -0.280   3.328 -12.316  1.00  0.00     0.134 A 
ATOM     69  F   UNL     1       0.677   5.421  -9.511  1.00  0.00    -0.206 F 
ATOM     70  C   UNL     1       1.873   4.849 -11.450  1.00  0.00     0.040 A 
ATOM     71  C   UNL     1       0.878   3.394 -13.091  1.00  0.00     0.040 A 
ATOM     72  F   UNL     1      -1.297   2.581 -12.769  1.00  0.00    -0.206 F 
ATOM     73  C   UNL     1       1.959   4.159 -12.659  1.00  0.00     0.006 A 
ENDBRANCH  45  66
BRANCH  57  74
ATOM     74  C   UNL     1      -5.462   8.349  -9.172  1.00  0.00     0.057 A 
ATOM     75  C   UNL     1      -5.944   8.744 -10.426  1.00  0.00     0.134 A 
ATOM     76  C   UNL     1      -5.298   9.341  -8.197  1.00  0.00     0.134 A 
ATOM     77  F   UNL     1      -6.111   7.842 -11.405  1.00  0.00    -0.206 F 
ATOM     78  C   UNL     1      -6.239  10.079 -10.704  1.00  0.00     0.040 A 
ATOM     79  C   UNL     1      -5.612  10.676  -8.456  1.00  0.00     0.040 A 
ATOM     80  F   UNL     1      -4.848   9.027  -6.973  1.00  0.00    -0.206 F 
ATOM     81  C   UNL     1      -6.081  11.048  -9.714  1.00  0.00     0.006 A 
ENDBRANCH  57  74
ENDBRANCH  31  32
ENDBRANCH  24  26
ENDBRANCH  23  24
ENDBRANCH   1  23
TORSDOF 12
