REMARK SMILES C/C(=N\Nc1ccccc1C(=O)OCCOC(=O)c1ccc(-c2c3nc(c(-c4c(F)cccc4F)c4ccc([nH]4)c(-c4c(F)cccc4F)c4nc(c(-c5c(F)cccc5F)c5ccc2[nH]5)C=C4)C=C3)cc1)c1ccc(S(C)(=O)=O)cc1
REMARK SMILES IDX 14 1 13 2 11 3 12 4 10 5 5 6 6 7 7 8 9 9 8 10 4 11 3 13 1 14
REMARK SMILES IDX 2 15 73 16 74 17 82 18 75 19 81 20 76 21 77 22 78 23 79 24
REMARK SMILES IDX 80 25 15 26 16 27 17 28 18 29 19 30 20 31 72 32 21 33 71 34
REMARK SMILES IDX 22 35 23 36 24 37 65 38 25 39 70 40 64 41 66 42 26 43 69 44
REMARK SMILES IDX 63 45 62 46 27 48 53 49 36 50 52 51 37 52 40 53 51 54 67 55
REMARK SMILES IDX 38 56 39 57 50 59 68 60 41 61 28 62 29 63 34 64 30 65 31 66
REMARK SMILES IDX 33 67 35 68 32 69 54 70 55 71 60 72 56 73 57 74 59 75 61 76
REMARK SMILES IDX 58 77 42 78 43 79 48 80 44 81 45 82 47 83 49 84 46 85
REMARK H PARENT 4 12 66 47 40 58
REMARK Flexibility Score: inf
ROOT
ATOM      1  C   UNL     1      -1.512   1.894  -0.327  1.00  0.00     0.275 C 
ENDROOT
BRANCH   1   2
ATOM      2  O   UNL     1      -1.480   0.453  -0.300  1.00  0.00    -0.458 OA
BRANCH   2   3
ATOM      3  C   UNL     1      -0.380  -0.088   0.281  1.00  0.00     0.340 C 
ATOM      4  O   UNL     1       0.444   0.494   0.972  1.00  0.00    -0.246 OA
BRANCH   3   5
ATOM      5  C   UNL     1      -0.288  -1.538   0.026  1.00  0.00     0.085 A 
ATOM      6  C   UNL     1       0.041  -2.068  -1.231  1.00  0.00     0.071 A 
ATOM      7  C   UNL     1       0.213  -3.469  -1.319  1.00  0.00     0.028 A 
ATOM      8  C   UNL     1       0.091  -4.306  -0.206  1.00  0.00     0.002 A 
ATOM      9  C   UNL     1      -0.419  -2.388   1.141  1.00  0.00     0.018 A 
ATOM     10  C   UNL     1      -0.223  -3.763   1.029  1.00  0.00     0.001 A 
BRANCH   6  11
ATOM     11  N   UNL     1       0.400  -1.337  -2.389  1.00  0.00    -0.277 N 
ATOM     12  H   UNL     1       0.551  -1.846  -3.218  1.00  0.00     0.190 HD
BRANCH  11  13
ATOM     13  N   UNL     1       0.552   0.001  -2.442  1.00  0.00    -0.180 NA
ATOM     14  C   UNL     1       2.760  -0.228  -1.279  1.00  0.00     0.069 C 
ATOM     15  C   UNL     1       1.641   0.539  -1.963  1.00  0.00     0.065 C 
BRANCH  15  16
ATOM     16  C   UNL     1       1.806   2.030  -2.099  1.00  0.00    -0.002 A 
ATOM     17  C   UNL     1       0.812   2.773  -2.757  1.00  0.00     0.011 A 
ATOM     18  C   UNL     1       2.923   2.701  -1.582  1.00  0.00     0.011 A 
ATOM     19  C   UNL     1       0.917   4.161  -2.881  1.00  0.00     0.021 A 
ATOM     20  C   UNL     1       3.046   4.087  -1.722  1.00  0.00     0.021 A 
ATOM     21  C   UNL     1       2.043   4.809  -2.372  1.00  0.00     0.067 A 
BRANCH  21  22
ATOM     22  S   UNL     1       2.197   6.570  -2.546  1.00  0.00     0.175 S 
ATOM     23  C   UNL     1       2.051   6.855  -4.291  1.00  0.00     0.163 C 
ATOM     24  O   UNL     1       1.043   7.157  -1.887  1.00  0.00    -0.224 OA
ATOM     25  O   UNL     1       3.546   6.931  -2.162  1.00  0.00    -0.224 OA
ENDBRANCH  21  22
ENDBRANCH  15  16
ENDBRANCH  11  13
ENDBRANCH   6  11
ENDBRANCH   3   5
ENDBRANCH   2   3
ENDBRANCH   1   2
BRANCH   1  26
ATOM     26  C   UNL     1      -2.554   2.482   0.616  1.00  0.00     0.275 C 
BRANCH  26  27
ATOM     27  O   UNL     1      -2.222   2.170   1.976  1.00  0.00    -0.458 OA
BRANCH  27  28
ATOM     28  C   UNL     1      -2.952   1.171   2.507  1.00  0.00     0.338 C 
ATOM     29  O   UNL     1      -3.896   0.576   2.007  1.00  0.00    -0.246 OA
BRANCH  28  30
ATOM     30  C   UNL     1      -2.421   0.809   3.821  1.00  0.00     0.060 A 
ATOM     31  C   UNL     1      -1.277   0.019   3.875  1.00  0.00     0.016 A 
ATOM     32  C   UNL     1      -3.180   1.043   4.963  1.00  0.00     0.016 A 
ATOM     33  C   UNL     1      -0.977  -0.683   5.034  1.00  0.00     0.010 A 
ATOM     34  C   UNL     1      -2.808   0.432   6.159  1.00  0.00     0.010 A 
ATOM     35  C   UNL     1      -1.746  -0.492   6.187  1.00  0.00    -0.014 A 
BRANCH  35  36
ATOM     36  C   UNL     1      -1.514  -1.322   7.396  1.00  0.00     0.031 A 
ATOM     37  C   UNL     1      -2.636  -2.175   7.927  1.00  0.00     0.074 A 
ATOM     38  C   UNL     1      -0.316  -1.324   8.008  1.00  0.00     0.049 A 
ATOM     39  N   UNL     1      -2.754  -2.762   9.089  1.00  0.00    -0.248 NA
ATOM     40  C   UNL     1      -3.791  -2.374   7.034  1.00  0.00     0.031 C 
ATOM     41  C   UNL     1       0.875  -0.606   7.550  1.00  0.00     0.029 A 
ATOM     42  N   UNL     1       0.096  -1.953   9.155  1.00  0.00    -0.354 N 
ATOM     43  C   UNL     1      -4.022  -3.332   9.096  1.00  0.00     0.074 A 
ATOM     44  C   UNL     1      -4.632  -3.029   7.820  1.00  0.00     0.031 C 
ATOM     45  C   UNL     1       1.888  -0.852   8.393  1.00  0.00     0.029 A 
ATOM     46  C   UNL     1       1.393  -1.659   9.501  1.00  0.00     0.049 A 
ATOM     47  H   UNL     1      -0.480  -2.555   9.679  1.00  0.00     0.167 HD
ATOM     48  C   UNL     1      -4.620  -4.034  10.088  1.00  0.00     0.037 A 
ATOM     49  C   UNL     1       2.086  -1.957  10.614  1.00  0.00     0.037 A 
ATOM     50  C   UNL     1      -3.970  -4.377  11.326  1.00  0.00     0.049 A 
ATOM     51  C   UNL     1       1.399  -2.720  11.709  1.00  0.00     0.074 A 
ATOM     52  C   UNL     1      -4.474  -5.082  12.404  1.00  0.00     0.029 A 
ATOM     53  N   UNL     1      -2.656  -4.055  11.636  1.00  0.00    -0.354 N 
ATOM     54  N   UNL     1       0.170  -3.178  11.751  1.00  0.00    -0.248 NA
ATOM     55  C   UNL     1       2.186  -2.991  12.919  1.00  0.00     0.031 C 
ATOM     56  C   UNL     1      -3.472  -5.164  13.378  1.00  0.00     0.029 A 
ATOM     57  C   UNL     1      -2.332  -4.546  12.889  1.00  0.00     0.049 A 
ATOM     58  H   UNL     1      -2.044  -3.551  11.051  1.00  0.00     0.167 HD
ATOM     59  C   UNL     1       0.039  -3.802  12.983  1.00  0.00     0.074 A 
ATOM     60  C   UNL     1       1.321  -3.680  13.650  1.00  0.00     0.031 C 
ATOM     61  C   UNL     1      -1.043  -4.418  13.520  1.00  0.00     0.037 A 
BRANCH  48  62
ATOM     62  C   UNL     1      -6.054  -4.434   9.891  1.00  0.00     0.057 A 
ATOM     63  C   UNL     1      -6.438  -5.437   8.992  1.00  0.00     0.134 A 
ATOM     64  C   UNL     1      -7.069  -3.810  10.630  1.00  0.00     0.134 A 
ATOM     65  F   UNL     1      -5.521  -6.064   8.240  1.00  0.00    -0.206 F 
ATOM     66  C   UNL     1      -7.780  -5.786   8.816  1.00  0.00     0.040 A 
ATOM     67  C   UNL     1      -8.410  -4.168  10.482  1.00  0.00     0.040 A 
ATOM     68  F   UNL     1      -6.772  -2.843  11.512  1.00  0.00    -0.206 F 
ATOM     69  C   UNL     1      -8.770  -5.154   9.568  1.00  0.00     0.006 A 
ENDBRANCH  48  62
BRANCH  49  70
ATOM     70  C   UNL     1       3.487  -1.488  10.760  1.00  0.00     0.057 A 
ATOM     71  C   UNL     1       4.556  -2.389  10.744  1.00  0.00     0.134 A 
ATOM     72  C   UNL     1       3.792  -0.127  10.895  1.00  0.00     0.134 A 
ATOM     73  F   UNL     1       4.328  -3.706  10.638  1.00  0.00    -0.206 F 
ATOM     74  C   UNL     1       5.878  -1.956  10.861  1.00  0.00     0.040 A 
ATOM     75  C   UNL     1       5.109   0.323  10.984  1.00  0.00     0.040 A 
ATOM     76  F   UNL     1       2.812   0.788  10.913  1.00  0.00    -0.206 F 
ATOM     77  C   UNL     1       6.158  -0.595  10.972  1.00  0.00     0.006 A 
ENDBRANCH  49  70
BRANCH  61  78
ATOM     78  C   UNL     1      -0.863  -5.040  14.870  1.00  0.00     0.057 A 
ATOM     79  C   UNL     1      -0.793  -4.268  16.036  1.00  0.00     0.134 A 
ATOM     80  C   UNL     1      -0.783  -6.431  15.004  1.00  0.00     0.134 A 
ATOM     81  F   UNL     1      -0.849  -2.929  15.969  1.00  0.00    -0.206 F 
ATOM     82  C   UNL     1      -0.625  -4.858  17.288  1.00  0.00     0.040 A 
ATOM     83  C   UNL     1      -0.639  -7.034  16.253  1.00  0.00     0.040 A 
ATOM     84  F   UNL     1      -0.851  -7.225  13.924  1.00  0.00    -0.206 F 
ATOM     85  C   UNL     1      -0.553  -6.246  17.399  1.00  0.00     0.006 A 
ENDBRANCH  61  78
ENDBRANCH  35  36
ENDBRANCH  28  30
ENDBRANCH  27  28
ENDBRANCH  26  27
ENDBRANCH   1  26
TORSDOF 15
