REMARK SMILES Cn1ncc(C(=O)OCCOC(=O)c2ccc(-c3c4nc(c(-c5c(F)cccc5F)c5ccc([nH]5)c(-c5c(F)cccc5F)c5nc(c(-c6c(F)cccc6F)c6ccc3[nH]6)C=C5)C=C4)cc2)c1C(=O)Nc1ccccn1
REMARK SMILES IDX 9 1 8 2 6 3 7 4 5 5 1 6 2 7 3 8 68 9 4 10 69 11 70 12 71 13
REMARK SMILES IDX 72 15 73 16 77 17 74 18 76 19 75 20 10 21 11 22 12 23 13 24
REMARK SMILES IDX 14 25 15 26 67 27 16 28 66 29 17 30 18 31 19 32 60 33 20 34
REMARK SMILES IDX 65 35 59 36 61 37 21 38 64 39 58 40 57 41 22 43 48 44 31 45
REMARK SMILES IDX 47 46 32 47 35 48 46 49 62 50 33 51 34 52 45 54 63 55 36 56
REMARK SMILES IDX 23 57 24 58 29 59 25 60 26 61 28 62 30 63 27 64 49 65 50 66
REMARK SMILES IDX 55 67 51 68 52 69 54 70 56 71 53 72 37 73 38 74 43 75 39 76
REMARK SMILES IDX 40 77 42 78 44 79 41 80
REMARK H PARENT 71 14 61 42 35 53
REMARK Flexibility Score: inf
ROOT
ATOM      1  C   UNL     1       3.639  -3.506  -0.194  1.00  0.00     0.275 C 
ENDROOT
BRANCH   1   2
ATOM      2  O   UNL     1       2.433  -2.722  -0.299  1.00  0.00    -0.458 OA
BRANCH   2   3
ATOM      3  C   UNL     1       2.327  -1.677   0.565  1.00  0.00     0.342 C 
ATOM      4  O   UNL     1       3.195  -1.360   1.375  1.00  0.00    -0.246 OA
BRANCH   3   5
ATOM      5  C   UNL     1       1.146  -0.850   0.380  1.00  0.00     0.111 A 
ATOM      6  C   UNL     1      -2.030   0.319   1.286  1.00  0.00     0.174 C 
ATOM      7  N   UNL     1      -0.852   0.002   0.511  1.00  0.00    -0.262 N 
ATOM      8  N   UNL     1      -0.075   1.063   0.237  1.00  0.00    -0.180 NA
ATOM      9  C   UNL     1      -0.210  -1.213   0.321  1.00  0.00     0.140 A 
ATOM     10  C   UNL     1       1.144   0.559   0.359  1.00  0.00     0.151 A 
BRANCH   9  11
ATOM     11  C   UNL     1      -0.735  -2.567   0.347  1.00  0.00     0.275 C 
ATOM     12  O   UNL     1      -0.011  -3.521   0.647  1.00  0.00    -0.267 OA
ATOM     13  N   UNL     1      -2.054  -2.883   0.154  1.00  0.00    -0.305 N 
ATOM     14  H   UNL     1      -2.256  -3.837   0.291  1.00  0.00     0.171 HD
BRANCH  13  15
ATOM     15  C   UNL     1      -3.158  -2.127  -0.195  1.00  0.00     0.132 A 
ATOM     16  C   UNL     1      -3.170  -1.229  -1.251  1.00  0.00     0.047 A 
ATOM     17  N   UNL     1      -4.195  -2.284   0.653  1.00  0.00    -0.239 NA
ATOM     18  C   UNL     1      -4.277  -0.389  -1.382  1.00  0.00     0.005 A 
ATOM     19  C   UNL     1      -5.230  -1.428   0.535  1.00  0.00     0.113 A 
ATOM     20  C   UNL     1      -5.309  -0.461  -0.450  1.00  0.00     0.020 A 
ENDBRANCH  13  15
ENDBRANCH   9  11
ENDBRANCH   3   5
ENDBRANCH   2   3
ENDBRANCH   1   2
BRANCH   1  21
ATOM     21  C   UNL     1       4.566  -3.236  -1.379  1.00  0.00     0.275 C 
BRANCH  21  22
ATOM     22  O   UNL     1       5.054  -1.881  -1.341  1.00  0.00    -0.458 OA
BRANCH  22  23
ATOM     23  C   UNL     1       4.444  -1.032  -2.199  1.00  0.00     0.338 C 
ATOM     24  O   UNL     1       3.577  -1.288  -3.013  1.00  0.00    -0.246 OA
BRANCH  23  25
ATOM     25  C   UNL     1       4.896   0.345  -1.950  1.00  0.00     0.060 A 
ATOM     26  C   UNL     1       4.333   1.024  -0.879  1.00  0.00     0.016 A 
ATOM     27  C   UNL     1       5.691   1.027  -2.864  1.00  0.00     0.016 A 
ATOM     28  C   UNL     1       4.423   2.408  -0.796  1.00  0.00     0.010 A 
ATOM     29  C   UNL     1       5.906   2.402  -2.692  1.00  0.00     0.010 A 
ATOM     30  C   UNL     1       5.235   3.122  -1.683  1.00  0.00    -0.014 A 
BRANCH  30  31
ATOM     31  C   UNL     1       5.361   4.606  -1.562  1.00  0.00     0.031 A 
ATOM     32  C   UNL     1       5.075   5.497  -2.746  1.00  0.00     0.074 A 
ATOM     33  C   UNL     1       5.718   5.169  -0.388  1.00  0.00     0.049 A 
ATOM     34  N   UNL     1       5.313   6.777  -2.898  1.00  0.00    -0.248 NA
ATOM     35  C   UNL     1       4.456   4.863  -3.920  1.00  0.00     0.031 C 
ATOM     36  C   UNL     1       5.974   4.447   0.861  1.00  0.00     0.029 A 
ATOM     37  N   UNL     1       5.928   6.485  -0.049  1.00  0.00    -0.354 N 
ATOM     38  C   UNL     1       4.928   7.086  -4.198  1.00  0.00     0.074 A 
ATOM     39  C   UNL     1       4.452   5.857  -4.797  1.00  0.00     0.031 C 
ATOM     40  C   UNL     1       6.264   5.324   1.831  1.00  0.00     0.029 A 
ATOM     41  C   UNL     1       6.327   6.660   1.255  1.00  0.00     0.049 A 
ATOM     42  H   UNL     1       5.804   7.231  -0.680  1.00  0.00     0.167 HD
ATOM     43  C   UNL     1       4.967   8.283  -4.832  1.00  0.00     0.037 A 
ATOM     44  C   UNL     1       6.754   7.757   1.909  1.00  0.00     0.037 A 
ATOM     45  C   UNL     1       5.391   9.514  -4.214  1.00  0.00     0.049 A 
ATOM     46  C   UNL     1       6.848   9.059   1.167  1.00  0.00     0.074 A 
ATOM     47  C   UNL     1       5.446  10.783  -4.767  1.00  0.00     0.029 A 
ATOM     48  N   UNL     1       5.823   9.633  -2.901  1.00  0.00    -0.354 N 
ATOM     49  N   UNL     1       6.524   9.328  -0.074  1.00  0.00    -0.248 NA
ATOM     50  C   UNL     1       7.386  10.205   1.912  1.00  0.00     0.031 C 
ATOM     51  C   UNL     1       5.960  11.659  -3.805  1.00  0.00     0.029 A 
ATOM     52  C   UNL     1       6.170  10.949  -2.635  1.00  0.00     0.049 A 
ATOM     53  H   UNL     1       5.875   8.893  -2.254  1.00  0.00     0.167 HD
ATOM     54  C   UNL     1       6.799  10.677  -0.253  1.00  0.00     0.074 A 
ATOM     55  C   UNL     1       7.296  11.175   1.013  1.00  0.00     0.031 C 
ATOM     56  C   UNL     1       6.657  11.434  -1.368  1.00  0.00     0.037 A 
BRANCH  43  57
ATOM     57  C   UNL     1       4.573   8.321  -6.282  1.00  0.00     0.057 A 
ATOM     58  C   UNL     1       3.248   8.157  -6.706  1.00  0.00     0.134 A 
ATOM     59  C   UNL     1       5.537   8.569  -7.270  1.00  0.00     0.134 A 
ATOM     60  F   UNL     1       2.276   7.907  -5.816  1.00  0.00    -0.206 F 
ATOM     61  C   UNL     1       2.901   8.212  -8.058  1.00  0.00     0.040 A 
ATOM     62  C   UNL     1       5.198   8.656  -8.621  1.00  0.00     0.040 A 
ATOM     63  F   UNL     1       6.825   8.747  -6.936  1.00  0.00    -0.206 F 
ATOM     64  C   UNL     1       3.877   8.469  -9.019  1.00  0.00     0.006 A 
ENDBRANCH  43  57
BRANCH  44  65
ATOM     65  C   UNL     1       7.182   7.658   3.329  1.00  0.00     0.057 A 
ATOM     66  C   UNL     1       6.471   8.303   4.348  1.00  0.00     0.134 A 
ATOM     67  C   UNL     1       8.319   6.928   3.702  1.00  0.00     0.134 A 
ATOM     68  F   UNL     1       5.389   9.038   4.054  1.00  0.00    -0.206 F 
ATOM     69  C   UNL     1       6.882   8.238   5.681  1.00  0.00     0.040 A 
ATOM     70  C   UNL     1       8.721   6.826   5.034  1.00  0.00     0.040 A 
ATOM     71  F   UNL     1       9.045   6.285   2.776  1.00  0.00    -0.206 F 
ATOM     72  C   UNL     1       8.006   7.490   6.027  1.00  0.00     0.006 A 
ENDBRANCH  44  65
BRANCH  56  73
ATOM     73  C   UNL     1       7.006  12.889  -1.256  1.00  0.00     0.057 A 
ATOM     74  C   UNL     1       8.331  13.327  -1.134  1.00  0.00     0.134 A 
ATOM     75  C   UNL     1       6.003  13.866  -1.296  1.00  0.00     0.134 A 
ATOM     76  F   UNL     1       9.337  12.441  -1.073  1.00  0.00    -0.206 F 
ATOM     77  C   UNL     1       8.643  14.683  -1.031  1.00  0.00     0.040 A 
ATOM     78  C   UNL     1       6.305  15.226  -1.224  1.00  0.00     0.040 A 
ATOM     79  F   UNL     1       4.714  13.515  -1.418  1.00  0.00    -0.206 F 
ATOM     80  C   UNL     1       7.629  15.637  -1.083  1.00  0.00     0.006 A 
ENDBRANCH  56  73
ENDBRANCH  30  31
ENDBRANCH  23  25
ENDBRANCH  22  23
ENDBRANCH  21  22
ENDBRANCH   1  21
TORSDOF 13
