REMARK SMILES CCC(CC)(NC(=O)c1cncc(Br)c1)C(=O)OCCOC(=O)c1ccc(-c2c3nc(c(-c4c(F)cccc4F)c4ccc([nH]4)c(-c4c(F)cccc4F)c4nc(c(-c5c(F)cccc5F)c5ccc2[nH]5)C=C4)C=C3)cc1
REMARK SMILES IDX 19 1 18 2 16 3 17 4 3 5 2 6 1 7 4 8 5 9 6 10 7 11 8 13 9 14
REMARK SMILES IDX 10 15 15 16 11 17 13 18 12 19 14 20 20 21 21 22 22 23 23 24
REMARK SMILES IDX 24 25 25 26 77 27 26 28 76 29 27 30 28 31 29 32 70 33 30 34
REMARK SMILES IDX 75 35 69 36 71 37 31 38 74 39 68 40 67 41 32 43 58 44 41 45
REMARK SMILES IDX 57 46 42 47 45 48 56 49 72 50 43 51 44 52 55 54 73 55 46 56
REMARK SMILES IDX 33 57 34 58 39 59 35 60 36 61 38 62 40 63 37 64 59 65 60 66
REMARK SMILES IDX 65 67 61 68 62 69 64 70 66 71 63 72 47 73 48 74 53 75 49 76
REMARK SMILES IDX 50 77 52 78 54 79 51 80
REMARK H PARENT 6 12 71 42 45 53
REMARK Flexibility Score: inf
ROOT
ATOM      1  C   UNL     1       4.689   2.012  -1.453  1.00  0.00     0.274 C 
ENDROOT
BRANCH   1   2
ATOM      2  O   UNL     1       3.383   2.573  -1.178  1.00  0.00    -0.460 OA
BRANCH   2   3
ATOM      3  C   UNL     1       2.325   1.753  -1.370  1.00  0.00     0.331 C 
ATOM      4  O   UNL     1       2.449   0.566  -1.660  1.00  0.00    -0.249 OA
BRANCH   3   5
ATOM      5  C   UNL     1       0.936   2.470  -1.345  1.00  0.00     0.137 C 
BRANCH   5   6
ATOM      6  C   UNL     1      -0.006   1.653  -0.386  1.00  0.00     0.037 C 
ATOM      7  C   UNL     1      -0.194   0.160  -0.621  1.00  0.00     0.007 C 
ENDBRANCH   5   6
BRANCH   5   8
ATOM      8  C   UNL     1       0.445   2.429  -2.822  1.00  0.00     0.037 C 
ATOM      9  C   UNL     1      -1.043   2.682  -3.038  1.00  0.00     0.007 C 
ENDBRANCH   5   8
BRANCH   5  10
ATOM     10  N   UNL     1       0.788   3.874  -0.824  1.00  0.00    -0.336 N 
ATOM     11  C   UNL     1       1.349   5.101  -1.008  1.00  0.00     0.253 C 
ATOM     12  H   UNL     1       0.073   3.919  -0.149  1.00  0.00     0.165 HD
ATOM     13  O   UNL     1       0.631   6.091  -0.866  1.00  0.00    -0.269 OA
BRANCH  11  14
ATOM     14  C   UNL     1       2.779   5.337  -1.165  1.00  0.00     0.059 A 
ATOM     15  C   UNL     1       3.462   5.857  -0.067  1.00  0.00     0.124 A 
ATOM     16  C   UNL     1       3.434   5.267  -2.389  1.00  0.00     0.032 A 
ATOM     17  N   UNL     1       4.754   6.267  -0.105  1.00  0.00    -0.263 NA
ATOM     18  C   UNL     1       4.769   5.666  -2.444  1.00  0.00     0.037 A 
ATOM     19  C   UNL     1       5.381   6.156  -1.296  1.00  0.00     0.126 A 
ATOM     20  Br  UNL     1       5.740   5.540  -4.055  1.00  0.00    -0.049 Br
ENDBRANCH  11  14
ENDBRANCH   5  10
ENDBRANCH   3   5
ENDBRANCH   2   3
ENDBRANCH   1   2
BRANCH   1  21
ATOM     21  C   UNL     1       5.625   2.237  -0.273  1.00  0.00     0.275 C 
BRANCH  21  22
ATOM     22  O   UNL     1       5.116   1.518   0.861  1.00  0.00    -0.458 OA
BRANCH  22  23
ATOM     23  C   UNL     1       4.476   2.280   1.773  1.00  0.00     0.338 C 
ATOM     24  O   UNL     1       4.382   3.491   1.823  1.00  0.00    -0.246 OA
BRANCH  23  25
ATOM     25  C   UNL     1       3.757   1.402   2.695  1.00  0.00     0.060 A 
ATOM     26  C   UNL     1       2.557   0.843   2.262  1.00  0.00     0.016 A 
ATOM     27  C   UNL     1       4.187   1.258   4.010  1.00  0.00     0.016 A 
ATOM     28  C   UNL     1       1.732   0.193   3.169  1.00  0.00     0.010 A 
ATOM     29  C   UNL     1       3.394   0.537   4.904  1.00  0.00     0.010 A 
ATOM     30  C   UNL     1       2.147   0.028   4.498  1.00  0.00    -0.014 A 
BRANCH  30  31
ATOM     31  C   UNL     1       1.256  -0.647   5.472  1.00  0.00     0.031 A 
ATOM     32  C   UNL     1       0.699   0.118   6.638  1.00  0.00     0.074 A 
ATOM     33  C   UNL     1       0.931  -1.941   5.292  1.00  0.00     0.049 A 
ATOM     34  N   UNL     1       0.027  -0.323   7.670  1.00  0.00    -0.248 NA
ATOM     35  C   UNL     1       0.938   1.570   6.652  1.00  0.00     0.031 C 
ATOM     36  C   UNL     1       1.372  -2.777   4.174  1.00  0.00     0.029 A 
ATOM     37  N   UNL     1       0.143  -2.775   6.041  1.00  0.00    -0.354 N 
ATOM     38  C   UNL     1      -0.184   0.782   8.484  1.00  0.00     0.074 A 
ATOM     39  C   UNL     1       0.417   1.919   7.820  1.00  0.00     0.031 C 
ATOM     40  C   UNL     1       0.812  -3.991   4.286  1.00  0.00     0.029 A 
ATOM     41  C   UNL     1       0.035  -4.040   5.519  1.00  0.00     0.049 A 
ATOM     42  H   UNL     1      -0.303  -2.494   6.873  1.00  0.00     0.167 HD
ATOM     43  C   UNL     1      -0.812   0.836   9.682  1.00  0.00     0.037 A 
ATOM     44  C   UNL     1      -0.600  -5.127   5.996  1.00  0.00     0.037 A 
ATOM     45  C   UNL     1      -1.447  -0.291  10.314  1.00  0.00     0.049 A 
ATOM     46  C   UNL     1      -1.309  -5.035   7.315  1.00  0.00     0.074 A 
ATOM     47  C   UNL     1      -2.088  -0.351  11.539  1.00  0.00     0.029 A 
ATOM     48  N   UNL     1      -1.539  -1.555   9.751  1.00  0.00    -0.354 N 
ATOM     49  N   UNL     1      -1.433  -4.003   8.114  1.00  0.00    -0.248 NA
ATOM     50  C   UNL     1      -1.948  -6.262   7.808  1.00  0.00     0.031 C 
ATOM     51  C   UNL     1      -2.558  -1.657  11.722  1.00  0.00     0.029 A 
ATOM     52  C   UNL     1      -2.232  -2.401  10.599  1.00  0.00     0.049 A 
ATOM     53  H   UNL     1      -1.167  -1.812   8.877  1.00  0.00     0.167 HD
ATOM     54  C   UNL     1      -2.166  -4.453   9.203  1.00  0.00     0.074 A 
ATOM     55  C   UNL     1      -2.479  -5.846   8.949  1.00  0.00     0.031 C 
ATOM     56  C   UNL     1      -2.535  -3.780  10.318  1.00  0.00     0.037 A 
BRANCH  43  57
ATOM     57  C   UNL     1      -0.802   2.150  10.403  1.00  0.00     0.057 A 
ATOM     58  C   UNL     1      -1.628   3.214  10.024  1.00  0.00     0.134 A 
ATOM     59  C   UNL     1       0.046   2.347  11.501  1.00  0.00     0.134 A 
ATOM     60  F   UNL     1      -2.448   3.095   8.970  1.00  0.00    -0.206 F 
ATOM     61  C   UNL     1      -1.598   4.436  10.700  1.00  0.00     0.040 A 
ATOM     62  C   UNL     1       0.072   3.557  12.196  1.00  0.00     0.040 A 
ATOM     63  F   UNL     1       0.863   1.366  11.915  1.00  0.00    -0.206 F 
ATOM     64  C   UNL     1      -0.749   4.608  11.793  1.00  0.00     0.006 A 
ENDBRANCH  43  57
BRANCH  44  65
ATOM     65  C   UNL     1      -0.577  -6.392   5.223  1.00  0.00     0.057 A 
ATOM     66  C   UNL     1      -1.725  -6.858   4.575  1.00  0.00     0.134 A 
ATOM     67  C   UNL     1       0.593  -7.150   5.094  1.00  0.00     0.134 A 
ATOM     68  F   UNL     1      -2.880  -6.183   4.678  1.00  0.00    -0.206 F 
ATOM     69  C   UNL     1      -1.713  -8.036   3.828  1.00  0.00     0.040 A 
ATOM     70  C   UNL     1       0.625  -8.318   4.332  1.00  0.00     0.040 A 
ATOM     71  F   UNL     1       1.727  -6.751   5.688  1.00  0.00    -0.206 F 
ATOM     72  C   UNL     1      -0.533  -8.766   3.699  1.00  0.00     0.006 A 
ENDBRANCH  44  65
BRANCH  56  73
ATOM     73  C   UNL     1      -3.336  -4.542  11.328  1.00  0.00     0.057 A 
ATOM     74  C   UNL     1      -2.734  -5.459  12.197  1.00  0.00     0.134 A 
ATOM     75  C   UNL     1      -4.717  -4.346  11.438  1.00  0.00     0.134 A 
ATOM     76  F   UNL     1      -1.415  -5.698  12.127  1.00  0.00    -0.206 F 
ATOM     77  C   UNL     1      -3.484  -6.172  13.132  1.00  0.00     0.040 A 
ATOM     78  C   UNL     1      -5.475  -5.042  12.379  1.00  0.00     0.040 A 
ATOM     79  F   UNL     1      -5.348  -3.479  10.632  1.00  0.00    -0.206 F 
ATOM     80  C   UNL     1      -4.859  -5.962  13.227  1.00  0.00     0.006 A 
ENDBRANCH  56  73
ENDBRANCH  30  31
ENDBRANCH  23  25
ENDBRANCH  22  23
ENDBRANCH  21  22
ENDBRANCH   1  21
TORSDOF 15
