REMARK SMILES O=C(OCCOC(=O)c1ccc(-c2c3nc(c(-c4c(F)cccc4F)c4ccc([nH]4)c(-c4c(F)cccc4F)c4nc(c(-c5c(F)cccc5F)c5ccc2[nH]5)C=C4)C=C3)cc1)c1ccc(NC(=O)[C@@H]2CC=CC[C@H]2C(=O)Nc2cccc([N+](=O)[O-])c2)cc1
REMARK SMILES IDX 3 1 2 2 1 3 63 4 64 5 89 6 65 7 88 8 66 9 67 10 68 11 69 13
REMARK SMILES IDX 70 14 71 15 75 16 72 17 74 18 73 19 76 20 77 21 78 22 79 24
REMARK SMILES IDX 80 25 87 26 81 27 83 28 82 29 84 30 85 31 86 32 4 33 5 34
REMARK SMILES IDX 6 35 7 36 8 37 9 38 10 39 62 40 11 41 61 42 12 43 13 44
REMARK SMILES IDX 14 45 55 46 15 47 60 48 54 49 56 50 16 51 59 52 53 53 52 54
REMARK SMILES IDX 17 56 43 57 26 58 42 59 27 60 30 61 41 62 57 63 28 64 29 65
REMARK SMILES IDX 40 67 58 68 31 69 18 70 19 71 24 72 20 73 21 74 23 75 25 76
REMARK SMILES IDX 22 77 44 78 45 79 50 80 46 81 47 82 49 83 51 84 48 85 32 86
REMARK SMILES IDX 33 87 38 88 34 89 35 90 37 91 39 92 36 93
REMARK H PARENT 67 12 78 23 56 55 30 66
REMARK Flexibility Score: inf
ROOT
ATOM      1  O   UNL     1      13.376   0.795  -2.619  1.00  0.00    -0.458 OA
ENDROOT
BRANCH   1   2
ATOM      2  C   UNL     1      12.629  -0.153  -1.987  1.00  0.00     0.338 C 
ATOM      3  O   UNL     1      13.180  -1.111  -1.452  1.00  0.00    -0.246 OA
BRANCH   2   4
ATOM      4  C   UNL     1      11.143  -0.193  -2.151  1.00  0.00     0.060 A 
ATOM      5  C   UNL     1      10.405   0.880  -2.598  1.00  0.00     0.018 A 
ATOM      6  C   UNL     1      10.449  -1.399  -1.968  1.00  0.00     0.018 A 
ATOM      7  C   UNL     1       9.131   0.713  -3.104  1.00  0.00     0.027 A 
ATOM      8  C   UNL     1       9.088  -1.510  -2.324  1.00  0.00     0.027 A 
ATOM      9  C   UNL     1       8.431  -0.459  -2.967  1.00  0.00     0.041 A 
BRANCH   9  10
ATOM     10  N   UNL     1       7.135  -0.642  -3.468  1.00  0.00    -0.326 N 
ATOM     11  C   UNL     1       6.210   0.179  -4.037  1.00  0.00     0.228 C 
ATOM     12  H   UNL     1       6.824  -1.573  -3.391  1.00  0.00     0.169 HD
ATOM     13  O   UNL     1       5.167  -0.363  -4.430  1.00  0.00    -0.274 OA
BRANCH  11  14
ATOM     14  C   UNL     1       6.327   1.697  -4.211  1.00  0.00     0.095 C 
ATOM     15  C   UNL     1       7.170   2.123  -5.420  1.00  0.00     0.041 C 
ATOM     16  C   UNL     1       6.497   2.501  -2.908  1.00  0.00     0.095 C 
ATOM     17  C   UNL     1       7.538   3.576  -5.427  1.00  0.00    -0.030 C 
ATOM     18  C   UNL     1       6.647   4.018  -3.118  1.00  0.00     0.041 C 
ATOM     19  C   UNL     1       7.299   4.415  -4.411  1.00  0.00    -0.030 C 
BRANCH  16  20
ATOM     20  C   UNL     1       5.544   2.091  -1.776  1.00  0.00     0.228 C 
ATOM     21  O   UNL     1       5.989   1.427  -0.831  1.00  0.00    -0.274 OA
ATOM     22  N   UNL     1       4.239   2.487  -1.694  1.00  0.00    -0.326 N 
ATOM     23  H   UNL     1       3.751   2.188  -0.893  1.00  0.00     0.169 HD
BRANCH  22  24
ATOM     24  C   UNL     1       3.509   3.258  -2.597  1.00  0.00     0.048 A 
ATOM     25  C   UNL     1       3.063   4.513  -2.185  1.00  0.00     0.026 A 
ATOM     26  C   UNL     1       3.288   2.832  -3.901  1.00  0.00     0.111 A 
ATOM     27  C   UNL     1       2.550   5.407  -3.126  1.00  0.00     0.009 A 
ATOM     28  C   UNL     1       2.847   3.750  -4.856  1.00  0.00     0.271 A 
ATOM     29  C   UNL     1       2.479   5.044  -4.474  1.00  0.00     0.086 A 
BRANCH  28  30
ATOM     30  N   UNL     1       2.875   3.385  -6.277  1.00  0.00     0.062 N 
ATOM     31  O   UNL     1       2.365   4.176  -7.083  1.00  0.00    -0.258 OA
ATOM     32  O   UNL     1       3.448   2.333  -6.592  1.00  0.00    -0.258 OA
ENDBRANCH  28  30
ENDBRANCH  22  24
ENDBRANCH  16  20
ENDBRANCH  11  14
ENDBRANCH   9  10
ENDBRANCH   2   4
ENDBRANCH   1   2
BRANCH   1  33
ATOM     33  C   UNL     1      13.104   2.213  -2.707  1.00  0.00     0.275 C 
BRANCH  33  34
ATOM     34  C   UNL     1      12.740   2.683  -4.137  1.00  0.00     0.275 C 
BRANCH  34  35
ATOM     35  O   UNL     1      11.819   1.812  -4.832  1.00  0.00    -0.458 OA
BRANCH  35  36
ATOM     36  C   UNL     1      12.389   0.802  -5.548  1.00  0.00     0.338 C 
ATOM     37  O   UNL     1      13.571   0.656  -5.761  1.00  0.00    -0.246 OA
BRANCH  36  38
ATOM     38  C   UNL     1      11.360  -0.211  -5.917  1.00  0.00     0.060 A 
ATOM     39  C   UNL     1      11.644  -1.560  -5.679  1.00  0.00     0.016 A 
ATOM     40  C   UNL     1      10.136   0.132  -6.491  1.00  0.00     0.016 A 
ATOM     41  C   UNL     1      10.707  -2.557  -6.000  1.00  0.00     0.010 A 
ATOM     42  C   UNL     1       9.181  -0.866  -6.773  1.00  0.00     0.010 A 
ATOM     43  C   UNL     1       9.454  -2.228  -6.541  1.00  0.00    -0.014 A 
BRANCH  43  44
ATOM     44  C   UNL     1       8.452  -3.289  -6.902  1.00  0.00     0.031 A 
ATOM     45  C   UNL     1       8.043  -3.502  -8.339  1.00  0.00     0.074 A 
ATOM     46  C   UNL     1       7.869  -4.069  -5.965  1.00  0.00     0.049 A 
ATOM     47  N   UNL     1       7.173  -4.350  -8.834  1.00  0.00    -0.248 NA
ATOM     48  C   UNL     1       8.708  -2.669  -9.351  1.00  0.00     0.031 C 
ATOM     49  C   UNL     1       8.176  -4.047  -4.540  1.00  0.00     0.029 A 
ATOM     50  N   UNL     1       6.875  -5.019  -6.064  1.00  0.00    -0.354 N 
ATOM     51  C   UNL     1       7.194  -4.160 -10.209  1.00  0.00     0.074 A 
ATOM     52  C   UNL     1       8.122  -3.079 -10.468  1.00  0.00     0.031 C 
ATOM     53  C   UNL     1       7.345  -4.875  -3.886  1.00  0.00     0.029 A 
ATOM     54  C   UNL     1       6.452  -5.512  -4.849  1.00  0.00     0.049 A 
ATOM     55  H   UNL     1       6.502  -5.319  -6.924  1.00  0.00     0.167 HD
ATOM     56  C   UNL     1       6.532  -4.841 -11.174  1.00  0.00     0.037 A 
ATOM     57  C   UNL     1       5.461  -6.372  -4.533  1.00  0.00     0.037 A 
ATOM     58  C   UNL     1       5.628  -5.939 -10.949  1.00  0.00     0.049 A 
ATOM     59  C   UNL     1       4.662  -7.038  -5.622  1.00  0.00     0.074 A 
ATOM     60  C   UNL     1       5.003  -6.741 -11.890  1.00  0.00     0.029 A 
ATOM     61  N   UNL     1       5.200  -6.376  -9.708  1.00  0.00    -0.354 N 
ATOM     62  N   UNL     1       4.789  -6.930  -6.921  1.00  0.00    -0.248 NA
ATOM     63  C   UNL     1       3.602  -7.970  -5.202  1.00  0.00     0.031 C 
ATOM     64  C   UNL     1       4.151  -7.624 -11.221  1.00  0.00     0.029 A 
ATOM     65  C   UNL     1       4.281  -7.403  -9.862  1.00  0.00     0.049 A 
ATOM     66  H   UNL     1       5.504  -6.012  -8.845  1.00  0.00     0.167 HD
ATOM     67  C   UNL     1       3.859  -7.807  -7.468  1.00  0.00     0.074 A 
ATOM     68  C   UNL     1       3.179  -8.447  -6.364  1.00  0.00     0.031 C 
ATOM     69  C   UNL     1       3.604  -8.058  -8.774  1.00  0.00     0.037 A 
BRANCH  56  70
ATOM     70  C   UNL     1       6.768  -4.432 -12.597  1.00  0.00     0.057 A 
ATOM     71  C   UNL     1       7.955  -4.757 -13.265  1.00  0.00     0.134 A 
ATOM     72  C   UNL     1       5.763  -3.788 -13.328  1.00  0.00     0.134 A 
ATOM     73  F   UNL     1       8.955  -5.371 -12.616  1.00  0.00    -0.206 F 
ATOM     74  C   UNL     1       8.139  -4.444 -14.612  1.00  0.00     0.040 A 
ATOM     75  C   UNL     1       5.927  -3.489 -14.681  1.00  0.00     0.040 A 
ATOM     76  F   UNL     1       4.599  -3.463 -12.747  1.00  0.00    -0.206 F 
ATOM     77  C   UNL     1       7.119  -3.816 -15.326  1.00  0.00     0.006 A 
ENDBRANCH  56  70
BRANCH  57  78
ATOM     78  C   UNL     1       5.140  -6.666  -3.111  1.00  0.00     0.057 A 
ATOM     79  C   UNL     1       5.369  -7.931  -2.556  1.00  0.00     0.134 A 
ATOM     80  C   UNL     1       4.511  -5.712  -2.302  1.00  0.00     0.134 A 
ATOM     81  F   UNL     1       5.944  -8.895  -3.289  1.00  0.00    -0.206 F 
ATOM     82  C   UNL     1       4.950  -8.249  -1.262  1.00  0.00     0.040 A 
ATOM     83  C   UNL     1       4.106  -6.009  -0.999  1.00  0.00     0.040 A 
ATOM     84  F   UNL     1       4.265  -4.481  -2.772  1.00  0.00    -0.206 F 
ATOM     85  C   UNL     1       4.314  -7.286  -0.481  1.00  0.00     0.006 A 
ENDBRANCH  57  78
BRANCH  69  86
ATOM     86  C   UNL     1       2.566  -9.092  -9.101  1.00  0.00     0.057 A 
ATOM     87  C   UNL     1       1.199  -8.853  -8.907  1.00  0.00     0.134 A 
ATOM     88  C   UNL     1       2.931 -10.321  -9.666  1.00  0.00     0.134 A 
ATOM     89  F   UNL     1       0.781  -7.704  -8.355  1.00  0.00    -0.206 F 
ATOM     90  C   UNL     1       0.235  -9.803  -9.252  1.00  0.00     0.040 A 
ATOM     91  C   UNL     1       1.975 -11.268 -10.039  1.00  0.00     0.040 A 
ATOM     92  F   UNL     1       4.222 -10.614  -9.884  1.00  0.00    -0.206 F 
ATOM     93  C   UNL     1       0.622 -11.011  -9.828  1.00  0.00     0.006 A 
ENDBRANCH  69  86
ENDBRANCH  43  44
ENDBRANCH  36  38
ENDBRANCH  35  36
ENDBRANCH  34  35
ENDBRANCH  33  34
ENDBRANCH   1  33
TORSDOF 16
