REMARK SMILES CC(C)(O)C#Cc1ccc(C(=O)N[C@@H](CCC(N)=O)C(=O)OCCOC(=O)c2ccc(-c3c4nc(c(-c5c(F)cccc5F)c5ccc([nH]5)c(-c5c(F)cccc5F)c5nc(c(-c6c(F)cccc6F)c6ccc3[nH]6)C=C5)C=C4)cc2)s1
REMARK SMILES IDX 22 1 20 2 21 3 14 4 13 5 11 6 12 7 10 9 7 10 8 11 82 12 9 13
REMARK SMILES IDX 6 14 5 15 2 16 1 17 3 18 4 19 15 21 16 22 17 23 18 24 19 25
REMARK SMILES IDX 23 28 24 29 25 30 26 31 27 32 28 33 29 34 81 35 30 36 80 37
REMARK SMILES IDX 31 38 32 39 33 40 74 41 34 42 79 43 73 44 75 45 35 46 78 47
REMARK SMILES IDX 72 48 71 49 36 51 62 52 45 53 61 54 46 55 49 56 60 57 76 58
REMARK SMILES IDX 47 59 48 60 59 62 77 63 50 64 37 65 38 66 43 67 39 68 40 69
REMARK SMILES IDX 42 70 44 71 41 72 63 73 64 74 69 75 65 76 66 77 68 78 70 79
REMARK SMILES IDX 67 80 51 81 52 82 57 83 53 84 54 85 56 86 58 87 55 88
REMARK H PARENT 13 8 4 20 18 26 18 27 75 50 49 61
REMARK Flexibility Score: inf
ROOT
ATOM      1  O   UNL     1       3.202  -8.160  -5.701  1.00  0.00    -0.461 OA
ENDROOT
BRANCH   1   2
ATOM      2  C   UNL     1       2.419  -7.412  -4.886  1.00  0.00     0.328 C 
ATOM      3  O   UNL     1       2.256  -7.618  -3.686  1.00  0.00    -0.250 OA
BRANCH   2   4
ATOM      4  C   UNL     1       1.616  -6.357  -5.652  1.00  0.00     0.193 C 
BRANCH   4   5
ATOM      5  N   UNL     1       2.150  -5.824  -6.913  1.00  0.00    -0.338 N 
ATOM      6  C   UNL     1       2.398  -4.534  -7.344  1.00  0.00     0.262 C 
ATOM      7  O   UNL     1       2.901  -4.416  -8.464  1.00  0.00    -0.268 OA
ATOM      8  H   UNL     1       2.373  -6.517  -7.576  1.00  0.00     0.164 HD
BRANCH   6   9
ATOM      9  C   UNL     1       2.178  -3.371  -6.494  1.00  0.00     0.093 A 
ATOM     10  C   UNL     1       1.758  -2.026  -4.506  1.00  0.00     0.078 A 
ATOM     11  C   UNL     1       2.657  -1.396  -5.335  1.00  0.00     0.030 A 
ATOM     12  S   UNL     1       0.903  -3.227  -5.362  1.00  0.00    -0.121 S 
ATOM     13  C   UNL     1       2.874  -2.168  -6.523  1.00  0.00     0.027 A 
BRANCH  10  14
ATOM     14  C   UNL     1       1.472  -1.731  -3.149  1.00  0.00    -0.053 C 
ATOM     15  C   UNL     1       1.038  -1.515  -1.939  1.00  0.00    -0.063 C 
BRANCH  15  16
ATOM     16  C   UNL     1       0.531  -1.264  -0.528  1.00  0.00     0.120 C 
ATOM     17  C   UNL     1       1.006   0.104  -0.044  1.00  0.00     0.056 C 
ATOM     18  C   UNL     1       1.011  -2.378   0.399  1.00  0.00     0.056 C 
BRANCH  16  19
ATOM     19  O   UNL     1      -0.893  -1.274  -0.562  1.00  0.00    -0.378 OA
ATOM     20  H   UNL     1      -1.239  -1.116   0.330  1.00  0.00     0.212 HD
ENDBRANCH  16  19
ENDBRANCH  15  16
ENDBRANCH  10  14
ENDBRANCH   6   9
ENDBRANCH   4   5
BRANCH   4  21
ATOM     21  C   UNL     1       0.192  -6.896  -5.867  1.00  0.00     0.047 C 
BRANCH  21  22
ATOM     22  C   UNL     1       0.062  -7.980  -6.948  1.00  0.00     0.102 C 
BRANCH  22  23
ATOM     23  C   UNL     1       0.789  -9.281  -6.680  1.00  0.00     0.217 C 
ATOM     24  N   UNL     1       0.518  -9.891  -5.494  1.00  0.00    -0.370 N 
ATOM     25  O   UNL     1       1.570  -9.788  -7.478  1.00  0.00    -0.275 OA
ATOM     26  H   UNL     1      -0.111  -9.477  -4.860  1.00  0.00     0.159 HD
ATOM     27  H   UNL     1       0.950 -10.747  -5.271  1.00  0.00     0.159 HD
ENDBRANCH  22  23
ENDBRANCH  21  22
ENDBRANCH   4  21
ENDBRANCH   2   4
ENDBRANCH   1   2
BRANCH   1  28
ATOM     28  C   UNL     1       4.018  -9.148  -5.054  1.00  0.00     0.274 C 
BRANCH  28  29
ATOM     29  C   UNL     1       5.436  -8.629  -4.933  1.00  0.00     0.275 C 
BRANCH  29  30
ATOM     30  O   UNL     1       5.475  -7.475  -4.092  1.00  0.00    -0.458 OA
BRANCH  30  31
ATOM     31  C   UNL     1       5.279  -6.306  -4.745  1.00  0.00     0.338 C 
ATOM     32  O   UNL     1       4.827  -6.143  -5.862  1.00  0.00    -0.246 OA
BRANCH  31  33
ATOM     33  C   UNL     1       5.952  -5.229  -4.027  1.00  0.00     0.060 A 
ATOM     34  C   UNL     1       5.877  -3.964  -4.621  1.00  0.00     0.016 A 
ATOM     35  C   UNL     1       6.934  -5.567  -3.090  1.00  0.00     0.016 A 
ATOM     36  C   UNL     1       6.930  -3.103  -4.444  1.00  0.00     0.010 A 
ATOM     37  C   UNL     1       7.998  -4.720  -2.938  1.00  0.00     0.010 A 
ATOM     38  C   UNL     1       8.014  -3.540  -3.681  1.00  0.00    -0.014 A 
BRANCH  38  39
ATOM     39  C   UNL     1       9.164  -2.675  -3.592  1.00  0.00     0.031 A 
ATOM     40  C   UNL     1       8.941  -1.526  -2.688  1.00  0.00     0.074 A 
ATOM     41  C   UNL     1      10.339  -3.014  -4.151  1.00  0.00     0.049 A 
ATOM     42  N   UNL     1       8.977  -0.266  -2.963  1.00  0.00    -0.248 NA
ATOM     43  C   UNL     1       8.452  -1.836  -1.331  1.00  0.00     0.031 C 
ATOM     44  C   UNL     1      10.704  -4.295  -4.767  1.00  0.00     0.029 A 
ATOM     45  N   UNL     1      11.506  -2.323  -4.163  1.00  0.00    -0.354 N 
ATOM     46  C   UNL     1       8.725   0.374  -1.754  1.00  0.00     0.074 A 
ATOM     47  C   UNL     1       8.210  -0.618  -0.853  1.00  0.00     0.031 C 
ATOM     48  C   UNL     1      12.051  -4.365  -4.870  1.00  0.00     0.029 A 
ATOM     49  C   UNL     1      12.620  -3.098  -4.442  1.00  0.00     0.049 A 
ATOM     50  H   UNL     1      11.557  -1.355  -3.988  1.00  0.00     0.167 HD
ATOM     51  C   UNL     1       9.244   1.602  -1.493  1.00  0.00     0.037 A 
ATOM     52  C   UNL     1      13.909  -2.741  -4.230  1.00  0.00     0.037 A 
ATOM     53  C   UNL     1       9.580   2.297  -2.708  1.00  0.00     0.049 A 
ATOM     54  C   UNL     1      13.944  -1.269  -4.028  1.00  0.00     0.074 A 
ATOM     55  C   UNL     1       8.871   2.693  -3.826  1.00  0.00     0.029 A 
ATOM     56  N   UNL     1      10.905   2.368  -3.061  1.00  0.00    -0.354 N 
ATOM     57  N   UNL     1      13.704  -0.391  -4.962  1.00  0.00    -0.248 NA
ATOM     58  C   UNL     1      13.821  -0.770  -2.665  1.00  0.00     0.031 C 
ATOM     59  C   UNL     1       9.776   2.537  -4.917  1.00  0.00     0.029 A 
ATOM     60  C   UNL     1      10.994   2.094  -4.400  1.00  0.00     0.049 A 
ATOM     61  H   UNL     1      11.656   2.577  -2.459  1.00  0.00     0.167 HD
ATOM     62  C   UNL     1      13.004   0.626  -4.327  1.00  0.00     0.074 A 
ATOM     63  C   UNL     1      13.198   0.387  -2.900  1.00  0.00     0.031 C 
ATOM     64  C   UNL     1      12.102   1.393  -5.008  1.00  0.00     0.037 A 
BRANCH  51  65
ATOM     65  C   UNL     1       9.826   1.973  -0.150  1.00  0.00     0.057 A 
ATOM     66  C   UNL     1      10.244   3.296   0.064  1.00  0.00     0.134 A 
ATOM     67  C   UNL     1      10.266   1.044   0.821  1.00  0.00     0.134 A 
ATOM     68  F   UNL     1       9.903   4.271  -0.793  1.00  0.00    -0.206 F 
ATOM     69  C   UNL     1      11.102   3.652   1.111  1.00  0.00     0.040 A 
ATOM     70  C   UNL     1      11.076   1.399   1.901  1.00  0.00     0.040 A 
ATOM     71  F   UNL     1      10.027  -0.269   0.733  1.00  0.00    -0.206 F 
ATOM     72  C   UNL     1      11.528   2.700   2.028  1.00  0.00     0.006 A 
ENDBRANCH  51  65
BRANCH  52  73
ATOM     73  C   UNL     1      15.042  -3.618  -3.862  1.00  0.00     0.057 A 
ATOM     74  C   UNL     1      16.367  -3.206  -4.043  1.00  0.00     0.134 A 
ATOM     75  C   UNL     1      14.854  -4.783  -3.095  1.00  0.00     0.134 A 
ATOM     76  F   UNL     1      16.643  -2.081  -4.718  1.00  0.00    -0.206 F 
ATOM     77  C   UNL     1      17.446  -3.908  -3.487  1.00  0.00     0.040 A 
ATOM     78  C   UNL     1      15.921  -5.498  -2.544  1.00  0.00     0.040 A 
ATOM     79  F   UNL     1      13.625  -5.218  -2.783  1.00  0.00    -0.206 F 
ATOM     80  C   UNL     1      17.224  -5.054  -2.730  1.00  0.00     0.006 A 
ENDBRANCH  52  73
BRANCH  64  81
ATOM     81  C   UNL     1      12.097   1.298  -6.508  1.00  0.00     0.057 A 
ATOM     82  C   UNL     1      11.768   0.133  -7.219  1.00  0.00     0.134 A 
ATOM     83  C   UNL     1      12.284   2.464  -7.258  1.00  0.00     0.134 A 
ATOM     84  F   UNL     1      11.469  -1.006  -6.582  1.00  0.00    -0.206 F 
ATOM     85  C   UNL     1      11.676   0.122  -8.614  1.00  0.00     0.040 A 
ATOM     86  C   UNL     1      12.161   2.474  -8.649  1.00  0.00     0.040 A 
ATOM     87  F   UNL     1      12.543   3.629  -6.642  1.00  0.00    -0.206 F 
ATOM     88  C   UNL     1      11.867   1.298  -9.332  1.00  0.00     0.006 A 
ENDBRANCH  64  81
ENDBRANCH  38  39
ENDBRANCH  31  33
ENDBRANCH  30  31
ENDBRANCH  29  30
ENDBRANCH  28  29
ENDBRANCH   1  28
TORSDOF 19
