REMARK SMILES O=C(OCCOC(=O)[C@@H]1CCCC[C@@H]1NS(=O)(=O)c1ccc2ccccc2c1)c1ccc(-c2c3nc(c(-c4c(F)cccc4F)c4ccc([nH]4)c(-c4c(F)cccc4F)c4nc(c(-c5c(F)cccc5F)c5ccc2[nH]5)C=C4)C=C3)cc1
REMARK SMILES IDX 5 1 4 2 3 3 2 4 1 5 29 6 30 7 82 8 31 9 81 10 32 11 33 12
REMARK SMILES IDX 34 13 75 14 35 15 80 16 74 17 76 18 36 19 79 20 73 21 72 22
REMARK SMILES IDX 37 24 63 25 46 26 62 27 47 28 50 29 61 30 77 31 48 32 49 33
REMARK SMILES IDX 60 35 78 36 51 37 38 38 39 39 44 40 40 41 41 42 43 43 45 44
REMARK SMILES IDX 42 45 64 46 65 47 70 48 66 49 67 50 69 51 71 52 68 53 52 54
REMARK SMILES IDX 53 55 58 56 54 57 55 58 57 59 59 60 56 61 6 62 7 63 8 64
REMARK SMILES IDX 9 65 10 66 14 67 11 68 13 69 12 70 15 71 16 73 17 74 18 75
REMARK SMILES IDX 19 76 20 77 28 78 21 79 27 80 22 81 26 82 23 83 25 84 24 85
REMARK H PARENT 76 23 50 34 15 72
REMARK Flexibility Score: inf
ROOT
ATOM      1  C   UNL     1       4.897  -1.401  -0.347  1.00  0.00     0.274 C 
ENDROOT
BRANCH   1   2
ATOM      2  C   UNL     1       5.097  -0.415   0.821  1.00  0.00     0.275 C 
BRANCH   2   3
ATOM      3  O   UNL     1       4.103   0.585   1.080  1.00  0.00    -0.458 OA
BRANCH   3   4
ATOM      4  C   UNL     1       4.089   1.840   0.572  1.00  0.00     0.338 C 
ATOM      5  O   UNL     1       3.540   2.767   1.158  1.00  0.00    -0.246 OA
BRANCH   4   6
ATOM      6  C   UNL     1       4.538   2.035  -0.825  1.00  0.00     0.060 A 
ATOM      7  C   UNL     1       5.758   1.565  -1.314  1.00  0.00     0.016 A 
ATOM      8  C   UNL     1       3.667   2.718  -1.683  1.00  0.00     0.016 A 
ATOM      9  C   UNL     1       6.022   1.580  -2.676  1.00  0.00     0.010 A 
ATOM     10  C   UNL     1       3.966   2.813  -3.041  1.00  0.00     0.010 A 
ATOM     11  C   UNL     1       5.118   2.188  -3.545  1.00  0.00    -0.014 A 
BRANCH  11  12
ATOM     12  C   UNL     1       5.548   2.415  -4.932  1.00  0.00     0.031 A 
ATOM     13  C   UNL     1       6.187   3.740  -5.193  1.00  0.00     0.074 A 
ATOM     14  C   UNL     1       5.449   1.462  -5.876  1.00  0.00     0.049 A 
ATOM     15  N   UNL     1       6.704   4.212  -6.290  1.00  0.00    -0.248 NA
ATOM     16  C   UNL     1       6.248   4.660  -4.042  1.00  0.00     0.031 C 
ATOM     17  C   UNL     1       4.881   0.127  -5.685  1.00  0.00     0.029 A 
ATOM     18  N   UNL     1       5.836   1.471  -7.189  1.00  0.00    -0.354 N 
ATOM     19  C   UNL     1       7.149   5.483  -5.957  1.00  0.00     0.074 A 
ATOM     20  C   UNL     1       6.787   5.733  -4.584  1.00  0.00     0.031 C 
ATOM     21  C   UNL     1       4.938  -0.548  -6.849  1.00  0.00     0.029 A 
ATOM     22  C   UNL     1       5.556   0.304  -7.860  1.00  0.00     0.049 A 
ATOM     23  H   UNL     1       6.275   2.243  -7.615  1.00  0.00     0.167 HD
ATOM     24  C   UNL     1       7.832   6.357  -6.725  1.00  0.00     0.037 A 
ATOM     25  C   UNL     1       5.790  -0.022  -9.146  1.00  0.00     0.037 A 
ATOM     26  C   UNL     1       8.175   6.089  -8.088  1.00  0.00     0.049 A 
ATOM     27  C   UNL     1       6.516   0.985 -10.005  1.00  0.00     0.074 A 
ATOM     28  C   UNL     1       8.826   6.895  -8.997  1.00  0.00     0.029 A 
ATOM     29  N   UNL     1       7.876   4.895  -8.734  1.00  0.00    -0.354 N 
ATOM     30  N   UNL     1       6.960   2.178  -9.678  1.00  0.00    -0.248 NA
ATOM     31  C   UNL     1       6.790   0.604 -11.396  1.00  0.00     0.031 C 
ATOM     32  C   UNL     1       8.902   6.193 -10.206  1.00  0.00     0.029 A 
ATOM     33  C   UNL     1       8.325   4.940 -10.037  1.00  0.00     0.049 A 
ATOM     34  H   UNL     1       7.412   4.130  -8.323  1.00  0.00     0.167 HD
ATOM     35  C   UNL     1       7.587   2.679 -10.810  1.00  0.00     0.074 A 
ATOM     36  C   UNL     1       7.473   1.655 -11.832  1.00  0.00     0.031 C 
ATOM     37  C   UNL     1       8.201   3.873 -11.000  1.00  0.00     0.037 A 
BRANCH  24  38
ATOM     38  C   UNL     1       8.174   7.657  -6.067  1.00  0.00     0.057 A 
ATOM     39  C   UNL     1       9.134   7.728  -5.045  1.00  0.00     0.134 A 
ATOM     40  C   UNL     1       7.402   8.797  -6.314  1.00  0.00     0.134 A 
ATOM     41  F   UNL     1       9.865   6.648  -4.725  1.00  0.00    -0.206 F 
ATOM     42  C   UNL     1       9.267   8.867  -4.251  1.00  0.00     0.040 A 
ATOM     43  C   UNL     1       7.546   9.951  -5.542  1.00  0.00     0.040 A 
ATOM     44  F   UNL     1       6.453   8.785  -7.262  1.00  0.00    -0.206 F 
ATOM     45  C   UNL     1       8.466   9.980  -4.494  1.00  0.00     0.006 A 
ENDBRANCH  24  38
BRANCH  25  46
ATOM     46  C   UNL     1       5.362  -1.338  -9.692  1.00  0.00     0.057 A 
ATOM     47  C   UNL     1       6.290  -2.323 -10.050  1.00  0.00     0.134 A 
ATOM     48  C   UNL     1       4.007  -1.637  -9.890  1.00  0.00     0.134 A 
ATOM     49  F   UNL     1       7.604  -2.097  -9.900  1.00  0.00    -0.206 F 
ATOM     50  C   UNL     1       5.892  -3.544 -10.602  1.00  0.00     0.040 A 
ATOM     51  C   UNL     1       3.593  -2.861 -10.424  1.00  0.00     0.040 A 
ATOM     52  F   UNL     1       3.062  -0.743  -9.564  1.00  0.00    -0.206 F 
ATOM     53  C   UNL     1       4.539  -3.817 -10.789  1.00  0.00     0.006 A 
ENDBRANCH  25  46
BRANCH  37  54
ATOM     54  C   UNL     1       8.818   4.119 -12.340  1.00  0.00     0.057 A 
ATOM     55  C   UNL     1       8.041   4.489 -13.442  1.00  0.00     0.134 A 
ATOM     56  C   UNL     1      10.210   4.100 -12.491  1.00  0.00     0.134 A 
ATOM     57  F   UNL     1       6.703   4.515 -13.354  1.00  0.00    -0.206 F 
ATOM     58  C   UNL     1       8.631   4.838 -14.656  1.00  0.00     0.040 A 
ATOM     59  C   UNL     1      10.811   4.465 -13.693  1.00  0.00     0.040 A 
ATOM     60  F   UNL     1      11.002   3.761 -11.463  1.00  0.00    -0.206 F 
ATOM     61  C   UNL     1      10.020   4.839 -14.779  1.00  0.00     0.006 A 
ENDBRANCH  37  54
ENDBRANCH  11  12
ENDBRANCH   4   6
ENDBRANCH   3   4
ENDBRANCH   2   3
ENDBRANCH   1   2
BRANCH   1  62
ATOM     62  O   UNL     1       4.182  -1.033  -1.537  1.00  0.00    -0.462 OA
BRANCH  62  63
ATOM     63  C   UNL     1       2.832  -0.928  -1.409  1.00  0.00     0.310 C 
ATOM     64  O   UNL     1       2.260  -0.695  -0.357  1.00  0.00    -0.252 OA
BRANCH  63  65
ATOM     65  C   UNL     1       2.119  -1.046  -2.745  1.00  0.00     0.117 C 
ATOM     66  C   UNL     1       1.837   0.370  -3.224  1.00  0.00     0.017 C 
ATOM     67  C   UNL     1       0.871  -1.946  -2.713  1.00  0.00     0.084 C 
ATOM     68  C   UNL     1       1.020   0.470  -4.494  1.00  0.00     0.001 C 
ATOM     69  C   UNL     1       0.027  -1.773  -3.998  1.00  0.00     0.021 C 
ATOM     70  C   UNL     1      -0.268  -0.313  -4.352  1.00  0.00     0.002 C 
BRANCH  67  71
ATOM     71  N   UNL     1      -0.007  -1.694  -1.565  1.00  0.00    -0.207 NA
ATOM     72  H   UNL     1      -0.869  -1.304  -1.947  1.00  0.00     0.141 HD
BRANCH  71  73
ATOM     73  S   UNL     1      -0.473  -2.912  -0.510  1.00  0.00     0.240 S 
ATOM     74  O   UNL     1      -1.519  -2.352   0.320  1.00  0.00    -0.207 OA
ATOM     75  O   UNL     1      -0.687  -4.113  -1.287  1.00  0.00    -0.207 OA
BRANCH  73  76
ATOM     76  C   UNL     1       0.952  -3.178   0.524  1.00  0.00     0.083 A 
ATOM     77  C   UNL     1       1.115  -2.401   1.675  1.00  0.00     0.022 A 
ATOM     78  C   UNL     1       1.896  -4.156   0.191  1.00  0.00     0.030 A 
ATOM     79  C   UNL     1       2.266  -2.548   2.454  1.00  0.00     0.010 A 
ATOM     80  C   UNL     1       3.062  -4.304   0.966  1.00  0.00    -0.017 A 
ATOM     81  C   UNL     1       3.254  -3.480   2.104  1.00  0.00    -0.018 A 
ATOM     82  C   UNL     1       4.080  -5.201   0.598  1.00  0.00     0.009 A 
ATOM     83  C   UNL     1       4.458  -3.566   2.824  1.00  0.00     0.009 A 
ATOM     84  C   UNL     1       5.279  -5.258   1.314  1.00  0.00     0.001 A 
ATOM     85  C   UNL     1       5.471  -4.438   2.421  1.00  0.00     0.001 A 
ENDBRANCH  73  76
ENDBRANCH  71  73
ENDBRANCH  67  71
ENDBRANCH  63  65
ENDBRANCH  62  63
ENDBRANCH   1  62
TORSDOF 14
