REMARK SMILES O=C(CC1(CC(=O)OCCOC(=O)c2ccc(-c3c4nc(c(-c5c(F)cccc5F)c5ccc([nH]5)c(-c5c(F)cccc5F)c5nc(c(-c6c(F)cccc6F)c6ccc3[nH]6)C=C5)C=C4)cc2)CCCCC1)Nc1ccc2ccccc2n1
REMARK SMILES IDX 9 1 8 2 6 3 7 4 5 5 4 6 68 7 72 8 69 9 71 10 70 11 3 12 2 13
REMARK SMILES IDX 1 14 73 15 74 17 75 18 83 19 76 20 82 21 77 22 81 23 78 24
REMARK SMILES IDX 80 25 79 26 10 27 11 28 12 29 13 30 14 31 15 32 67 33 16 34
REMARK SMILES IDX 66 35 17 36 18 37 19 38 60 39 20 40 65 41 59 42 61 43 21 44
REMARK SMILES IDX 64 45 58 46 57 47 22 49 48 50 31 51 47 52 32 53 35 54 46 55
REMARK SMILES IDX 62 56 33 57 34 58 45 60 63 61 36 62 23 63 24 64 29 65 25 66
REMARK SMILES IDX 26 67 28 68 30 69 27 70 49 71 50 72 55 73 51 74 52 75 54 76
REMARK SMILES IDX 56 77 53 78 37 79 38 80 43 81 39 82 40 83 42 84 44 85 41 86
REMARK H PARENT 73 16 61 48 35 59
REMARK Flexibility Score: inf
ROOT
ATOM      1  C   UNL     1       0.583  -4.485  -1.939  1.00  0.00     0.274 C 
ENDROOT
BRANCH   1   2
ATOM      2  O   UNL     1       1.786  -3.763  -1.600  1.00  0.00    -0.462 OA
BRANCH   2   3
ATOM      3  C   UNL     1       2.223  -2.891  -2.529  1.00  0.00     0.306 C 
ATOM      4  O   UNL     1       1.723  -2.755  -3.643  1.00  0.00    -0.252 OA
BRANCH   3   5
ATOM      5  C   UNL     1       3.405  -2.041  -2.118  1.00  0.00     0.130 C 
BRANCH   5   6
ATOM      6  C   UNL     1       4.237  -2.219  -0.805  1.00  0.00    -0.010 C 
ATOM      7  C   UNL     1       5.594  -1.459  -0.984  1.00  0.00     0.008 C 
ATOM      8  C   UNL     1       4.575  -3.708  -0.527  1.00  0.00     0.008 C 
ATOM      9  C   UNL     1       6.542  -2.098  -2.000  1.00  0.00     0.001 C 
ATOM     10  C   UNL     1       5.418  -4.335  -1.621  1.00  0.00     0.001 C 
ATOM     11  C   UNL     1       6.738  -3.589  -1.756  1.00  0.00     0.000 C 
BRANCH   6  12
ATOM     12  C   UNL     1       3.580  -1.717   0.507  1.00  0.00     0.108 C 
BRANCH  12  13
ATOM     13  C   UNL     1       2.922  -0.368   0.629  1.00  0.00     0.226 C 
ATOM     14  O   UNL     1       2.404  -0.050   1.700  1.00  0.00    -0.275 OA
ATOM     15  N   UNL     1       2.958   0.426  -0.490  1.00  0.00    -0.311 N 
ATOM     16  H   UNL     1       3.683   0.312  -1.145  1.00  0.00     0.171 HD
BRANCH  15  17
ATOM     17  C   UNL     1       1.983   1.387  -0.706  1.00  0.00     0.133 A 
ATOM     18  C   UNL     1       1.781   2.256   0.193  1.00  0.00     0.048 A 
ATOM     19  N   UNL     1       0.709   1.049  -1.150  1.00  0.00    -0.231 NA
ATOM     20  C   UNL     1       0.416   1.936   0.393  1.00  0.00     0.014 A 
ATOM     21  C   UNL     1      -1.210   0.930  -1.446  1.00  0.00     0.073 A 
ATOM     22  C   UNL     1      -1.375   1.334  -0.386  1.00  0.00     0.000 A 
ATOM     23  C   UNL     1      -2.494   0.571  -2.367  1.00  0.00     0.029 A 
ATOM     24  C   UNL     1      -2.988   1.106  -0.001  1.00  0.00     0.010 A 
ATOM     25  C   UNL     1      -3.840   0.511  -2.041  1.00  0.00     0.002 A 
ATOM     26  C   UNL     1      -4.099   0.726  -0.740  1.00  0.00     0.001 A 
ENDBRANCH  15  17
ENDBRANCH  12  13
ENDBRANCH   6  12
ENDBRANCH   5   6
ENDBRANCH   3   5
ENDBRANCH   2   3
ENDBRANCH   1   2
BRANCH   1  27
ATOM     27  C   UNL     1      -0.534  -4.060  -0.996  1.00  0.00     0.275 C 
BRANCH  27  28
ATOM     28  O   UNL     1      -0.682  -2.634  -1.081  1.00  0.00    -0.458 OA
BRANCH  28  29
ATOM     29  C   UNL     1      -0.157  -1.939  -0.044  1.00  0.00     0.338 C 
ATOM     30  O   UNL     1       0.280  -2.384   1.000  1.00  0.00    -0.246 OA
BRANCH  29  31
ATOM     31  C   UNL     1      -0.258  -0.511  -0.366  1.00  0.00     0.060 A 
ATOM     32  C   UNL     1       0.062  -0.051  -2.284  1.00  0.00     0.016 A 
ATOM     33  C   UNL     1      -0.833   0.611   1.165  1.00  0.00     0.016 A 
ATOM     34  C   UNL     1      -0.094   1.943  -2.515  1.00  0.00     0.010 A 
ATOM     35  C   UNL     1      -1.241   2.572   0.853  1.00  0.00     0.010 A 
ATOM     36  C   UNL     1      -0.717   3.088  -1.013  1.00  0.00    -0.014 A 
BRANCH  36  37
ATOM     37  C   UNL     1      -0.684   4.590  -1.301  1.00  0.00     0.031 A 
ATOM     38  C   UNL     1      -0.297   5.598  -0.235  1.00  0.00     0.074 A 
ATOM     39  C   UNL     1      -0.921   5.043  -2.551  1.00  0.00     0.049 A 
ATOM     40  N   UNL     1      -0.418   6.905  -0.242  1.00  0.00    -0.248 NA
ATOM     41  C   UNL     1       0.260   5.106   1.025  1.00  0.00     0.031 C 
ATOM     42  C   UNL     1      -1.343   4.230  -3.687  1.00  0.00     0.029 A 
ATOM     43  N   UNL     1      -0.790   6.295  -3.105  1.00  0.00    -0.354 N 
ATOM     44  C   UNL     1      -0.058   7.334   1.036  1.00  0.00     0.074 A 
ATOM     45  C   UNL     1       0.284   6.171   1.797  1.00  0.00     0.031 C 
ATOM     46  C   UNL     1      -1.203   4.924  -4.822  1.00  0.00     0.029 A 
ATOM     47  C   UNL     1      -0.978   6.315  -4.471  1.00  0.00     0.049 A 
ATOM     48  H   UNL     1      -0.582   7.100  -2.578  1.00  0.00     0.167 HD
ATOM     49  C   UNL     1      -0.012   8.585   1.545  1.00  0.00     0.037 A 
ATOM     50  C   UNL     1      -1.082   7.339  -5.339  1.00  0.00     0.037 A 
ATOM     51  C   UNL     1      -0.283   9.747   0.755  1.00  0.00     0.049 A 
ATOM     52  C   UNL     1      -1.085   8.722  -4.761  1.00  0.00     0.074 A 
ATOM     53  C   UNL     1      -0.325  11.071   1.142  1.00  0.00     0.029 A 
ATOM     54  N   UNL     1      -0.542   9.707  -0.608  1.00  0.00    -0.354 N 
ATOM     55  N   UNL     1      -0.888   9.096  -3.518  1.00  0.00    -0.248 NA
ATOM     56  C   UNL     1      -1.405   9.818  -5.680  1.00  0.00     0.031 C 
ATOM     57  C   UNL     1      -0.663  11.830   0.018  1.00  0.00     0.029 A 
ATOM     58  C   UNL     1      -0.760  10.986  -1.080  1.00  0.00     0.049 A 
ATOM     59  H   UNL     1      -0.568   8.890  -1.156  1.00  0.00     0.167 HD
ATOM     60  C   UNL     1      -1.074  10.469  -3.500  1.00  0.00     0.074 A 
ATOM     61  C   UNL     1      -1.363  10.864  -4.867  1.00  0.00     0.031 C 
ATOM     62  C   UNL     1      -1.031  11.327  -2.452  1.00  0.00     0.037 A 
BRANCH  49  63
ATOM     63  C   UNL     1       0.245   8.719   3.025  1.00  0.00     0.057 A 
ATOM     64  C   UNL     1       1.472   8.396   3.623  1.00  0.00     0.134 A 
ATOM     65  C   UNL     1      -0.801   9.097   3.879  1.00  0.00     0.134 A 
ATOM     66  F   UNL     1       2.508   7.988   2.874  1.00  0.00    -0.206 F 
ATOM     67  C   UNL     1       1.632   8.392   5.013  1.00  0.00     0.040 A 
ATOM     68  C   UNL     1      -0.641   9.134   5.266  1.00  0.00     0.040 A 
ATOM     69  F   UNL     1      -2.006   9.413   3.381  1.00  0.00    -0.206 F 
ATOM     70  C   UNL     1       0.573   8.764   5.838  1.00  0.00     0.006 A 
ENDBRANCH  49  63
BRANCH  50  71
ATOM     71  C   UNL     1      -1.351   7.088  -6.786  1.00  0.00     0.057 A 
ATOM     72  C   UNL     1      -0.453   7.489  -7.782  1.00  0.00     0.134 A 
ATOM     73  C   UNL     1      -2.505   6.410  -7.212  1.00  0.00     0.134 A 
ATOM     74  F   UNL     1       0.651   8.178  -7.460  1.00  0.00    -0.206 F 
ATOM     75  C   UNL     1      -0.682   7.209  -9.135  1.00  0.00     0.040 A 
ATOM     76  C   UNL     1      -2.721   6.081  -8.551  1.00  0.00     0.040 A 
ATOM     77  F   UNL     1      -3.426   6.012  -6.322  1.00  0.00    -0.206 F 
ATOM     78  C   UNL     1      -1.809   6.485  -9.519  1.00  0.00     0.006 A 
ENDBRANCH  50  71
BRANCH  62  79
ATOM     79  C   UNL     1      -1.241  12.773  -2.763  1.00  0.00     0.057 A 
ATOM     80  C   UNL     1      -2.501  13.286  -3.092  1.00  0.00     0.134 A 
ATOM     81  C   UNL     1      -0.166  13.666  -2.688  1.00  0.00     0.134 A 
ATOM     82  F   UNL     1      -3.563  12.473  -3.190  1.00  0.00    -0.206 F 
ATOM     83  C   UNL     1      -2.678  14.640  -3.365  1.00  0.00     0.040 A 
ATOM     84  C   UNL     1      -0.338  15.027  -2.925  1.00  0.00     0.040 A 
ATOM     85  F   UNL     1       1.061  13.231  -2.363  1.00  0.00    -0.206 F 
ATOM     86  C   UNL     1      -1.596  15.515  -3.274  1.00  0.00     0.006 A 
ENDBRANCH  62  79
ENDBRANCH  36  37
ENDBRANCH  29  31
ENDBRANCH  28  29
ENDBRANCH  27  28
ENDBRANCH   1  27
TORSDOF 15
