REMARK SMILES O=C(CCOc1cccc(/C=C2/SC(=S)N(c3ccc(Cl)c(Cl)c3)C2=O)c1)OCCOC(=O)c1ccc(-c2c3nc(c(-c4c(F)cccc4F)c4ccc([nH]4)c(-c4c(F)cccc4F)c4nc(c(-c5c(F)cccc5F)c5ccc2[nH]5)C=C4)C=C3)cc1
REMARK SMILES IDX 28 1 2 2 1 3 3 4 4 5 5 6 6 7 7 8 27 9 8 10 10 11 9 12 11 13
REMARK SMILES IDX 12 14 13 15 25 16 14 17 16 18 26 19 15 20 17 21 18 22 24 23
REMARK SMILES IDX 19 24 22 25 20 26 23 27 21 28 29 29 30 30 31 31 32 32 33 33
REMARK SMILES IDX 34 34 35 35 87 36 36 37 86 38 37 39 38 40 39 41 80 42 40 43
REMARK SMILES IDX 85 44 79 45 81 46 41 47 84 48 78 49 77 50 42 52 68 53 51 54
REMARK SMILES IDX 67 55 52 56 55 57 66 58 82 59 53 60 54 61 65 63 83 64 56 65
REMARK SMILES IDX 43 66 44 67 49 68 45 69 46 70 48 71 50 72 47 73 69 74 70 75
REMARK SMILES IDX 75 76 71 77 72 78 74 79 76 80 73 81 57 82 58 83 63 84 59 85
REMARK SMILES IDX 60 86 62 87 64 88 61 89
REMARK H PARENT 81 51 55 62
REMARK Flexibility Score: inf
ROOT
ATOM      1  O   UNL     1       3.517  -0.231  -0.583  1.00  0.00    -0.462 OA
ENDROOT
BRANCH   1   2
ATOM      2  C   UNL     1       2.747   0.492   0.257  1.00  0.00     0.309 C 
ATOM      3  O   UNL     1       1.520   0.452   0.165  1.00  0.00    -0.252 OA
BRANCH   2   4
ATOM      4  C   UNL     1       3.395   1.237   1.378  1.00  0.00     0.164 C 
BRANCH   4   5
ATOM      5  C   UNL     1       3.390   0.394   2.651  1.00  0.00     0.241 C 
BRANCH   5   6
ATOM      6  O   UNL     1       4.358  -0.659   2.712  1.00  0.00    -0.493 OA
BRANCH   6   7
ATOM      7  C   UNL     1       4.125  -1.875   2.126  1.00  0.00     0.119 A 
ATOM      8  C   UNL     1       5.179  -2.783   2.228  1.00  0.00     0.046 A 
ATOM      9  C   UNL     1       3.023  -2.228   1.349  1.00  0.00     0.054 A 
ATOM     10  C   UNL     1       5.169  -3.969   1.488  1.00  0.00     0.004 A 
ATOM     11  C   UNL     1       3.103  -3.301   0.441  1.00  0.00    -0.021 A 
ATOM     12  C   UNL     1       4.157  -4.203   0.556  1.00  0.00     0.008 A 
BRANCH  11  13
ATOM     13  C   UNL     1       2.117  -3.375  -0.653  1.00  0.00     0.029 C 
ATOM     14  C   UNL     1       2.316  -3.104  -1.961  1.00  0.00     0.081 C 
ATOM     15  S   UNL     1       0.985  -3.021  -3.059  1.00  0.00    -0.054 SA
ATOM     16  C   UNL     1       3.575  -2.750  -2.705  1.00  0.00     0.270 C 
ATOM     17  C   UNL     1       1.959  -2.369  -4.378  1.00  0.00     0.152 C 
ATOM     18  N   UNL     1       3.282  -2.232  -3.977  1.00  0.00    -0.261 N 
ATOM     19  O   UNL     1       4.691  -2.933  -2.230  1.00  0.00    -0.268 OA
ATOM     20  S   UNL     1       1.268  -2.153  -5.891  1.00  0.00    -0.051 S 
BRANCH  18  21
ATOM     21  C   UNL     1       4.303  -1.559  -4.756  1.00  0.00     0.052 A 
ATOM     22  C   UNL     1       5.649  -1.960  -4.723  1.00  0.00     0.028 A 
ATOM     23  C   UNL     1       4.015  -0.355  -5.431  1.00  0.00     0.048 A 
ATOM     24  C   UNL     1       6.662  -1.173  -5.296  1.00  0.00     0.024 A 
ATOM     25  C   UNL     1       5.026   0.451  -5.980  1.00  0.00     0.061 A 
ATOM     26  C   UNL     1       6.356   0.043  -5.908  1.00  0.00     0.059 A 
ATOM     27  Cl  UNL     1       4.566   1.981  -6.643  1.00  0.00    -0.083 Cl
ATOM     28  Cl  UNL     1       7.661   1.006  -6.502  1.00  0.00    -0.083 Cl
ENDBRANCH  18  21
ENDBRANCH  11  13
ENDBRANCH   6   7
ENDBRANCH   5   6
ENDBRANCH   4   5
ENDBRANCH   2   4
ENDBRANCH   1   2
BRANCH   1  29
ATOM     29  C   UNL     1       4.957  -0.171  -0.665  1.00  0.00     0.274 C 
BRANCH  29  30
ATOM     30  C   UNL     1       5.332   0.526  -1.961  1.00  0.00     0.275 C 
BRANCH  30  31
ATOM     31  O   UNL     1       4.674   1.794  -2.055  1.00  0.00    -0.458 OA
BRANCH  31  32
ATOM     32  C   UNL     1       3.401   1.773  -2.546  1.00  0.00     0.338 C 
ATOM     33  O   UNL     1       2.798   0.849  -3.042  1.00  0.00    -0.246 OA
BRANCH  32  34
ATOM     34  C   UNL     1       2.791   3.050  -2.144  1.00  0.00     0.060 A 
ATOM     35  C   UNL     1       1.507   3.047  -1.585  1.00  0.00     0.016 A 
ATOM     36  C   UNL     1       3.535   4.225  -2.249  1.00  0.00     0.016 A 
ATOM     37  C   UNL     1       0.972   4.231  -1.092  1.00  0.00     0.010 A 
ATOM     38  C   UNL     1       2.997   5.407  -1.771  1.00  0.00     0.010 A 
ATOM     39  C   UNL     1       1.712   5.412  -1.206  1.00  0.00    -0.014 A 
BRANCH  39  40
ATOM     40  C   UNL     1       1.090   6.717  -0.936  1.00  0.00     0.031 A 
ATOM     41  C   UNL     1       0.557   7.478  -2.109  1.00  0.00     0.074 A 
ATOM     42  C   UNL     1       1.090   7.229   0.305  1.00  0.00     0.049 A 
ATOM     43  N   UNL     1       0.107   8.701  -2.167  1.00  0.00    -0.248 NA
ATOM     44  C   UNL     1       0.555   6.767  -3.400  1.00  0.00     0.031 C 
ATOM     45  C   UNL     1       1.581   6.550   1.503  1.00  0.00     0.029 A 
ATOM     46  N   UNL     1       0.688   8.459   0.750  1.00  0.00    -0.354 N 
ATOM     47  C   UNL     1      -0.224   8.908  -3.499  1.00  0.00     0.074 A 
ATOM     48  C   UNL     1       0.115   7.704  -4.223  1.00  0.00     0.031 C 
ATOM     49  C   UNL     1       1.469   7.386   2.550  1.00  0.00     0.029 A 
ATOM     50  C   UNL     1       0.933   8.663   2.084  1.00  0.00     0.049 A 
ATOM     51  H   UNL     1       0.264   9.131   0.169  1.00  0.00     0.167 HD
ATOM     52  C   UNL     1      -0.771  10.008  -4.062  1.00  0.00     0.037 A 
ATOM     53  C   UNL     1       0.763   9.773   2.826  1.00  0.00     0.037 A 
ATOM     54  C   UNL     1      -1.082  11.202  -3.325  1.00  0.00     0.049 A 
ATOM     55  C   UNL     1       0.209  11.007   2.163  1.00  0.00     0.074 A 
ATOM     56  C   UNL     1      -1.654  12.374  -3.781  1.00  0.00     0.029 A 
ATOM     57  N   UNL     1      -0.831  11.374  -1.970  1.00  0.00    -0.354 N 
ATOM     58  N   UNL     1      -0.146  11.188   0.912  1.00  0.00    -0.248 NA
ATOM     59  C   UNL     1       0.027  12.190   3.014  1.00  0.00     0.031 C 
ATOM     60  C   UNL     1      -1.701  13.275  -2.713  1.00  0.00     0.029 A 
ATOM     61  C   UNL     1      -1.215  12.643  -1.578  1.00  0.00     0.049 A 
ATOM     62  H   UNL     1      -0.438  10.693  -1.377  1.00  0.00     0.167 HD
ATOM     63  C   UNL     1      -0.626  12.489   0.834  1.00  0.00     0.074 A 
ATOM     64  C   UNL     1      -0.524  13.048   2.168  1.00  0.00     0.031 C 
ATOM     65  C   UNL     1      -1.111  13.164  -0.238  1.00  0.00     0.037 A 
BRANCH  52  66
ATOM     66  C   UNL     1      -1.034   9.967  -5.537  1.00  0.00     0.057 A 
ATOM     67  C   UNL     1      -2.027   9.146  -6.089  1.00  0.00     0.134 A 
ATOM     68  C   UNL     1      -0.286  10.757  -6.418  1.00  0.00     0.134 A 
ATOM     69  F   UNL     1      -2.763   8.346  -5.303  1.00  0.00    -0.206 F 
ATOM     70  C   UNL     1      -2.249   9.094  -7.466  1.00  0.00     0.040 A 
ATOM     71  C   UNL     1      -0.518  10.735  -7.794  1.00  0.00     0.040 A 
ATOM     72  F   UNL     1       0.684  11.561  -5.957  1.00  0.00    -0.206 F 
ATOM     73  C   UNL     1      -1.498   9.897  -8.322  1.00  0.00     0.006 A 
ENDBRANCH  52  66
BRANCH  53  74
ATOM     74  C   UNL     1       1.114   9.771   4.269  1.00  0.00     0.057 A 
ATOM     75  C   UNL     1       0.124   9.870   5.253  1.00  0.00     0.134 A 
ATOM     76  C   UNL     1       2.444   9.687   4.701  1.00  0.00     0.134 A 
ATOM     77  F   UNL     1      -1.167   9.971   4.902  1.00  0.00    -0.206 F 
ATOM     78  C   UNL     1       0.442   9.910   6.611  1.00  0.00     0.040 A 
ATOM     79  C   UNL     1       2.775   9.699   6.057  1.00  0.00     0.040 A 
ATOM     80  F   UNL     1       3.441   9.582   3.810  1.00  0.00    -0.206 F 
ATOM     81  C   UNL     1       1.771   9.820   7.017  1.00  0.00     0.006 A 
ENDBRANCH  53  74
BRANCH  65  82
ATOM     82  C   UNL     1      -1.611  14.559  -0.002  1.00  0.00     0.057 A 
ATOM     83  C   UNL     1      -0.742  15.627   0.254  1.00  0.00     0.134 A 
ATOM     84  C   UNL     1      -2.980  14.844  -0.088  1.00  0.00     0.134 A 
ATOM     85  F   UNL     1       0.579  15.419   0.360  1.00  0.00    -0.206 F 
ATOM     86  C   UNL     1      -1.220  16.925   0.440  1.00  0.00     0.040 A 
ATOM     87  C   UNL     1      -3.467  16.142   0.065  1.00  0.00     0.040 A 
ATOM     88  F   UNL     1      -3.864  13.867  -0.344  1.00  0.00    -0.206 F 
ATOM     89  C   UNL     1      -2.585  17.186   0.337  1.00  0.00     0.006 A 
ENDBRANCH  65  82
ENDBRANCH  39  40
ENDBRANCH  32  34
ENDBRANCH  31  32
ENDBRANCH  30  31
ENDBRANCH  29  30
ENDBRANCH   1  29
TORSDOF 16
