REMARK SMILES O=C(OCCOC(=O)c1ccnc(-n2cnnn2)c1)c1ccc(-c2c3nc(c(-c4c(F)cccc4F)c4ccc([nH]4)c(-c4c(F)cccc4F)c4nc(c(-c5c(F)cccc5F)c5ccc2[nH]5)C=C4)C=C3)cc1
REMARK SMILES IDX 4 1 3 2 2 3 1 4 20 5 21 6 73 7 22 8 72 9 23 10 24 11 25 12
REMARK SMILES IDX 66 13 26 14 71 15 65 16 67 17 27 18 70 19 64 20 63 21 28 23
REMARK SMILES IDX 54 24 37 25 53 26 38 27 41 28 52 29 68 30 39 31 40 32 51 34
REMARK SMILES IDX 69 35 42 36 29 37 30 38 35 39 31 40 32 41 34 42 36 43 33 44
REMARK SMILES IDX 55 45 56 46 61 47 57 48 58 49 60 50 62 51 59 52 43 53 44 54
REMARK SMILES IDX 49 55 45 56 46 57 48 58 50 59 47 60 5 61 6 62 7 63 8 64 9 65
REMARK SMILES IDX 10 66 19 67 11 68 13 69 12 70 14 71 15 72 18 73 16 74 17 75
REMARK H PARENT 67 22 41 33
REMARK Flexibility Score: inf
ROOT
ATOM      1  C   UNL     1       4.599  -1.051  -0.343  1.00  0.00     0.275 C 
ENDROOT
BRANCH   1   2
ATOM      2  O   UNL     1       3.430  -1.542   0.341  1.00  0.00    -0.458 OA
BRANCH   2   3
ATOM      3  C   UNL     1       2.367  -0.728   0.485  1.00  0.00     0.338 C 
ATOM      4  O   UNL     1       1.385  -0.735  -0.240  1.00  0.00    -0.246 OA
BRANCH   3   5
ATOM      5  C   UNL     1       2.373   0.005   1.769  1.00  0.00     0.060 A 
ATOM      6  C   UNL     1       3.538   0.445   2.407  1.00  0.00     0.016 A 
ATOM      7  C   UNL     1       1.119   0.272   2.328  1.00  0.00     0.016 A 
ATOM      8  C   UNL     1       3.454   1.077   3.639  1.00  0.00     0.010 A 
ATOM      9  C   UNL     1       1.033   0.926   3.541  1.00  0.00     0.010 A 
ATOM     10  C   UNL     1       2.200   1.282   4.217  1.00  0.00    -0.014 A 
BRANCH  10  11
ATOM     11  C   UNL     1       2.104   1.997   5.486  1.00  0.00     0.031 A 
ATOM     12  C   UNL     1       2.609   3.398   5.439  1.00  0.00     0.074 A 
ATOM     13  C   UNL     1       1.406   1.499   6.529  1.00  0.00     0.049 A 
ATOM     14  N   UNL     1       3.593   3.921   6.093  1.00  0.00    -0.248 NA
ATOM     15  C   UNL     1       2.032   4.298   4.427  1.00  0.00     0.031 C 
ATOM     16  C   UNL     1       0.629   0.256   6.566  1.00  0.00     0.029 A 
ATOM     17  N   UNL     1       1.130   2.058   7.739  1.00  0.00    -0.354 N 
ATOM     18  C   UNL     1       3.584   5.279   5.763  1.00  0.00     0.074 A 
ATOM     19  C   UNL     1       2.768   5.399   4.588  1.00  0.00     0.031 C 
ATOM     20  C   UNL     1      -0.217   0.285   7.619  1.00  0.00     0.029 A 
ATOM     21  C   UNL     1       0.063   1.467   8.413  1.00  0.00     0.049 A 
ATOM     22  H   UNL     1       1.640   2.815   8.107  1.00  0.00     0.167 HD
ATOM     23  C   UNL     1       3.975   6.214   6.675  1.00  0.00     0.037 A 
ATOM     24  C   UNL     1      -0.571   1.934   9.519  1.00  0.00     0.037 A 
ATOM     25  C   UNL     1       4.798   5.612   7.700  1.00  0.00     0.049 A 
ATOM     26  C   UNL     1       0.321   2.936  10.150  1.00  0.00     0.074 A 
ATOM     27  C   UNL     1       5.951   4.850   7.708  1.00  0.00     0.029 A 
ATOM     28  N   UNL     1       4.245   5.447   8.946  1.00  0.00    -0.354 N 
ATOM     29  N   UNL     1       1.448   2.639  10.732  1.00  0.00    -0.248 NA
ATOM     30  C   UNL     1       0.176   4.323   9.737  1.00  0.00     0.031 C 
ATOM     31  C   UNL     1       5.750   3.890   8.745  1.00  0.00     0.029 A 
ATOM     32  C   UNL     1       4.534   4.179   9.365  1.00  0.00     0.049 A 
ATOM     33  H   UNL     1       3.732   6.121   9.447  1.00  0.00     0.167 HD
ATOM     34  C   UNL     1       2.314   3.648  10.341  1.00  0.00     0.074 A 
ATOM     35  C   UNL     1       1.452   4.709   9.821  1.00  0.00     0.031 C 
ATOM     36  C   UNL     1       3.650   3.402  10.198  1.00  0.00     0.037 A 
BRANCH  23  37
ATOM     37  C   UNL     1       3.225   7.518   6.923  1.00  0.00     0.057 A 
ATOM     38  C   UNL     1       3.692   8.372   7.943  1.00  0.00     0.134 A 
ATOM     39  C   UNL     1       1.915   7.796   6.482  1.00  0.00     0.134 A 
ATOM     40  F   UNL     1       4.934   8.243   8.435  1.00  0.00    -0.206 F 
ATOM     41  C   UNL     1       2.866   9.304   8.585  1.00  0.00     0.040 A 
ATOM     42  C   UNL     1       1.099   8.759   7.082  1.00  0.00     0.040 A 
ATOM     43  F   UNL     1       1.308   7.104   5.515  1.00  0.00    -0.206 F 
ATOM     44  C   UNL     1       1.555   9.483   8.170  1.00  0.00     0.006 A 
ENDBRANCH  23  37
BRANCH  24  45
ATOM     45  C   UNL     1      -1.983   1.774   9.940  1.00  0.00     0.057 A 
ATOM     46  C   UNL     1      -2.387   2.080  11.249  1.00  0.00     0.134 A 
ATOM     47  C   UNL     1      -3.017   1.589   9.007  1.00  0.00     0.134 A 
ATOM     48  F   UNL     1      -1.478   2.310  12.207  1.00  0.00    -0.206 F 
ATOM     49  C   UNL     1      -3.736   2.226  11.601  1.00  0.00     0.040 A 
ATOM     50  C   UNL     1      -4.368   1.724   9.347  1.00  0.00     0.040 A 
ATOM     51  F   UNL     1      -2.751   1.358   7.714  1.00  0.00    -0.206 F 
ATOM     52  C   UNL     1      -4.732   2.061  10.645  1.00  0.00     0.006 A 
ENDBRANCH  24  45
BRANCH  36  53
ATOM     53  C   UNL     1       4.197   2.118  10.755  1.00  0.00     0.057 A 
ATOM     54  C   UNL     1       3.811   0.836  10.334  1.00  0.00     0.134 A 
ATOM     55  C   UNL     1       5.257   2.189  11.665  1.00  0.00     0.134 A 
ATOM     56  F   UNL     1       2.879   0.663   9.388  1.00  0.00    -0.206 F 
ATOM     57  C   UNL     1       4.418  -0.319  10.835  1.00  0.00     0.040 A 
ATOM     58  C   UNL     1       5.897   1.046  12.145  1.00  0.00     0.040 A 
ATOM     59  F   UNL     1       5.720   3.383  12.071  1.00  0.00    -0.206 F 
ATOM     60  C   UNL     1       5.469  -0.215  11.741  1.00  0.00     0.006 A 
ENDBRANCH  36  53
ENDBRANCH  10  11
ENDBRANCH   3   5
ENDBRANCH   2   3
ENDBRANCH   1   2
BRANCH   1  61
ATOM     61  C   UNL     1       4.380  -0.019  -1.451  1.00  0.00     0.275 C 
BRANCH  61  62
ATOM     62  O   UNL     1       3.855   1.218  -0.930  1.00  0.00    -0.458 OA
BRANCH  62  63
ATOM     63  C   UNL     1       2.741   1.684  -1.553  1.00  0.00     0.338 C 
ATOM     64  O   UNL     1       2.127   1.183  -2.473  1.00  0.00    -0.246 OA
BRANCH  63  65
ATOM     65  C   UNL     1       2.382   2.989  -0.982  1.00  0.00     0.065 A 
ATOM     66  C   UNL     1       3.125   4.090  -1.391  1.00  0.00     0.036 A 
ATOM     67  C   UNL     1       1.255   3.135  -0.165  1.00  0.00     0.065 A 
ATOM     68  C   UNL     1       2.698   5.330  -0.975  1.00  0.00     0.114 A 
ATOM     69  C   UNL     1       0.909   4.427   0.219  1.00  0.00     0.157 A 
ATOM     70  N   UNL     1       1.617   5.516  -0.191  1.00  0.00    -0.237 NA
BRANCH  69  71
ATOM     71  N   UNL     1      -0.203   4.666   1.072  1.00  0.00    -0.182 N 
ATOM     72  C   UNL     1      -0.912   3.793   1.855  1.00  0.00     0.254 A 
ATOM     73  N   UNL     1      -0.701   5.908   1.286  1.00  0.00    -0.039 NA
ATOM     74  N   UNL     1      -1.829   4.451   2.526  1.00  0.00    -0.117 NA
ATOM     75  N   UNL     1      -1.698   5.760   2.146  1.00  0.00    -0.024 NA
ENDBRANCH  69  71
ENDBRANCH  63  65
ENDBRANCH  62  63
ENDBRANCH  61  62
ENDBRANCH   1  61
TORSDOF 12
