REMARK SMILES O=C(/C=C/c1cccs1)NCC(=O)OCCOC(=O)c1ccc(-c2c3nc(c(-c4c(F)cccc4F)c4ccc([nH]4)c(-c4c(F)cccc4F)c4nc(c(-c5c(F)cccc5F)c5ccc2[nH]5)C=C4)C=C3)cc1
REMARK SMILES IDX 15 1 14 2 12 3 13 4 11 5 10 6 1 7 2 8 3 10 4 11 5 12 6 13
REMARK SMILES IDX 9 14 7 15 8 16 16 17 17 18 18 19 19 20 20 21 21 22 73 23
REMARK SMILES IDX 22 24 72 25 23 26 24 27 25 28 66 29 26 30 71 31 65 32 67 33
REMARK SMILES IDX 27 34 70 35 64 36 63 37 28 39 54 40 37 41 53 42 38 43 41 44
REMARK SMILES IDX 52 45 68 46 39 47 40 48 51 50 69 51 42 52 29 53 30 54 35 55
REMARK SMILES IDX 31 56 32 57 34 58 36 59 33 60 55 61 56 62 61 63 57 64 58 65
REMARK SMILES IDX 60 66 62 67 59 68 43 69 44 70 49 71 45 72 46 73 48 74 50 75
REMARK SMILES IDX 47 76
REMARK H PARENT 10 9 67 38 41 49
REMARK Flexibility Score: inf
ROOT
ATOM      1  C   UNL     1       2.849   4.075   2.678  1.00  0.00     0.274 C 
ENDROOT
BRANCH   1   2
ATOM      2  O   UNL     1       2.468   2.977   1.833  1.00  0.00    -0.461 OA
BRANCH   2   3
ATOM      3  C   UNL     1       1.778   3.282   0.700  1.00  0.00     0.325 C 
ATOM      4  O   UNL     1       1.325   4.389   0.430  1.00  0.00    -0.250 OA
BRANCH   3   5
ATOM      5  C   UNL     1       1.606   2.072  -0.209  1.00  0.00     0.239 C 
BRANCH   5   6
ATOM      6  N   UNL     1       2.486   0.950   0.085  1.00  0.00    -0.342 N 
ATOM      7  O   UNL     1       0.844  -0.616  -0.140  1.00  0.00    -0.270 OA
ATOM      8  C   UNL     1       2.022  -0.330   0.057  1.00  0.00     0.244 C 
ATOM      9  H   UNL     1       3.430   1.120   0.308  1.00  0.00     0.164 HD
BRANCH   8  10
ATOM     10  C   UNL     1       2.992  -1.433   0.253  1.00  0.00     0.072 C 
ATOM     11  C   UNL     1       4.327  -1.359   0.370  1.00  0.00     0.024 C 
BRANCH  11  12
ATOM     12  C   UNL     1       5.098  -2.555   0.504  1.00  0.00     0.027 A 
ATOM     13  C   UNL     1       4.865  -3.828   0.003  1.00  0.00     0.020 A 
ATOM     14  S   UNL     1       6.572  -2.530   1.396  1.00  0.00    -0.144 S 
ATOM     15  C   UNL     1       5.857  -4.776   0.385  1.00  0.00     0.012 A 
ATOM     16  C   UNL     1       6.837  -4.202   1.161  1.00  0.00     0.065 A 
ENDBRANCH  11  12
ENDBRANCH   8  10
ENDBRANCH   5   6
ENDBRANCH   3   5
ENDBRANCH   2   3
ENDBRANCH   1   2
BRANCH   1  17
ATOM     17  C   UNL     1       4.362   4.289   2.596  1.00  0.00     0.275 C 
BRANCH  17  18
ATOM     18  O   UNL     1       4.756   4.839   1.324  1.00  0.00    -0.458 OA
BRANCH  18  19
ATOM     19  C   UNL     1       4.952   3.946   0.325  1.00  0.00     0.338 C 
ATOM     20  O   UNL     1       4.845   2.731   0.375  1.00  0.00    -0.246 OA
BRANCH  19  21
ATOM     21  C   UNL     1       5.199   4.679  -0.927  1.00  0.00     0.060 A 
ATOM     22  C   UNL     1       4.364   4.425  -2.020  1.00  0.00     0.016 A 
ATOM     23  C   UNL     1       6.273   5.564  -1.043  1.00  0.00     0.016 A 
ATOM     24  C   UNL     1       4.609   5.046  -3.243  1.00  0.00     0.010 A 
ATOM     25  C   UNL     1       6.514   6.188  -2.268  1.00  0.00     0.010 A 
ATOM     26  C   UNL     1       5.691   5.924  -3.378  1.00  0.00    -0.014 A 
BRANCH  26  27
ATOM     27  C   UNL     1       6.002   6.538  -4.690  1.00  0.00     0.031 A 
ATOM     28  C   UNL     1       7.185   6.051  -5.474  1.00  0.00     0.074 A 
ATOM     29  C   UNL     1       5.239   7.540  -5.162  1.00  0.00     0.049 A 
ATOM     30  N   UNL     1       7.719   6.547  -6.560  1.00  0.00    -0.248 NA
ATOM     31  C   UNL     1       7.858   4.846  -4.965  1.00  0.00     0.031 C 
ATOM     32  C   UNL     1       4.037   8.064  -4.514  1.00  0.00     0.029 A 
ATOM     33  N   UNL     1       5.375   8.307  -6.291  1.00  0.00    -0.354 N 
ATOM     34  C   UNL     1       8.805   5.732  -6.852  1.00  0.00     0.074 A 
ATOM     35  C   UNL     1       8.860   4.715  -5.823  1.00  0.00     0.031 C 
ATOM     36  C   UNL     1       3.552   9.077  -5.250  1.00  0.00     0.029 A 
ATOM     37  C   UNL     1       4.437   9.305  -6.389  1.00  0.00     0.049 A 
ATOM     38  H   UNL     1       6.076   8.156  -6.966  1.00  0.00     0.167 HD
ATOM     39  C   UNL     1       9.675   5.828  -7.885  1.00  0.00     0.037 A 
ATOM     40  C   UNL     1       4.329  10.313  -7.275  1.00  0.00     0.037 A 
ATOM     41  C   UNL     1       9.604   6.834  -8.911  1.00  0.00     0.049 A 
ATOM     42  C   UNL     1       5.348  10.440  -8.374  1.00  0.00     0.074 A 
ATOM     43  C   UNL     1      10.431   7.007 -10.008  1.00  0.00     0.029 A 
ATOM     44  N   UNL     1       8.648   7.837  -8.966  1.00  0.00    -0.354 N 
ATOM     45  N   UNL     1       6.377   9.672  -8.637  1.00  0.00    -0.248 NA
ATOM     46  C   UNL     1       5.198  11.578  -9.292  1.00  0.00     0.031 C 
ATOM     47  C   UNL     1       9.998   8.139 -10.706  1.00  0.00     0.029 A 
ATOM     48  C   UNL     1       8.877   8.645 -10.067  1.00  0.00     0.049 A 
ATOM     49  H   UNL     1       7.917   7.957  -8.319  1.00  0.00     0.167 HD
ATOM     50  C   UNL     1       6.979  10.215  -9.764  1.00  0.00     0.074 A 
ATOM     51  C   UNL     1       6.200  11.377 -10.137  1.00  0.00     0.031 C 
ATOM     52  C   UNL     1       8.078   9.787 -10.432  1.00  0.00     0.037 A 
BRANCH  39  53
ATOM     53  C   UNL     1      10.797   4.835  -7.939  1.00  0.00     0.057 A 
ATOM     54  C   UNL     1      10.588   3.500  -8.306  1.00  0.00     0.134 A 
ATOM     55  C   UNL     1      12.110   5.231  -7.655  1.00  0.00     0.134 A 
ATOM     56  F   UNL     1       9.352   3.054  -8.576  1.00  0.00    -0.206 F 
ATOM     57  C   UNL     1      11.644   2.589  -8.371  1.00  0.00     0.040 A 
ATOM     58  C   UNL     1      13.177   4.335  -7.738  1.00  0.00     0.040 A 
ATOM     59  F   UNL     1      12.378   6.497  -7.302  1.00  0.00    -0.206 F 
ATOM     60  C   UNL     1      12.944   3.008  -8.092  1.00  0.00     0.006 A 
ENDBRANCH  39  53
BRANCH  40  61
ATOM     61  C   UNL     1       3.231  11.302  -7.139  1.00  0.00     0.057 A 
ATOM     62  C   UNL     1       2.176  11.343  -8.057  1.00  0.00     0.134 A 
ATOM     63  C   UNL     1       3.210  12.227  -6.088  1.00  0.00     0.134 A 
ATOM     64  F   UNL     1       2.154  10.497  -9.097  1.00  0.00    -0.206 F 
ATOM     65  C   UNL     1       1.143  12.274  -7.941  1.00  0.00     0.040 A 
ATOM     66  C   UNL     1       2.171  13.148  -5.946  1.00  0.00     0.040 A 
ATOM     67  F   UNL     1       4.192  12.238  -5.175  1.00  0.00    -0.206 F 
ATOM     68  C   UNL     1       1.136  13.177  -6.878  1.00  0.00     0.006 A 
ENDBRANCH  40  61
BRANCH  52  69
ATOM     69  C   UNL     1       8.480  10.547 -11.659  1.00  0.00     0.057 A 
ATOM     70  C   UNL     1       9.130  11.784 -11.581  1.00  0.00     0.134 A 
ATOM     71  C   UNL     1       8.273  10.000 -12.932  1.00  0.00     0.134 A 
ATOM     72  F   UNL     1       9.346  12.365 -10.392  1.00  0.00    -0.206 F 
ATOM     73  C   UNL     1       9.555  12.454 -12.729  1.00  0.00     0.040 A 
ATOM     74  C   UNL     1       8.711  10.651 -14.085  1.00  0.00     0.040 A 
ATOM     75  F   UNL     1       7.661   8.814 -13.071  1.00  0.00    -0.206 F 
ATOM     76  C   UNL     1       9.354  11.883 -13.985  1.00  0.00     0.006 A 
ENDBRANCH  52  69
ENDBRANCH  26  27
ENDBRANCH  19  21
ENDBRANCH  18  19
ENDBRANCH  17  18
ENDBRANCH   1  17
TORSDOF 14
