REMARK SMILES CC[C@H]1CCC[C@H](O[C@@H]2CC[C@]([NH2+]C(C)C)(C(=O)OCCOC(=O)c3ccc(-c4c5nc(c(-c6c(F)cccc6F)c6ccc([nH]6)c(-c6c(F)cccc6F)c6nc(c(-c7c(F)cccc7F)c7ccc4[nH]7)C=C6)C=C5)cc3)C2)C1
REMARK SMILES IDX 20 1 19 2 17 3 18 4 12 5 9 6 10 7 79 8 11 9 8 10 7 11 3 12
REMARK SMILES IDX 4 13 80 14 5 15 6 16 2 17 1 18 13 19 14 22 15 23 16 24 21 25
REMARK SMILES IDX 22 26 23 27 24 28 25 29 26 30 78 31 27 32 77 33 28 34 29 35
REMARK SMILES IDX 30 36 71 37 31 38 76 39 70 40 72 41 32 42 75 43 69 44 68 45
REMARK SMILES IDX 33 47 59 48 42 49 58 50 43 51 46 52 57 53 73 54 44 55 45 56
REMARK SMILES IDX 56 58 74 59 47 60 34 61 35 62 40 63 36 64 37 65 39 66 41 67
REMARK SMILES IDX 38 68 60 69 61 70 66 71 62 72 63 73 65 74 67 75 64 76 48 77
REMARK SMILES IDX 49 78 54 79 50 80 51 81 53 82 55 83 52 84
REMARK H PARENT 13 20 13 21 72 46 46 57
REMARK Flexibility Score: inf
ROOT
ATOM      1  C   UNL     1      -4.403  -2.441   1.414  1.00  0.00     0.274 C 
ENDROOT
BRANCH   1   2
ATOM      2  O   UNL     1      -4.237  -1.700   2.645  1.00  0.00    -0.457 OA
BRANCH   2   3
ATOM      3  C   UNL     1      -2.971  -1.685   3.148  1.00  0.00     0.368 C 
ATOM      4  O   UNL     1      -2.104  -2.455   2.740  1.00  0.00    -0.245 OA
BRANCH   3   5
ATOM      5  C   UNL     1      -2.690  -0.599   4.249  1.00  0.00     0.197 C 
ATOM      6  C   UNL     1      -0.701   0.363   5.376  1.00  0.00     0.125 C 
ATOM      7  C   UNL     1      -1.444  -0.503   6.394  1.00  0.00     0.039 C 
ATOM      8  C   UNL     1      -1.305   0.040   4.020  1.00  0.00     0.113 C 
ATOM      9  C   UNL     1      -2.480  -1.314   5.603  1.00  0.00     0.084 C 
BRANCH   6  10
ATOM     10  O   UNL     1       0.723   0.355   5.472  1.00  0.00    -0.375 OA
BRANCH  10  11
ATOM     11  C   UNL     1       1.526  -0.616   4.777  1.00  0.00     0.118 C 
ATOM     12  C   UNL     1       2.019  -1.393   2.291  1.00  0.00    -0.009 C 
ATOM     13  C   UNL     1       1.405  -2.726   2.733  1.00  0.00     0.004 C 
ATOM     14  C   UNL     1       1.761  -0.237   3.292  1.00  0.00     0.035 C 
ATOM     15  C   UNL     1       1.754  -3.068   4.171  1.00  0.00     0.003 C 
ATOM     16  C   UNL     1       1.103  -2.051   5.082  1.00  0.00     0.032 C 
BRANCH  12  17
ATOM     17  C   UNL     1       3.522  -1.504   1.962  1.00  0.00     0.000 C 
ATOM     18  C   UNL     1       3.853  -2.600   0.955  1.00  0.00     0.004 C 
ENDBRANCH  12  17
ENDBRANCH  10  11
ENDBRANCH   6  10
BRANCH   5  19
ATOM     19  N   UNL     1      -3.716   0.451   4.442  1.00  0.00    -0.330 N 
ATOM     20  H   UNL     1      -3.265   1.226   4.927  1.00  0.00     0.347 HD
ATOM     21  H   UNL     1      -4.465  -0.021   4.949  1.00  0.00     0.347 HD
BRANCH  19  22
ATOM     22  C   UNL     1      -4.376   1.005   3.261  1.00  0.00     0.176 C 
ATOM     23  C   UNL     1      -5.245   2.181   3.736  1.00  0.00     0.075 C 
ATOM     24  C   UNL     1      -3.445   1.388   2.095  1.00  0.00     0.075 C 
ENDBRANCH  19  22
ENDBRANCH   5  19
ENDBRANCH   3   5
ENDBRANCH   2   3
ENDBRANCH   1   2
BRANCH   1  25
ATOM     25  C   UNL     1      -5.753  -2.108   0.755  1.00  0.00     0.275 C 
BRANCH  25  26
ATOM     26  O   UNL     1      -5.743  -0.753   0.260  1.00  0.00    -0.458 OA
BRANCH  26  27
ATOM     27  C   UNL     1      -6.866  -0.329  -0.392  1.00  0.00     0.338 C 
ATOM     28  O   UNL     1      -7.836  -1.000  -0.684  1.00  0.00    -0.246 OA
BRANCH  27  29
ATOM     29  C   UNL     1      -6.723   1.127  -0.682  1.00  0.00     0.060 A 
ATOM     30  C   UNL     1      -6.098   1.911   0.277  1.00  0.00     0.016 A 
ATOM     31  C   UNL     1      -7.215   1.751  -1.824  1.00  0.00     0.016 A 
ATOM     32  C   UNL     1      -5.810   3.253   0.084  1.00  0.00     0.010 A 
ATOM     33  C   UNL     1      -7.000   3.134  -2.009  1.00  0.00     0.010 A 
ATOM     34  C   UNL     1      -6.277   3.884  -1.062  1.00  0.00    -0.014 A 
BRANCH  34  35
ATOM     35  C   UNL     1      -6.159   5.359  -1.115  1.00  0.00     0.031 A 
ATOM     36  C   UNL     1      -7.274   6.179  -0.539  1.00  0.00     0.074 A 
ATOM     37  C   UNL     1      -5.009   5.962  -1.469  1.00  0.00     0.049 A 
ATOM     38  N   UNL     1      -7.467   7.470  -0.585  1.00  0.00    -0.248 NA
ATOM     39  C   UNL     1      -8.290   5.441   0.231  1.00  0.00     0.031 C 
ATOM     40  C   UNL     1      -3.759   5.276  -1.794  1.00  0.00     0.029 A 
ATOM     41  N   UNL     1      -4.699   7.295  -1.581  1.00  0.00    -0.354 N 
ATOM     42  C   UNL     1      -8.647   7.694   0.111  1.00  0.00     0.074 A 
ATOM     43  C   UNL     1      -9.101   6.416   0.611  1.00  0.00     0.031 C 
ATOM     44  C   UNL     1      -2.817   6.196  -2.071  1.00  0.00     0.029 A 
ATOM     45  C   UNL     1      -3.420   7.526  -2.027  1.00  0.00     0.049 A 
ATOM     46  H   UNL     1      -5.333   8.016  -1.362  1.00  0.00     0.167 HD
ATOM     47  C   UNL     1      -9.309   8.861   0.279  1.00  0.00     0.037 A 
ATOM     48  C   UNL     1      -2.833   8.677  -2.414  1.00  0.00     0.037 A 
ATOM     49  C   UNL     1      -8.848  10.117  -0.244  1.00  0.00     0.049 A 
ATOM     50  C   UNL     1      -3.651   9.943  -2.390  1.00  0.00     0.074 A 
ATOM     51  C   UNL     1      -9.493  11.339  -0.272  1.00  0.00     0.029 A 
ATOM     52  N   UNL     1      -7.605  10.303  -0.831  1.00  0.00    -0.354 N 
ATOM     53  N   UNL     1      -4.858  10.137  -1.911  1.00  0.00    -0.248 NA
ATOM     54  C   UNL     1      -3.050  11.137  -3.001  1.00  0.00     0.031 C 
ATOM     55  C   UNL     1      -8.652  12.257  -0.915  1.00  0.00     0.029 A 
ATOM     56  C   UNL     1      -7.468  11.615  -1.246  1.00  0.00     0.049 A 
ATOM     57  H   UNL     1      -6.920   9.603  -0.937  1.00  0.00     0.167 HD
ATOM     58  C   UNL     1      -5.162  11.469  -2.166  1.00  0.00     0.074 A 
ATOM     59  C   UNL     1      -4.002  12.043  -2.818  1.00  0.00     0.031 C 
ATOM     60  C   UNL     1      -6.301  12.154  -1.897  1.00  0.00     0.037 A 
BRANCH  47  61
ATOM     61  C   UNL     1     -10.651   8.781   0.940  1.00  0.00     0.057 A 
ATOM     62  C   UNL     1     -10.802   8.607   2.320  1.00  0.00     0.134 A 
ATOM     63  C   UNL     1     -11.814   8.818   0.159  1.00  0.00     0.134 A 
ATOM     64  F   UNL     1      -9.726   8.527   3.117  1.00  0.00    -0.206 F 
ATOM     65  C   UNL     1     -12.063   8.449   2.899  1.00  0.00     0.040 A 
ATOM     66  C   UNL     1     -13.080   8.680   0.728  1.00  0.00     0.040 A 
ATOM     67  F   UNL     1     -11.736   8.968  -1.171  1.00  0.00    -0.206 F 
ATOM     68  C   UNL     1     -13.207   8.487   2.102  1.00  0.00     0.006 A 
ENDBRANCH  47  61
BRANCH  48  69
ATOM     69  C   UNL     1      -1.449   8.671  -2.960  1.00  0.00     0.057 A 
ATOM     70  C   UNL     1      -0.404   9.347  -2.321  1.00  0.00     0.134 A 
ATOM     71  C   UNL     1      -1.142   8.003  -4.154  1.00  0.00     0.134 A 
ATOM     72  F   UNL     1      -0.634  10.039  -1.196  1.00  0.00    -0.206 F 
ATOM     73  C   UNL     1       0.893   9.355  -2.845  1.00  0.00     0.040 A 
ATOM     74  C   UNL     1       0.153   7.978  -4.673  1.00  0.00     0.040 A 
ATOM     75  F   UNL     1      -2.100   7.351  -4.831  1.00  0.00    -0.206 F 
ATOM     76  C   UNL     1       1.176   8.659  -4.019  1.00  0.00     0.006 A 
ENDBRANCH  48  69
BRANCH  60  77
ATOM     77  C   UNL     1      -6.340  13.596  -2.300  1.00  0.00     0.057 A 
ATOM     78  C   UNL     1      -6.523  13.977  -3.635  1.00  0.00     0.134 A 
ATOM     79  C   UNL     1      -6.247  14.609  -1.339  1.00  0.00     0.134 A 
ATOM     80  F   UNL     1      -6.608  13.051  -4.601  1.00  0.00    -0.206 F 
ATOM     81  C   UNL     1      -6.596  15.322  -4.002  1.00  0.00     0.040 A 
ATOM     82  C   UNL     1      -6.338  15.955  -1.691  1.00  0.00     0.040 A 
ATOM     83  F   UNL     1      -6.080  14.305  -0.043  1.00  0.00    -0.206 F 
ATOM     84  C   UNL     1      -6.511  16.314  -3.027  1.00  0.00     0.006 A 
ENDBRANCH  60  77
ENDBRANCH  34  35
ENDBRANCH  27  29
ENDBRANCH  26  27
ENDBRANCH  25  26
ENDBRANCH   1  25
TORSDOF 16
