REMARK SMILES CCc1sc(NC(=O)[C@H]2CC(C)=C(C)C[C@H]2C(=O)OCCOC(=O)c2ccc(-c3c4nc(c(-c5c(F)cccc5F)c5ccc([nH]5)c(-c5c(F)cccc5F)c5nc(c(-c6c(F)cccc6F)c6ccc3[nH]6)C=C5)C=C4)cc2)nc1-c1ccccc1
REMARK SMILES IDX 20 1 19 2 17 3 18 4 16 5 9 6 10 7 11 8 15 9 12 10 13 11
REMARK SMILES IDX 14 12 7 13 6 14 8 16 5 17 3 18 4 19 80 20 79 21 2 22 1 23
REMARK SMILES IDX 81 24 82 25 86 26 83 27 85 28 84 29 21 30 22 31 23 32 24 33
REMARK SMILES IDX 25 34 26 35 78 36 27 37 77 38 28 39 29 40 30 41 71 42 31 43
REMARK SMILES IDX 76 44 70 45 72 46 32 47 75 48 69 49 68 50 33 52 59 53 42 54
REMARK SMILES IDX 58 55 43 56 46 57 57 58 73 59 44 60 45 61 56 63 74 64 47 65
REMARK SMILES IDX 34 66 35 67 40 68 36 69 37 70 39 71 41 72 38 73 60 74 61 75
REMARK SMILES IDX 66 76 62 77 63 78 65 79 67 80 64 81 48 82 49 83 54 84 50 85
REMARK SMILES IDX 51 86 53 87 55 88 52 89
REMARK H PARENT 6 15 72 51 46 62
REMARK Flexibility Score: inf
ROOT
ATOM      1  C   UNL     1      -1.328   0.630   5.896  1.00  0.00     0.274 C 
ENDROOT
BRANCH   1   2
ATOM      2  O   UNL     1       0.040   0.609   6.420  1.00  0.00    -0.462 OA
BRANCH   2   3
ATOM      3  C   UNL     1       0.814  -0.394   5.950  1.00  0.00     0.310 C 
ATOM      4  O   UNL     1       0.363  -1.306   5.249  1.00  0.00    -0.252 OA
BRANCH   3   5
ATOM      5  C   UNL     1       2.338  -0.313   6.204  1.00  0.00     0.116 C 
ATOM      6  C   UNL     1       3.177   0.922   6.661  1.00  0.00     0.097 C 
ATOM      7  C   UNL     1       3.511   0.676   8.171  1.00  0.00     0.045 C 
ATOM      8  C   UNL     1       3.612  -0.754   8.696  1.00  0.00    -0.074 C 
ATOM      9  C   UNL     1       2.855  -1.703   6.576  1.00  0.00     0.046 C 
ATOM     10  C   UNL     1       4.049  -0.855  10.127  1.00  0.00     0.039 C 
ATOM     11  C   UNL     1       3.314  -1.843   7.966  1.00  0.00    -0.073 C 
ATOM     12  C   UNL     1       3.405  -3.280   8.398  1.00  0.00     0.039 C 
BRANCH   6  13
ATOM     13  C   UNL     1       2.932   2.515   6.484  1.00  0.00     0.230 C 
ATOM     14  N   UNL     1       2.802   3.332   5.381  1.00  0.00    -0.302 N 
ATOM     15  H   UNL     1       3.157   4.241   5.511  1.00  0.00     0.172 HD
ATOM     16  O   UNL     1       3.046   3.206   7.520  1.00  0.00    -0.274 OA
BRANCH  14  17
ATOM     17  C   UNL     1       2.261   3.110   4.119  1.00  0.00     0.190 A 
ATOM     18  C   UNL     1       0.525   1.224   2.016  1.00  0.00     0.034 A 
ATOM     19  S   UNL     1       2.074   0.872   3.668  1.00  0.00    -0.101 S 
ATOM     20  C   UNL     1       0.053   2.930   1.939  1.00  0.00     0.087 A 
ATOM     21  N   UNL     1       1.037   3.956   3.242  1.00  0.00    -0.220 NA
BRANCH  18  22
ATOM     22  C   UNL     1       0.108  -0.070   1.373  1.00  0.00     0.046 C 
ATOM     23  C   UNL     1       0.660  -0.246  -0.026  1.00  0.00     0.010 C 
ENDBRANCH  18  22
BRANCH  20  24
ATOM     24  C   UNL     1      -0.771   3.337   0.790  1.00  0.00     0.001 A 
ATOM     25  C   UNL     1      -1.875   2.532   0.458  1.00  0.00     0.010 A 
ATOM     26  C   UNL     1      -0.291   4.215  -0.187  1.00  0.00     0.010 A 
ATOM     27  C   UNL     1      -2.416   2.537  -0.834  1.00  0.00     0.001 A 
ATOM     28  C   UNL     1      -0.814   4.204  -1.487  1.00  0.00     0.001 A 
ATOM     29  C   UNL     1      -1.863   3.352  -1.815  1.00  0.00     0.000 A 
ENDBRANCH  20  24
ENDBRANCH  14  17
ENDBRANCH   6  13
ENDBRANCH   3   5
ENDBRANCH   2   3
ENDBRANCH   1   2
BRANCH   1  30
ATOM     30  C   UNL     1      -1.649   1.765   4.890  1.00  0.00     0.275 C 
BRANCH  30  31
ATOM     31  O   UNL     1      -0.866   1.691   3.647  1.00  0.00    -0.458 OA
BRANCH  31  32
ATOM     32  C   UNL     1       0.488   2.307   3.737  1.00  0.00     0.338 C 
ATOM     33  O   UNL     1       0.497   2.606   4.975  1.00  0.00    -0.246 OA
BRANCH  32  34
ATOM     34  C   UNL     1       2.005   2.629   2.202  1.00  0.00     0.060 A 
ATOM     35  C   UNL     1       2.999   1.690   1.549  1.00  0.00     0.016 A 
ATOM     36  C   UNL     1       2.371   3.953   1.516  1.00  0.00     0.016 A 
ATOM     37  C   UNL     1       4.125   1.981   0.810  1.00  0.00     0.010 A 
ATOM     38  C   UNL     1       3.237   4.149   0.440  1.00  0.00     0.010 A 
ATOM     39  C   UNL     1       4.097   3.135   0.087  1.00  0.00    -0.014 A 
BRANCH  39  40
ATOM     40  C   UNL     1       4.942   3.193  -1.095  1.00  0.00     0.031 A 
ATOM     41  C   UNL     1       5.886   4.324  -1.201  1.00  0.00     0.074 A 
ATOM     42  C   UNL     1       4.796   2.207  -2.003  1.00  0.00     0.049 A 
ATOM     43  N   UNL     1       6.577   4.697  -2.232  1.00  0.00    -0.248 NA
ATOM     44  C   UNL     1       6.005   5.207  -0.025  1.00  0.00     0.031 C 
ATOM     45  C   UNL     1       3.847   1.084  -1.899  1.00  0.00     0.029 A 
ATOM     46  N   UNL     1       5.450   1.950  -3.167  1.00  0.00    -0.354 N 
ATOM     47  C   UNL     1       7.147   5.899  -1.858  1.00  0.00     0.074 A 
ATOM     48  C   UNL     1       6.668   6.228  -0.538  1.00  0.00     0.031 C 
ATOM     49  C   UNL     1       4.050   0.216  -2.893  1.00  0.00     0.029 A 
ATOM     50  C   UNL     1       5.026   0.798  -3.788  1.00  0.00     0.049 A 
ATOM     51  H   UNL     1       6.157   2.532  -3.530  1.00  0.00     0.167 HD
ATOM     52  C   UNL     1       8.012   6.635  -2.584  1.00  0.00     0.037 A 
ATOM     53  C   UNL     1       5.359   0.310  -4.991  1.00  0.00     0.037 A 
ATOM     54  C   UNL     1       8.465   6.190  -3.874  1.00  0.00     0.049 A 
ATOM     55  C   UNL     1       6.336   1.137  -5.764  1.00  0.00     0.074 A 
ATOM     56  C   UNL     1       9.361   6.786  -4.732  1.00  0.00     0.029 A 
ATOM     57  N   UNL     1       8.042   5.005  -4.480  1.00  0.00    -0.354 N 
ATOM     58  N   UNL     1       6.880   2.285  -5.424  1.00  0.00    -0.248 NA
ATOM     59  C   UNL     1       6.745   0.628  -7.069  1.00  0.00     0.031 C 
ATOM     60  C   UNL     1       9.438   5.989  -5.880  1.00  0.00     0.029 A 
ATOM     61  C   UNL     1       8.646   4.858  -5.712  1.00  0.00     0.049 A 
ATOM     62  H   UNL     1       7.405   4.366  -4.085  1.00  0.00     0.167 HD
ATOM     63  C   UNL     1       7.713   2.638  -6.466  1.00  0.00     0.074 A 
ATOM     64  C   UNL     1       7.613   1.559  -7.440  1.00  0.00     0.031 C 
ATOM     65  C   UNL     1       8.486   3.743  -6.620  1.00  0.00     0.037 A 
BRANCH  52  66
ATOM     66  C   UNL     1       8.424   7.954  -2.006  1.00  0.00     0.057 A 
ATOM     67  C   UNL     1       9.134   8.062  -0.799  1.00  0.00     0.134 A 
ATOM     68  C   UNL     1       8.000   9.145  -2.607  1.00  0.00     0.134 A 
ATOM     69  F   UNL     1       9.537   6.961  -0.145  1.00  0.00    -0.206 F 
ATOM     70  C   UNL     1       9.354   9.297  -0.185  1.00  0.00     0.040 A 
ATOM     71  C   UNL     1       8.250  10.388  -2.023  1.00  0.00     0.040 A 
ATOM     72  F   UNL     1       7.300   9.120  -3.751  1.00  0.00    -0.206 F 
ATOM     73  C   UNL     1       8.914  10.465  -0.801  1.00  0.00     0.006 A 
ENDBRANCH  52  66
BRANCH  53  74
ATOM     74  C   UNL     1       4.750  -0.948  -5.493  1.00  0.00     0.057 A 
ATOM     75  C   UNL     1       5.515  -2.103  -5.674  1.00  0.00     0.134 A 
ATOM     76  C   UNL     1       3.372  -1.051  -5.740  1.00  0.00     0.134 A 
ATOM     77  F   UNL     1       6.836  -2.080  -5.444  1.00  0.00    -0.206 F 
ATOM     78  C   UNL     1       4.943  -3.305  -6.102  1.00  0.00     0.040 A 
ATOM     79  C   UNL     1       2.781  -2.252  -6.139  1.00  0.00     0.040 A 
ATOM     80  F   UNL     1       2.567   0.007  -5.555  1.00  0.00    -0.206 F 
ATOM     81  C   UNL     1       3.570  -3.383  -6.331  1.00  0.00     0.006 A 
ENDBRANCH  53  74
BRANCH  65  82
ATOM     82  C   UNL     1       9.298   3.788  -7.872  1.00  0.00     0.057 A 
ATOM     83  C   UNL     1       8.712   4.014  -9.122  1.00  0.00     0.134 A 
ATOM     84  C   UNL     1      10.689   3.653  -7.806  1.00  0.00     0.134 A 
ATOM     85  F   UNL     1       7.381   4.130  -9.241  1.00  0.00    -0.206 F 
ATOM     86  C   UNL     1       9.488   4.081 -10.276  1.00  0.00     0.040 A 
ATOM     87  C   UNL     1      11.477   3.760  -8.947  1.00  0.00     0.040 A 
ATOM     88  F   UNL     1      11.300   3.444  -6.630  1.00  0.00    -0.206 F 
ATOM     89  C   UNL     1      10.875   3.966 -10.187  1.00  0.00     0.006 A 
ENDBRANCH  65  82
ENDBRANCH  39  40
ENDBRANCH  32  34
ENDBRANCH  31  32
ENDBRANCH  30  31
ENDBRANCH   1  30
TORSDOF 15
