REMARK SMILES O=C(OCCOC(=O)[C@@H]1CC2(CC[NH2+]CC2)C[N@@H+]1Cc1cccc2nonc12)c1ccc(-c2c3nc(c(-c4c(F)cccc4F)c4ccc([nH]4)c(-c4c(F)cccc4F)c4nc(c(-c5c(F)cccc5F)c5ccc2[nH]5)C=C4)C=C3)cc1
REMARK SMILES IDX 4 1 3 2 2 3 1 4 29 5 30 6 82 7 31 8 81 9 32 10 33 11 34 12
REMARK SMILES IDX 75 13 35 14 80 15 74 16 76 17 36 18 79 19 73 20 72 21 37 23
REMARK SMILES IDX 63 24 46 25 62 26 47 27 50 28 61 29 77 30 48 31 49 32 60 34
REMARK SMILES IDX 78 35 51 36 38 37 39 38 44 39 40 40 41 41 43 42 45 43 42 44
REMARK SMILES IDX 64 45 65 46 70 47 66 48 67 49 69 50 71 51 68 52 52 53 53 54
REMARK SMILES IDX 58 55 54 56 55 57 57 58 59 59 56 60 5 61 6 62 7 63 8 64 9 65
REMARK SMILES IDX 10 66 18 67 11 68 17 69 12 71 16 72 13 73 15 74 14 75 19 78
REMARK SMILES IDX 20 79 21 80 28 81 22 82 24 83 27 84 23 85 25 86 26 87
REMARK H PARENT 76 22 50 33 18 70 14 76 14 77
REMARK Flexibility Score: inf
ROOT
ATOM      1  C   UNL     1       3.855   1.367  -1.339  1.00  0.00     0.275 C 
ENDROOT
BRANCH   1   2
ATOM      2  O   UNL     1       2.737   0.473  -1.415  1.00  0.00    -0.458 OA
BRANCH   2   3
ATOM      3  C   UNL     1       2.213  -0.289  -0.436  1.00  0.00     0.338 C 
ATOM      4  O   UNL     1       1.139  -0.855  -0.640  1.00  0.00    -0.246 OA
BRANCH   3   5
ATOM      5  C   UNL     1       2.802  -0.466   0.933  1.00  0.00     0.060 A 
ATOM      6  C   UNL     1       1.565  -1.156   2.070  1.00  0.00     0.016 A 
ATOM      7  C   UNL     1       4.479  -0.080   1.570  1.00  0.00     0.016 A 
ATOM      8  C   UNL     1       1.972  -1.459   3.790  1.00  0.00     0.010 A 
ATOM      9  C   UNL     1       4.916  -0.527   3.321  1.00  0.00     0.010 A 
ATOM     10  C   UNL     1       3.594  -1.091   4.467  1.00  0.00    -0.014 A 
BRANCH  10  11
ATOM     11  C   UNL     1       3.731  -0.893   5.956  1.00  0.00     0.031 A 
ATOM     12  C   UNL     1       5.105  -0.564   6.462  1.00  0.00     0.074 A 
ATOM     13  C   UNL     1       2.737  -0.469   6.785  1.00  0.00     0.049 A 
ATOM     14  N   UNL     1       5.542   0.648   6.686  1.00  0.00    -0.248 NA
ATOM     15  C   UNL     1       6.129  -1.601   6.578  1.00  0.00     0.031 C 
ATOM     16  C   UNL     1       1.376  -0.034   6.447  1.00  0.00     0.029 A 
ATOM     17  N   UNL     1       2.824  -0.147   8.124  1.00  0.00    -0.354 N 
ATOM     18  C   UNL     1       6.909   0.556   6.835  1.00  0.00     0.074 A 
ATOM     19  C   UNL     1       7.220  -0.861   6.814  1.00  0.00     0.031 C 
ATOM     20  C   UNL     1       0.809   0.585   7.503  1.00  0.00     0.029 A 
ATOM     21  C   UNL     1       1.729   0.533   8.628  1.00  0.00     0.049 A 
ATOM     22  H   UNL     1       3.603  -0.382   8.678  1.00  0.00     0.167 HD
ATOM     23  C   UNL     1       7.766   1.607   6.890  1.00  0.00     0.037 A 
ATOM     24  C   UNL     1       1.630   1.402   9.667  1.00  0.00     0.037 A 
ATOM     25  C   UNL     1       7.272   2.951   6.839  1.00  0.00     0.049 A 
ATOM     26  C   UNL     1       2.845   2.280   9.728  1.00  0.00     0.074 A 
ATOM     27  C   UNL     1       7.302   3.990   5.937  1.00  0.00     0.029 A 
ATOM     28  N   UNL     1       6.910   3.569   8.008  1.00  0.00    -0.354 N 
ATOM     29  N   UNL     1       2.938   3.536   9.361  1.00  0.00    -0.248 NA
ATOM     30  C   UNL     1       4.115   1.660  10.072  1.00  0.00     0.031 C 
ATOM     31  C   UNL     1       6.614   5.084   6.555  1.00  0.00     0.029 A 
ATOM     32  C   UNL     1       6.049   4.613   7.740  1.00  0.00     0.049 A 
ATOM     33  H   UNL     1       7.218   3.306   8.906  1.00  0.00     0.167 HD
ATOM     34  C   UNL     1       4.311   3.806   9.238  1.00  0.00     0.074 A 
ATOM     35  C   UNL     1       4.965   2.622   9.758  1.00  0.00     0.031 C 
ATOM     36  C   UNL     1       4.866   4.885   8.577  1.00  0.00     0.037 A 
BRANCH  23  37
ATOM     37  C   UNL     1       9.226   1.433   6.991  1.00  0.00     0.057 A 
ATOM     38  C   UNL     1      10.003   1.124   5.874  1.00  0.00     0.134 A 
ATOM     39  C   UNL     1       9.875   1.805   8.173  1.00  0.00     0.134 A 
ATOM     40  F   UNL     1       9.422   0.781   4.713  1.00  0.00    -0.206 F 
ATOM     41  C   UNL     1      11.392   1.213   5.925  1.00  0.00     0.040 A 
ATOM     42  C   UNL     1      11.260   1.905   8.235  1.00  0.00     0.040 A 
ATOM     43  F   UNL     1       9.160   2.124   9.265  1.00  0.00    -0.206 F 
ATOM     44  C   UNL     1      12.022   1.619   7.103  1.00  0.00     0.006 A 
ENDBRANCH  23  37
BRANCH  24  45
ATOM     45  C   UNL     1       0.999   0.777  10.875  1.00  0.00     0.057 A 
ATOM     46  C   UNL     1       1.709   0.335  12.004  1.00  0.00     0.134 A 
ATOM     47  C   UNL     1      -0.370   0.461  10.858  1.00  0.00     0.134 A 
ATOM     48  F   UNL     1       3.008   0.604  12.171  1.00  0.00    -0.206 F 
ATOM     49  C   UNL     1       1.121  -0.445  13.006  1.00  0.00     0.040 A 
ATOM     50  C   UNL     1      -0.974  -0.310  11.861  1.00  0.00     0.040 A 
ATOM     51  F   UNL     1      -1.148   0.876   9.847  1.00  0.00    -0.206 F 
ATOM     52  C   UNL     1      -0.221  -0.786  12.928  1.00  0.00     0.006 A 
ENDBRANCH  24  45
BRANCH  36  53
ATOM     53  C   UNL     1       3.990   6.139   8.479  1.00  0.00     0.057 A 
ATOM     54  C   UNL     1       3.890   6.989   7.367  1.00  0.00     0.134 A 
ATOM     55  C   UNL     1       3.178   6.538   9.559  1.00  0.00     0.134 A 
ATOM     56  F   UNL     1       4.706   6.885   6.317  1.00  0.00    -0.206 F 
ATOM     57  C   UNL     1       2.909   7.982   7.229  1.00  0.00     0.040 A 
ATOM     58  C   UNL     1       2.211   7.554   9.456  1.00  0.00     0.040 A 
ATOM     59  F   UNL     1       3.323   5.969  10.767  1.00  0.00    -0.206 F 
ATOM     60  C   UNL     1       2.036   8.245   8.266  1.00  0.00     0.006 A 
ENDBRANCH  36  53
ENDBRANCH  10  11
ENDBRANCH   3   5
ENDBRANCH   2   3
ENDBRANCH   1   2
BRANCH   1  61
ATOM     61  C   UNL     1       3.547   2.620  -0.531  1.00  0.00     0.274 C 
BRANCH  61  62
ATOM     62  O   UNL     1       3.273   2.232   0.815  1.00  0.00    -0.458 OA
BRANCH  62  63
ATOM     63  C   UNL     1       1.973   2.085   1.177  1.00  0.00     0.365 C 
ATOM     64  O   UNL     1       1.030   2.552   0.549  1.00  0.00    -0.245 OA
BRANCH  63  65
ATOM     65  C   UNL     1       1.805   1.272   2.478  1.00  0.00     0.296 C 
ATOM     66  C   UNL     1       1.729   2.362   3.552  1.00  0.00     0.091 C 
ATOM     67  N   UNL     1       2.991   0.226   2.932  1.00  0.00    -0.319 N 
ATOM     68  C   UNL     1       3.142   2.699   3.971  1.00  0.00     0.036 C 
ATOM     69  C   UNL     1       3.908   1.435   3.655  1.00  0.00     0.270 C 
ATOM     70  H   UNL     1       2.762  -0.740   3.163  1.00  0.00     0.349 HD
ATOM     71  C   UNL     1       3.170   3.055   5.469  1.00  0.00     0.074 C 
ATOM     72  C   UNL     1       3.869   3.877   3.276  1.00  0.00     0.074 C 
ATOM     73  C   UNL     1       2.425   4.362   5.689  1.00  0.00     0.261 C 
ATOM     74  C   UNL     1       3.195   5.206   3.523  1.00  0.00     0.261 C 
ATOM     75  N   UNL     1       3.044   5.459   4.944  1.00  0.00    -0.346 N 
ATOM     76  H   UNL     1       3.970   5.630   5.337  1.00  0.00     0.346 HD
ATOM     77  H   UNL     1       2.421   6.261   5.033  1.00  0.00     0.346 HD
BRANCH  67  78
ATOM     78  C   UNL     1       3.580  -1.738   2.386  1.00  0.00     0.302 C 
BRANCH  78  79
ATOM     79  C   UNL     1       4.802  -2.347   1.220  1.00  0.00     0.038 A 
ATOM     80  C   UNL     1       6.202  -2.282   1.544  1.00  0.00     0.012 A 
ATOM     81  C   UNL     1       4.588  -2.512  -0.179  1.00  0.00     0.144 A 
ATOM     82  C   UNL     1       7.206  -1.973   0.584  1.00  0.00     0.003 A 
ATOM     83  C   UNL     1       5.633  -2.203  -1.158  1.00  0.00     0.135 A 
ATOM     84  N   UNL     1       3.483  -2.833  -0.859  1.00  0.00    -0.049 NA
ATOM     85  C   UNL     1       6.941  -1.843  -0.789  1.00  0.00     0.034 A 
ATOM     86  N   UNL     1       5.093  -2.244  -2.381  1.00  0.00    -0.050 NA
ATOM     87  O   UNL     1       3.784  -2.653  -2.198  1.00  0.00    -0.243 OA
ENDBRANCH  78  79
ENDBRANCH  67  78
ENDBRANCH  63  65
ENDBRANCH  62  63
ENDBRANCH  61  62
ENDBRANCH   1  61
TORSDOF 13
