REMARK SMILES O=C(OCCOC(=O)[C@H]1CC2(CC[NH+](C(=O)c3cc4ccccc4[nH]3)CC2)CN1C(=O)C1CC1)c1ccc(-c2c3nc(c(-c4c(F)cccc4F)c4ccc([nH]4)c(-c4c(F)cccc4F)c4nc(c(-c5c(F)cccc5F)c5ccc2[nH]5)C=C4)C=C3)cc1
REMARK SMILES IDX 4 1 3 2 2 3 1 4 35 5 36 6 88 7 37 8 87 9 38 10 39 11 40 12
REMARK SMILES IDX 81 13 41 14 86 15 80 16 82 17 42 18 85 19 79 20 78 21 43 23
REMARK SMILES IDX 69 24 52 25 68 26 53 27 56 28 67 29 83 30 54 31 55 32 66 34
REMARK SMILES IDX 84 35 57 36 44 37 45 38 50 39 46 40 47 41 49 42 51 43 48 44
REMARK SMILES IDX 70 45 71 46 76 47 72 48 73 49 75 50 77 51 74 52 58 53 59 54
REMARK SMILES IDX 64 55 60 56 61 57 63 58 65 59 62 60 5 61 6 62 7 63 8 64 9 65
REMARK SMILES IDX 10 66 29 67 11 68 28 69 12 70 27 71 13 72 26 73 14 74 30 76
REMARK SMILES IDX 31 77 32 78 33 79 34 80 15 81 16 82 17 83 18 84 25 85 19 86
REMARK SMILES IDX 24 87 20 89 23 90 21 91 22 92
REMARK H PARENT 82 22 56 33 14 75 25 88
REMARK Flexibility Score: inf
ROOT
ATOM      1  C   UNL     1       5.704  -2.837  -5.635  1.00  0.00     0.275 C 
ENDROOT
BRANCH   1   2
ATOM      2  O   UNL     1       4.900  -1.754  -6.118  1.00  0.00    -0.458 OA
BRANCH   2   3
ATOM      3  C   UNL     1       3.585  -1.507  -5.947  1.00  0.00     0.338 C 
ATOM      4  O   UNL     1       3.188  -0.379  -6.246  1.00  0.00    -0.246 OA
BRANCH   3   5
ATOM      5  C   UNL     1       2.550  -2.474  -5.422  1.00  0.00     0.060 A 
ATOM      6  C   UNL     1       2.726  -3.729  -4.827  1.00  0.00     0.016 A 
ATOM      7  C   UNL     1       1.232  -2.000  -5.484  1.00  0.00     0.016 A 
ATOM      8  C   UNL     1       1.647  -4.444  -4.252  1.00  0.00     0.010 A 
ATOM      9  C   UNL     1       0.171  -2.673  -4.866  1.00  0.00     0.010 A 
ATOM     10  C   UNL     1       0.358  -3.913  -4.243  1.00  0.00    -0.014 A 
BRANCH  10  11
ATOM     11  C   UNL     1      -0.853  -4.669  -3.796  1.00  0.00     0.031 A 
ATOM     12  C   UNL     1      -1.878  -4.969  -4.843  1.00  0.00     0.074 A 
ATOM     13  C   UNL     1      -1.131  -4.979  -2.513  1.00  0.00     0.049 A 
ATOM     14  N   UNL     1      -3.117  -5.348  -4.699  1.00  0.00    -0.248 NA
ATOM     15  C   UNL     1      -1.474  -4.712  -6.235  1.00  0.00     0.031 C 
ATOM     16  C   UNL     1      -0.254  -4.699  -1.397  1.00  0.00     0.029 A 
ATOM     17  N   UNL     1      -2.221  -5.566  -1.912  1.00  0.00    -0.354 N 
ATOM     18  C   UNL     1      -3.658  -5.292  -5.971  1.00  0.00     0.074 A 
ATOM     19  C   UNL     1      -2.640  -4.764  -6.852  1.00  0.00     0.031 C 
ATOM     20  C   UNL     1      -0.821  -5.076  -0.243  1.00  0.00     0.029 A 
ATOM     21  C   UNL     1      -2.112  -5.673  -0.539  1.00  0.00     0.049 A 
ATOM     22  H   UNL     1      -3.007  -5.880  -2.415  1.00  0.00     0.167 HD
ATOM     23  C   UNL     1      -4.885  -5.684  -6.375  1.00  0.00     0.037 A 
ATOM     24  C   UNL     1      -2.943  -6.213   0.375  1.00  0.00     0.037 A 
ATOM     25  C   UNL     1      -5.844  -6.305  -5.507  1.00  0.00     0.049 A 
ATOM     26  C   UNL     1      -4.240  -6.784  -0.113  1.00  0.00     0.074 A 
ATOM     27  C   UNL     1      -7.080  -6.833  -5.824  1.00  0.00     0.029 A 
ATOM     28  N   UNL     1      -5.652  -6.513  -4.146  1.00  0.00    -0.354 N 
ATOM     29  N   UNL     1      -4.733  -6.756  -1.328  1.00  0.00    -0.248 NA
ATOM     30  C   UNL     1      -5.097  -7.456   0.873  1.00  0.00     0.031 C 
ATOM     31  C   UNL     1      -7.637  -7.364  -4.655  1.00  0.00     0.029 A 
ATOM     32  C   UNL     1      -6.739  -7.183  -3.613  1.00  0.00     0.049 A 
ATOM     33  H   UNL     1      -4.859  -6.227  -3.637  1.00  0.00     0.167 HD
ATOM     34  C   UNL     1      -5.955  -7.402  -1.258  1.00  0.00     0.074 A 
ATOM     35  C   UNL     1      -6.117  -7.840   0.116  1.00  0.00     0.031 C 
ATOM     36  C   UNL     1      -6.867  -7.601  -2.239  1.00  0.00     0.037 A 
BRANCH  23  37
ATOM     37  C   UNL     1      -5.202  -5.454  -7.820  1.00  0.00     0.057 A 
ATOM     38  C   UNL     1      -4.539  -6.151  -8.841  1.00  0.00     0.134 A 
ATOM     39  C   UNL     1      -6.095  -4.446  -8.196  1.00  0.00     0.134 A 
ATOM     40  F   UNL     1      -3.636  -7.098  -8.542  1.00  0.00    -0.206 F 
ATOM     41  C   UNL     1      -4.707  -5.811 -10.183  1.00  0.00     0.040 A 
ATOM     42  C   UNL     1      -6.301  -4.123  -9.538  1.00  0.00     0.040 A 
ATOM     43  F   UNL     1      -6.750  -3.733  -7.268  1.00  0.00    -0.206 F 
ATOM     44  C   UNL     1      -5.593  -4.795 -10.534  1.00  0.00     0.006 A 
ENDBRANCH  23  37
BRANCH  24  45
ATOM     45  C   UNL     1      -2.551  -6.294   1.810  1.00  0.00     0.057 A 
ATOM     46  C   UNL     1      -2.195  -7.518   2.395  1.00  0.00     0.134 A 
ATOM     47  C   UNL     1      -2.494  -5.159   2.628  1.00  0.00     0.134 A 
ATOM     48  F   UNL     1      -2.250  -8.649   1.676  1.00  0.00    -0.206 F 
ATOM     49  C   UNL     1      -1.801  -7.611   3.733  1.00  0.00     0.040 A 
ATOM     50  C   UNL     1      -2.082  -5.234   3.963  1.00  0.00     0.040 A 
ATOM     51  F   UNL     1      -2.823  -3.955   2.138  1.00  0.00    -0.206 F 
ATOM     52  C   UNL     1      -1.735  -6.463   4.520  1.00  0.00     0.006 A 
ENDBRANCH  24  45
BRANCH  36  53
ATOM     53  C   UNL     1      -8.108  -8.336  -1.850  1.00  0.00     0.057 A 
ATOM     54  C   UNL     1      -9.130  -7.712  -1.125  1.00  0.00     0.134 A 
ATOM     55  C   UNL     1      -8.288  -9.672  -2.222  1.00  0.00     0.134 A 
ATOM     56  F   UNL     1      -9.000  -6.437  -0.727  1.00  0.00    -0.206 F 
ATOM     57  C   UNL     1     -10.287  -8.400  -0.769  1.00  0.00     0.040 A 
ATOM     58  C   UNL     1      -9.450 -10.365  -1.889  1.00  0.00     0.040 A 
ATOM     59  F   UNL     1      -7.341 -10.319  -2.918  1.00  0.00    -0.206 F 
ATOM     60  C   UNL     1     -10.452  -9.730  -1.156  1.00  0.00     0.006 A 
ENDBRANCH  36  53
ENDBRANCH  10  11
ENDBRANCH   3   5
ENDBRANCH   2   3
ENDBRANCH   1   2
BRANCH   1  61
ATOM     61  C   UNL     1       6.088  -2.646  -4.171  1.00  0.00     0.274 C 
BRANCH  61  62
ATOM     62  O   UNL     1       4.933  -2.370  -3.356  1.00  0.00    -0.461 OA
BRANCH  62  63
ATOM     63  C   UNL     1       4.951  -1.227  -2.620  1.00  0.00     0.328 C 
ATOM     64  O   UNL     1       5.831  -0.376  -2.683  1.00  0.00    -0.250 OA
BRANCH  63  65
ATOM     65  C   UNL     1       3.739  -1.085  -1.683  1.00  0.00     0.195 C 
ATOM     66  C   UNL     1       2.853   0.091  -2.175  1.00  0.00     0.046 C 
ATOM     67  N   UNL     1       2.794  -2.178  -1.485  1.00  0.00    -0.328 N 
ATOM     68  C   UNL     1       1.404  -0.177  -1.694  1.00  0.00     0.001 C 
ATOM     69  C   UNL     1       1.459  -1.646  -1.244  1.00  0.00     0.128 C 
ATOM     70  C   UNL     1       0.365  -0.046  -2.825  1.00  0.00     0.071 C 
ATOM     71  C   UNL     1       0.921   0.739  -0.549  1.00  0.00     0.071 C 
ATOM     72  C   UNL     1       0.069   1.368  -3.281  1.00  0.00     0.271 C 
ATOM     73  C   UNL     1       0.499   2.151  -0.998  1.00  0.00     0.271 C 
ATOM     74  N   UNL     1      -0.396   2.158  -2.160  1.00  0.00    -0.266 N 
ATOM     75  H   UNL     1       0.410   2.641  -2.454  1.00  0.00     0.357 HD
BRANCH  67  76
ATOM     76  C   UNL     1       3.114  -3.391  -0.874  1.00  0.00     0.226 C 
ATOM     77  O   UNL     1       2.391  -3.902  -0.019  1.00  0.00    -0.275 OA
BRANCH  76  78
ATOM     78  C   UNL     1       4.270  -4.200  -1.357  1.00  0.00     0.079 C 
ATOM     79  C   UNL     1       5.695  -4.050  -0.893  1.00  0.00     0.014 C 
ATOM     80  C   UNL     1       4.872  -5.172  -0.351  1.00  0.00     0.014 C 
ENDBRANCH  76  78
ENDBRANCH  67  76
BRANCH  74  81
ATOM     81  C   UNL     1      -1.389   3.145  -2.251  1.00  0.00     0.360 C 
ATOM     82  O   UNL     1      -1.571   3.939  -1.330  1.00  0.00    -0.224 OA
BRANCH  81  83
ATOM     83  C   UNL     1      -2.170   3.253  -3.475  1.00  0.00     0.145 A 
ATOM     84  C   UNL     1      -2.324   4.377  -4.273  1.00  0.00     0.046 A 
ATOM     85  N   UNL     1      -3.013   2.294  -4.002  1.00  0.00    -0.347 N 
ATOM     86  C   UNL     1      -3.232   4.078  -5.324  1.00  0.00     0.000 A 
ATOM     87  C   UNL     1      -3.650   2.762  -5.135  1.00  0.00     0.046 A 
ATOM     88  H   UNL     1      -3.143   1.396  -3.620  1.00  0.00     0.167 HD
ATOM     89  C   UNL     1      -3.751   4.812  -6.409  1.00  0.00     0.010 A 
ATOM     90  C   UNL     1      -4.574   2.142  -5.991  1.00  0.00     0.026 A 
ATOM     91  C   UNL     1      -4.672   4.207  -7.272  1.00  0.00     0.001 A 
ATOM     92  C   UNL     1      -5.075   2.891  -7.064  1.00  0.00     0.002 A 
ENDBRANCH  81  83
ENDBRANCH  74  81
ENDBRANCH  63  65
ENDBRANCH  62  63
ENDBRANCH  61  62
ENDBRANCH   1  61
TORSDOF 15
