REMARK SMILES O=C(OCCOC(=O)c1cc(-c2cc(Cl)ccc2Cl)cc([N+](=O)[O-])c1)c1ccc(-c2c3nc(c(-c4c(F)cccc4F)c4ccc([nH]4)c(-c4c(F)cccc4F)c4nc(c(-c5c(F)cccc5F)c5ccc2[nH]5)C=C4)C=C3)cc1
REMARK SMILES IDX 4 1 3 2 2 3 1 4 26 5 27 6 79 7 28 8 78 9 29 10 30 11 31 12
REMARK SMILES IDX 72 13 32 14 77 15 71 16 73 17 33 18 76 19 70 20 69 21 34 23
REMARK SMILES IDX 60 24 43 25 59 26 44 27 47 28 58 29 74 30 45 31 46 32 57 34
REMARK SMILES IDX 75 35 48 36 35 37 36 38 41 39 37 40 38 41 40 42 42 43 39 44
REMARK SMILES IDX 61 45 62 46 67 47 63 48 64 49 66 50 68 51 65 52 49 53 50 54
REMARK SMILES IDX 55 55 51 56 52 57 54 58 56 59 53 60 5 61 6 62 7 63 8 64 9 65
REMARK SMILES IDX 10 66 25 67 11 68 21 69 20 70 12 71 13 72 18 73 14 74 17 75
REMARK SMILES IDX 19 76 15 77 16 78 22 79 23 80 24 81
REMARK H PARENT 73 22 47 33
REMARK Flexibility Score: inf
ROOT
ATOM      1  C   UNL     1       4.084   1.252   0.779  1.00  0.00     0.275 C 
ENDROOT
BRANCH   1   2
ATOM      2  O   UNL     1       3.026   1.113  -0.186  1.00  0.00    -0.458 OA
BRANCH   2   3
ATOM      3  C   UNL     1       2.845   0.204  -1.171  1.00  0.00     0.338 C 
ATOM      4  O   UNL     1       1.913   0.368  -1.957  1.00  0.00    -0.246 OA
BRANCH   3   5
ATOM      5  C   UNL     1       3.627  -1.070  -1.293  1.00  0.00     0.060 A 
ATOM      6  C   UNL     1       4.894  -1.321  -0.765  1.00  0.00     0.016 A 
ATOM      7  C   UNL     1       2.994  -2.118  -1.989  1.00  0.00     0.016 A 
ATOM      8  C   UNL     1       5.474  -2.588  -0.844  1.00  0.00     0.010 A 
ATOM      9  C   UNL     1       3.560  -3.394  -2.060  1.00  0.00     0.010 A 
ATOM     10  C   UNL     1       4.809  -3.635  -1.479  1.00  0.00    -0.014 A 
BRANCH  10  11
ATOM     11  C   UNL     1       5.499  -4.927  -1.665  1.00  0.00     0.031 A 
ATOM     12  C   UNL     1       6.062  -5.241  -3.016  1.00  0.00     0.074 A 
ATOM     13  C   UNL     1       5.692  -5.768  -0.632  1.00  0.00     0.049 A 
ATOM     14  N   UNL     1       6.718  -6.300  -3.406  1.00  0.00    -0.248 NA
ATOM     15  C   UNL     1       5.911  -4.205  -4.052  1.00  0.00     0.031 C 
ATOM     16  C   UNL     1       5.337  -5.499   0.759  1.00  0.00     0.029 A 
ATOM     17  N   UNL     1       6.227  -7.030  -0.594  1.00  0.00    -0.354 N 
ATOM     18  C   UNL     1       7.104  -6.035  -4.710  1.00  0.00     0.074 A 
ATOM     19  C   UNL     1       6.544  -4.754  -5.076  1.00  0.00     0.031 C 
ATOM     20  C   UNL     1       5.577  -6.596   1.497  1.00  0.00     0.029 A 
ATOM     21  C   UNL     1       6.098  -7.641   0.631  1.00  0.00     0.049 A 
ATOM     22  H   UNL     1       6.660  -7.458  -1.368  1.00  0.00     0.167 HD
ATOM     23  C   UNL     1       7.896  -6.780  -5.512  1.00  0.00     0.037 A 
ATOM     24  C   UNL     1       6.353  -8.909   1.003  1.00  0.00     0.037 A 
ATOM     25  C   UNL     1       8.429  -8.061  -5.139  1.00  0.00     0.049 A 
ATOM     26  C   UNL     1       7.035  -9.809   0.019  1.00  0.00     0.074 A 
ATOM     27  C   UNL     1       9.242  -8.904  -5.874  1.00  0.00     0.029 A 
ATOM     28  N   UNL     1       8.183  -8.693  -3.928  1.00  0.00    -0.354 N 
ATOM     29  N   UNL     1       7.423  -9.541  -1.204  1.00  0.00    -0.248 NA
ATOM     30  C   UNL     1       7.371 -11.161   0.481  1.00  0.00     0.031 C 
ATOM     31  C   UNL     1       9.435 -10.073  -5.132  1.00  0.00     0.029 A 
ATOM     32  C   UNL     1       8.793  -9.935  -3.911  1.00  0.00     0.049 A 
ATOM     33  H   UNL     1       7.653  -8.313  -3.190  1.00  0.00     0.167 HD
ATOM     34  C   UNL     1       8.107 -10.665  -1.637  1.00  0.00     0.074 A 
ATOM     35  C   UNL     1       8.065 -11.623  -0.549  1.00  0.00     0.031 C 
ATOM     36  C   UNL     1       8.738 -10.872  -2.818  1.00  0.00     0.037 A 
BRANCH  23  37
ATOM     37  C   UNL     1       8.206  -6.226  -6.868  1.00  0.00     0.057 A 
ATOM     38  C   UNL     1       9.067  -5.134  -7.041  1.00  0.00     0.134 A 
ATOM     39  C   UNL     1       7.638  -6.791  -8.014  1.00  0.00     0.134 A 
ATOM     40  F   UNL     1       9.622  -4.529  -5.979  1.00  0.00    -0.206 F 
ATOM     41  C   UNL     1       9.338  -4.613  -8.307  1.00  0.00     0.040 A 
ATOM     42  C   UNL     1       7.919  -6.294  -9.287  1.00  0.00     0.040 A 
ATOM     43  F   UNL     1       6.797  -7.832  -7.915  1.00  0.00    -0.206 F 
ATOM     44  C   UNL     1       8.768  -5.199  -9.435  1.00  0.00     0.006 A 
ENDBRANCH  23  37
BRANCH  24  45
ATOM     45  C   UNL     1       5.956  -9.406   2.343  1.00  0.00     0.057 A 
ATOM     46  C   UNL     1       6.891  -9.663   3.349  1.00  0.00     0.134 A 
ATOM     47  C   UNL     1       4.615  -9.698   2.620  1.00  0.00     0.134 A 
ATOM     48  F   UNL     1       8.196  -9.443   3.129  1.00  0.00    -0.206 F 
ATOM     49  C   UNL     1       6.511 -10.204   4.580  1.00  0.00     0.040 A 
ATOM     50  C   UNL     1       4.215 -10.211   3.856  1.00  0.00     0.040 A 
ATOM     51  F   UNL     1       3.681  -9.525   1.675  1.00  0.00    -0.206 F 
ATOM     52  C   UNL     1       5.167 -10.473   4.838  1.00  0.00     0.006 A 
ENDBRANCH  24  45
BRANCH  36  53
ATOM     53  C   UNL     1       9.478 -12.165  -2.969  1.00  0.00     0.057 A 
ATOM     54  C   UNL     1       8.813 -13.388  -3.112  1.00  0.00     0.134 A 
ATOM     55  C   UNL     1      10.878 -12.176  -2.998  1.00  0.00     0.134 A 
ATOM     56  F   UNL     1       7.473 -13.443  -3.073  1.00  0.00    -0.206 F 
ATOM     57  C   UNL     1       9.517 -14.583  -3.255  1.00  0.00     0.040 A 
ATOM     58  C   UNL     1      11.592 -13.360  -3.174  1.00  0.00     0.040 A 
ATOM     59  F   UNL     1      11.573 -11.035  -2.872  1.00  0.00    -0.206 F 
ATOM     60  C   UNL     1      10.911 -14.569  -3.295  1.00  0.00     0.006 A 
ENDBRANCH  36  53
ENDBRANCH  10  11
ENDBRANCH   3   5
ENDBRANCH   2   3
ENDBRANCH   1   2
BRANCH   1  61
ATOM     61  C   UNL     1       3.920   0.404   2.046  1.00  0.00     0.275 C 
BRANCH  61  62
ATOM     62  O   UNL     1       3.479  -0.943   1.802  1.00  0.00    -0.458 OA
BRANCH  62  63
ATOM     63  C   UNL     1       2.135  -1.122   1.829  1.00  0.00     0.338 C 
ATOM     64  O   UNL     1       1.287  -0.273   2.065  1.00  0.00    -0.246 OA
BRANCH  63  65
ATOM     65  C   UNL     1       1.802  -2.497   1.407  1.00  0.00     0.067 A 
ATOM     66  C   UNL     1       0.800  -2.678   0.438  1.00  0.00     0.025 A 
ATOM     67  C   UNL     1       2.399  -3.598   2.021  1.00  0.00     0.101 A 
ATOM     68  C   UNL     1       0.435  -3.967   0.014  1.00  0.00    -0.009 A 
ATOM     69  C   UNL     1       2.014  -4.882   1.616  1.00  0.00     0.270 A 
ATOM     70  C   UNL     1       1.107  -5.067   0.567  1.00  0.00     0.094 A 
BRANCH  68  71
ATOM     71  C   UNL     1      -0.731  -4.193  -0.855  1.00  0.00     0.002 A 
ATOM     72  C   UNL     1      -0.717  -3.804  -2.206  1.00  0.00     0.030 A 
ATOM     73  C   UNL     1      -1.901  -4.816  -0.359  1.00  0.00     0.048 A 
ATOM     74  C   UNL     1      -1.828  -4.033  -3.024  1.00  0.00     0.041 A 
ATOM     75  C   UNL     1      -3.002  -5.050  -1.186  1.00  0.00     0.023 A 
ATOM     76  Cl  UNL     1      -2.056  -5.302   1.299  1.00  0.00    -0.084 Cl
ATOM     77  Cl  UNL     1      -1.791  -3.546  -4.674  1.00  0.00    -0.084 Cl
ATOM     78  C   UNL     1      -2.967  -4.655  -2.520  1.00  0.00     0.022 A 
ENDBRANCH  68  71
BRANCH  69  79
ATOM     79  N   UNL     1       2.446  -6.053   2.385  1.00  0.00     0.062 N 
ATOM     80  O   UNL     1       2.112  -7.171   1.973  1.00  0.00    -0.258 OA
ATOM     81  O   UNL     1       3.090  -5.848   3.425  1.00  0.00    -0.258 OA
ENDBRANCH  69  79
ENDBRANCH  63  65
ENDBRANCH  62  63
ENDBRANCH  61  62
ENDBRANCH   1  61
TORSDOF 13
