REMARK SMILES CCS(=O)(=O)N[C@H]1C=C[C@@H](C(=O)OCCOC(=O)c2ccc(-c3c4nc(c(-c5c(F)cccc5F)c5ccc([nH]5)c(-c5c(F)cccc5F)c5nc(c(-c6c(F)cccc6F)c6ccc3[nH]6)C=C5)C=C4)cc2)C1
REMARK SMILES IDX 14 1 13 2 11 3 12 4 10 5 7 6 8 7 73 8 9 9 6 10 3 12 4 13
REMARK SMILES IDX 5 14 2 15 1 16 15 17 16 18 17 19 18 20 19 21 20 22 72 23
REMARK SMILES IDX 21 24 71 25 22 26 23 27 24 28 65 29 25 30 70 31 64 32 66 33
REMARK SMILES IDX 26 34 69 35 63 36 62 37 27 39 53 40 36 41 52 42 37 43 40 44
REMARK SMILES IDX 51 45 67 46 38 47 39 48 50 50 68 51 41 52 28 53 29 54 34 55
REMARK SMILES IDX 30 56 31 57 33 58 35 59 32 60 54 61 55 62 60 63 56 64 57 65
REMARK SMILES IDX 59 66 61 67 58 68 42 69 43 70 48 71 44 72 45 73 47 74 49 75
REMARK SMILES IDX 46 76
REMARK H PARENT 6 11 66 38 40 49
REMARK Flexibility Score: inf
ROOT
ATOM      1  C   UNL     1      -0.320   2.809   1.723  1.00  0.00     0.274 C 
ENDROOT
BRANCH   1   2
ATOM      2  O   UNL     1       0.733   1.830   1.642  1.00  0.00    -0.462 OA
BRANCH   2   3
ATOM      3  C   UNL     1       1.937   2.209   1.148  1.00  0.00     0.312 C 
ATOM      4  O   UNL     1       2.180   3.320   0.687  1.00  0.00    -0.252 OA
BRANCH   3   5
ATOM      5  C   UNL     1       2.998   1.111   1.265  1.00  0.00     0.123 C 
ATOM      6  C   UNL     1       3.266  -1.315   1.067  1.00  0.00     0.093 C 
ATOM      7  C   UNL     1       3.720  -0.600  -0.165  1.00  0.00    -0.011 C 
ATOM      8  C   UNL     1       2.546  -0.232   1.864  1.00  0.00     0.043 C 
ATOM      9  C   UNL     1       3.560   0.724  -0.069  1.00  0.00    -0.015 C 
BRANCH   6  10
ATOM     10  N   UNL     1       2.538  -2.494   0.634  1.00  0.00    -0.208 NA
ATOM     11  H   UNL     1       2.710  -2.539  -0.370  1.00  0.00     0.141 HD
BRANCH  10  12
ATOM     12  S   UNL     1       0.935  -2.868   0.786  1.00  0.00     0.211 S 
ATOM     13  O   UNL     1       0.409  -2.354   2.026  1.00  0.00    -0.212 OA
ATOM     14  O   UNL     1       0.889  -4.292   0.515  1.00  0.00    -0.212 OA
BRANCH  12  15
ATOM     15  C   UNL     1       0.155  -2.070  -0.616  1.00  0.00     0.150 C 
ATOM     16  C   UNL     1      -0.061  -0.583  -0.476  1.00  0.00     0.022 C 
ENDBRANCH  12  15
ENDBRANCH  10  12
ENDBRANCH   6  10
ENDBRANCH   3   5
ENDBRANCH   2   3
ENDBRANCH   1   2
BRANCH   1  17
ATOM     17  C   UNL     1      -0.812   2.912   3.169  1.00  0.00     0.275 C 
BRANCH  17  18
ATOM     18  O   UNL     1       0.202   3.505   4.004  1.00  0.00    -0.458 OA
BRANCH  18  19
ATOM     19  C   UNL     1       1.060   2.620   4.560  1.00  0.00     0.338 C 
ATOM     20  O   UNL     1       1.020   1.403   4.510  1.00  0.00    -0.246 OA
BRANCH  19  21
ATOM     21  C   UNL     1       2.217   3.340   5.103  1.00  0.00     0.060 A 
ATOM     22  C   UNL     1       3.448   3.116   4.486  1.00  0.00     0.016 A 
ATOM     23  C   UNL     1       2.126   4.135   6.243  1.00  0.00     0.016 A 
ATOM     24  C   UNL     1       4.609   3.657   5.015  1.00  0.00     0.010 A 
ATOM     25  C   UNL     1       3.294   4.693   6.772  1.00  0.00     0.010 A 
ATOM     26  C   UNL     1       4.542   4.439   6.172  1.00  0.00    -0.014 A 
BRANCH  26  27
ATOM     27  C   UNL     1       5.800   4.913   6.789  1.00  0.00     0.031 A 
ATOM     28  C   UNL     1       6.276   4.291   8.067  1.00  0.00     0.074 A 
ATOM     29  C   UNL     1       6.532   5.859   6.175  1.00  0.00     0.049 A 
ATOM     30  N   UNL     1       7.298   4.616   8.816  1.00  0.00    -0.248 NA
ATOM     31  C   UNL     1       5.494   3.151   8.572  1.00  0.00     0.031 C 
ATOM     32  C   UNL     1       6.195   6.489   4.897  1.00  0.00     0.029 A 
ATOM     33  N   UNL     1       7.710   6.453   6.544  1.00  0.00    -0.354 N 
ATOM     34  C   UNL     1       7.265   3.743   9.895  1.00  0.00     0.074 A 
ATOM     35  C   UNL     1       6.114   2.885   9.712  1.00  0.00     0.031 C 
ATOM     36  C   UNL     1       7.146   7.385   4.590  1.00  0.00     0.029 A 
ATOM     37  C   UNL     1       8.126   7.427   5.671  1.00  0.00     0.049 A 
ATOM     38  H   UNL     1       8.209   6.205   7.356  1.00  0.00     0.167 HD
ATOM     39  C   UNL     1       8.120   3.666  10.942  1.00  0.00     0.037 A 
ATOM     40  C   UNL     1       9.162   8.281   5.754  1.00  0.00     0.037 A 
ATOM     41  C   UNL     1       9.271   4.516  11.105  1.00  0.00     0.049 A 
ATOM     42  C   UNL     1      10.073   8.210   6.945  1.00  0.00     0.074 A 
ATOM     43  C   UNL     1      10.201   4.527  12.129  1.00  0.00     0.029 A 
ATOM     44  N   UNL     1       9.649   5.507  10.210  1.00  0.00    -0.354 N 
ATOM     45  N   UNL     1      10.018   7.403   7.978  1.00  0.00    -0.248 NA
ATOM     46  C   UNL     1      11.186   9.167   6.986  1.00  0.00     0.031 C 
ATOM     47  C   UNL     1      11.121   5.550  11.872  1.00  0.00     0.029 A 
ATOM     48  C   UNL     1      10.790   6.147  10.665  1.00  0.00     0.049 A 
ATOM     49  H   UNL     1       9.176   5.724   9.374  1.00  0.00     0.167 HD
ATOM     50  C   UNL     1      11.093   7.746   8.787  1.00  0.00     0.074 A 
ATOM     51  C   UNL     1      11.793   8.822   8.114  1.00  0.00     0.031 C 
ATOM     52  C   UNL     1      11.467   7.219   9.979  1.00  0.00     0.037 A 
BRANCH  39  53
ATOM     53  C   UNL     1       7.808   2.654  12.005  1.00  0.00     0.057 A 
ATOM     54  C   UNL     1       7.957   1.278  11.791  1.00  0.00     0.134 A 
ATOM     55  C   UNL     1       7.335   3.064  13.259  1.00  0.00     0.134 A 
ATOM     56  F   UNL     1       8.387   0.817  10.606  1.00  0.00    -0.206 F 
ATOM     57  C   UNL     1       7.617   0.345  12.773  1.00  0.00     0.040 A 
ATOM     58  C   UNL     1       7.016   2.143  14.257  1.00  0.00     0.040 A 
ATOM     59  F   UNL     1       7.171   4.368  13.531  1.00  0.00    -0.206 F 
ATOM     60  C   UNL     1       7.147   0.777  14.011  1.00  0.00     0.006 A 
ENDBRANCH  39  53
BRANCH  40  61
ATOM     61  C   UNL     1       9.363   9.291   4.686  1.00  0.00     0.057 A 
ATOM     62  C   UNL     1      10.424   9.192   3.781  1.00  0.00     0.134 A 
ATOM     63  C   UNL     1       8.473  10.361   4.525  1.00  0.00     0.134 A 
ATOM     64  F   UNL     1      11.319   8.199   3.896  1.00  0.00    -0.206 F 
ATOM     65  C   UNL     1      10.597  10.123   2.755  1.00  0.00     0.040 A 
ATOM     66  C   UNL     1       8.620  11.285   3.490  1.00  0.00     0.040 A 
ATOM     67  F   UNL     1       7.432  10.507   5.358  1.00  0.00    -0.206 F 
ATOM     68  C   UNL     1       9.687  11.168   2.602  1.00  0.00     0.006 A 
ENDBRANCH  40  61
BRANCH  52  69
ATOM     69  C   UNL     1      12.700   7.788  10.615  1.00  0.00     0.057 A 
ATOM     70  C   UNL     1      12.701   9.049  11.223  1.00  0.00     0.134 A 
ATOM     71  C   UNL     1      13.890   7.050  10.647  1.00  0.00     0.134 A 
ATOM     72  F   UNL     1      11.596   9.810  11.213  1.00  0.00    -0.206 F 
ATOM     73  C   UNL     1      13.850   9.567  11.822  1.00  0.00     0.040 A 
ATOM     74  C   UNL     1      15.038   7.547  11.263  1.00  0.00     0.040 A 
ATOM     75  F   UNL     1      13.952   5.832  10.088  1.00  0.00    -0.206 F 
ATOM     76  C   UNL     1      15.022   8.812  11.849  1.00  0.00     0.006 A 
ENDBRANCH  52  69
ENDBRANCH  26  27
ENDBRANCH  19  21
ENDBRANCH  18  19
ENDBRANCH  17  18
ENDBRANCH   1  17
TORSDOF 14
