REMARK SMILES O=C(OCCOC(=O)c1cc(-c2ccccn2)nc2ccc(F)cc12)c1ccc(-c2c3nc(c(-c4c(F)cccc4F)c4ccc([nH]4)c(-c4c(F)cccc4F)c4nc(c(-c5c(F)cccc5F)c5ccc2[nH]5)C=C4)C=C3)cc1
REMARK SMILES IDX 4 1 3 2 2 3 1 4 26 5 27 6 79 7 28 8 78 9 29 10 30 11 31 12
REMARK SMILES IDX 72 13 32 14 77 15 71 16 73 17 33 18 76 19 70 20 69 21 34 23
REMARK SMILES IDX 60 24 43 25 59 26 44 27 47 28 58 29 74 30 45 31 46 32 57 34
REMARK SMILES IDX 75 35 48 36 35 37 36 38 41 39 37 40 38 41 40 42 42 43 39 44
REMARK SMILES IDX 61 45 62 46 67 47 63 48 64 49 66 50 68 51 65 52 49 53 50 54
REMARK SMILES IDX 55 55 51 56 52 57 54 58 56 59 53 60 5 61 6 62 7 63 8 64 9 65
REMARK SMILES IDX 10 66 25 67 11 68 19 69 24 70 18 71 20 72 22 73 21 74 23 75
REMARK SMILES IDX 12 76 13 77 17 78 14 79 16 80 15 81
REMARK H PARENT 73 22 47 33
REMARK Flexibility Score: inf
ROOT
ATOM      1  C   UNL     1       4.551  -0.801   1.128  1.00  0.00     0.275 C 
ENDROOT
BRANCH   1   2
ATOM      2  O   UNL     1       3.762   0.402   1.089  1.00  0.00    -0.458 OA
BRANCH   2   3
ATOM      3  C   UNL     1       3.612   1.303   0.089  1.00  0.00     0.338 C 
ATOM      4  O   UNL     1       2.964   2.326   0.295  1.00  0.00    -0.246 OA
BRANCH   3   5
ATOM      5  C   UNL     1       4.084   1.055  -1.307  1.00  0.00     0.060 A 
ATOM      6  C   UNL     1       3.226   1.468  -2.339  1.00  0.00     0.016 A 
ATOM      7  C   UNL     1       5.327   0.529  -1.661  1.00  0.00     0.016 A 
ATOM      8  C   UNL     1       3.561   1.278  -3.685  1.00  0.00     0.010 A 
ATOM      9  C   UNL     1       5.687   0.377  -3.013  1.00  0.00     0.010 A 
ATOM     10  C   UNL     1       4.813   0.756  -4.041  1.00  0.00    -0.014 A 
BRANCH  10  11
ATOM     11  C   UNL     1       5.294   0.886  -5.447  1.00  0.00     0.031 A 
ATOM     12  C   UNL     1       5.570  -0.289  -6.352  1.00  0.00     0.074 A 
ATOM     13  C   UNL     1       5.555   2.134  -5.888  1.00  0.00     0.049 A 
ATOM     14  N   UNL     1       5.840  -0.291  -7.638  1.00  0.00    -0.248 NA
ATOM     15  C   UNL     1       5.567  -1.631  -5.753  1.00  0.00     0.031 C 
ATOM     16  C   UNL     1       5.451   3.358  -5.084  1.00  0.00     0.029 A 
ATOM     17  N   UNL     1       5.999   2.580  -7.106  1.00  0.00    -0.354 N 
ATOM     18  C   UNL     1       5.890  -1.628  -8.026  1.00  0.00     0.074 A 
ATOM     19  C   UNL     1       5.798  -2.407  -6.810  1.00  0.00     0.031 C 
ATOM     20  C   UNL     1       5.860   4.404  -5.816  1.00  0.00     0.029 A 
ATOM     21  C   UNL     1       6.260   3.928  -7.133  1.00  0.00     0.049 A 
ATOM     22  H   UNL     1       6.119   1.991  -7.885  1.00  0.00     0.167 HD
ATOM     23  C   UNL     1       5.894  -2.122  -9.293  1.00  0.00     0.037 A 
ATOM     24  C   UNL     1       6.791   4.693  -8.103  1.00  0.00     0.037 A 
ATOM     25  C   UNL     1       6.086  -1.306 -10.465  1.00  0.00     0.049 A 
ATOM     26  C   UNL     1       7.080   4.077  -9.438  1.00  0.00     0.074 A 
ATOM     27  C   UNL     1       6.050  -1.684 -11.797  1.00  0.00     0.029 A 
ATOM     28  N   UNL     1       6.404   0.039 -10.439  1.00  0.00    -0.354 N 
ATOM     29  N   UNL     1       6.819   2.862  -9.852  1.00  0.00    -0.248 NA
ATOM     30  C   UNL     1       7.721   4.932 -10.445  1.00  0.00     0.031 C 
ATOM     31  C   UNL     1       6.373  -0.573 -12.576  1.00  0.00     0.029 A 
ATOM     32  C   UNL     1       6.639   0.486 -11.726  1.00  0.00     0.049 A 
ATOM     33  H   UNL     1       6.454   0.595  -9.628  1.00  0.00     0.167 HD
ATOM     34  C   UNL     1       7.216   2.824 -11.179  1.00  0.00     0.074 A 
ATOM     35  C   UNL     1       7.745   4.130 -11.501  1.00  0.00     0.031 C 
ATOM     36  C   UNL     1       7.137   1.793 -12.052  1.00  0.00     0.037 A 
BRANCH  23  37
ATOM     37  C   UNL     1       5.539  -3.564  -9.545  1.00  0.00     0.057 A 
ATOM     38  C   UNL     1       6.375  -4.643  -9.263  1.00  0.00     0.134 A 
ATOM     39  C   UNL     1       4.316  -3.858 -10.183  1.00  0.00     0.134 A 
ATOM     40  F   UNL     1       7.579  -4.445  -8.707  1.00  0.00    -0.206 F 
ATOM     41  C   UNL     1       5.981  -5.960  -9.539  1.00  0.00     0.040 A 
ATOM     42  C   UNL     1       3.911  -5.164 -10.465  1.00  0.00     0.040 A 
ATOM     43  F   UNL     1       3.456  -2.873 -10.489  1.00  0.00    -0.206 F 
ATOM     44  C   UNL     1       4.741  -6.224 -10.125  1.00  0.00     0.006 A 
ENDBRANCH  23  37
BRANCH  24  45
ATOM     45  C   UNL     1       7.115   6.114  -7.831  1.00  0.00     0.057 A 
ATOM     46  C   UNL     1       8.144   6.455  -6.944  1.00  0.00     0.134 A 
ATOM     47  C   UNL     1       6.432   7.156  -8.464  1.00  0.00     0.134 A 
ATOM     48  F   UNL     1       8.835   5.499  -6.305  1.00  0.00    -0.206 F 
ATOM     49  C   UNL     1       8.480   7.785  -6.692  1.00  0.00     0.040 A 
ATOM     50  C   UNL     1       6.775   8.491  -8.240  1.00  0.00     0.040 A 
ATOM     51  F   UNL     1       5.451   6.890  -9.337  1.00  0.00    -0.206 F 
ATOM     52  C   UNL     1       7.800   8.807  -7.349  1.00  0.00     0.006 A 
ENDBRANCH  24  45
BRANCH  36  53
ATOM     53  C   UNL     1       7.617   2.021 -13.448  1.00  0.00     0.057 A 
ATOM     54  C   UNL     1       6.714   2.087 -14.516  1.00  0.00     0.134 A 
ATOM     55  C   UNL     1       8.983   2.084 -13.742  1.00  0.00     0.134 A 
ATOM     56  F   UNL     1       5.392   2.011 -14.298  1.00  0.00    -0.206 F 
ATOM     57  C   UNL     1       7.156   2.190 -15.834  1.00  0.00     0.040 A 
ATOM     58  C   UNL     1       9.436   2.215 -15.053  1.00  0.00     0.040 A 
ATOM     59  F   UNL     1       9.893   2.032 -12.757  1.00  0.00    -0.206 F 
ATOM     60  C   UNL     1       8.521   2.257 -16.105  1.00  0.00     0.006 A 
ENDBRANCH  36  53
ENDBRANCH  10  11
ENDBRANCH   3   5
ENDBRANCH   2   3
ENDBRANCH   1   2
BRANCH   1  61
ATOM     61  C   UNL     1       3.897  -2.030   0.503  1.00  0.00     0.275 C 
BRANCH  61  62
ATOM     62  O   UNL     1       3.161  -1.719  -0.680  1.00  0.00    -0.458 OA
BRANCH  62  63
ATOM     63  C   UNL     1       1.825  -1.524  -0.518  1.00  0.00     0.339 C 
ATOM     64  O   UNL     1       1.194  -1.609   0.525  1.00  0.00    -0.246 OA
BRANCH  63  65
ATOM     65  C   UNL     1       1.248  -1.188  -1.833  1.00  0.00     0.071 A 
ATOM     66  C   UNL     1       1.707  -1.937  -2.906  1.00  0.00     0.047 A 
ATOM     67  C   UNL     1       0.317  -0.149  -2.037  1.00  0.00     0.018 A 
ATOM     68  C   UNL     1       1.222  -1.663  -4.169  1.00  0.00     0.090 A 
ATOM     69  C   UNL     1      -0.057   0.101  -3.378  1.00  0.00     0.072 A 
ATOM     70  C   UNL     1      -0.209   0.677  -1.019  1.00  0.00     0.050 A 
ATOM     71  N   UNL     1       0.370  -0.642  -4.405  1.00  0.00    -0.246 NA
ATOM     72  C   UNL     1      -0.888   1.174  -3.665  1.00  0.00     0.032 A 
ATOM     73  C   UNL     1      -1.061   1.727  -1.340  1.00  0.00     0.123 A 
ATOM     74  C   UNL     1      -1.394   1.993  -2.657  1.00  0.00     0.041 A 
ATOM     75  F   UNL     1      -1.558   2.497  -0.365  1.00  0.00    -0.207 F 
BRANCH  68  76
ATOM     76  C   UNL     1       1.643  -2.503  -5.291  1.00  0.00     0.089 A 
ATOM     77  C   UNL     1       1.775  -3.887  -5.122  1.00  0.00     0.030 A 
ATOM     78  N   UNL     1       2.023  -1.865  -6.420  1.00  0.00    -0.255 NA
ATOM     79  C   UNL     1       2.389  -4.632  -6.106  1.00  0.00     0.004 A 
ATOM     80  C   UNL     1       2.572  -2.619  -7.387  1.00  0.00     0.112 A 
ATOM     81  C   UNL     1       2.798  -3.981  -7.251  1.00  0.00     0.020 A 
ENDBRANCH  68  76
ENDBRANCH  63  65
ENDBRANCH  62  63
ENDBRANCH  61  62
ENDBRANCH   1  61
TORSDOF 12
