REMARK SMILES C[C@H](C(=O)OCCOC(=O)c1ccc(-c2c3nc(c(-c4c(F)cccc4F)c4ccc([nH]4)c(-c4c(F)cccc4F)c4nc(c(-c5c(F)cccc5F)c5ccc2[nH]5)C=C4)C=C3)cc1)c1ccc(-c2ccccc2)c(F)c1
REMARK SMILES IDX 6 1 5 2 3 3 4 4 2 5 1 6 65 7 66 8 77 9 67 10 75 11 68 12
REMARK SMILES IDX 76 13 69 14 70 15 74 16 71 17 73 18 72 19 7 20 8 21 9 22
REMARK SMILES IDX 10 23 11 24 12 25 64 26 13 27 63 28 14 29 15 30 16 31 57 32
REMARK SMILES IDX 17 33 62 34 56 35 58 36 18 37 61 38 55 39 54 40 19 42 45 43
REMARK SMILES IDX 28 44 44 45 29 46 32 47 43 48 59 49 30 50 31 51 42 53 60 54
REMARK SMILES IDX 33 55 20 56 21 57 26 58 22 59 23 60 25 61 27 62 24 63 46 64
REMARK SMILES IDX 47 65 52 66 48 67 49 68 51 69 53 70 50 71 34 72 35 73 40 74
REMARK SMILES IDX 36 75 37 76 39 77 41 78 38 79
REMARK H PARENT 58 41 32 52
REMARK Flexibility Score: inf
ROOT
ATOM      1  C   UNL     1       1.198  -1.770  -1.218  1.00  0.00     0.274 C 
ENDROOT
BRANCH   1   2
ATOM      2  O   UNL     1       0.617  -1.327   0.024  1.00  0.00    -0.462 OA
BRANCH   2   3
ATOM      3  C   UNL     1       1.220  -0.267   0.635  1.00  0.00     0.313 C 
ATOM      4  O   UNL     1       2.253   0.263   0.241  1.00  0.00    -0.252 OA
BRANCH   3   5
ATOM      5  C   UNL     1       0.488   0.135   1.915  1.00  0.00     0.126 C 
ATOM      6  C   UNL     1       1.162   1.363   2.546  1.00  0.00     0.025 C 
BRANCH   5   7
ATOM      7  C   UNL     1      -1.020   0.292   1.741  1.00  0.00    -0.031 A 
ATOM      8  C   UNL     1      -1.658   1.528   1.558  1.00  0.00     0.005 A 
ATOM      9  C   UNL     1      -1.827  -0.854   1.789  1.00  0.00     0.044 A 
ATOM     10  C   UNL     1      -3.057   1.614   1.473  1.00  0.00     0.012 A 
ATOM     11  C   UNL     1      -3.216  -0.761   1.698  1.00  0.00     0.131 A 
ATOM     12  C   UNL     1      -3.868   0.471   1.561  1.00  0.00     0.017 A 
ATOM     13  F   UNL     1      -3.923  -1.900   1.765  1.00  0.00    -0.206 F 
BRANCH  12  14
ATOM     14  C   UNL     1      -5.339   0.572   1.555  1.00  0.00    -0.015 A 
ATOM     15  C   UNL     1      -6.024   1.296   0.565  1.00  0.00     0.009 A 
ATOM     16  C   UNL     1      -6.104  -0.046   2.560  1.00  0.00     0.009 A 
ATOM     17  C   UNL     1      -7.420   1.395   0.580  1.00  0.00     0.001 A 
ATOM     18  C   UNL     1      -7.497   0.051   2.577  1.00  0.00     0.001 A 
ATOM     19  C   UNL     1      -8.155   0.773   1.586  1.00  0.00     0.000 A 
ENDBRANCH  12  14
ENDBRANCH   5   7
ENDBRANCH   3   5
ENDBRANCH   2   3
ENDBRANCH   1   2
BRANCH   1  20
ATOM     20  C   UNL     1       0.459  -1.146  -2.397  1.00  0.00     0.275 C 
BRANCH  20  21
ATOM     21  O   UNL     1       0.652   0.278  -2.370  1.00  0.00    -0.458 OA
BRANCH  21  22
ATOM     22  C   UNL     1      -0.463   1.032  -2.486  1.00  0.00     0.338 C 
ATOM     23  O   UNL     1      -1.604   0.657  -2.688  1.00  0.00    -0.246 OA
BRANCH  22  24
ATOM     24  C   UNL     1      -0.088   2.450  -2.370  1.00  0.00     0.060 A 
ATOM     25  C   UNL     1       0.520   2.928  -1.208  1.00  0.00     0.016 A 
ATOM     26  C   UNL     1      -0.415   3.325  -3.405  1.00  0.00     0.016 A 
ATOM     27  C   UNL     1       0.761   4.292  -1.054  1.00  0.00     0.010 A 
ATOM     28  C   UNL     1      -0.115   4.683  -3.277  1.00  0.00     0.010 A 
ATOM     29  C   UNL     1       0.450   5.184  -2.090  1.00  0.00    -0.014 A 
BRANCH  29  30
ATOM     30  C   UNL     1       0.663   6.645  -1.926  1.00  0.00     0.031 A 
ATOM     31  C   UNL     1      -0.518   7.577  -1.940  1.00  0.00     0.074 A 
ATOM     32  C   UNL     1       1.905   7.145  -1.779  1.00  0.00     0.049 A 
ATOM     33  N   UNL     1      -0.543   8.884  -1.996  1.00  0.00    -0.248 NA
ATOM     34  C   UNL     1      -1.850   6.951  -1.897  1.00  0.00     0.031 C 
ATOM     35  C   UNL     1       3.135   6.356  -1.707  1.00  0.00     0.029 A 
ATOM     36  N   UNL     1       2.335   8.444  -1.670  1.00  0.00    -0.354 N 
ATOM     37  C   UNL     1      -1.886   9.235  -2.046  1.00  0.00     0.074 A 
ATOM     38  C   UNL     1      -2.647   8.004  -2.013  1.00  0.00     0.031 C 
ATOM     39  C   UNL     1       4.179   7.185  -1.548  1.00  0.00     0.029 A 
ATOM     40  C   UNL     1       3.700   8.564  -1.575  1.00  0.00     0.049 A 
ATOM     41  H   UNL     1       1.724   9.216  -1.660  1.00  0.00     0.167 HD
ATOM     42  C   UNL     1      -2.434  10.471  -2.116  1.00  0.00     0.037 A 
ATOM     43  C   UNL     1       4.481   9.660  -1.549  1.00  0.00     0.037 A 
ATOM     44  C   UNL     1      -1.681  11.697  -2.099  1.00  0.00     0.049 A 
ATOM     45  C   UNL     1       3.851  11.020  -1.649  1.00  0.00     0.074 A 
ATOM     46  C   UNL     1      -2.150  12.999  -2.147  1.00  0.00     0.029 A 
ATOM     47  N   UNL     1      -0.299  11.772  -2.015  1.00  0.00    -0.354 N 
ATOM     48  N   UNL     1       2.583  11.339  -1.741  1.00  0.00    -0.248 NA
ATOM     49  C   UNL     1       4.763  12.173  -1.662  1.00  0.00     0.031 C 
ATOM     50  C   UNL     1      -1.049  13.862  -2.115  1.00  0.00     0.029 A 
ATOM     51  C   UNL     1       0.102  13.097  -2.017  1.00  0.00     0.049 A 
ATOM     52  H   UNL     1       0.307  10.998  -1.962  1.00  0.00     0.167 HD
ATOM     53  C   UNL     1       2.544  12.725  -1.812  1.00  0.00     0.074 A 
ATOM     54  C   UNL     1       3.914  13.188  -1.734  1.00  0.00     0.031 C 
ATOM     55  C   UNL     1       1.469  13.540  -1.935  1.00  0.00     0.037 A 
BRANCH  42  56
ATOM     56  C   UNL     1      -3.924  10.559  -2.245  1.00  0.00     0.057 A 
ATOM     57  C   UNL     1      -4.779  10.329  -1.160  1.00  0.00     0.134 A 
ATOM     58  C   UNL     1      -4.509  10.914  -3.468  1.00  0.00     0.134 A 
ATOM     59  F   UNL     1      -4.281   9.970   0.032  1.00  0.00    -0.206 F 
ATOM     60  C   UNL     1      -6.165  10.434  -1.291  1.00  0.00     0.040 A 
ATOM     61  C   UNL     1      -5.892  11.042  -3.605  1.00  0.00     0.040 A 
ATOM     62  F   UNL     1      -3.745  11.150  -4.545  1.00  0.00    -0.206 F 
ATOM     63  C   UNL     1      -6.724  10.798  -2.515  1.00  0.00     0.006 A 
ENDBRANCH  42  56
BRANCH  43  64
ATOM     64  C   UNL     1       5.954   9.516  -1.455  1.00  0.00     0.057 A 
ATOM     65  C   UNL     1       6.639   9.866  -0.286  1.00  0.00     0.134 A 
ATOM     66  C   UNL     1       6.710   9.032  -2.529  1.00  0.00     0.134 A 
ATOM     67  F   UNL     1       5.971  10.360   0.766  1.00  0.00    -0.206 F 
ATOM     68  C   UNL     1       8.027   9.746  -0.191  1.00  0.00     0.040 A 
ATOM     69  C   UNL     1       8.095   8.886  -2.439  1.00  0.00     0.040 A 
ATOM     70  F   UNL     1       6.110   8.681  -3.676  1.00  0.00    -0.206 F 
ATOM     71  C   UNL     1       8.757   9.248  -1.268  1.00  0.00     0.006 A 
ENDBRANCH  43  64
BRANCH  55  72
ATOM     72  C   UNL     1       1.733  15.014  -1.969  1.00  0.00     0.057 A 
ATOM     73  C   UNL     1       2.235  15.644  -3.114  1.00  0.00     0.134 A 
ATOM     74  C   UNL     1       1.452  15.815  -0.855  1.00  0.00     0.134 A 
ATOM     75  F   UNL     1       2.536  14.927  -4.207  1.00  0.00    -0.206 F 
ATOM     76  C   UNL     1       2.466  17.020  -3.144  1.00  0.00     0.040 A 
ATOM     77  C   UNL     1       1.661  17.195  -0.880  1.00  0.00     0.040 A 
ATOM     78  F   UNL     1       0.964  15.271   0.269  1.00  0.00    -0.206 F 
ATOM     79  C   UNL     1       2.173  17.800  -2.027  1.00  0.00     0.006 A 
ENDBRANCH  55  72
ENDBRANCH  29  30
ENDBRANCH  22  24
ENDBRANCH  21  22
ENDBRANCH  20  21
ENDBRANCH   1  20
TORSDOF 13
