REMARK SMILES COc1ccc([C@@H]2[NH2+][C@H](C(=O)OCCOC(=O)c3ccc(-c4c5nc(c(-c6c(F)cccc6F)c6ccc([nH]6)c(-c6c(F)cccc6F)c6nc(c(-c7c(F)cccc7F)c7ccc4[nH]7)C=C6)C=C5)cc3)CS2)cc1Cn1nc(C)c(Br)c1C
REMARK SMILES IDX 13 1 12 2 10 3 11 4 9 5 7 6 8 7 73 8 72 11 6 12 3 13 4 14
REMARK SMILES IDX 75 15 5 16 74 17 2 18 1 19 76 20 77 21 78 22 83 23 79 24
REMARK SMILES IDX 81 25 84 26 80 27 82 28 14 29 15 30 16 31 17 32 18 33 19 34
REMARK SMILES IDX 71 35 20 36 70 37 21 38 22 39 23 40 64 41 24 42 69 43 63 44
REMARK SMILES IDX 65 45 25 46 68 47 62 48 61 49 26 51 52 52 35 53 51 54 36 55
REMARK SMILES IDX 39 56 50 57 66 58 37 59 38 60 49 62 67 63 40 64 27 65 28 66
REMARK SMILES IDX 33 67 29 68 30 69 32 70 34 71 31 72 53 73 54 74 59 75 55 76
REMARK SMILES IDX 56 77 58 78 60 79 57 80 41 81 42 82 47 83 43 84 44 85 46 86
REMARK SMILES IDX 48 87 45 88
REMARK H PARENT 8 9 8 10 65 50 39 61
REMARK Flexibility Score: inf
ROOT
ATOM      1  C   UNL     1       4.783   4.879  -0.892  1.00  0.00     0.274 C 
ENDROOT
BRANCH   1   2
ATOM      2  O   UNL     1       4.051   5.513   0.173  1.00  0.00    -0.458 OA
BRANCH   2   3
ATOM      3  C   UNL     1       4.676   5.662   1.368  1.00  0.00     0.365 C 
ATOM      4  O   UNL     1       5.846   5.357   1.587  1.00  0.00    -0.245 OA
BRANCH   3   5
ATOM      5  C   UNL     1       3.798   6.318   2.444  1.00  0.00     0.304 C 
ATOM      6  C   UNL     1       1.587   5.399   2.666  1.00  0.00     0.274 C 
ATOM      7  N   UNL     1       2.372   6.471   2.065  1.00  0.00    -0.319 N 
ATOM      8  S   UNL     1       2.310   5.045   4.278  1.00  0.00    -0.087 SA
ATOM      9  H   UNL     1       2.027   7.372   2.397  1.00  0.00     0.348 HD
ATOM     10  H   UNL     1       2.284   6.426   1.049  1.00  0.00     0.348 HD
ATOM     11  C   UNL     1       3.958   5.599   3.787  1.00  0.00     0.153 C 
BRANCH   6  12
ATOM     12  C   UNL     1       1.430   4.200   1.746  1.00  0.00     0.021 A 
ATOM     13  C   UNL     1       1.070   2.047  -0.028  1.00  0.00     0.123 A 
ATOM     14  C   UNL     1       0.116   3.063   0.042  1.00  0.00     0.047 A 
ATOM     15  C   UNL     1       2.237   2.095   0.744  1.00  0.00     0.016 A 
ATOM     16  C   UNL     1       0.297   4.132   0.920  1.00  0.00     0.015 A 
ATOM     17  C   UNL     1       2.388   3.172   1.637  1.00  0.00     0.020 A 
BRANCH  13  18
ATOM     18  O   UNL     1       0.844   1.036  -0.922  1.00  0.00    -0.496 OA
ATOM     19  C   UNL     1       0.308  -0.121  -0.279  1.00  0.00     0.278 C 
ENDBRANCH  13  18
BRANCH  15  20
ATOM     20  C   UNL     1       3.283   1.008   0.686  1.00  0.00     0.184 C 
BRANCH  20  21
ATOM     21  N   UNL     1       4.540   1.402   0.047  1.00  0.00    -0.264 N 
ATOM     22  N   UNL     1       4.644   1.291  -1.300  1.00  0.00    -0.177 NA
ATOM     23  C   UNL     1       5.745   1.694   0.654  1.00  0.00     0.050 A 
ATOM     24  C   UNL     1       5.936   1.517  -1.563  1.00  0.00     0.074 A 
ATOM     25  C   UNL     1       6.651   1.770  -0.379  1.00  0.00     0.061 A 
ATOM     26  C   UNL     1       5.926   1.879   2.115  1.00  0.00     0.067 C 
ATOM     27  C   UNL     1       6.431   1.474  -2.960  1.00  0.00     0.070 C 
ATOM     28  Br  UNL     1       8.484   2.147  -0.281  1.00  0.00    -0.047 Br
ENDBRANCH  20  21
ENDBRANCH  15  20
ENDBRANCH   6  12
ENDBRANCH   3   5
ENDBRANCH   2   3
ENDBRANCH   1   2
BRANCH   1  29
ATOM     29  C   UNL     1       5.091   5.854  -2.026  1.00  0.00     0.275 C 
BRANCH  29  30
ATOM     30  O   UNL     1       6.094   6.800  -1.616  1.00  0.00    -0.458 OA
BRANCH  30  31
ATOM     31  C   UNL     1       5.600   7.888  -0.987  1.00  0.00     0.338 C 
ATOM     32  O   UNL     1       4.434   8.210  -0.845  1.00  0.00    -0.246 OA
BRANCH  31  33
ATOM     33  C   UNL     1       6.691   8.613  -0.327  1.00  0.00     0.060 A 
ATOM     34  C   UNL     1       6.570   8.826   1.048  1.00  0.00     0.016 A 
ATOM     35  C   UNL     1       7.728   9.192  -1.057  1.00  0.00     0.016 A 
ATOM     36  C   UNL     1       7.448   9.675   1.701  1.00  0.00     0.010 A 
ATOM     37  C   UNL     1       8.609  10.054  -0.403  1.00  0.00     0.010 A 
ATOM     38  C   UNL     1       8.439  10.330   0.966  1.00  0.00    -0.014 A 
BRANCH  38  39
ATOM     39  C   UNL     1       9.158  11.454   1.595  1.00  0.00     0.031 A 
ATOM     40  C   UNL     1       8.702  12.852   1.287  1.00  0.00     0.074 A 
ATOM     41  C   UNL     1      10.143  11.223   2.477  1.00  0.00     0.049 A 
ATOM     42  N   UNL     1       9.233  13.993   1.635  1.00  0.00    -0.248 NA
ATOM     43  C   UNL     1       7.476  12.978   0.478  1.00  0.00     0.031 C 
ATOM     44  C   UNL     1      10.591   9.902   2.916  1.00  0.00     0.029 A 
ATOM     45  N   UNL     1      10.941  12.098   3.163  1.00  0.00    -0.354 N 
ATOM     46  C   UNL     1       8.423  14.970   1.070  1.00  0.00     0.074 A 
ATOM     47  C   UNL     1       7.371  14.292   0.348  1.00  0.00     0.031 C 
ATOM     48  C   UNL     1      11.596  10.055   3.796  1.00  0.00     0.029 A 
ATOM     49  C   UNL     1      11.886  11.478   3.941  1.00  0.00     0.049 A 
ATOM     50  H   UNL     1      10.847  13.076   3.104  1.00  0.00     0.167 HD
ATOM     51  C   UNL     1       8.552  16.315   1.151  1.00  0.00     0.037 A 
ATOM     52  C   UNL     1      12.891  12.011   4.661  1.00  0.00     0.037 A 
ATOM     53  C   UNL     1       9.602  16.973   1.879  1.00  0.00     0.049 A 
ATOM     54  C   UNL     1      13.056  13.506   4.674  1.00  0.00     0.074 A 
ATOM     55  C   UNL     1       9.865  18.326   1.990  1.00  0.00     0.029 A 
ATOM     56  N   UNL     1      10.561  16.312   2.634  1.00  0.00    -0.354 N 
ATOM     57  N   UNL     1      12.327  14.425   4.087  1.00  0.00    -0.248 NA
ATOM     58  C   UNL     1      14.188  14.038   5.445  1.00  0.00     0.031 C 
ATOM     59  C   UNL     1      10.999  18.482   2.796  1.00  0.00     0.029 A 
ATOM     60  C   UNL     1      11.417  17.229   3.216  1.00  0.00     0.049 A 
ATOM     61  H   UNL     1      10.622  15.335   2.739  1.00  0.00     0.167 HD
ATOM     62  C   UNL     1      12.892  15.643   4.438  1.00  0.00     0.074 A 
ATOM     63  C   UNL     1      14.021  15.345   5.298  1.00  0.00     0.031 C 
ATOM     64  C   UNL     1      12.517  16.896   4.084  1.00  0.00     0.037 A 
BRANCH  51  65
ATOM     65  C   UNL     1       7.554  17.147   0.404  1.00  0.00     0.057 A 
ATOM     66  C   UNL     1       6.234  17.296   0.849  1.00  0.00     0.134 A 
ATOM     67  C   UNL     1       7.918  17.814  -0.772  1.00  0.00     0.134 A 
ATOM     68  F   UNL     1       5.815  16.665   1.956  1.00  0.00    -0.206 F 
ATOM     69  C   UNL     1       5.308  18.064   0.141  1.00  0.00     0.040 A 
ATOM     70  C   UNL     1       7.007  18.602  -1.477  1.00  0.00     0.040 A 
ATOM     71  F   UNL     1       9.166  17.710  -1.255  1.00  0.00    -0.206 F 
ATOM     72  C   UNL     1       5.696  18.724  -1.023  1.00  0.00     0.006 A 
ENDBRANCH  51  65
BRANCH  52  73
ATOM     73  C   UNL     1      13.828  11.130   5.400  1.00  0.00     0.057 A 
ATOM     74  C   UNL     1      13.845  11.102   6.799  1.00  0.00     0.134 A 
ATOM     75  C   UNL     1      14.739  10.308   4.727  1.00  0.00     0.134 A 
ATOM     76  F   UNL     1      13.010  11.883   7.500  1.00  0.00    -0.206 F 
ATOM     77  C   UNL     1      14.746  10.300   7.503  1.00  0.00     0.040 A 
ATOM     78  C   UNL     1      15.628   9.483   5.417  1.00  0.00     0.040 A 
ATOM     79  F   UNL     1      14.772  10.288   3.386  1.00  0.00    -0.206 F 
ATOM     80  C   UNL     1      15.638   9.484   6.810  1.00  0.00     0.006 A 
ENDBRANCH  52  73
BRANCH  64  81
ATOM     81  C   UNL     1      13.300  18.029   4.673  1.00  0.00     0.057 A 
ATOM     82  C   UNL     1      14.579  18.360   4.212  1.00  0.00     0.134 A 
ATOM     83  C   UNL     1      12.748  18.817   5.690  1.00  0.00     0.134 A 
ATOM     84  F   UNL     1      15.164  17.634   3.248  1.00  0.00    -0.206 F 
ATOM     85  C   UNL     1      15.293  19.425   4.761  1.00  0.00     0.040 A 
ATOM     86  C   UNL     1      13.443  19.897   6.231  1.00  0.00     0.040 A 
ATOM     87  F   UNL     1      11.521  18.553   6.167  1.00  0.00    -0.206 F 
ATOM     88  C   UNL     1      14.723  20.200   5.770  1.00  0.00     0.006 A 
ENDBRANCH  64  81
ENDBRANCH  38  39
ENDBRANCH  31  33
ENDBRANCH  30  31
ENDBRANCH  29  30
ENDBRANCH   1  29
TORSDOF 15
