REMARK SMILES C[C@@H]1[C@H](C)CCC[C@H]1NC(=O)C[N@@H+]1CCC[C@@H]1C(=O)OCCOC(=O)c1ccc(-c2c3nc(c(-c4c(F)cccc4F)c4ccc([nH]4)c(-c4c(F)cccc4F)c4nc(c(-c5c(F)cccc5F)c5ccc2[nH]5)C=C4)C=C3)cc1
REMARK SMILES IDX 21 1 20 2 18 3 19 4 17 5 13 6 14 7 15 9 16 10 12 11 10 12
REMARK SMILES IDX 9 13 11 15 8 16 1 17 2 18 3 19 4 20 5 21 7 22 6 23 22 24
REMARK SMILES IDX 23 25 24 26 25 27 26 28 27 29 79 30 28 31 78 32 29 33 30 34
REMARK SMILES IDX 31 35 72 36 32 37 77 38 71 39 73 40 33 41 76 42 70 43 69 44
REMARK SMILES IDX 34 46 60 47 43 48 59 49 44 50 47 51 58 52 74 53 45 54 46 55
REMARK SMILES IDX 57 57 75 58 48 59 35 60 36 61 41 62 37 63 38 64 40 65 42 66
REMARK SMILES IDX 39 67 61 68 62 69 67 70 63 71 64 72 66 73 68 74 65 75 49 76
REMARK SMILES IDX 50 77 55 78 51 79 52 80 54 81 56 82 53 83
REMARK H PARENT 13 8 9 14 73 45 47 56
REMARK Flexibility Score: inf
ROOT
ATOM      1  C   UNL     1      -4.712   2.197  -5.329  1.00  0.00     0.274 C 
ENDROOT
BRANCH   1   2
ATOM      2  O   UNL     1      -4.228   1.449  -4.202  1.00  0.00    -0.458 OA
BRANCH   2   3
ATOM      3  C   UNL     1      -4.413   1.987  -2.969  1.00  0.00     0.365 C 
ATOM      4  O   UNL     1      -4.972   3.056  -2.749  1.00  0.00    -0.245 OA
BRANCH   3   5
ATOM      5  C   UNL     1      -3.907   1.050  -1.863  1.00  0.00     0.295 C 
ATOM      6  N   UNL     1      -2.912   1.614  -0.910  1.00  0.00    -0.315 N 
ATOM      7  C   UNL     1      -2.150   0.469  -0.419  1.00  0.00     0.263 C 
ATOM      8  H   UNL     1      -3.417   2.093  -0.165  1.00  0.00     0.349 HD
ATOM      9  C   UNL     1      -2.047  -0.476  -1.600  1.00  0.00     0.068 C 
ATOM     10  C   UNL     1      -3.388  -0.336  -2.279  1.00  0.00     0.083 C 
BRANCH   6  11
ATOM     11  C   UNL     1      -2.093   2.760  -1.351  1.00  0.00     0.364 C 
BRANCH  11  12
ATOM     12  C   UNL     1      -1.218   2.527  -2.584  1.00  0.00     0.275 C 
ATOM     13  N   UNL     1       0.101   2.206  -2.476  1.00  0.00    -0.348 N 
ATOM     14  H   UNL     1       0.555   2.076  -3.340  1.00  0.00     0.163 HD
ATOM     15  O   UNL     1      -1.672   2.626  -3.728  1.00  0.00    -0.268 OA
BRANCH  13  16
ATOM     16  C   UNL     1       0.969   2.019  -1.312  1.00  0.00     0.085 C 
ATOM     17  C   UNL     1       1.934   0.252   0.235  1.00  0.00     0.010 C 
ATOM     18  C   UNL     1       1.388   0.533  -1.171  1.00  0.00     0.011 C 
ATOM     19  C   UNL     1       2.339   0.111  -2.316  1.00  0.00    -0.009 C 
ATOM     20  C   UNL     1       2.744  -1.361  -2.232  1.00  0.00     0.008 C 
ATOM     21  C   UNL     1       3.566   1.025  -2.395  1.00  0.00     0.004 C 
ATOM     22  C   UNL     1       2.194   2.937  -1.425  1.00  0.00     0.025 C 
ATOM     23  C   UNL     1       3.170   2.495  -2.517  1.00  0.00     0.002 C 
ENDBRANCH  13  16
ENDBRANCH  11  12
ENDBRANCH   6  11
ENDBRANCH   3   5
ENDBRANCH   2   3
ENDBRANCH   1   2
BRANCH   1  24
ATOM     24  C   UNL     1      -5.424   1.236  -6.279  1.00  0.00     0.275 C 
BRANCH  24  25
ATOM     25  O   UNL     1      -6.506   0.581  -5.585  1.00  0.00    -0.458 OA
BRANCH  25  26
ATOM     26  C   UNL     1      -6.223  -0.665  -5.142  1.00  0.00     0.338 C 
ATOM     27  O   UNL     1      -5.233  -1.339  -5.368  1.00  0.00    -0.246 OA
BRANCH  26  28
ATOM     28  C   UNL     1      -7.249  -1.084  -4.179  1.00  0.00     0.060 A 
ATOM     29  C   UNL     1      -6.929  -1.017  -2.823  1.00  0.00     0.016 A 
ATOM     30  C   UNL     1      -8.442  -1.667  -4.594  1.00  0.00     0.016 A 
ATOM     31  C   UNL     1      -7.766  -1.578  -1.868  1.00  0.00     0.010 A 
ATOM     32  C   UNL     1      -9.303  -2.207  -3.633  1.00  0.00     0.010 A 
ATOM     33  C   UNL     1      -8.955  -2.192  -2.268  1.00  0.00    -0.014 A 
BRANCH  33  34
ATOM     34  C   UNL     1      -9.780  -2.913  -1.270  1.00  0.00     0.031 A 
ATOM     35  C   UNL     1      -9.816  -4.413  -1.297  1.00  0.00     0.074 A 
ATOM     36  C   UNL     1     -10.450  -2.237  -0.320  1.00  0.00     0.049 A 
ATOM     37  N   UNL     1     -10.596  -5.236  -0.645  1.00  0.00    -0.248 NA
ATOM     38  C   UNL     1      -8.841  -5.077  -2.178  1.00  0.00     0.031 C 
ATOM     39  C   UNL     1     -10.416  -0.787  -0.126  1.00  0.00     0.029 A 
ATOM     40  N   UNL     1     -11.294  -2.687   0.663  1.00  0.00    -0.354 N 
ATOM     41  C   UNL     1     -10.232  -6.509  -1.061  1.00  0.00     0.074 A 
ATOM     42  C   UNL     1      -9.160  -6.354  -2.021  1.00  0.00     0.031 C 
ATOM     43  C   UNL     1     -11.206  -0.467   0.913  1.00  0.00     0.029 A 
ATOM     44  C   UNL     1     -11.846  -1.679   1.414  1.00  0.00     0.049 A 
ATOM     45  H   UNL     1     -11.486  -3.641   0.815  1.00  0.00     0.167 HD
ATOM     46  C   UNL     1     -10.750  -7.700  -0.677  1.00  0.00     0.037 A 
ATOM     47  C   UNL     1     -12.794  -1.728   2.369  1.00  0.00     0.037 A 
ATOM     48  C   UNL     1     -11.804  -7.846   0.290  1.00  0.00     0.049 A 
ATOM     49  C   UNL     1     -13.398  -3.055   2.734  1.00  0.00     0.074 A 
ATOM     50  C   UNL     1     -12.454  -8.998   0.698  1.00  0.00     0.029 A 
ATOM     51  N   UNL     1     -12.349  -6.800   1.019  1.00  0.00    -0.354 N 
ATOM     52  N   UNL     1     -13.120  -4.247   2.263  1.00  0.00    -0.248 NA
ATOM     53  C   UNL     1     -14.457  -3.043   3.752  1.00  0.00     0.031 C 
ATOM     54  C   UNL     1     -13.401  -8.646   1.667  1.00  0.00     0.029 A 
ATOM     55  C   UNL     1     -13.319  -7.279   1.881  1.00  0.00     0.049 A 
ATOM     56  H   UNL     1     -12.084  -5.855   0.934  1.00  0.00     0.167 HD
ATOM     57  C   UNL     1     -13.954  -5.127   2.941  1.00  0.00     0.074 A 
ATOM     58  C   UNL     1     -14.738  -4.333   3.865  1.00  0.00     0.031 C 
ATOM     59  C   UNL     1     -14.067  -6.471   2.807  1.00  0.00     0.037 A 
BRANCH  46  60
ATOM     60  C   UNL     1     -10.205  -8.929  -1.337  1.00  0.00     0.057 A 
ATOM     61  C   UNL     1      -8.954  -9.457  -0.997  1.00  0.00     0.134 A 
ATOM     62  C   UNL     1     -10.948  -9.601  -2.316  1.00  0.00     0.134 A 
ATOM     63  F   UNL     1      -8.186  -8.847  -0.081  1.00  0.00    -0.206 F 
ATOM     64  C   UNL     1      -8.453 -10.602  -1.619  1.00  0.00     0.040 A 
ATOM     65  C   UNL     1     -10.467 -10.758  -2.931  1.00  0.00     0.040 A 
ATOM     66  F   UNL     1     -12.154  -9.145  -2.688  1.00  0.00    -0.206 F 
ATOM     67  C   UNL     1      -9.214 -11.259  -2.585  1.00  0.00     0.006 A 
ENDBRANCH  46  60
BRANCH  47  68
ATOM     68  C   UNL     1     -13.265  -0.479   3.017  1.00  0.00     0.057 A 
ATOM     69  C   UNL     1     -12.986  -0.211   4.362  1.00  0.00     0.134 A 
ATOM     70  C   UNL     1     -14.028   0.462   2.315  1.00  0.00     0.134 A 
ATOM     71  F   UNL     1     -12.282  -1.087   5.093  1.00  0.00    -0.206 F 
ATOM     72  C   UNL     1     -13.462   0.941   4.990  1.00  0.00     0.040 A 
ATOM     73  C   UNL     1     -14.489   1.630   2.924  1.00  0.00     0.040 A 
ATOM     74  F   UNL     1     -14.330   0.262   1.024  1.00  0.00    -0.206 F 
ATOM     75  C   UNL     1     -14.212   1.868   4.268  1.00  0.00     0.006 A 
ENDBRANCH  47  68
BRANCH  59  76
ATOM     76  C   UNL     1     -15.035  -7.163   3.715  1.00  0.00     0.057 A 
ATOM     77  C   UNL     1     -16.417  -7.114   3.496  1.00  0.00     0.134 A 
ATOM     78  C   UNL     1     -14.574  -7.909   4.807  1.00  0.00     0.134 A 
ATOM     79  F   UNL     1     -16.918  -6.404   2.474  1.00  0.00    -0.206 F 
ATOM     80  C   UNL     1     -17.310  -7.768   4.345  1.00  0.00     0.040 A 
ATOM     81  C   UNL     1     -15.457  -8.582   5.652  1.00  0.00     0.040 A 
ATOM     82  F   UNL     1     -13.261  -7.998   5.066  1.00  0.00    -0.206 F 
ATOM     83  C   UNL     1     -16.830  -8.508   5.425  1.00  0.00     0.006 A 
ENDBRANCH  59  76
ENDBRANCH  33  34
ENDBRANCH  26  28
ENDBRANCH  25  26
ENDBRANCH  24  25
ENDBRANCH   1  24
TORSDOF 14
