REMARK SMILES Cc1ncccc1NC(=O)Nc1ccc(C(=O)OCCOC(=O)c2ccc(-c3c4nc(c(-c5c(F)cccc5F)c5ccc([nH]5)c(-c5c(F)cccc5F)c5nc(c(-c6c(F)cccc6F)c6ccc3[nH]6)C=C5)C=C4)cc2)c(O)c1
REMARK SMILES IDX 19 1 18 2 16 3 17 4 15 5 12 6 13 7 80 8 14 9 78 10 11 11
REMARK SMILES IDX 8 12 9 13 10 15 7 17 1 18 2 19 3 20 4 21 6 22 5 23 79 24
REMARK SMILES IDX 20 26 21 27 22 28 23 29 24 30 25 31 77 32 26 33 76 34 27 35
REMARK SMILES IDX 28 36 29 37 70 38 30 39 75 40 69 41 71 42 31 43 74 44 68 45
REMARK SMILES IDX 67 46 32 48 58 49 41 50 57 51 42 52 45 53 56 54 72 55 43 56
REMARK SMILES IDX 44 57 55 59 73 60 46 61 33 62 34 63 39 64 35 65 36 66 38 67
REMARK SMILES IDX 40 68 37 69 59 70 60 71 65 72 61 73 62 74 64 75 66 76 63 77
REMARK SMILES IDX 47 78 48 79 53 80 49 81 50 82 52 83 54 84 51 85
REMARK H PARENT 8 14 11 16 79 25 71 47 45 58
REMARK Flexibility Score: inf
ROOT
ATOM      1  C   UNL     1      -5.962   2.553   0.293  1.00  0.00     0.275 C 
ENDROOT
BRANCH   1   2
ATOM      2  O   UNL     1      -5.399   1.225   0.369  1.00  0.00    -0.458 OA
BRANCH   2   3
ATOM      3  C   UNL     1      -4.965   0.699  -0.808  1.00  0.00     0.342 C 
ATOM      4  O   UNL     1      -5.074   1.206  -1.911  1.00  0.00    -0.246 OA
BRANCH   3   5
ATOM      5  C   UNL     1      -4.198  -0.547  -0.556  1.00  0.00     0.101 A 
ATOM      6  C   UNL     1      -2.444  -2.675  -0.060  1.00  0.00     0.046 A 
ATOM      7  C   UNL     1      -2.285  -1.899  -1.207  1.00  0.00     0.027 A 
ATOM      8  C   UNL     1      -3.550  -2.470   0.771  1.00  0.00     0.073 A 
ATOM      9  C   UNL     1      -3.187  -0.868  -1.476  1.00  0.00     0.022 A 
ATOM     10  C   UNL     1      -4.384  -1.371   0.559  1.00  0.00     0.132 A 
BRANCH   6  11
ATOM     11  N   UNL     1      -1.501  -3.635   0.334  1.00  0.00    -0.308 N 
ATOM     12  N   UNL     1       0.623  -2.608  -0.010  1.00  0.00    -0.306 N 
ATOM     13  C   UNL     1      -0.174  -3.706   0.072  1.00  0.00     0.323 C 
ATOM     14  H   UNL     1       1.424  -2.749  -0.563  1.00  0.00     0.171 HD
ATOM     15  O   UNL     1       0.348  -4.816  -0.058  1.00  0.00    -0.248 OA
ATOM     16  H   UNL     1      -1.858  -4.369   0.885  1.00  0.00     0.171 HD
BRANCH  12  17
ATOM     17  C   UNL     1       0.542  -1.300   0.536  1.00  0.00     0.064 A 
ATOM     18  C   UNL     1       2.716  -0.605  -0.625  1.00  0.00     0.069 C 
ATOM     19  C   UNL     1       1.502  -0.322   0.214  1.00  0.00     0.061 A 
ATOM     20  N   UNL     1       1.414   0.974   0.633  1.00  0.00    -0.259 NA
ATOM     21  C   UNL     1       0.390   1.308   1.442  1.00  0.00     0.111 A 
ATOM     22  C   UNL     1      -0.433  -0.921   1.461  1.00  0.00     0.030 A 
ATOM     23  C   UNL     1      -0.539   0.398   1.895  1.00  0.00     0.022 A 
ENDBRANCH  12  17
ENDBRANCH   6  11
BRANCH  10  24
ATOM     24  O   UNL     1      -5.330  -1.152   1.522  1.00  0.00    -0.507 OA
ATOM     25  H   UNL     1      -5.922  -0.430   1.442  1.00  0.00     0.293 HD
ENDBRANCH  10  24
ENDBRANCH   3   5
ENDBRANCH   2   3
ENDBRANCH   1   2
BRANCH   1  26
ATOM     26  C   UNL     1      -4.925   3.601   0.698  1.00  0.00     0.275 C 
BRANCH  26  27
ATOM     27  O   UNL     1      -3.827   3.575  -0.230  1.00  0.00    -0.458 OA
BRANCH  27  28
ATOM     28  C   UNL     1      -2.592   3.704   0.308  1.00  0.00     0.338 C 
ATOM     29  O   UNL     1      -2.300   3.874   1.478  1.00  0.00    -0.246 OA
BRANCH  28  30
ATOM     30  C   UNL     1      -1.591   3.585  -0.766  1.00  0.00     0.060 A 
ATOM     31  C   UNL     1      -1.470   2.377  -1.451  1.00  0.00     0.016 A 
ATOM     32  C   UNL     1      -0.708   4.632  -1.022  1.00  0.00     0.016 A 
ATOM     33  C   UNL     1      -0.449   2.198  -2.383  1.00  0.00     0.010 A 
ATOM     34  C   UNL     1       0.288   4.470  -1.992  1.00  0.00     0.010 A 
ATOM     35  C   UNL     1       0.438   3.245  -2.668  1.00  0.00    -0.014 A 
BRANCH  35  36
ATOM     36  C   UNL     1       1.541   3.051  -3.646  1.00  0.00     0.031 A 
ATOM     37  C   UNL     1       2.973   3.068  -3.187  1.00  0.00     0.074 A 
ATOM     38  C   UNL     1       1.267   2.856  -4.950  1.00  0.00     0.049 A 
ATOM     39  N   UNL     1       4.071   3.056  -3.901  1.00  0.00    -0.248 NA
ATOM     40  C   UNL     1       3.200   3.111  -1.735  1.00  0.00     0.031 C 
ATOM     41  C   UNL     1      -0.074   2.778  -5.531  1.00  0.00     0.029 A 
ATOM     42  N   UNL     1       2.106   2.691  -6.025  1.00  0.00    -0.354 N 
ATOM     43  C   UNL     1       5.116   3.131  -2.990  1.00  0.00     0.074 A 
ATOM     44  C   UNL     1       4.522   3.191  -1.671  1.00  0.00     0.031 C 
ATOM     45  C   UNL     1       0.033   2.564  -6.852  1.00  0.00     0.029 A 
ATOM     46  C   UNL     1       1.446   2.550  -7.221  1.00  0.00     0.049 A 
ATOM     47  H   UNL     1       3.087   2.676  -5.946  1.00  0.00     0.167 HD
ATOM     48  C   UNL     1       6.449   3.146  -3.231  1.00  0.00     0.037 A 
ATOM     49  C   UNL     1       1.920   2.454  -8.478  1.00  0.00     0.037 A 
ATOM     50  C   UNL     1       7.048   3.042  -4.537  1.00  0.00     0.049 A 
ATOM     51  C   UNL     1       3.401   2.506  -8.722  1.00  0.00     0.074 A 
ATOM     52  C   UNL     1       8.392   3.023  -4.870  1.00  0.00     0.029 A 
ATOM     53  N   UNL     1       6.342   2.930  -5.724  1.00  0.00    -0.354 N 
ATOM     54  N   UNL     1       4.377   2.611  -7.855  1.00  0.00    -0.248 NA
ATOM     55  C   UNL     1       3.844   2.443 -10.123  1.00  0.00     0.031 C 
ATOM     56  C   UNL     1       8.499   2.928  -6.262  1.00  0.00     0.029 A 
ATOM     57  C   UNL     1       7.222   2.853  -6.792  1.00  0.00     0.049 A 
ATOM     58  H   UNL     1       5.361   2.908  -5.798  1.00  0.00     0.167 HD
ATOM     59  C   UNL     1       5.548   2.618  -8.601  1.00  0.00     0.074 A 
ATOM     60  C   UNL     1       5.163   2.488  -9.991  1.00  0.00     0.031 C 
ATOM     61  C   UNL     1       6.828   2.727  -8.171  1.00  0.00     0.037 A 
BRANCH  48  62
ATOM     62  C   UNL     1       7.362   3.304  -2.052  1.00  0.00     0.057 A 
ATOM     63  C   UNL     1       7.614   2.252  -1.163  1.00  0.00     0.134 A 
ATOM     64  C   UNL     1       8.035   4.514  -1.834  1.00  0.00     0.134 A 
ATOM     65  F   UNL     1       6.993   1.073  -1.312  1.00  0.00    -0.206 F 
ATOM     66  C   UNL     1       8.493   2.403  -0.089  1.00  0.00     0.040 A 
ATOM     67  C   UNL     1       8.931   4.670  -0.776  1.00  0.00     0.040 A 
ATOM     68  F   UNL     1       7.842   5.558  -2.655  1.00  0.00    -0.206 F 
ATOM     69  C   UNL     1       9.159   3.613   0.103  1.00  0.00     0.006 A 
ENDBRANCH  48  62
BRANCH  49  70
ATOM     70  C   UNL     1       0.974   2.328  -9.613  1.00  0.00     0.057 A 
ATOM     71  C   UNL     1       0.848   1.126 -10.318  1.00  0.00     0.134 A 
ATOM     72  C   UNL     1       0.176   3.404 -10.019  1.00  0.00     0.134 A 
ATOM     73  F   UNL     1       1.605   0.069  -9.991  1.00  0.00    -0.206 F 
ATOM     74  C   UNL     1      -0.036   0.999 -11.390  1.00  0.00     0.040 A 
ATOM     75  C   UNL     1      -0.728   3.285 -11.075  1.00  0.00     0.040 A 
ATOM     76  F   UNL     1       0.254   4.583  -9.384  1.00  0.00    -0.206 F 
ATOM     77  C   UNL     1      -0.833   2.080 -11.767  1.00  0.00     0.006 A 
ENDBRANCH  49  70
BRANCH  61  78
ATOM     78  C   UNL     1       7.905   2.690  -9.213  1.00  0.00     0.057 A 
ATOM     79  C   UNL     1       8.165   3.790 -10.039  1.00  0.00     0.134 A 
ATOM     80  C   UNL     1       8.704   1.552  -9.376  1.00  0.00     0.134 A 
ATOM     81  F   UNL     1       7.424   4.904  -9.942  1.00  0.00    -0.206 F 
ATOM     82  C   UNL     1       9.173   3.753 -11.004  1.00  0.00     0.040 A 
ATOM     83  C   UNL     1       9.727   1.510 -10.324  1.00  0.00     0.040 A 
ATOM     84  F   UNL     1       8.508   0.467  -8.612  1.00  0.00    -0.206 F 
ATOM     85  C   UNL     1       9.961   2.612 -11.145  1.00  0.00     0.006 A 
ENDBRANCH  61  78
ENDBRANCH  35  36
ENDBRANCH  28  30
ENDBRANCH  27  28
ENDBRANCH  26  27
ENDBRANCH   1  26
TORSDOF 14
