REMARK SMILES Cc1cc(OCC(C)(C)C(=O)OCCOC(=O)c2ccc(-c3c4nc(c(-c5c(F)cccc5F)c5ccc([nH]5)c(-c5c(F)cccc5F)c5nc(c(-c6c(F)cccc6F)c6ccc3[nH]6)C=C5)C=C4)cc2)cc(C(C)C)c1
REMARK SMILES IDX 13 1 12 2 10 3 11 4 7 5 8 6 9 7 6 8 5 9 4 10 1 11 2 12 3 13
REMARK SMILES IDX 77 14 73 15 72 16 74 17 75 18 76 19 14 20 15 21 16 22 17 23
REMARK SMILES IDX 18 24 19 25 71 26 20 27 70 28 21 29 22 30 23 31 64 32 24 33
REMARK SMILES IDX 69 34 63 35 65 36 25 37 68 38 62 39 61 40 26 42 52 43 35 44
REMARK SMILES IDX 51 45 36 46 39 47 50 48 66 49 37 50 38 51 49 53 67 54 40 55
REMARK SMILES IDX 27 56 28 57 33 58 29 59 30 60 32 61 34 62 31 63 53 64 54 65
REMARK SMILES IDX 59 66 55 67 56 68 58 69 60 70 57 71 41 72 42 73 47 74 43 75
REMARK SMILES IDX 44 76 46 77 48 78 45 79
REMARK H PARENT 65 41 39 52
REMARK Flexibility Score: inf
ROOT
ATOM      1  C   UNL     1      -5.203  -3.177   3.930  1.00  0.00     0.274 C 
ENDROOT
BRANCH   1   2
ATOM      2  O   UNL     1      -5.144  -2.897   2.521  1.00  0.00    -0.462 OA
BRANCH   2   3
ATOM      3  C   UNL     1      -4.622  -1.654   2.258  1.00  0.00     0.315 C 
ATOM      4  O   UNL     1      -4.120  -0.953   3.111  1.00  0.00    -0.251 OA
BRANCH   3   5
ATOM      5  C   UNL     1      -4.883  -1.169   0.828  1.00  0.00     0.096 C 
ATOM      6  C   UNL     1      -4.954   0.365   0.937  1.00  0.00     0.027 C 
ATOM      7  C   UNL     1      -6.287  -1.635   0.390  1.00  0.00     0.027 C 
BRANCH   5   8
ATOM      8  C   UNL     1      -3.856  -1.655  -0.236  1.00  0.00     0.247 C 
BRANCH   8   9
ATOM      9  O   UNL     1      -2.456  -1.503   0.026  1.00  0.00    -0.492 OA
BRANCH   9  10
ATOM     10  C   UNL     1      -1.733  -0.449  -0.464  1.00  0.00     0.119 A 
ATOM     11  C   UNL     1       2.020   0.261  -0.754  1.00  0.00     0.044 C 
ATOM     12  C   UNL     1       0.530   0.450  -0.749  1.00  0.00    -0.047 A 
ATOM     13  C   UNL     1      -0.347  -0.625  -0.534  1.00  0.00     0.049 A 
ATOM     14  C   UNL     1      -0.002   1.735  -0.823  1.00  0.00     0.007 A 
ATOM     15  C   UNL     1      -1.387   1.929  -0.809  1.00  0.00    -0.042 A 
ATOM     16  C   UNL     1      -2.237   0.813  -0.726  1.00  0.00     0.050 A 
BRANCH  15  17
ATOM     17  C   UNL     1      -1.939   3.339  -0.719  1.00  0.00     0.013 C 
ATOM     18  C   UNL     1      -3.016   3.616  -1.765  1.00  0.00     0.012 C 
ATOM     19  C   UNL     1      -2.466   3.597   0.699  1.00  0.00     0.012 C 
ENDBRANCH  15  17
ENDBRANCH   9  10
ENDBRANCH   8   9
ENDBRANCH   5   8
ENDBRANCH   3   5
ENDBRANCH   2   3
ENDBRANCH   1   2
BRANCH   1  20
ATOM     20  C   UNL     1      -5.324  -4.668   4.260  1.00  0.00     0.275 C 
BRANCH  20  21
ATOM     21  O   UNL     1      -4.720  -5.616   3.342  1.00  0.00    -0.458 OA
BRANCH  21  22
ATOM     22  C   UNL     1      -3.446  -5.639   2.885  1.00  0.00     0.338 C 
ATOM     23  O   UNL     1      -3.058  -6.443   2.047  1.00  0.00    -0.246 OA
BRANCH  22  24
ATOM     24  C   UNL     1      -2.543  -4.592   3.369  1.00  0.00     0.060 A 
ATOM     25  C   UNL     1      -2.025  -3.684   2.438  1.00  0.00     0.016 A 
ATOM     26  C   UNL     1      -2.287  -4.460   4.732  1.00  0.00     0.016 A 
ATOM     27  C   UNL     1      -1.342  -2.557   2.887  1.00  0.00     0.010 A 
ATOM     28  C   UNL     1      -1.631  -3.325   5.176  1.00  0.00     0.010 A 
ATOM     29  C   UNL     1      -1.177  -2.362   4.259  1.00  0.00    -0.014 A 
BRANCH  29  30
ATOM     30  C   UNL     1      -0.314  -1.315   4.795  1.00  0.00     0.031 A 
ATOM     31  C   UNL     1      -0.679   0.119   4.870  1.00  0.00     0.074 A 
ATOM     32  C   UNL     1       0.905  -1.746   5.180  1.00  0.00     0.049 A 
ATOM     33  N   UNL     1       0.181   1.086   4.824  1.00  0.00    -0.248 NA
ATOM     34  C   UNL     1      -2.055   0.594   4.981  1.00  0.00     0.031 C 
ATOM     35  C   UNL     1       1.928  -1.031   5.918  1.00  0.00     0.029 A 
ATOM     36  N   UNL     1       1.542  -2.913   4.738  1.00  0.00    -0.354 N 
ATOM     37  C   UNL     1      -0.478   2.250   5.162  1.00  0.00     0.074 A 
ATOM     38  C   UNL     1      -1.881   1.912   5.145  1.00  0.00     0.031 C 
ATOM     39  C   UNL     1       3.116  -1.595   5.635  1.00  0.00     0.029 A 
ATOM     40  C   UNL     1       2.885  -2.580   4.584  1.00  0.00     0.049 A 
ATOM     41  H   UNL     1       1.126  -3.789   4.570  1.00  0.00     0.167 HD
ATOM     42  C   UNL     1       0.225   3.336   5.599  1.00  0.00     0.037 A 
ATOM     43  C   UNL     1       3.540  -2.630   3.391  1.00  0.00     0.037 A 
ATOM     44  C   UNL     1       1.653   3.066   5.608  1.00  0.00     0.049 A 
ATOM     45  C   UNL     1       4.195  -1.307   3.073  1.00  0.00     0.074 A 
ATOM     46  C   UNL     1       2.475   2.562   6.602  1.00  0.00     0.029 A 
ATOM     47  N   UNL     1       2.353   2.959   4.413  1.00  0.00    -0.354 N 
ATOM     48  N   UNL     1       3.722  -0.147   3.443  1.00  0.00    -0.248 NA
ATOM     49  C   UNL     1       5.461  -1.200   2.357  1.00  0.00     0.031 C 
ATOM     50  C   UNL     1       3.651   2.076   5.991  1.00  0.00     0.029 A 
ATOM     51  C   UNL     1       3.561   2.327   4.633  1.00  0.00     0.049 A 
ATOM     52  H   UNL     1       2.035   3.284   3.540  1.00  0.00     0.167 HD
ATOM     53  C   UNL     1       4.643   0.826   3.141  1.00  0.00     0.074 A 
ATOM     54  C   UNL     1       5.693   0.123   2.425  1.00  0.00     0.031 C 
ATOM     55  C   UNL     1       4.516   2.120   3.562  1.00  0.00     0.037 A 
BRANCH  42  56
ATOM     56  C   UNL     1      -0.421   4.471   6.356  1.00  0.00     0.057 A 
ATOM     57  C   UNL     1       0.162   4.997   7.527  1.00  0.00     0.134 A 
ATOM     58  C   UNL     1      -1.650   5.048   6.001  1.00  0.00     0.134 A 
ATOM     59  F   UNL     1       1.371   4.608   7.952  1.00  0.00    -0.206 F 
ATOM     60  C   UNL     1      -0.477   5.940   8.341  1.00  0.00     0.040 A 
ATOM     61  C   UNL     1      -2.317   5.973   6.823  1.00  0.00     0.040 A 
ATOM     62  F   UNL     1      -2.245   4.742   4.838  1.00  0.00    -0.206 F 
ATOM     63  C   UNL     1      -1.738   6.408   8.009  1.00  0.00     0.006 A 
ENDBRANCH  42  56
BRANCH  43  64
ATOM     64  C   UNL     1       2.976  -3.561   2.373  1.00  0.00     0.057 A 
ATOM     65  C   UNL     1       3.062  -4.949   2.558  1.00  0.00     0.134 A 
ATOM     66  C   UNL     1       2.087  -3.120   1.391  1.00  0.00     0.134 A 
ATOM     67  F   UNL     1       3.872  -5.453   3.500  1.00  0.00    -0.206 F 
ATOM     68  C   UNL     1       2.262  -5.848   1.839  1.00  0.00     0.040 A 
ATOM     69  C   UNL     1       1.289  -4.009   0.656  1.00  0.00     0.040 A 
ATOM     70  F   UNL     1       1.895  -1.810   1.210  1.00  0.00    -0.206 F 
ATOM     71  C   UNL     1       1.357  -5.376   0.895  1.00  0.00     0.006 A 
ENDBRANCH  43  64
BRANCH  55  72
ATOM     72  C   UNL     1       5.382   3.287   3.157  1.00  0.00     0.057 A 
ATOM     73  C   UNL     1       6.012   3.396   1.911  1.00  0.00     0.134 A 
ATOM     74  C   UNL     1       5.482   4.436   3.980  1.00  0.00     0.134 A 
ATOM     75  F   UNL     1       5.907   2.430   0.988  1.00  0.00    -0.206 F 
ATOM     76  C   UNL     1       6.734   4.537   1.533  1.00  0.00     0.040 A 
ATOM     77  C   UNL     1       6.156   5.596   3.593  1.00  0.00     0.040 A 
ATOM     78  F   UNL     1       4.909   4.496   5.191  1.00  0.00    -0.206 F 
ATOM     79  C   UNL     1       6.799   5.645   2.369  1.00  0.00     0.006 A 
ENDBRANCH  55  72
ENDBRANCH  29  30
ENDBRANCH  22  24
ENDBRANCH  21  22
ENDBRANCH  20  21
ENDBRANCH   1  20
TORSDOF 15
