REMARK SMILES O=C(OCCOC(=O)[C@@H]1CCc2[nH]ncc2C1)c1ccc(-c2c3nc(c(-c4c(F)cccc4F)c4ccc([nH]4)c(-c4c(F)cccc4F)c4nc(c(-c5c(F)cccc5F)c5ccc2[nH]5)C=C4)C=C3)cc1
REMARK SMILES IDX 4 1 3 2 2 3 1 4 18 5 19 6 71 7 20 8 70 9 21 10 22 11 23 12
REMARK SMILES IDX 64 13 24 14 69 15 63 16 65 17 25 18 68 19 62 20 61 21 26 23
REMARK SMILES IDX 52 24 35 25 51 26 36 27 39 28 50 29 66 30 37 31 38 32 49 34
REMARK SMILES IDX 67 35 40 36 27 37 28 38 33 39 29 40 30 41 32 42 34 43 31 44
REMARK SMILES IDX 53 45 54 46 59 47 55 48 56 49 58 50 60 51 57 52 41 53 42 54
REMARK SMILES IDX 47 55 43 56 44 57 46 58 48 59 45 60 5 61 6 62 7 63 8 64 9 65
REMARK SMILES IDX 10 66 17 67 11 68 16 69 12 70 15 71 13 72 14 73
REMARK H PARENT 65 22 39 33 13 74
REMARK Flexibility Score: inf
ROOT
ATOM      1  C   UNL     1       4.294  -1.586   0.368  1.00  0.00     0.275 C 
ENDROOT
BRANCH   1   2
ATOM      2  O   UNL     1       3.336  -0.702   0.962  1.00  0.00    -0.458 OA
BRANCH   2   3
ATOM      3  C   UNL     1       3.294   0.649   0.933  1.00  0.00     0.338 C 
ATOM      4  O   UNL     1       2.477   1.216   1.660  1.00  0.00    -0.246 OA
BRANCH   3   5
ATOM      5  C   UNL     1       4.070   1.498  -0.033  1.00  0.00     0.060 A 
ATOM      6  C   UNL     1       5.244   1.161  -0.723  1.00  0.00     0.016 A 
ATOM      7  C   UNL     1       3.501   2.752  -0.305  1.00  0.00     0.016 A 
ATOM      8  C   UNL     1       5.755   1.973  -1.750  1.00  0.00     0.010 A 
ATOM      9  C   UNL     1       4.002   3.559  -1.324  1.00  0.00     0.010 A 
ATOM     10  C   UNL     1       5.112   3.160  -2.086  1.00  0.00    -0.014 A 
BRANCH  10  11
ATOM     11  C   UNL     1       5.631   4.095  -3.114  1.00  0.00     0.031 A 
ATOM     12  C   UNL     1       6.112   5.426  -2.625  1.00  0.00     0.074 A 
ATOM     13  C   UNL     1       5.536   3.847  -4.435  1.00  0.00     0.049 A 
ATOM     14  N   UNL     1       6.353   6.525  -3.286  1.00  0.00    -0.248 NA
ATOM     15  C   UNL     1       6.278   5.543  -1.165  1.00  0.00     0.031 C 
ATOM     16  C   UNL     1       5.072   2.603  -5.048  1.00  0.00     0.029 A 
ATOM     17  N   UNL     1       5.760   4.677  -5.508  1.00  0.00    -0.354 N 
ATOM     18  C   UNL     1       6.668   7.465  -2.317  1.00  0.00     0.074 A 
ATOM     19  C   UNL     1       6.468   6.842  -1.029  1.00  0.00     0.031 C 
ATOM     20  C   UNL     1       4.960   2.780  -6.377  1.00  0.00     0.029 A 
ATOM     21  C   UNL     1       5.350   4.146  -6.710  1.00  0.00     0.049 A 
ATOM     22  H   UNL     1       6.175   5.567  -5.425  1.00  0.00     0.167 HD
ATOM     23  C   UNL     1       7.144   8.720  -2.480  1.00  0.00     0.037 A 
ATOM     24  C   UNL     1       5.280   4.713  -7.932  1.00  0.00     0.037 A 
ATOM     25  C   UNL     1       7.371   9.318  -3.762  1.00  0.00     0.049 A 
ATOM     26  C   UNL     1       5.777   6.126  -8.109  1.00  0.00     0.074 A 
ATOM     27  C   UNL     1       7.929  10.544  -4.061  1.00  0.00     0.029 A 
ATOM     28  N   UNL     1       7.040   8.714  -4.968  1.00  0.00    -0.354 N 
ATOM     29  N   UNL     1       6.198   6.974  -7.201  1.00  0.00    -0.248 NA
ATOM     30  C   UNL     1       5.831   6.649  -9.483  1.00  0.00     0.031 C 
ATOM     31  C   UNL     1       7.914  10.695  -5.452  1.00  0.00     0.029 A 
ATOM     32  C   UNL     1       7.381   9.545  -6.017  1.00  0.00     0.049 A 
ATOM     33  H   UNL     1       6.624   7.827  -5.061  1.00  0.00     0.167 HD
ATOM     34  C   UNL     1       6.629   8.099  -7.895  1.00  0.00     0.074 A 
ATOM     35  C   UNL     1       6.393   7.837  -9.300  1.00  0.00     0.031 C 
ATOM     36  C   UNL     1       7.189   9.235  -7.412  1.00  0.00     0.037 A 
BRANCH  23  37
ATOM     37  C   UNL     1       7.458   9.470  -1.222  1.00  0.00     0.057 A 
ATOM     38  C   UNL     1       8.479   9.046  -0.355  1.00  0.00     0.134 A 
ATOM     39  C   UNL     1       6.662  10.543  -0.807  1.00  0.00     0.134 A 
ATOM     40  F   UNL     1       9.262   8.006  -0.684  1.00  0.00    -0.206 F 
ATOM     41  C   UNL     1       8.641   9.606   0.911  1.00  0.00     0.040 A 
ATOM     42  C   UNL     1       6.841  11.136   0.443  1.00  0.00     0.040 A 
ATOM     43  F   UNL     1       5.674  11.002  -1.589  1.00  0.00    -0.206 F 
ATOM     44  C   UNL     1       7.815  10.652   1.315  1.00  0.00     0.006 A 
ENDBRANCH  23  37
BRANCH  24  45
ATOM     45  C   UNL     1       4.776   3.938  -9.097  1.00  0.00     0.057 A 
ATOM     46  C   UNL     1       5.657   3.446 -10.068  1.00  0.00     0.134 A 
ATOM     47  C   UNL     1       3.410   3.696  -9.290  1.00  0.00     0.134 A 
ATOM     48  F   UNL     1       6.976   3.659  -9.950  1.00  0.00    -0.206 F 
ATOM     49  C   UNL     1       5.200   2.765 -11.199  1.00  0.00     0.040 A 
ATOM     50  C   UNL     1       2.940   3.004 -10.411  1.00  0.00     0.040 A 
ATOM     51  F   UNL     1       2.507   4.127  -8.399  1.00  0.00    -0.206 F 
ATOM     52  C   UNL     1       3.836   2.542 -11.373  1.00  0.00     0.006 A 
ENDBRANCH  24  45
BRANCH  36  53
ATOM     53  C   UNL     1       7.689  10.247  -8.397  1.00  0.00     0.057 A 
ATOM     54  C   UNL     1       6.830  11.116  -9.076  1.00  0.00     0.134 A 
ATOM     55  C   UNL     1       9.069  10.434  -8.562  1.00  0.00     0.134 A 
ATOM     56  F   UNL     1       5.500  10.980  -8.968  1.00  0.00    -0.206 F 
ATOM     57  C   UNL     1       7.326  12.146  -9.878  1.00  0.00     0.040 A 
ATOM     58  C   UNL     1       9.577  11.472  -9.341  1.00  0.00     0.040 A 
ATOM     59  F   UNL     1       9.944   9.635  -7.931  1.00  0.00    -0.206 F 
ATOM     60  C   UNL     1       8.703  12.335  -9.999  1.00  0.00     0.006 A 
ENDBRANCH  36  53
ENDBRANCH  10  11
ENDBRANCH   3   5
ENDBRANCH   2   3
ENDBRANCH   1   2
BRANCH   1  61
ATOM     61  C   UNL     1       3.977  -1.965  -1.082  1.00  0.00     0.274 C 
BRANCH  61  62
ATOM     62  O   UNL     1       3.337  -0.907  -1.826  1.00  0.00    -0.462 OA
BRANCH  62  63
ATOM     63  C   UNL     1       2.155  -1.216  -2.423  1.00  0.00     0.309 C 
ATOM     64  O   UNL     1       1.631  -2.329  -2.370  1.00  0.00    -0.252 OA
BRANCH  63  65
ATOM     65  C   UNL     1       1.540  -0.088  -3.238  1.00  0.00     0.104 C 
ATOM     66  C   UNL     1       1.623  -0.430  -4.747  1.00  0.00     0.022 C 
ATOM     67  C   UNL     1       2.114   1.310  -2.950  1.00  0.00     0.054 C 
ATOM     68  C   UNL     1       0.837   0.571  -5.620  1.00  0.00     0.057 C 
ATOM     69  C   UNL     1       1.685   2.308  -3.967  1.00  0.00    -0.006 A 
ATOM     70  C   UNL     1       1.140   1.948  -5.175  1.00  0.00     0.038 A 
ATOM     71  C   UNL     1       1.743   3.713  -4.020  1.00  0.00     0.138 A 
ATOM     72  N   UNL     1       0.920   3.102  -5.865  1.00  0.00    -0.282 N 
ATOM     73  N   UNL     1       1.249   4.198  -5.162  1.00  0.00    -0.184 NA
ATOM     74  H   UNL     1       0.558   3.129  -6.780  1.00  0.00     0.190 HD
ENDBRANCH  63  65
ENDBRANCH  62  63
ENDBRANCH  61  62
ENDBRANCH   1  61
TORSDOF 11
