REMARK SMILES CCOc1cc(C[NH+]2CCC3(CC2)[C@H](C(=O)OCCOC(=O)c2ccc(-c4c5nc(c(-c6c(F)cccc6F)c6ccc([nH]6)c(-c6c(F)cccc6F)c6nc(c(-c7c(F)cccc7F)c7ccc4[nH]7)C=C6)C=C5)cc2)CC(=O)N3C)ccc1OC
REMARK SMILES IDX 18 1 17 2 15 3 16 4 14 5 8 6 9 7 13 8 10 10 12 11 11 12
REMARK SMILES IDX 80 13 77 14 78 15 81 16 79 17 7 18 6 19 4 20 5 21 84 22
REMARK SMILES IDX 83 23 82 24 3 25 2 26 1 27 85 28 86 29 19 30 20 31 21 32
REMARK SMILES IDX 22 33 23 34 24 35 76 36 25 37 75 38 26 39 27 40 28 41 69 42
REMARK SMILES IDX 29 43 74 44 68 45 70 46 30 47 73 48 67 49 66 50 31 52 57 53
REMARK SMILES IDX 40 54 56 55 41 56 44 57 55 58 71 59 42 60 43 61 54 63 72 64
REMARK SMILES IDX 45 65 32 66 33 67 38 68 34 69 35 70 37 71 39 72 36 73 58 74
REMARK SMILES IDX 59 75 64 76 60 77 61 78 63 79 65 80 62 81 46 82 47 83 52 84
REMARK SMILES IDX 48 85 49 86 51 87 53 88 50 89
REMARK H PARENT 8 9 70 51 44 62
REMARK Flexibility Score: inf
ROOT
ATOM      1  C   UNL     1       4.280  -0.310   3.862  1.00  0.00     0.274 C 
ENDROOT
BRANCH   1   2
ATOM      2  O   UNL     1       3.611  -1.574   3.581  1.00  0.00    -0.462 OA
BRANCH   2   3
ATOM      3  C   UNL     1       2.427  -1.782   4.253  1.00  0.00     0.311 C 
ATOM      4  O   UNL     1       2.072  -1.074   5.190  1.00  0.00    -0.252 OA
BRANCH   3   5
ATOM      5  C   UNL     1       1.500  -2.833   3.585  1.00  0.00     0.134 C 
ATOM      6  N   UNL     1       3.178  -6.332   1.686  1.00  0.00    -0.331 N 
ATOM      7  C   UNL     1       3.861  -5.873   2.890  1.00  0.00     0.265 C 
ATOM      8  C   UNL     1       1.735  -6.343   1.839  1.00  0.00     0.265 C 
ATOM      9  H   UNL     1       3.477  -7.306   1.633  1.00  0.00     0.348 HD
ATOM     10  C   UNL     1       3.346  -4.575   3.518  1.00  0.00     0.091 C 
ATOM     11  C   UNL     1       1.109  -5.043   2.357  1.00  0.00     0.091 C 
ATOM     12  C   UNL     1       1.824  -4.357   3.560  1.00  0.00     0.067 C 
ATOM     13  N   UNL     1       1.138  -4.800   4.783  1.00  0.00    -0.339 N 
ATOM     14  C   UNL     1       0.094  -2.767   4.191  1.00  0.00     0.118 C 
ATOM     15  C   UNL     1       0.083  -3.942   5.123  1.00  0.00     0.223 C 
ATOM     16  C   UNL     1       1.029  -6.188   5.177  1.00  0.00     0.147 C 
ATOM     17  O   UNL     1      -0.799  -4.167   5.944  1.00  0.00    -0.275 OA
BRANCH   6  18
ATOM     18  C   UNL     1       3.704  -5.968   0.355  1.00  0.00     0.299 C 
BRANCH  18  19
ATOM     19  C   UNL     1       3.463  -4.532  -0.059  1.00  0.00     0.010 A 
ATOM     20  C   UNL     1       1.784  -2.753  -0.190  1.00  0.00     0.161 A 
ATOM     21  C   UNL     1       2.205  -4.063  -0.503  1.00  0.00     0.060 A 
ATOM     22  C   UNL     1       2.661  -1.932   0.499  1.00  0.00     0.160 A 
ATOM     23  C   UNL     1       3.995  -2.346   0.618  1.00  0.00     0.051 A 
ATOM     24  C   UNL     1       4.426  -3.618   0.315  1.00  0.00     0.013 A 
BRANCH  20  25
ATOM     25  O   UNL     1       0.440  -2.491  -0.175  1.00  0.00    -0.490 OA
BRANCH  25  26
ATOM     26  C   UNL     1      -0.104  -2.038  -1.414  1.00  0.00     0.226 C 
ATOM     27  C   UNL     1      -0.664  -0.634  -1.230  1.00  0.00     0.049 C 
ENDBRANCH  25  26
ENDBRANCH  20  25
BRANCH  22  28
ATOM     28  O   UNL     1       2.419  -0.796   1.214  1.00  0.00    -0.493 OA
ATOM     29  C   UNL     1       1.138  -0.246   1.474  1.00  0.00     0.278 C 
ENDBRANCH  22  28
ENDBRANCH  18  19
ENDBRANCH   6  18
ENDBRANCH   3   5
ENDBRANCH   2   3
ENDBRANCH   1   2
BRANCH   1  30
ATOM     30  C   UNL     1       5.681  -0.155   3.199  1.00  0.00     0.275 C 
BRANCH  30  31
ATOM     31  O   UNL     1       5.756  -0.056   1.746  1.00  0.00    -0.458 OA
BRANCH  31  32
ATOM     32  C   UNL     1       5.213   1.016   1.120  1.00  0.00     0.338 C 
ATOM     33  O   UNL     1       4.761   2.003   1.686  1.00  0.00    -0.246 OA
BRANCH  32  34
ATOM     34  C   UNL     1       4.942   0.703  -0.325  1.00  0.00     0.060 A 
ATOM     35  C   UNL     1       3.605   0.769  -0.662  1.00  0.00     0.016 A 
ATOM     36  C   UNL     1       5.822   0.237  -1.310  1.00  0.00     0.016 A 
ATOM     37  C   UNL     1       3.135   0.181  -1.831  1.00  0.00     0.010 A 
ATOM     38  C   UNL     1       5.340  -0.073  -2.627  1.00  0.00     0.010 A 
ATOM     39  C   UNL     1       3.965  -0.074  -2.916  1.00  0.00    -0.014 A 
BRANCH  39  40
ATOM     40  C   UNL     1       3.285  -0.159  -4.268  1.00  0.00     0.031 A 
ATOM     41  C   UNL     1       3.519  -1.272  -5.261  1.00  0.00     0.074 A 
ATOM     42  C   UNL     1       2.308   0.739  -4.576  1.00  0.00     0.049 A 
ATOM     43  N   UNL     1       3.165  -1.331  -6.525  1.00  0.00    -0.248 NA
ATOM     44  C   UNL     1       4.194  -2.483  -4.778  1.00  0.00     0.031 C 
ATOM     45  C   UNL     1       1.817   1.806  -3.691  1.00  0.00     0.029 A 
ATOM     46  N   UNL     1       1.500   0.881  -5.686  1.00  0.00    -0.354 N 
ATOM     47  C   UNL     1       3.626  -2.551  -7.008  1.00  0.00     0.074 A 
ATOM     48  C   UNL     1       4.244  -3.225  -5.882  1.00  0.00     0.031 C 
ATOM     49  C   UNL     1       0.728   2.374  -4.213  1.00  0.00     0.029 A 
ATOM     50  C   UNL     1       0.604   1.925  -5.583  1.00  0.00     0.049 A 
ATOM     51  H   UNL     1       1.558   0.295  -6.475  1.00  0.00     0.167 HD
ATOM     52  C   UNL     1       3.562  -3.036  -8.276  1.00  0.00     0.037 A 
ATOM     53  C   UNL     1      -0.145   2.572  -6.497  1.00  0.00     0.037 A 
ATOM     54  C   UNL     1       2.913  -2.359  -9.379  1.00  0.00     0.049 A 
ATOM     55  C   UNL     1      -0.035   2.145  -7.924  1.00  0.00     0.074 A 
ATOM     56  C   UNL     1       2.887  -2.708 -10.721  1.00  0.00     0.029 A 
ATOM     57  N   UNL     1       2.159  -1.200  -9.263  1.00  0.00    -0.354 N 
ATOM     58  N   UNL     1       0.580   1.103  -8.423  1.00  0.00    -0.248 NA
ATOM     59  C   UNL     1      -0.672   3.012  -8.924  1.00  0.00     0.031 C 
ATOM     60  C   UNL     1       2.168  -1.731 -11.421  1.00  0.00     0.029 A 
ATOM     61  C   UNL     1       1.690  -0.806 -10.509  1.00  0.00     0.049 A 
ATOM     62  H   UNL     1       1.982  -0.725  -8.419  1.00  0.00     0.167 HD
ATOM     63  C   UNL     1       0.400   1.183  -9.794  1.00  0.00     0.074 A 
ATOM     64  C   UNL     1      -0.407   2.359 -10.046  1.00  0.00     0.031 C 
ATOM     65  C   UNL     1       0.875   0.356 -10.755  1.00  0.00     0.037 A 
BRANCH  52  66
ATOM     66  C   UNL     1       4.308  -4.308  -8.581  1.00  0.00     0.057 A 
ATOM     67  C   UNL     1       3.861  -5.572  -8.181  1.00  0.00     0.134 A 
ATOM     68  C   UNL     1       5.490  -4.258  -9.337  1.00  0.00     0.134 A 
ATOM     69  F   UNL     1       2.739  -5.699  -7.456  1.00  0.00    -0.206 F 
ATOM     70  C   UNL     1       4.574  -6.734  -8.496  1.00  0.00     0.040 A 
ATOM     71  C   UNL     1       6.198  -5.412  -9.679  1.00  0.00     0.040 A 
ATOM     72  F   UNL     1       5.969  -3.082  -9.772  1.00  0.00    -0.206 F 
ATOM     73  C   UNL     1       5.745  -6.656  -9.249  1.00  0.00     0.006 A 
ENDBRANCH  52  66
BRANCH  53  74
ATOM     74  C   UNL     1      -0.913   3.796  -6.121  1.00  0.00     0.057 A 
ATOM     75  C   UNL     1      -2.300   3.868  -6.278  1.00  0.00     0.134 A 
ATOM     76  C   UNL     1      -0.269   4.941  -5.620  1.00  0.00     0.134 A 
ATOM     77  F   UNL     1      -2.977   2.826  -6.783  1.00  0.00    -0.206 F 
ATOM     78  C   UNL     1      -3.015   5.026  -5.960  1.00  0.00     0.040 A 
ATOM     79  C   UNL     1      -0.975   6.086  -5.252  1.00  0.00     0.040 A 
ATOM     80  F   UNL     1       1.062   4.955  -5.455  1.00  0.00    -0.206 F 
ATOM     81  C   UNL     1      -2.353   6.135  -5.434  1.00  0.00     0.006 A 
ENDBRANCH  53  74
BRANCH  65  82
ATOM     82  C   UNL     1       0.481   0.668 -12.168  1.00  0.00     0.057 A 
ATOM     83  C   UNL     1       1.013   1.761 -12.864  1.00  0.00     0.134 A 
ATOM     84  C   UNL     1      -0.440  -0.144 -12.841  1.00  0.00     0.134 A 
ATOM     85  F   UNL     1       1.878   2.593 -12.264  1.00  0.00    -0.206 F 
ATOM     86  C   UNL     1       0.631   2.045 -14.175  1.00  0.00     0.040 A 
ATOM     87  C   UNL     1      -0.808   0.113 -14.162  1.00  0.00     0.040 A 
ATOM     88  F   UNL     1      -0.991  -1.203 -12.229  1.00  0.00    -0.206 F 
ATOM     89  C   UNL     1      -0.276   1.214 -14.831  1.00  0.00     0.006 A 
ENDBRANCH  65  82
ENDBRANCH  39  40
ENDBRANCH  32  34
ENDBRANCH  31  32
ENDBRANCH  30  31
ENDBRANCH   1  30
TORSDOF 16
