REMARK SMILES C[C@H](C(=O)Nc1ccc(C(F)(F)F)cc1)n1nc(C(=O)OCCOC(=O)c2ccc(-c3c4nc(c(-c5c(F)cccc5F)c5ccc([nH]5)c(-c5c(F)cccc5F)c5nc(c(-c6c(F)cccc6F)c6ccc3[nH]6)C=C5)C=C4)cc2)c2ccccc2c1=O
REMARK SMILES IDX 22 1 21 2 19 3 20 4 18 5 16 6 17 7 87 8 86 9 88 10 81 11
REMARK SMILES IDX 85 12 82 13 84 14 83 15 2 16 1 17 3 18 4 19 5 20 6 22 7 23
REMARK SMILES IDX 15 24 8 25 14 26 9 27 10 28 11 29 12 30 13 31 23 32 24 33
REMARK SMILES IDX 25 34 26 35 27 36 28 37 80 38 29 39 79 40 30 41 31 42 32 43
REMARK SMILES IDX 73 44 33 45 78 46 72 47 74 48 34 49 77 50 71 51 70 52 35 54
REMARK SMILES IDX 61 55 44 56 60 57 45 58 48 59 59 60 75 61 46 62 47 63 58 65
REMARK SMILES IDX 76 66 49 67 36 68 37 69 42 70 38 71 39 72 41 73 43 74 40 75
REMARK SMILES IDX 62 76 63 77 68 78 64 79 65 80 67 81 69 82 66 83 50 84 51 85
REMARK SMILES IDX 56 86 52 87 53 88 55 89 57 90 54 91
REMARK H PARENT 5 21 74 53 48 64
REMARK Flexibility Score: inf
ROOT
ATOM      1  C   UNL     1      -4.211  -4.160  -0.179  1.00  0.00     0.275 C 
ENDROOT
BRANCH   1   2
ATOM      2  O   UNL     1      -3.484  -3.382   0.792  1.00  0.00    -0.457 OA
BRANCH   2   3
ATOM      3  C   UNL     1      -3.709  -2.067   0.671  1.00  0.00     0.359 C 
ATOM      4  O   UNL     1      -4.532  -1.530  -0.057  1.00  0.00    -0.244 OA
BRANCH   3   5
ATOM      5  C   UNL     1      -2.679  -1.177   1.332  1.00  0.00     0.176 A 
ATOM      6  N   UNL     1      -0.680  -0.199   0.840  1.00  0.00    -0.216 N 
ATOM      7  N   UNL     1      -1.437  -1.368   1.002  1.00  0.00    -0.161 NA
ATOM      8  C   UNL     1      -1.378   0.962   0.428  1.00  0.00     0.275 A 
ATOM      9  C   UNL     1      -2.617   1.197   1.206  1.00  0.00     0.051 A 
ATOM     10  O   UNL     1      -0.985   1.793  -0.381  1.00  0.00    -0.267 OA
ATOM     11  C   UNL     1      -3.152   0.101   1.864  1.00  0.00     0.022 A 
ATOM     12  C   UNL     1      -3.147   2.467   1.420  1.00  0.00     0.014 A 
ATOM     13  C   UNL     1      -4.098   0.253   2.872  1.00  0.00     0.011 A 
ATOM     14  C   UNL     1      -4.133   2.633   2.396  1.00  0.00     0.001 A 
ATOM     15  C   UNL     1      -4.567   1.539   3.155  1.00  0.00     0.001 A 
BRANCH   6  16
ATOM     16  C   UNL     1       0.711  -0.411   0.416  1.00  0.00     0.197 C 
ATOM     17  C   UNL     1       1.368  -1.579   1.169  1.00  0.00     0.044 C 
BRANCH  16  18
ATOM     18  C   UNL     1       1.674   0.801   0.437  1.00  0.00     0.249 C 
ATOM     19  O   UNL     1       2.679   0.778  -0.291  1.00  0.00    -0.272 OA
ATOM     20  N   UNL     1       1.516   1.910   1.217  1.00  0.00    -0.324 N 
ATOM     21  H   UNL     1       2.064   2.678   0.934  1.00  0.00     0.170 HD
BRANCH  20  22
ATOM     22  C   UNL     1       0.724   2.163   2.340  1.00  0.00     0.041 A 
ATOM     23  C   UNL     1       0.148   3.432   2.454  1.00  0.00     0.027 A 
ATOM     24  C   UNL     1       0.518   1.226   3.348  1.00  0.00     0.027 A 
ATOM     25  C   UNL     1      -0.707   3.726   3.519  1.00  0.00     0.015 A 
ATOM     26  C   UNL     1      -0.317   1.526   4.429  1.00  0.00     0.015 A 
ATOM     27  C   UNL     1      -0.966   2.767   4.508  1.00  0.00     0.056 A 
BRANCH  27  28
ATOM     28  C   UNL     1      -1.907   3.075   5.647  1.00  0.00     0.416 C 
ATOM     29  F   UNL     1      -1.300   3.766   6.649  1.00  0.00    -0.166 F 
ATOM     30  F   UNL     1      -2.975   3.829   5.263  1.00  0.00    -0.166 F 
ATOM     31  F   UNL     1      -2.433   1.957   6.224  1.00  0.00    -0.166 F 
ENDBRANCH  27  28
ENDBRANCH  20  22
ENDBRANCH  16  18
ENDBRANCH   6  16
ENDBRANCH   3   5
ENDBRANCH   2   3
ENDBRANCH   1   2
BRANCH   1  32
ATOM     32  C   UNL     1      -5.561  -4.652   0.345  1.00  0.00     0.275 C 
BRANCH  32  33
ATOM     33  O   UNL     1      -6.424  -3.564   0.732  1.00  0.00    -0.458 OA
BRANCH  33  34
ATOM     34  C   UNL     1      -6.480  -3.320   2.058  1.00  0.00     0.338 C 
ATOM     35  O   UNL     1      -5.883  -3.923   2.946  1.00  0.00    -0.246 OA
BRANCH  34  36
ATOM     36  C   UNL     1      -7.343  -2.168   2.363  1.00  0.00     0.060 A 
ATOM     37  C   UNL     1      -7.032  -0.909   1.859  1.00  0.00     0.016 A 
ATOM     38  C   UNL     1      -8.344  -2.296   3.326  1.00  0.00     0.016 A 
ATOM     39  C   UNL     1      -7.621   0.226   2.413  1.00  0.00     0.010 A 
ATOM     40  C   UNL     1      -9.017  -1.158   3.792  1.00  0.00     0.010 A 
ATOM     41  C   UNL     1      -8.626   0.130   3.385  1.00  0.00    -0.014 A 
BRANCH  41  42
ATOM     42  C   UNL     1      -9.208   1.360   4.011  1.00  0.00     0.031 A 
ATOM     43  C   UNL     1      -9.280   1.498   5.514  1.00  0.00     0.074 A 
ATOM     44  C   UNL     1      -9.645   2.390   3.256  1.00  0.00     0.049 A 
ATOM     45  N   UNL     1      -9.960   2.356   6.235  1.00  0.00    -0.248 NA
ATOM     46  C   UNL     1      -8.503   0.537   6.313  1.00  0.00     0.031 C 
ATOM     47  C   UNL     1      -9.598   2.462   1.795  1.00  0.00     0.029 A 
ATOM     48  N   UNL     1     -10.196   3.596   3.623  1.00  0.00    -0.354 N 
ATOM     49  C   UNL     1      -9.779   1.973   7.559  1.00  0.00     0.074 A 
ATOM     50  C   UNL     1      -8.896   0.826   7.546  1.00  0.00     0.031 C 
ATOM     51  C   UNL     1     -10.010   3.674   1.397  1.00  0.00     0.029 A 
ATOM     52  C   UNL     1     -10.474   4.421   2.559  1.00  0.00     0.049 A 
ATOM     53  H   UNL     1     -10.374   3.844   4.558  1.00  0.00     0.167 HD
ATOM     54  C   UNL     1     -10.312   2.518   8.679  1.00  0.00     0.037 A 
ATOM     55  C   UNL     1     -11.082   5.620   2.506  1.00  0.00     0.037 A 
ATOM     56  C   UNL     1     -11.099   3.724   8.707  1.00  0.00     0.049 A 
ATOM     57  C   UNL     1     -11.655   6.216   3.757  1.00  0.00     0.074 A 
ATOM     58  C   UNL     1     -11.659   4.366   9.800  1.00  0.00     0.029 A 
ATOM     59  N   UNL     1     -11.405   4.493   7.596  1.00  0.00    -0.354 N 
ATOM     60  N   UNL     1     -11.597   5.767   4.986  1.00  0.00    -0.248 NA
ATOM     61  C   UNL     1     -12.422   7.460   3.602  1.00  0.00     0.031 C 
ATOM     62  C   UNL     1     -12.320   5.513   9.347  1.00  0.00     0.029 A 
ATOM     63  C   UNL     1     -12.147   5.600   7.976  1.00  0.00     0.049 A 
ATOM     64  H   UNL     1     -11.135   4.284   6.673  1.00  0.00     0.167 HD
ATOM     65  C   UNL     1     -12.335   6.662   5.748  1.00  0.00     0.074 A 
ATOM     66  C   UNL     1     -12.799   7.699   4.851  1.00  0.00     0.031 C 
ATOM     67  C   UNL     1     -12.619   6.615   7.072  1.00  0.00     0.037 A 
BRANCH  54  68
ATOM     68  C   UNL     1     -10.107   1.788   9.973  1.00  0.00     0.057 A 
ATOM     69  C   UNL     1      -8.893   1.809  10.668  1.00  0.00     0.134 A 
ATOM     70  C   UNL     1     -11.173   1.086  10.555  1.00  0.00     0.134 A 
ATOM     71  F   UNL     1      -7.830   2.450  10.158  1.00  0.00    -0.206 F 
ATOM     72  C   UNL     1      -8.740   1.145  11.887  1.00  0.00     0.040 A 
ATOM     73  C   UNL     1     -11.039   0.438  11.783  1.00  0.00     0.040 A 
ATOM     74  F   UNL     1     -12.366   1.032   9.943  1.00  0.00    -0.206 F 
ATOM     75  C   UNL     1      -9.818   0.463  12.451  1.00  0.00     0.006 A 
ENDBRANCH  54  68
BRANCH  55  76
ATOM     76  C   UNL     1     -11.236   6.311   1.202  1.00  0.00     0.057 A 
ATOM     77  C   UNL     1     -10.503   7.467   0.914  1.00  0.00     0.134 A 
ATOM     78  C   UNL     1     -12.099   5.827   0.212  1.00  0.00     0.134 A 
ATOM     79  F   UNL     1      -9.681   7.993   1.835  1.00  0.00    -0.206 F 
ATOM     80  C   UNL     1     -10.619   8.116  -0.316  1.00  0.00     0.040 A 
ATOM     81  C   UNL     1     -12.205   6.450  -1.031  1.00  0.00     0.040 A 
ATOM     82  F   UNL     1     -12.829   4.723   0.431  1.00  0.00    -0.206 F 
ATOM     83  C   UNL     1     -11.465   7.600  -1.297  1.00  0.00     0.006 A 
ENDBRANCH  55  76
BRANCH  67  84
ATOM     84  C   UNL     1     -13.474   7.716   7.618  1.00  0.00     0.057 A 
ATOM     85  C   UNL     1     -14.856   7.748   7.390  1.00  0.00     0.134 A 
ATOM     86  C   UNL     1     -12.916   8.752   8.376  1.00  0.00     0.134 A 
ATOM     87  F   UNL     1     -15.446   6.792   6.657  1.00  0.00    -0.206 F 
ATOM     88  C   UNL     1     -15.651   8.785   7.880  1.00  0.00     0.040 A 
ATOM     89  C   UNL     1     -13.704   9.785   8.886  1.00  0.00     0.040 A 
ATOM     90  F   UNL     1     -11.600   8.777   8.631  1.00  0.00    -0.206 F 
ATOM     91  C   UNL     1     -15.074   9.806   8.633  1.00  0.00     0.006 A 
ENDBRANCH  67  84
ENDBRANCH  41  42
ENDBRANCH  34  36
ENDBRANCH  33  34
ENDBRANCH  32  33
ENDBRANCH   1  32
TORSDOF 15
