REMARK SMILES Cc1ccc(Cl)cc1S(=O)(=O)N1CC[C@@H](C(=O)OCCOC(=O)c2ccc(-c3c4nc(c(-c5c(F)cccc5F)c5ccc([nH]5)c(-c5c(F)cccc5F)c5nc(c(-c6c(F)cccc6F)c6ccc3[nH]6)C=C5)C=C4)cc2)[C@@H]1C
REMARK SMILES IDX 19 1 18 2 16 3 17 4 15 5 12 6 13 7 78 8 14 9 79 10 9 11
REMARK SMILES IDX 10 12 11 13 8 14 1 15 2 16 3 17 4 18 7 19 5 20 6 21 20 22
REMARK SMILES IDX 21 23 22 24 23 25 24 26 25 27 77 28 26 29 76 30 27 31 28 32
REMARK SMILES IDX 29 33 70 34 30 35 75 36 69 37 71 38 31 39 74 40 68 41 67 42
REMARK SMILES IDX 32 44 58 45 41 46 57 47 42 48 45 49 56 50 72 51 43 52 44 53
REMARK SMILES IDX 55 55 73 56 46 57 33 58 34 59 39 60 35 61 36 62 38 63 40 64
REMARK SMILES IDX 37 65 59 66 60 67 65 68 61 69 62 70 64 71 66 72 63 73 47 74
REMARK SMILES IDX 48 75 53 76 49 77 50 78 52 79 54 80 51 81
REMARK H PARENT 71 43 45 54
REMARK Flexibility Score: inf
ROOT
ATOM      1  C   UNL     1       2.216  -1.567  -2.364  1.00  0.00     0.274 C 
ENDROOT
BRANCH   1   2
ATOM      2  O   UNL     1       2.908  -0.428  -1.816  1.00  0.00    -0.462 OA
BRANCH   2   3
ATOM      3  C   UNL     1       3.921  -0.639  -0.940  1.00  0.00     0.310 C 
ATOM      4  O   UNL     1       4.214  -1.731  -0.467  1.00  0.00    -0.252 OA
BRANCH   3   5
ATOM      5  C   UNL     1       4.757   0.613  -0.716  1.00  0.00     0.118 C 
ATOM      6  N   UNL     1       3.479   2.290   0.257  1.00  0.00    -0.194 NA
ATOM      7  C   UNL     1       4.439   1.959   1.309  1.00  0.00     0.104 C 
ATOM      8  C   UNL     1       4.025   1.906  -1.051  1.00  0.00     0.084 C 
ATOM      9  C   UNL     1       5.235   0.783   0.737  1.00  0.00     0.034 C 
ATOM     10  C   UNL     1       5.039   2.950  -1.544  1.00  0.00     0.027 C 
BRANCH   6  11
ATOM     11  S   UNL     1       1.864   2.607   0.531  1.00  0.00     0.243 S 
ATOM     12  O   UNL     1       1.469   3.475  -0.558  1.00  0.00    -0.207 OA
ATOM     13  O   UNL     1       1.721   3.038   1.909  1.00  0.00    -0.207 OA
BRANCH  11  14
ATOM     14  C   UNL     1       0.833   1.127   0.370  1.00  0.00     0.087 A 
ATOM     15  C   UNL     1       2.166  -0.562   1.832  1.00  0.00     0.046 C 
ATOM     16  C   UNL     1       1.069  -0.156   0.904  1.00  0.00    -0.031 A 
ATOM     17  C   UNL     1       0.116  -1.179   0.677  1.00  0.00     0.006 A 
ATOM     18  C   UNL     1      -1.089  -0.928   0.031  1.00  0.00     0.021 A 
ATOM     19  C   UNL     1      -0.405   1.365  -0.271  1.00  0.00     0.042 A 
ATOM     20  C   UNL     1      -1.358   0.357  -0.411  1.00  0.00     0.042 A 
ATOM     21  Cl  UNL     1      -2.897   0.711  -1.094  1.00  0.00    -0.084 Cl
ENDBRANCH  11  14
ENDBRANCH   6  11
ENDBRANCH   3   5
ENDBRANCH   2   3
ENDBRANCH   1   2
BRANCH   1  22
ATOM     22  C   UNL     1       2.544  -1.696  -3.853  1.00  0.00     0.275 C 
BRANCH  22  23
ATOM     23  O   UNL     1       3.914  -2.100  -4.033  1.00  0.00    -0.458 OA
BRANCH  23  24
ATOM     24  C   UNL     1       4.794  -1.078  -4.112  1.00  0.00     0.338 C 
ATOM     25  O   UNL     1       4.560   0.118  -4.117  1.00  0.00    -0.246 OA
BRANCH  24  26
ATOM     26  C   UNL     1       6.159  -1.598  -4.000  1.00  0.00     0.060 A 
ATOM     27  C   UNL     1       6.776  -1.512  -2.754  1.00  0.00     0.016 A 
ATOM     28  C   UNL     1       6.877  -1.994  -5.122  1.00  0.00     0.016 A 
ATOM     29  C   UNL     1       8.140  -1.680  -2.634  1.00  0.00     0.010 A 
ATOM     30  C   UNL     1       8.236  -2.283  -4.979  1.00  0.00     0.010 A 
ATOM     31  C   UNL     1       8.881  -2.088  -3.742  1.00  0.00    -0.014 A 
BRANCH  31  32
ATOM     32  C   UNL     1      10.340  -2.270  -3.593  1.00  0.00     0.031 A 
ATOM     33  C   UNL     1      11.271  -1.404  -4.386  1.00  0.00     0.074 A 
ATOM     34  C   UNL     1      10.807  -3.186  -2.724  1.00  0.00     0.049 A 
ATOM     35  N   UNL     1      12.563  -1.512  -4.543  1.00  0.00    -0.248 NA
ATOM     36  C   UNL     1      10.669  -0.270  -5.109  1.00  0.00     0.031 C 
ATOM     37  C   UNL     1       9.984  -4.021  -1.842  1.00  0.00     0.029 A 
ATOM     38  N   UNL     1      12.089  -3.570  -2.435  1.00  0.00    -0.354 N 
ATOM     39  C   UNL     1      12.919  -0.502  -5.427  1.00  0.00     0.074 A 
ATOM     40  C   UNL     1      11.711   0.213  -5.771  1.00  0.00     0.031 C 
ATOM     41  C   UNL     1      10.782  -4.806  -1.103  1.00  0.00     0.029 A 
ATOM     42  C   UNL     1      12.159  -4.598  -1.526  1.00  0.00     0.049 A 
ATOM     43  H   UNL     1      12.883  -3.151  -2.839  1.00  0.00     0.167 HD
ATOM     44  C   UNL     1      14.150  -0.216  -5.911  1.00  0.00     0.037 A 
ATOM     45  C   UNL     1      13.214  -5.330  -1.125  1.00  0.00     0.037 A 
ATOM     46  C   UNL     1      15.341  -0.918  -5.513  1.00  0.00     0.049 A 
ATOM     47  C   UNL     1      14.556  -5.027  -1.728  1.00  0.00     0.074 A 
ATOM     48  C   UNL     1      16.646  -0.701  -5.916  1.00  0.00     0.029 A 
ATOM     49  N   UNL     1      15.369  -1.973  -4.611  1.00  0.00    -0.354 N 
ATOM     50  N   UNL     1      14.884  -4.091  -2.587  1.00  0.00    -0.248 NA
ATOM     51  C   UNL     1      15.671  -5.889  -1.319  1.00  0.00     0.031 C 
ATOM     52  C   UNL     1      17.456  -1.658  -5.298  1.00  0.00     0.029 A 
ATOM     53  C   UNL     1      16.665  -2.435  -4.465  1.00  0.00     0.049 A 
ATOM     54  H   UNL     1      14.582  -2.339  -4.145  1.00  0.00     0.167 HD
ATOM     55  C   UNL     1      16.248  -4.232  -2.797  1.00  0.00     0.074 A 
ATOM     56  C   UNL     1      16.686  -5.334  -1.964  1.00  0.00     0.031 C 
ATOM     57  C   UNL     1      17.068  -3.520  -3.608  1.00  0.00     0.037 A 
BRANCH  44  58
ATOM     58  C   UNL     1      14.265   0.858  -6.951  1.00  0.00     0.057 A 
ATOM     59  C   UNL     1      14.117   2.217  -6.650  1.00  0.00     0.134 A 
ATOM     60  C   UNL     1      14.576   0.520  -8.276  1.00  0.00     0.134 A 
ATOM     61  F   UNL     1      13.800   2.607  -5.407  1.00  0.00    -0.206 F 
ATOM     62  C   UNL     1      14.264   3.201  -7.631  1.00  0.00     0.040 A 
ATOM     63  C   UNL     1      14.750   1.495  -9.258  1.00  0.00     0.040 A 
ATOM     64  F   UNL     1      14.729  -0.764  -8.633  1.00  0.00    -0.206 F 
ATOM     65  C   UNL     1      14.591   2.841  -8.937  1.00  0.00     0.006 A 
ENDBRANCH  44  58
BRANCH  45  66
ATOM     66  C   UNL     1      13.039  -6.446  -0.160  1.00  0.00     0.057 A 
ATOM     67  C   UNL     1      13.635  -6.407   1.105  1.00  0.00     0.134 A 
ATOM     68  C   UNL     1      12.304  -7.593  -0.488  1.00  0.00     0.134 A 
ATOM     69  F   UNL     1      14.366  -5.344   1.475  1.00  0.00    -0.206 F 
ATOM     70  C   UNL     1      13.533  -7.477   1.996  1.00  0.00     0.040 A 
ATOM     71  C   UNL     1      12.166  -8.656   0.405  1.00  0.00     0.040 A 
ATOM     72  F   UNL     1      11.700  -7.693  -1.682  1.00  0.00    -0.206 F 
ATOM     73  C   UNL     1      12.793  -8.605   1.647  1.00  0.00     0.006 A 
ENDBRANCH  45  66
BRANCH  57  74
ATOM     74  C   UNL     1      18.524  -3.876  -3.579  1.00  0.00     0.057 A 
ATOM     75  C   UNL     1      19.010  -5.057  -4.152  1.00  0.00     0.134 A 
ATOM     76  C   UNL     1      19.452  -3.003  -2.997  1.00  0.00     0.134 A 
ATOM     77  F   UNL     1      18.168  -5.940  -4.710  1.00  0.00    -0.206 F 
ATOM     78  C   UNL     1      20.369  -5.371  -4.124  1.00  0.00     0.040 A 
ATOM     79  C   UNL     1      20.816  -3.291  -2.992  1.00  0.00     0.040 A 
ATOM     80  F   UNL     1      19.049  -1.851  -2.440  1.00  0.00    -0.206 F 
ATOM     81  C   UNL     1      21.276  -4.482  -3.550  1.00  0.00     0.006 A 
ENDBRANCH  57  74
ENDBRANCH  31  32
ENDBRANCH  24  26
ENDBRANCH  23  24
ENDBRANCH  22  23
ENDBRANCH   1  22
TORSDOF 13
