REMARK SMILES Cc1nc2cc(SCC(=O)OCCOC(=O)c3ccc(-c4c5nc(c(-c6c(F)cccc6F)c6ccc([nH]6)c(-c6c(F)cccc6F)c6nc(c(-c7c(F)cccc7F)c7ccc4[nH]7)C=C6)C=C5)cc3)ccc2s1
REMARK SMILES IDX 12 1 11 2 9 3 10 4 8 5 7 6 6 7 1 8 2 9 3 10 74 11 4 12 73 13
REMARK SMILES IDX 5 14 72 15 71 16 13 17 14 18 15 19 16 20 17 21 18 22 70 23
REMARK SMILES IDX 19 24 69 25 20 26 21 27 22 28 63 29 23 30 68 31 62 32 64 33
REMARK SMILES IDX 24 34 67 35 61 36 60 37 25 39 51 40 34 41 50 42 35 43 38 44
REMARK SMILES IDX 49 45 65 46 36 47 37 48 48 50 66 51 39 52 26 53 27 54 32 55
REMARK SMILES IDX 28 56 29 57 31 58 33 59 30 60 52 61 53 62 58 63 54 64 55 65
REMARK SMILES IDX 57 66 59 67 56 68 40 69 41 70 46 71 42 72 43 73 45 74 47 75
REMARK SMILES IDX 44 76
REMARK H PARENT 64 38 38 49
REMARK Flexibility Score: inf
ROOT
ATOM      1  C   UNL     1       5.795  -0.302   3.447  1.00  0.00     0.274 C 
ENDROOT
BRANCH   1   2
ATOM      2  O   UNL     1       5.383   0.584   2.387  1.00  0.00    -0.461 OA
BRANCH   2   3
ATOM      3  C   UNL     1       5.986   0.399   1.185  1.00  0.00     0.316 C 
ATOM      4  O   UNL     1       6.843  -0.455   0.966  1.00  0.00    -0.251 OA
BRANCH   3   5
ATOM      5  C   UNL     1       5.583   1.384   0.112  1.00  0.00     0.197 C 
BRANCH   5   6
ATOM      6  S   UNL     1       4.109   2.390   0.452  1.00  0.00    -0.114 SA
BRANCH   6   7
ATOM      7  C   UNL     1       2.706   1.368   0.014  1.00  0.00     0.010 A 
ATOM      8  C   UNL     1      -3.365   0.820   0.129  1.00  0.00     0.079 C 
ATOM      9  C   UNL     1      -1.891   0.691  -0.038  1.00  0.00     0.091 A 
ATOM     10  N   UNL     1      -1.022   1.564   0.419  1.00  0.00    -0.241 NA
ATOM     11  S   UNL     1      -1.225  -0.662  -0.860  1.00  0.00    -0.119 S 
ATOM     12  C   UNL     1       0.265   1.163   0.097  1.00  0.00     0.083 A 
ATOM     13  C   UNL     1       0.357  -0.027  -0.621  1.00  0.00     0.055 A 
ATOM     14  C   UNL     1       1.451   1.854   0.418  1.00  0.00     0.045 A 
ATOM     15  C   UNL     1       1.594  -0.534  -1.042  1.00  0.00     0.022 A 
ATOM     16  C   UNL     1       2.756   0.189  -0.728  1.00  0.00     0.016 A 
ENDBRANCH   6   7
ENDBRANCH   5   6
ENDBRANCH   3   5
ENDBRANCH   2   3
ENDBRANCH   1   2
BRANCH   1  17
ATOM     17  C   UNL     1       4.848  -1.492   3.561  1.00  0.00     0.275 C 
BRANCH  17  18
ATOM     18  O   UNL     1       4.841  -2.225   2.326  1.00  0.00    -0.458 OA
BRANCH  18  19
ATOM     19  C   UNL     1       3.620  -2.511   1.823  1.00  0.00     0.338 C 
ATOM     20  O   UNL     1       2.534  -2.263   2.331  1.00  0.00    -0.246 OA
BRANCH  19  21
ATOM     21  C   UNL     1       3.751  -3.241   0.549  1.00  0.00     0.060 A 
ATOM     22  C   UNL     1       4.646  -2.838  -0.445  1.00  0.00     0.016 A 
ATOM     23  C   UNL     1       2.887  -4.312   0.319  1.00  0.00     0.016 A 
ATOM     24  C   UNL     1       4.637  -3.468  -1.692  1.00  0.00     0.010 A 
ATOM     25  C   UNL     1       2.929  -4.989  -0.899  1.00  0.00     0.010 A 
ATOM     26  C   UNL     1       3.787  -4.560  -1.925  1.00  0.00    -0.014 A 
BRANCH  26  27
ATOM     27  C   UNL     1       3.777  -5.281  -3.224  1.00  0.00     0.031 A 
ATOM     28  C   UNL     1       2.530  -5.310  -4.062  1.00  0.00     0.074 A 
ATOM     29  C   UNL     1       4.863  -5.974  -3.617  1.00  0.00     0.049 A 
ATOM     30  N   UNL     1       2.241  -6.064  -5.092  1.00  0.00    -0.248 NA
ATOM     31  C   UNL     1       1.461  -4.372  -3.685  1.00  0.00     0.031 C 
ATOM     32  C   UNL     1       6.146  -6.011  -2.915  1.00  0.00     0.029 A 
ATOM     33  N   UNL     1       5.046  -6.805  -4.693  1.00  0.00    -0.354 N 
ATOM     34  C   UNL     1       0.948  -5.720  -5.463  1.00  0.00     0.074 A 
ATOM     35  C   UNL     1       0.505  -4.688  -4.549  1.00  0.00     0.031 C 
ATOM     36  C   UNL     1       6.983  -6.827  -3.575  1.00  0.00     0.029 A 
ATOM     37  C   UNL     1       6.274  -7.421  -4.703  1.00  0.00     0.049 A 
ATOM     38  H   UNL     1       4.365  -6.947  -5.390  1.00  0.00     0.167 HD
ATOM     39  C   UNL     1       0.197  -6.223  -6.472  1.00  0.00     0.037 A 
ATOM     40  C   UNL     1       6.760  -8.393  -5.497  1.00  0.00     0.037 A 
ATOM     41  C   UNL     1       0.645  -7.231  -7.396  1.00  0.00     0.049 A 
ATOM     42  C   UNL     1       5.893  -8.971  -6.576  1.00  0.00     0.074 A 
ATOM     43  C   UNL     1      -0.038  -7.788  -8.464  1.00  0.00     0.029 A 
ATOM     44  N   UNL     1       1.895  -7.829  -7.365  1.00  0.00    -0.354 N 
ATOM     45  N   UNL     1       4.661  -8.662  -6.898  1.00  0.00    -0.248 NA
ATOM     46  C   UNL     1       6.478 -10.046  -7.390  1.00  0.00     0.031 C 
ATOM     47  C   UNL     1       0.790  -8.744  -9.063  1.00  0.00     0.029 A 
ATOM     48  C   UNL     1       1.999  -8.758  -8.387  1.00  0.00     0.049 A 
ATOM     49  H   UNL     1       2.603  -7.624  -6.713  1.00  0.00     0.167 HD
ATOM     50  C   UNL     1       4.327  -9.491  -7.960  1.00  0.00     0.074 A 
ATOM     51  C   UNL     1       5.489 -10.313  -8.233  1.00  0.00     0.031 C 
ATOM     52  C   UNL     1       3.162  -9.564  -8.646  1.00  0.00     0.037 A 
BRANCH  39  53
ATOM     53  C   UNL     1      -1.201  -5.706  -6.620  1.00  0.00     0.057 A 
ATOM     54  C   UNL     1      -1.469  -4.454  -7.185  1.00  0.00     0.134 A 
ATOM     55  C   UNL     1      -2.295  -6.495  -6.240  1.00  0.00     0.134 A 
ATOM     56  F   UNL     1      -0.464  -3.647  -7.556  1.00  0.00    -0.206 F 
ATOM     57  C   UNL     1      -2.777  -3.999  -7.359  1.00  0.00     0.040 A 
ATOM     58  C   UNL     1      -3.607  -6.058  -6.425  1.00  0.00     0.040 A 
ATOM     59  F   UNL     1      -2.104  -7.706  -5.696  1.00  0.00    -0.206 F 
ATOM     60  C   UNL     1      -3.851  -4.806  -6.985  1.00  0.00     0.006 A 
ENDBRANCH  39  53
BRANCH  40  61
ATOM     61  C   UNL     1       8.131  -8.906  -5.267  1.00  0.00     0.057 A 
ATOM     62  C   UNL     1       9.176  -8.583  -6.137  1.00  0.00     0.134 A 
ATOM     63  C   UNL     1       8.431  -9.710  -4.160  1.00  0.00     0.134 A 
ATOM     64  F   UNL     1       8.941  -7.834  -7.224  1.00  0.00    -0.206 F 
ATOM     65  C   UNL     1      10.475  -9.043  -5.917  1.00  0.00     0.040 A 
ATOM     66  C   UNL     1       9.728 -10.160  -3.917  1.00  0.00     0.040 A 
ATOM     67  F   UNL     1       7.469 -10.050  -3.289  1.00  0.00    -0.206 F 
ATOM     68  C   UNL     1      10.755  -9.828  -4.799  1.00  0.00     0.006 A 
ENDBRANCH  40  61
BRANCH  52  69
ATOM     69  C   UNL     1       3.099 -10.543  -9.777  1.00  0.00     0.057 A 
ATOM     70  C   UNL     1       2.914 -11.912  -9.553  1.00  0.00     0.134 A 
ATOM     71  C   UNL     1       3.188 -10.105 -11.104  1.00  0.00     0.134 A 
ATOM     72  F   UNL     1       2.835 -12.392  -8.303  1.00  0.00    -0.206 F 
ATOM     73  C   UNL     1       2.834 -12.816 -10.613  1.00  0.00     0.040 A 
ATOM     74  C   UNL     1       3.094 -10.997 -12.172  1.00  0.00     0.040 A 
ATOM     75  F   UNL     1       3.361  -8.803 -11.381  1.00  0.00    -0.206 F 
ATOM     76  C   UNL     1       2.919 -12.358 -11.928  1.00  0.00     0.006 A 
ENDBRANCH  52  69
ENDBRANCH  26  27
ENDBRANCH  19  21
ENDBRANCH  18  19
ENDBRANCH  17  18
ENDBRANCH   1  17
TORSDOF 13
