REMARK SMILES COc1ccc2[nH]cc([C@H](C(=O)OCCOC(=O)c3ccc(-c4c5nc(c(-c6c(F)cccc6F)c6ccc([nH]6)c(-c6c(F)cccc6F)c6nc(c(-c7c(F)cccc7F)c7ccc4[nH]7)C=C6)C=C5)cc3)[NH+]3CC[NH+](Cc4cccc5ccccc45)CC3)c2c1
REMARK SMILES IDX 14 1 13 2 11 3 12 4 10 5 9 6 3 7 4 8 91 9 5 10 90 11 6 12
REMARK SMILES IDX 7 13 8 14 2 16 1 17 73 18 74 19 89 20 75 22 88 23 76 24
REMARK SMILES IDX 77 26 78 27 79 28 87 29 80 30 82 31 86 32 81 33 83 34 85 35
REMARK SMILES IDX 84 36 15 37 16 38 17 39 18 40 19 41 20 42 72 43 21 44 71 45
REMARK SMILES IDX 22 46 23 47 24 48 65 49 25 50 70 51 64 52 66 53 26 54 69 55
REMARK SMILES IDX 63 56 62 57 27 59 53 60 36 61 52 62 37 63 40 64 51 65 67 66
REMARK SMILES IDX 38 67 39 68 50 70 68 71 41 72 28 73 29 74 34 75 30 76 31 77
REMARK SMILES IDX 33 78 35 79 32 80 54 81 55 82 60 83 56 84 57 85 59 86 61 87
REMARK SMILES IDX 58 88 42 89 43 90 48 91 44 92 45 93 47 94 49 95 46 96
REMARK H PARENT 7 15 73 21 76 25 66 58 40 69
REMARK Flexibility Score: inf
ROOT
ATOM      1  C   UNL     1       1.349   3.481  -2.441  1.00  0.00     0.274 C 
ENDROOT
BRANCH   1   2
ATOM      2  O   UNL     1      -0.066   3.778  -2.105  1.00  0.00    -0.457 OA
BRANCH   2   3
ATOM      3  C   UNL     1      -0.498   5.096  -2.339  1.00  0.00     0.370 C 
ATOM      4  O   UNL     1       0.311   6.003  -2.496  1.00  0.00    -0.245 OA
BRANCH   3   5
ATOM      5  C   UNL     1      -2.046   5.182  -2.646  1.00  0.00     0.328 C 
BRANCH   5   6
ATOM      6  C   UNL     1      -2.939   6.311  -2.195  1.00  0.00     0.046 A 
ATOM      7  C   UNL     1      -1.131   9.556  -1.689  1.00  0.00     0.119 A 
ATOM      8  C   UNL     1      -2.207  10.371  -2.016  1.00  0.00     0.048 A 
ATOM      9  C   UNL     1      -1.315   8.193  -1.536  1.00  0.00     0.057 A 
ATOM     10  C   UNL     1      -3.498   9.851  -2.176  1.00  0.00     0.030 A 
ATOM     11  C   UNL     1      -2.554   7.625  -1.847  1.00  0.00     0.013 A 
ATOM     12  C   UNL     1      -3.634   8.463  -2.122  1.00  0.00     0.046 A 
ATOM     13  N   UNL     1      -4.717   7.661  -2.390  1.00  0.00    -0.361 N 
ATOM     14  C   UNL     1      -4.317   6.353  -2.431  1.00  0.00     0.094 A 
ATOM     15  H   UNL     1      -5.638   7.979  -2.530  1.00  0.00     0.166 HD
BRANCH   7  16
ATOM     16  O   UNL     1       0.112  10.122  -1.692  1.00  0.00    -0.497 OA
ATOM     17  C   UNL     1       0.958   9.722  -0.619  1.00  0.00     0.278 C 
ENDBRANCH   7  16
ENDBRANCH   5   6
BRANCH   5  18
ATOM     18  N   UNL     1      -2.338   5.219  -4.109  1.00  0.00    -0.310 N 
ATOM     19  C   UNL     1      -1.619   6.170  -5.003  1.00  0.00     0.325 C 
ATOM     20  C   UNL     1      -2.311   3.893  -4.596  1.00  0.00     0.325 C 
ATOM     21  H   UNL     1      -3.261   5.650  -4.155  1.00  0.00     0.349 HD
ATOM     22  C   UNL     1      -0.171   5.854  -5.588  1.00  0.00     0.324 C 
ATOM     23  C   UNL     1      -0.856   3.602  -4.912  1.00  0.00     0.324 C 
ATOM     24  N   UNL     1       0.178   4.422  -5.776  1.00  0.00    -0.322 N 
ATOM     25  H   UNL     1       1.115   4.228  -5.422  1.00  0.00     0.348 HD
BRANCH  24  26
ATOM     26  C   UNL     1       0.667   3.832  -7.495  1.00  0.00     0.300 C 
BRANCH  26  27
ATOM     27  C   UNL     1      -0.744   2.983  -8.948  1.00  0.00     0.014 A 
ATOM     28  C   UNL     1      -1.053   1.580  -9.229  1.00  0.00     0.010 A 
ATOM     29  C   UNL     1      -2.221   3.871  -9.404  1.00  0.00    -0.010 A 
ATOM     30  C   UNL     1      -2.342   1.089  -9.554  1.00  0.00     0.001 A 
ATOM     31  C   UNL     1      -3.471   3.220  -9.351  1.00  0.00    -0.018 A 
ATOM     32  C   UNL     1      -2.613   5.317  -9.695  1.00  0.00     0.009 A 
ATOM     33  C   UNL     1      -3.500   1.855  -9.501  1.00  0.00     0.009 A 
ATOM     34  C   UNL     1      -4.732   3.872  -9.106  1.00  0.00     0.009 A 
ATOM     35  C   UNL     1      -3.818   5.996  -9.402  1.00  0.00     0.001 A 
ATOM     36  C   UNL     1      -4.890   5.249  -9.024  1.00  0.00     0.001 A 
ENDBRANCH  26  27
ENDBRANCH  24  26
ENDBRANCH   5  18
ENDBRANCH   3   5
ENDBRANCH   2   3
ENDBRANCH   1   2
BRANCH   1  37
ATOM     37  C   UNL     1       1.667   2.246  -3.438  1.00  0.00     0.275 C 
BRANCH  37  38
ATOM     38  O   UNL     1       1.313   2.385  -4.874  1.00  0.00    -0.458 OA
BRANCH  38  39
ATOM     39  C   UNL     1       0.520   1.488  -5.593  1.00  0.00     0.338 C 
ATOM     40  O   UNL     1       0.430   0.305  -5.304  1.00  0.00    -0.246 OA
BRANCH  39  41
ATOM     41  C   UNL     1      -0.259   2.142  -6.961  1.00  0.00     0.060 A 
ATOM     42  C   UNL     1      -1.215   3.759  -7.242  1.00  0.00     0.016 A 
ATOM     43  C   UNL     1       1.105   1.783  -8.036  1.00  0.00     0.016 A 
ATOM     44  C   UNL     1      -0.498   4.979  -8.500  1.00  0.00     0.010 A 
ATOM     45  C   UNL     1       1.593   2.871  -9.268  1.00  0.00     0.010 A 
ATOM     46  C   UNL     1       0.790   4.352  -9.629  1.00  0.00    -0.014 A 
BRANCH  46  47
ATOM     47  C   UNL     1       0.591   4.432 -11.165  1.00  0.00     0.031 A 
ATOM     48  C   UNL     1       0.300   3.198 -12.107  1.00  0.00     0.074 A 
ATOM     49  C   UNL     1       0.480   5.667 -11.660  1.00  0.00     0.049 A 
ATOM     50  N   UNL     1      -0.220   3.179 -13.325  1.00  0.00    -0.248 NA
ATOM     51  C   UNL     1       0.575   1.820 -11.658  1.00  0.00     0.031 C 
ATOM     52  C   UNL     1       0.707   6.883 -10.886  1.00  0.00     0.029 A 
ATOM     53  N   UNL     1       0.121   6.103 -12.901  1.00  0.00    -0.354 N 
ATOM     54  C   UNL     1      -0.421   1.827 -13.665  1.00  0.00     0.074 A 
ATOM     55  C   UNL     1      -0.013   1.043 -12.547  1.00  0.00     0.031 C 
ATOM     56  C   UNL     1       0.399   7.938 -11.648  1.00  0.00     0.029 A 
ATOM     57  C   UNL     1       0.111   7.468 -12.999  1.00  0.00     0.049 A 
ATOM     58  H   UNL     1      -0.107   5.501 -13.646  1.00  0.00     0.167 HD
ATOM     59  C   UNL     1      -0.794   1.239 -14.830  1.00  0.00     0.037 A 
ATOM     60  C   UNL     1      -0.019   8.251 -14.082  1.00  0.00     0.037 A 
ATOM     61  C   UNL     1      -0.909   1.985 -16.045  1.00  0.00     0.049 A 
ATOM     62  C   UNL     1      -0.216   7.585 -15.409  1.00  0.00     0.074 A 
ATOM     63  C   UNL     1      -1.089   1.531 -17.337  1.00  0.00     0.029 A 
ATOM     64  N   UNL     1      -0.752   3.360 -16.105  1.00  0.00    -0.354 N 
ATOM     65  N   UNL     1      -0.385   6.311 -15.681  1.00  0.00    -0.248 NA
ATOM     66  C   UNL     1      -0.196   8.458 -16.584  1.00  0.00     0.031 C 
ATOM     67  C   UNL     1      -0.942   2.629 -18.190  1.00  0.00     0.029 A 
ATOM     68  C   UNL     1      -0.772   3.772 -17.419  1.00  0.00     0.049 A 
ATOM     69  H   UNL     1      -0.644   3.953 -15.327  1.00  0.00     0.167 HD
ATOM     70  C   UNL     1      -0.488   6.227 -17.062  1.00  0.00     0.074 A 
ATOM     71  C   UNL     1      -0.386   7.585 -17.563  1.00  0.00     0.031 C 
ATOM     72  C   UNL     1      -0.647   5.137 -17.854  1.00  0.00     0.037 A 
BRANCH  59  73
ATOM     73  C   UNL     1      -0.905  -0.274 -14.882  1.00  0.00     0.057 A 
ATOM     74  C   UNL     1      -1.972  -0.973 -14.297  1.00  0.00     0.134 A 
ATOM     75  C   UNL     1       0.079  -1.047 -15.519  1.00  0.00     0.134 A 
ATOM     76  F   UNL     1      -2.940  -0.314 -13.644  1.00  0.00    -0.206 F 
ATOM     77  C   UNL     1      -2.051  -2.373 -14.339  1.00  0.00     0.040 A 
ATOM     78  C   UNL     1       0.003  -2.444 -15.582  1.00  0.00     0.040 A 
ATOM     79  F   UNL     1       1.143  -0.460 -16.087  1.00  0.00    -0.206 F 
ATOM     80  C   UNL     1      -1.064  -3.112 -14.988  1.00  0.00     0.006 A 
ENDBRANCH  59  73
BRANCH  60  81
ATOM     81  C   UNL     1       0.192   9.712 -13.929  1.00  0.00     0.057 A 
ATOM     82  C   UNL     1      -0.830  10.636 -14.146  1.00  0.00     0.134 A 
ATOM     83  C   UNL     1       1.423  10.207 -13.465  1.00  0.00     0.134 A 
ATOM     84  F   UNL     1      -2.022  10.233 -14.610  1.00  0.00    -0.206 F 
ATOM     85  C   UNL     1      -0.645  11.997 -13.887  1.00  0.00     0.040 A 
ATOM     86  C   UNL     1       1.606  11.553 -13.159  1.00  0.00     0.040 A 
ATOM     87  F   UNL     1       2.447   9.371 -13.235  1.00  0.00    -0.206 F 
ATOM     88  C   UNL     1       0.569  12.454 -13.373  1.00  0.00     0.006 A 
ENDBRANCH  60  81
BRANCH  72  89
ATOM     89  C   UNL     1      -0.754   5.386 -19.322  1.00  0.00     0.057 A 
ATOM     90  C   UNL     1       0.350   5.764 -20.092  1.00  0.00     0.134 A 
ATOM     91  C   UNL     1      -1.980   5.202 -19.972  1.00  0.00     0.134 A 
ATOM     92  F   UNL     1       1.548   5.957 -19.519  1.00  0.00    -0.206 F 
ATOM     93  C   UNL     1       0.229   5.992 -21.461  1.00  0.00     0.040 A 
ATOM     94  C   UNL     1      -2.105   5.391 -21.345  1.00  0.00     0.040 A 
ATOM     95  F   UNL     1      -3.066   4.817 -19.285  1.00  0.00    -0.206 F 
ATOM     96  C   UNL     1      -1.001   5.800 -22.090  1.00  0.00     0.006 A 
ENDBRANCH  72  89
ENDBRANCH  46  47
ENDBRANCH  39  41
ENDBRANCH  38  39
ENDBRANCH  37  38
ENDBRANCH   1  37
TORSDOF 16
