REMARK SMILES Cc1cc([C@H](C)NC(=O)N2CC[C@H](C(=O)OCCOC(=O)c3ccc(-c4c5nc(c(-c6c(F)cccc6F)c6ccc([nH]6)c(-c6c(F)cccc6F)c6nc(c(-c7c(F)cccc7F)c7ccc4[nH]7)C=C6)C=C5)cc3)[C@@H]2C)c(C)s1
REMARK SMILES IDX 17 1 16 2 14 3 15 4 13 5 10 6 11 7 76 8 12 9 77 10 8 11 7 12
REMARK SMILES IDX 9 14 5 15 6 16 4 17 1 18 2 19 3 20 80 21 78 22 79 23 18 24
REMARK SMILES IDX 19 25 20 26 21 27 22 28 23 29 75 30 24 31 74 32 25 33 26 34
REMARK SMILES IDX 27 35 68 36 28 37 73 38 67 39 69 40 29 41 72 42 66 43 65 44
REMARK SMILES IDX 30 46 56 47 39 48 55 49 40 50 43 51 54 52 70 53 41 54 42 55
REMARK SMILES IDX 53 57 71 58 44 59 31 60 32 61 37 62 33 63 34 64 36 65 38 66
REMARK SMILES IDX 35 67 57 68 58 69 63 70 59 71 60 72 62 73 64 74 61 75 45 76
REMARK SMILES IDX 46 77 51 78 47 79 48 80 50 81 52 82 49 83
REMARK H PARENT 7 13 69 45 43 56
REMARK Flexibility Score: inf
ROOT
ATOM      1  C   UNL     1       0.687  -9.902   0.410  1.00  0.00     0.274 C 
ENDROOT
BRANCH   1   2
ATOM      2  O   UNL     1       0.087  -8.621   0.105  1.00  0.00    -0.462 OA
BRANCH   2   3
ATOM      3  C   UNL     1      -0.230  -7.825   1.169  1.00  0.00     0.311 C 
ATOM      4  O   UNL     1      -0.017  -8.111   2.339  1.00  0.00    -0.252 OA
BRANCH   3   5
ATOM      5  C   UNL     1      -0.942  -6.558   0.703  1.00  0.00     0.123 C 
ATOM      6  N   UNL     1       0.135  -4.483   1.267  1.00  0.00    -0.321 N 
ATOM      7  C   UNL     1      -0.607  -4.939   2.433  1.00  0.00     0.122 C 
ATOM      8  C   UNL     1      -0.043  -5.424   0.152  1.00  0.00     0.098 C 
ATOM      9  C   UNL     1      -1.661  -5.881   1.874  1.00  0.00     0.039 C 
ATOM     10  C   UNL     1       1.261  -5.920  -0.440  1.00  0.00     0.032 C 
BRANCH   6  11
ATOM     11  C   UNL     1       0.936  -3.385   1.397  1.00  0.00     0.318 C 
ATOM     12  N   UNL     1       1.507  -2.785   0.328  1.00  0.00    -0.331 N 
ATOM     13  H   UNL     1       2.461  -2.561   0.425  1.00  0.00     0.165 HD
ATOM     14  O   UNL     1       1.200  -2.912   2.504  1.00  0.00    -0.249 OA
BRANCH  12  15
ATOM     15  C   UNL     1       0.901  -2.426  -0.944  1.00  0.00     0.112 C 
ATOM     16  C   UNL     1       0.014  -1.189  -0.757  1.00  0.00     0.036 C 
BRANCH  15  17
ATOM     17  C   UNL     1       2.001  -2.204  -1.977  1.00  0.00    -0.012 A 
ATOM     18  C   UNL     1       4.461   0.121  -3.730  1.00  0.00     0.056 C 
ATOM     19  C   UNL     1       3.619  -0.982  -3.190  1.00  0.00     0.002 A 
ATOM     20  C   UNL     1       2.768  -0.983  -2.106  1.00  0.00     0.021 A 
ATOM     21  S   UNL     1       3.635  -2.492  -3.968  1.00  0.00    -0.146 S 
ATOM     22  C   UNL     1       2.380  -3.100  -2.974  1.00  0.00     0.007 A 
ATOM     23  C   UNL     1       1.870  -4.464  -3.302  1.00  0.00     0.057 C 
ENDBRANCH  15  17
ENDBRANCH  12  15
ENDBRANCH   6  11
ENDBRANCH   3   5
ENDBRANCH   2   3
ENDBRANCH   1   2
BRANCH   1  24
ATOM     24  C   UNL     1       2.196  -9.886   0.151  1.00  0.00     0.275 C 
BRANCH  24  25
ATOM     25  O   UNL     1       2.810  -8.954   1.054  1.00  0.00    -0.458 OA
BRANCH  25  26
ATOM     26  C   UNL     1       3.884  -8.274   0.581  1.00  0.00     0.338 C 
ATOM     27  O   UNL     1       4.486  -8.510  -0.453  1.00  0.00    -0.246 OA
BRANCH  26  28
ATOM     28  C   UNL     1       4.152  -7.088   1.443  1.00  0.00     0.060 A 
ATOM     29  C   UNL     1       3.199  -6.638   2.359  1.00  0.00     0.016 A 
ATOM     30  C   UNL     1       5.296  -6.316   1.220  1.00  0.00     0.016 A 
ATOM     31  C   UNL     1       3.329  -5.382   2.945  1.00  0.00     0.010 A 
ATOM     32  C   UNL     1       5.479  -5.107   1.911  1.00  0.00     0.010 A 
ATOM     33  C   UNL     1       4.482  -4.606   2.764  1.00  0.00    -0.014 A 
BRANCH  33  34
ATOM     34  C   UNL     1       4.641  -3.306   3.483  1.00  0.00     0.031 A 
ATOM     35  C   UNL     1       4.961  -2.028   2.747  1.00  0.00     0.074 A 
ATOM     36  C   UNL     1       4.486  -3.252   4.824  1.00  0.00     0.049 A 
ATOM     37  N   UNL     1       5.319  -0.863   3.232  1.00  0.00    -0.248 NA
ATOM     38  C   UNL     1       4.874  -2.056   1.278  1.00  0.00     0.031 C 
ATOM     39  C   UNL     1       4.111  -4.376   5.684  1.00  0.00     0.029 A 
ATOM     40  N   UNL     1       4.624  -2.202   5.703  1.00  0.00    -0.354 N 
ATOM     41  C   UNL     1       5.515  -0.031   2.137  1.00  0.00     0.074 A 
ATOM     42  C   UNL     1       5.250  -0.825   0.955  1.00  0.00     0.031 C 
ATOM     43  C   UNL     1       4.001  -3.950   6.948  1.00  0.00     0.029 A 
ATOM     44  C   UNL     1       4.426  -2.558   7.014  1.00  0.00     0.049 A 
ATOM     45  H   UNL     1       4.843  -1.286   5.419  1.00  0.00     0.167 HD
ATOM     46  C   UNL     1       5.884   1.273   2.120  1.00  0.00     0.037 A 
ATOM     47  C   UNL     1       4.631  -1.885   8.161  1.00  0.00     0.037 A 
ATOM     48  C   UNL     1       6.136   2.077   3.291  1.00  0.00     0.049 A 
ATOM     49  C   UNL     1       5.185  -0.496   8.118  1.00  0.00     0.074 A 
ATOM     50  C   UNL     1       6.507   3.411   3.357  1.00  0.00     0.029 A 
ATOM     51  N   UNL     1       6.044   1.629   4.599  1.00  0.00    -0.354 N 
ATOM     52  N   UNL     1       5.448   0.253   7.078  1.00  0.00    -0.248 NA
ATOM     53  C   UNL     1       5.508   0.126   9.409  1.00  0.00     0.031 C 
ATOM     54  C   UNL     1       6.688   3.755   4.701  1.00  0.00     0.029 A 
ATOM     55  C   UNL     1       6.386   2.649   5.475  1.00  0.00     0.049 A 
ATOM     56  H   UNL     1       5.775   0.720   4.867  1.00  0.00     0.167 HD
ATOM     57  C   UNL     1       5.971   1.433   7.585  1.00  0.00     0.074 A 
ATOM     58  C   UNL     1       5.968   1.310   9.028  1.00  0.00     0.031 C 
ATOM     59  C   UNL     1       6.415   2.518   6.908  1.00  0.00     0.037 A 
BRANCH  46  60
ATOM     60  C   UNL     1       6.074   1.934   0.787  1.00  0.00     0.057 A 
ATOM     61  C   UNL     1       4.992   2.381   0.022  1.00  0.00     0.134 A 
ATOM     62  C   UNL     1       7.364   2.230   0.324  1.00  0.00     0.134 A 
ATOM     63  F   UNL     1       3.733   2.114   0.400  1.00  0.00    -0.206 F 
ATOM     64  C   UNL     1       5.185   3.114  -1.151  1.00  0.00     0.040 A 
ATOM     65  C   UNL     1       7.568   2.971  -0.841  1.00  0.00     0.040 A 
ATOM     66  F   UNL     1       8.443   1.835   1.016  1.00  0.00    -0.206 F 
ATOM     67  C   UNL     1       6.476   3.420  -1.580  1.00  0.00     0.006 A 
ENDBRANCH  46  60
BRANCH  47  68
ATOM     68  C   UNL     1       4.404  -2.576   9.454  1.00  0.00     0.057 A 
ATOM     69  C   UNL     1       3.342  -2.225  10.290  1.00  0.00     0.134 A 
ATOM     70  C   UNL     1       5.226  -3.638   9.857  1.00  0.00     0.134 A 
ATOM     71  F   UNL     1       2.542  -1.197   9.972  1.00  0.00    -0.206 F 
ATOM     72  C   UNL     1       3.093  -2.917  11.476  1.00  0.00     0.040 A 
ATOM     73  C   UNL     1       4.971  -4.356  11.024  1.00  0.00     0.040 A 
ATOM     74  F   UNL     1       6.265  -4.017   9.098  1.00  0.00    -0.206 F 
ATOM     75  C   UNL     1       3.900  -3.995  11.838  1.00  0.00     0.006 A 
ENDBRANCH  47  68
BRANCH  59  76
ATOM     76  C   UNL     1       6.933   3.661   7.728  1.00  0.00     0.057 A 
ATOM     77  C   UNL     1       8.180   3.601   8.362  1.00  0.00     0.134 A 
ATOM     78  C   UNL     1       6.175   4.826   7.896  1.00  0.00     0.134 A 
ATOM     79  F   UNL     1       8.946   2.505   8.254  1.00  0.00    -0.206 F 
ATOM     80  C   UNL     1       8.645   4.651   9.156  1.00  0.00     0.040 A 
ATOM     81  C   UNL     1       6.638   5.891   8.670  1.00  0.00     0.040 A 
ATOM     82  F   UNL     1       4.973   4.948   7.312  1.00  0.00    -0.206 F 
ATOM     83  C   UNL     1       7.873   5.802   9.309  1.00  0.00     0.006 A 
ENDBRANCH  59  76
ENDBRANCH  33  34
ENDBRANCH  26  28
ENDBRANCH  25  26
ENDBRANCH  24  25
ENDBRANCH   1  24
TORSDOF 14
