REMARK SMILES CCN1C(=O)c2cccc3cc(S(=O)(=O)NCC(=O)OCCOC(=O)c4ccc(-c5c6nc(c(-c7c(F)cccc7F)c7ccc([nH]7)c(-c7c(F)cccc7F)c7nc(c(-c8c(F)cccc8F)c8ccc5[nH]8)C=C7)C=C6)cc4)cc(c23)C1=O
REMARK SMILES IDX 21 1 20 2 18 3 19 4 17 5 16 6 13 8 14 9 15 10 12 11 3 12
REMARK SMILES IDX 4 13 83 14 5 15 6 16 81 17 84 18 7 19 82 20 80 21 8 22 10 23
REMARK SMILES IDX 9 24 11 25 2 26 1 27 22 28 23 29 24 30 25 31 26 32 27 33
REMARK SMILES IDX 79 34 28 35 78 36 29 37 30 38 31 39 72 40 32 41 77 42 71 43
REMARK SMILES IDX 73 44 33 45 76 46 70 47 69 48 34 50 60 51 43 52 59 53 44 54
REMARK SMILES IDX 47 55 58 56 74 57 45 58 46 59 57 61 75 62 48 63 35 64 36 65
REMARK SMILES IDX 41 66 37 67 38 68 40 69 42 70 39 71 61 72 62 73 67 74 63 75
REMARK SMILES IDX 64 76 66 77 68 78 65 79 49 80 50 81 55 82 51 83 52 84 54 85
REMARK SMILES IDX 56 86 53 87
REMARK H PARENT 16 7 73 49 47 60
REMARK Flexibility Score: inf
ROOT
ATOM      1  C   UNL     1       8.160   1.403  -5.275  1.00  0.00     0.274 C 
ENDROOT
BRANCH   1   2
ATOM      2  O   UNL     1       6.859   1.925  -5.581  1.00  0.00    -0.461 OA
BRANCH   2   3
ATOM      3  C   UNL     1       6.810   3.167  -6.108  1.00  0.00     0.321 C 
ATOM      4  O   UNL     1       7.750   3.952  -6.159  1.00  0.00    -0.251 OA
BRANCH   3   5
ATOM      5  C   UNL     1       5.443   3.491  -6.639  1.00  0.00     0.221 C 
BRANCH   5   6
ATOM      6  N   UNL     1       4.746   2.502  -7.500  1.00  0.00    -0.200 NA
ATOM      7  H   UNL     1       4.130   3.035  -8.114  1.00  0.00     0.142 HD
BRANCH   6   8
ATOM      8  S   UNL     1       3.805   1.272  -6.820  1.00  0.00     0.241 S 
ATOM      9  O   UNL     1       4.702   0.357  -6.154  1.00  0.00    -0.207 OA
ATOM     10  O   UNL     1       2.892   0.818  -7.844  1.00  0.00    -0.207 OA
BRANCH   8  11
ATOM     11  C   UNL     1       2.827   2.067  -5.574  1.00  0.00     0.083 A 
ATOM     12  N   UNL     1       0.970   2.063  -1.077  1.00  0.00    -0.275 N 
ATOM     13  C   UNL     1       0.635   3.421  -1.176  1.00  0.00     0.261 C 
ATOM     14  C   UNL     1       1.678   1.369  -2.056  1.00  0.00     0.261 C 
ATOM     15  O   UNL     1       0.060   4.048  -0.288  1.00  0.00    -0.269 OA
ATOM     16  C   UNL     1       0.983   4.125  -2.429  1.00  0.00     0.049 A 
ATOM     17  C   UNL     1       1.950   2.080  -3.327  1.00  0.00     0.050 A 
ATOM     18  O   UNL     1       2.097   0.221  -1.954  1.00  0.00    -0.269 OA
ATOM     19  C   UNL     1       0.699   5.491  -2.561  1.00  0.00     0.014 A 
ATOM     20  C   UNL     1       1.574   3.418  -3.475  1.00  0.00     0.007 A 
ATOM     21  C   UNL     1       2.610   1.411  -4.364  1.00  0.00     0.036 A 
ATOM     22  C   UNL     1       0.980   6.153  -3.754  1.00  0.00     0.001 A 
ATOM     23  C   UNL     1       1.815   4.082  -4.704  1.00  0.00    -0.015 A 
ATOM     24  C   UNL     1       1.516   5.446  -4.828  1.00  0.00     0.009 A 
ATOM     25  C   UNL     1       2.380   3.375  -5.769  1.00  0.00     0.030 A 
BRANCH  12  26
ATOM     26  C   UNL     1       0.517   1.423   0.164  1.00  0.00     0.126 C 
ATOM     27  C   UNL     1       0.872  -0.029   0.439  1.00  0.00     0.028 C 
ENDBRANCH  12  26
ENDBRANCH   8  11
ENDBRANCH   6   8
ENDBRANCH   5   6
ENDBRANCH   3   5
ENDBRANCH   2   3
ENDBRANCH   1   2
BRANCH   1  28
ATOM     28  C   UNL     1       8.692   0.575  -6.449  1.00  0.00     0.275 C 
BRANCH  28  29
ATOM     29  O   UNL     1       9.146   1.409  -7.537  1.00  0.00    -0.458 OA
BRANCH  29  30
ATOM     30  C   UNL     1       8.217   1.741  -8.463  1.00  0.00     0.338 C 
ATOM     31  O   UNL     1       7.040   1.414  -8.489  1.00  0.00    -0.246 OA
BRANCH  30  32
ATOM     32  C   UNL     1       8.769   2.735  -9.396  1.00  0.00     0.060 A 
ATOM     33  C   UNL     1       8.057   3.925  -9.590  1.00  0.00     0.016 A 
ATOM     34  C   UNL     1       9.931   2.475 -10.121  1.00  0.00     0.016 A 
ATOM     35  C   UNL     1       8.504   4.865 -10.514  1.00  0.00     0.010 A 
ATOM     36  C   UNL     1      10.377   3.418 -11.049  1.00  0.00     0.010 A 
ATOM     37  C   UNL     1       9.663   4.612 -11.256  1.00  0.00    -0.014 A 
BRANCH  37  38
ATOM     38  C   UNL     1      10.116   5.568 -12.291  1.00  0.00     0.031 A 
ATOM     39  C   UNL     1       9.948   5.215 -13.739  1.00  0.00     0.074 A 
ATOM     40  C   UNL     1      10.709   6.720 -11.929  1.00  0.00     0.049 A 
ATOM     41  N   UNL     1      10.453   5.796 -14.795  1.00  0.00    -0.248 NA
ATOM     42  C   UNL     1       9.104   4.046 -14.036  1.00  0.00     0.031 C 
ATOM     43  C   UNL     1      10.877   7.190 -10.553  1.00  0.00     0.029 A 
ATOM     44  N   UNL     1      11.308   7.691 -12.691  1.00  0.00    -0.354 N 
ATOM     45  C   UNL     1      10.024   5.042 -15.879  1.00  0.00     0.074 A 
ATOM     46  C   UNL     1       9.211   3.966 -15.355  1.00  0.00     0.031 C 
ATOM     47  C   UNL     1      11.564   8.345 -10.567  1.00  0.00     0.029 A 
ATOM     48  C   UNL     1      11.930   8.663 -11.944  1.00  0.00     0.049 A 
ATOM     49  H   UNL     1      11.294   7.692 -13.675  1.00  0.00     0.167 HD
ATOM     50  C   UNL     1      10.297   5.232 -17.190  1.00  0.00     0.037 A 
ATOM     51  C   UNL     1      12.748   9.662 -12.327  1.00  0.00     0.037 A 
ATOM     52  C   UNL     1      11.082   6.325 -17.698  1.00  0.00     0.049 A 
ATOM     53  C   UNL     1      13.075   9.821 -13.787  1.00  0.00     0.074 A 
ATOM     54  C   UNL     1      11.390   6.626 -19.013  1.00  0.00     0.029 A 
ATOM     55  N   UNL     1      11.682   7.296 -16.912  1.00  0.00    -0.354 N 
ATOM     56  N   UNL     1      12.664   9.107 -14.808  1.00  0.00    -0.248 NA
ATOM     57  C   UNL     1      13.986  10.915 -14.151  1.00  0.00     0.031 C 
ATOM     58  C   UNL     1      12.212   7.757 -19.020  1.00  0.00     0.029 A 
ATOM     59  C   UNL     1      12.376   8.186 -17.712  1.00  0.00     0.049 A 
ATOM     60  H   UNL     1      11.623   7.346 -15.930  1.00  0.00     0.167 HD
ATOM     61  C   UNL     1      13.236   9.685 -15.933  1.00  0.00     0.074 A 
ATOM     62  C   UNL     1      14.022  10.811 -15.472  1.00  0.00     0.031 C 
ATOM     63  C   UNL     1      13.123   9.319 -17.232  1.00  0.00     0.037 A 
BRANCH  50  64
ATOM     64  C   UNL     1       9.778   4.225 -18.171  1.00  0.00     0.057 A 
ATOM     65  C   UNL     1       8.431   4.180 -18.547  1.00  0.00     0.134 A 
ATOM     66  C   UNL     1      10.658   3.335 -18.800  1.00  0.00     0.134 A 
ATOM     67  F   UNL     1       7.536   4.997 -17.973  1.00  0.00    -0.206 F 
ATOM     68  C   UNL     1       7.976   3.279 -19.512  1.00  0.00     0.040 A 
ATOM     69  C   UNL     1      10.219   2.445 -19.780  1.00  0.00     0.040 A 
ATOM     70  F   UNL     1      11.962   3.331 -18.485  1.00  0.00    -0.206 F 
ATOM     71  C   UNL     1       8.873   2.415 -20.139  1.00  0.00     0.006 A 
ENDBRANCH  50  64
BRANCH  51  72
ATOM     72  C   UNL     1      13.363  10.557 -11.314  1.00  0.00     0.057 A 
ATOM     73  C   UNL     1      13.023  11.912 -11.239  1.00  0.00     0.134 A 
ATOM     74  C   UNL     1      14.332  10.086 -10.419  1.00  0.00     0.134 A 
ATOM     75  F   UNL     1      12.118  12.428 -12.084  1.00  0.00    -0.206 F 
ATOM     76  C   UNL     1      13.641  12.773 -10.330  1.00  0.00     0.040 A 
ATOM     77  C   UNL     1      14.938  10.929  -9.486  1.00  0.00     0.040 A 
ATOM     78  F   UNL     1      14.702   8.797 -10.437  1.00  0.00    -0.206 F 
ATOM     79  C   UNL     1      14.600  12.280  -9.447  1.00  0.00     0.006 A 
ENDBRANCH  51  72
BRANCH  63  80
ATOM     80  C   UNL     1      13.809  10.173 -18.254  1.00  0.00     0.057 A 
ATOM     81  C   UNL     1      15.193  10.122 -18.453  1.00  0.00     0.134 A 
ATOM     82  C   UNL     1      13.059  11.002 -19.100  1.00  0.00     0.134 A 
ATOM     83  F   UNL     1      15.965   9.357 -17.667  1.00  0.00    -0.206 F 
ATOM     84  C   UNL     1      15.810  10.873 -19.455  1.00  0.00     0.040 A 
ATOM     85  C   UNL     1      13.662  11.739 -20.118  1.00  0.00     0.040 A 
ATOM     86  F   UNL     1      11.727  11.086 -18.964  1.00  0.00    -0.206 F 
ATOM     87  C   UNL     1      15.042  11.676 -20.297  1.00  0.00     0.006 A 
ENDBRANCH  63  80
ENDBRANCH  37  38
ENDBRANCH  30  32
ENDBRANCH  29  30
ENDBRANCH  28  29
ENDBRANCH   1  28
TORSDOF 15
