REMARK SMILES Cc1cccc(N2CCN(C(=O)[C@@H]3CC=CC[C@@H]3C(=O)OCCOC(=O)c3ccc(-c4c5nc(c(-c6c(F)cccc6F)c6ccc([nH]6)c(-c6c(F)cccc6F)c6nc(c(-c7c(F)cccc7F)c7ccc4[nH]7)C=C6)C=C5)cc3)CC2)c1C
REMARK SMILES IDX 22 1 21 2 19 3 20 4 18 5 13 6 14 7 15 8 17 9 16 10 11 11
REMARK SMILES IDX 7 12 8 13 82 14 9 15 81 16 10 17 12 18 6 19 1 20 2 21 3 22
REMARK SMILES IDX 83 23 4 24 84 25 5 26 23 27 24 28 25 29 26 30 27 31 28 32
REMARK SMILES IDX 80 33 29 34 79 35 30 36 31 37 32 38 73 39 33 40 78 41 72 42
REMARK SMILES IDX 74 43 34 44 77 45 71 46 70 47 35 49 61 50 44 51 60 52 45 53
REMARK SMILES IDX 48 54 59 55 75 56 46 57 47 58 58 60 76 61 49 62 36 63 37 64
REMARK SMILES IDX 42 65 38 66 39 67 41 68 43 69 40 70 62 71 63 72 68 73 64 74
REMARK SMILES IDX 65 75 67 76 69 77 66 78 50 79 51 80 56 81 52 82 53 83 55 84
REMARK SMILES IDX 57 85 54 86
REMARK H PARENT 74 48 48 59
REMARK Flexibility Score: inf
ROOT
ATOM      1  C   UNL     1      -1.508  -9.773  -3.934  1.00  0.00     0.274 C 
ENDROOT
BRANCH   1   2
ATOM      2  O   UNL     1      -1.214  -8.891  -2.822  1.00  0.00    -0.462 OA
BRANCH   2   3
ATOM      3  C   UNL     1       0.002  -8.289  -2.885  1.00  0.00     0.310 C 
ATOM      4  O   UNL     1       0.744  -8.367  -3.859  1.00  0.00    -0.252 OA
BRANCH   3   5
ATOM      5  C   UNL     1       0.356  -7.456  -1.661  1.00  0.00     0.115 C 
ATOM      6  C   UNL     1       0.158  -8.132  -0.288  1.00  0.00     0.097 C 
ATOM      7  C   UNL     1      -1.252  -8.005   0.286  1.00  0.00     0.041 C 
ATOM      8  C   UNL     1      -1.935  -6.709  -0.033  1.00  0.00    -0.030 C 
ATOM      9  C   UNL     1      -0.225  -6.037  -1.723  1.00  0.00     0.043 C 
ATOM     10  C   UNL     1      -1.487  -5.836  -0.943  1.00  0.00    -0.030 C 
BRANCH   6  11
ATOM     11  C   UNL     1       0.899  -9.479  -0.281  1.00  0.00     0.227 C 
ATOM     12  N   UNL     1      -0.539 -13.313  -1.364  1.00  0.00    -0.368 N 
ATOM     13  C   UNL     1       0.897 -13.019  -1.336  1.00  0.00     0.138 C 
ATOM     14  C   UNL     1      -1.332 -12.576  -0.379  1.00  0.00     0.138 C 
ATOM     15  C   UNL     1       1.119 -11.525  -1.578  1.00  0.00     0.141 C 
ATOM     16  C   UNL     1      -1.087 -11.058  -0.493  1.00  0.00     0.141 C 
ATOM     17  N   UNL     1       0.310 -10.651  -0.709  1.00  0.00    -0.339 N 
ATOM     18  O   UNL     1       2.121  -9.446  -0.083  1.00  0.00    -0.275 OA
BRANCH  12  19
ATOM     19  C   UNL     1      -0.993 -14.584  -1.705  1.00  0.00     0.040 A 
ATOM     20  C   UNL     1      -0.409 -18.348  -1.183  1.00  0.00     0.044 C 
ATOM     21  C   UNL     1      -0.966 -17.033  -1.663  1.00  0.00    -0.046 A 
ATOM     22  C   UNL     1      -1.983 -17.056  -2.629  1.00  0.00     0.004 A 
ATOM     23  C   UNL     1      -0.499 -15.792  -1.157  1.00  0.00    -0.025 A 
ATOM     24  C   UNL     1      -2.519 -15.871  -3.117  1.00  0.00     0.002 A 
ATOM     25  C   UNL     1       0.518 -15.780  -0.044  1.00  0.00     0.047 C 
ATOM     26  C   UNL     1      -2.020 -14.653  -2.664  1.00  0.00     0.026 A 
ENDBRANCH  12  19
ENDBRANCH   6  11
ENDBRANCH   3   5
ENDBRANCH   2   3
ENDBRANCH   1   2
BRANCH   1  27
ATOM     27  C   UNL     1      -2.990 -10.162  -3.946  1.00  0.00     0.275 C 
BRANCH  27  28
ATOM     28  O   UNL     1      -3.734  -9.069  -4.499  1.00  0.00    -0.458 OA
BRANCH  28  29
ATOM     29  C   UNL     1      -4.063  -8.110  -3.606  1.00  0.00     0.338 C 
ATOM     30  O   UNL     1      -4.173  -8.202  -2.400  1.00  0.00    -0.246 OA
BRANCH  29  31
ATOM     31  C   UNL     1      -3.987  -6.850  -4.350  1.00  0.00     0.060 A 
ATOM     32  C   UNL     1      -2.739  -6.229  -4.437  1.00  0.00     0.016 A 
ATOM     33  C   UNL     1      -5.105  -6.311  -4.970  1.00  0.00     0.016 A 
ATOM     34  C   UNL     1      -2.599  -5.018  -5.098  1.00  0.00     0.010 A 
ATOM     35  C   UNL     1      -4.956  -5.120  -5.678  1.00  0.00     0.010 A 
ATOM     36  C   UNL     1      -3.710  -4.457  -5.726  1.00  0.00    -0.014 A 
BRANCH  36  37
ATOM     37  C   UNL     1      -3.637  -3.127  -6.365  1.00  0.00     0.031 A 
ATOM     38  C   UNL     1      -4.471  -2.028  -5.785  1.00  0.00     0.074 A 
ATOM     39  C   UNL     1      -2.901  -2.925  -7.471  1.00  0.00     0.049 A 
ATOM     40  N   UNL     1      -4.896  -0.927  -6.340  1.00  0.00    -0.248 NA
ATOM     41  C   UNL     1      -4.915  -2.222  -4.394  1.00  0.00     0.031 C 
ATOM     42  C   UNL     1      -1.970  -3.884  -8.065  1.00  0.00     0.029 A 
ATOM     43  N   UNL     1      -2.854  -1.844  -8.312  1.00  0.00    -0.354 N 
ATOM     44  C   UNL     1      -5.732  -0.341  -5.401  1.00  0.00     0.074 A 
ATOM     45  C   UNL     1      -5.734  -1.194  -4.233  1.00  0.00     0.031 C 
ATOM     46  C   UNL     1      -1.452  -3.353  -9.185  1.00  0.00     0.029 A 
ATOM     47  C   UNL     1      -2.086  -2.062  -9.430  1.00  0.00     0.049 A 
ATOM     48  H   UNL     1      -3.323  -0.997  -8.134  1.00  0.00     0.167 HD
ATOM     49  C   UNL     1      -6.451   0.798  -5.528  1.00  0.00     0.037 A 
ATOM     50  C   UNL     1      -1.966  -1.330 -10.553  1.00  0.00     0.037 A 
ATOM     51  C   UNL     1      -6.380   1.649  -6.685  1.00  0.00     0.049 A 
ATOM     52  C   UNL     1      -2.794  -0.083 -10.692  1.00  0.00     0.074 A 
ATOM     53  C   UNL     1      -7.041   2.838  -6.928  1.00  0.00     0.029 A 
ATOM     54  N   UNL     1      -5.577   1.400  -7.790  1.00  0.00    -0.354 N 
ATOM     55  N   UNL     1      -3.649   0.439  -9.844  1.00  0.00    -0.248 NA
ATOM     56  C   UNL     1      -2.664   0.663 -11.950  1.00  0.00     0.031 C 
ATOM     57  C   UNL     1      -6.659   3.294  -8.195  1.00  0.00     0.029 A 
ATOM     58  C   UNL     1      -5.729   2.410  -8.722  1.00  0.00     0.049 A 
ATOM     59  H   UNL     1      -4.986   0.619  -7.895  1.00  0.00     0.167 HD
ATOM     60  C   UNL     1      -4.135   1.589 -10.450  1.00  0.00     0.074 A 
ATOM     61  C   UNL     1      -3.482   1.687 -11.741  1.00  0.00     0.031 C 
ATOM     62  C   UNL     1      -5.037   2.487  -9.983  1.00  0.00     0.037 A 
BRANCH  49  63
ATOM     63  C   UNL     1      -7.406   1.141  -4.425  1.00  0.00     0.057 A 
ATOM     64  C   UNL     1      -6.976   1.571  -3.164  1.00  0.00     0.134 A 
ATOM     65  C   UNL     1      -8.787   1.027  -4.632  1.00  0.00     0.134 A 
ATOM     66  F   UNL     1      -5.667   1.679  -2.892  1.00  0.00    -0.206 F 
ATOM     67  C   UNL     1      -7.885   1.848  -2.140  1.00  0.00     0.040 A 
ATOM     68  C   UNL     1      -9.706   1.327  -3.625  1.00  0.00     0.040 A 
ATOM     69  F   UNL     1      -9.268   0.618  -5.816  1.00  0.00    -0.206 F 
ATOM     70  C   UNL     1      -9.254   1.732  -2.371  1.00  0.00     0.006 A 
ENDBRANCH  49  63
BRANCH  50  71
ATOM     71  C   UNL     1      -1.061  -1.781 -11.639  1.00  0.00     0.057 A 
ATOM     72  C   UNL     1       0.126  -1.093 -11.912  1.00  0.00     0.134 A 
ATOM     73  C   UNL     1      -1.341  -2.916 -12.410  1.00  0.00     0.134 A 
ATOM     74  F   UNL     1       0.438   0.014 -11.222  1.00  0.00    -0.206 F 
ATOM     75  C   UNL     1       1.003  -1.516 -12.912  1.00  0.00     0.040 A 
ATOM     76  C   UNL     1      -0.462  -3.364 -13.398  1.00  0.00     0.040 A 
ATOM     77  F   UNL     1      -2.461  -3.622 -12.197  1.00  0.00    -0.206 F 
ATOM     78  C   UNL     1       0.714  -2.661 -13.653  1.00  0.00     0.006 A 
ENDBRANCH  50  71
BRANCH  62  79
ATOM     79  C   UNL     1      -5.314   3.685 -10.838  1.00  0.00     0.057 A 
ATOM     80  C   UNL     1      -6.143   3.616 -11.962  1.00  0.00     0.134 A 
ATOM     81  C   UNL     1      -4.799   4.937 -10.480  1.00  0.00     0.134 A 
ATOM     82  F   UNL     1      -6.656   2.442 -12.359  1.00  0.00    -0.206 F 
ATOM     83  C   UNL     1      -6.447   4.756 -12.707  1.00  0.00     0.040 A 
ATOM     84  C   UNL     1      -5.112   6.086 -11.205  1.00  0.00     0.040 A 
ATOM     85  F   UNL     1      -4.004   5.065  -9.406  1.00  0.00    -0.206 F 
ATOM     86  C   UNL     1      -5.938   5.996 -12.323  1.00  0.00     0.006 A 
ENDBRANCH  62  79
ENDBRANCH  36  37
ENDBRANCH  29  31
ENDBRANCH  28  29
ENDBRANCH  27  28
ENDBRANCH   1  27
TORSDOF 13
