REMARK SMILES Cc1ccc(S(=O)(=O)Nc2cc3c(cc2C(=O)OCCOC(=O)c2ccc(-c4c5nc(c(-c6c(F)cccc6F)c6ccc([nH]6)c(-c6c(F)cccc6F)c6nc(c(-c7c(F)cccc7F)c7ccc4[nH]7)C=C6)C=C5)cc2)OCCO3)s1
REMARK SMILES IDX 19 1 18 2 16 3 17 4 15 5 10 6 11 7 12 8 14 9 13 10 81 11
REMARK SMILES IDX 78 12 80 13 79 14 9 15 6 17 7 18 8 19 5 20 1 21 2 22 3 23
REMARK SMILES IDX 82 24 4 25 20 26 21 27 22 28 23 29 24 30 25 31 77 32 26 33
REMARK SMILES IDX 76 34 27 35 28 36 29 37 70 38 30 39 75 40 69 41 71 42 31 43
REMARK SMILES IDX 74 44 68 45 67 46 32 48 58 49 41 50 57 51 42 52 45 53 56 54
REMARK SMILES IDX 72 55 43 56 44 57 55 59 73 60 46 61 33 62 34 63 39 64 35 65
REMARK SMILES IDX 36 66 38 67 40 68 37 69 59 70 60 71 65 72 61 73 62 74 64 75
REMARK SMILES IDX 66 76 63 77 47 78 48 79 53 80 49 81 50 82 52 83 54 84 51 85
REMARK H PARENT 9 16 71 47 45 58
REMARK Flexibility Score: inf
ROOT
ATOM      1  C   UNL     1      -1.000  -0.970   3.523  1.00  0.00     0.275 C 
ENDROOT
BRANCH   1   2
ATOM      2  O   UNL     1      -1.324  -1.652   2.288  1.00  0.00    -0.458 OA
BRANCH   2   3
ATOM      3  C   UNL     1      -2.647  -1.751   2.018  1.00  0.00     0.340 C 
ATOM      4  O   UNL     1      -3.563  -1.281   2.674  1.00  0.00    -0.246 OA
BRANCH   3   5
ATOM      5  C   UNL     1      -2.915  -2.663   0.891  1.00  0.00     0.088 A 
ATOM      6  C   UNL     1      -3.580  -2.232  -0.271  1.00  0.00     0.067 A 
ATOM      7  C   UNL     1      -4.199  -3.169  -1.100  1.00  0.00     0.078 A 
ATOM      8  C   UNL     1      -4.023  -4.524  -0.862  1.00  0.00     0.163 A 
ATOM      9  C   UNL     1      -2.720  -4.031   1.118  1.00  0.00     0.068 A 
ATOM     10  C   UNL     1      -3.222  -4.952   0.202  1.00  0.00     0.162 A 
ATOM     11  O   UNL     1      -4.624  -5.375  -1.751  1.00  0.00    -0.486 OA
ATOM     12  O   UNL     1      -2.900  -6.270   0.397  1.00  0.00    -0.486 OA
ATOM     13  C   UNL     1      -4.515  -6.741  -1.340  1.00  0.00     0.271 C 
ATOM     14  C   UNL     1      -3.119  -7.020  -0.809  1.00  0.00     0.271 C 
BRANCH   6  15
ATOM     15  N   UNL     1      -3.525  -0.872  -0.723  1.00  0.00    -0.278 N 
ATOM     16  H   UNL     1      -4.032  -0.153  -0.282  1.00  0.00     0.180 HD
BRANCH  15  17
ATOM     17  S   UNL     1      -2.513  -0.574  -2.091  1.00  0.00     0.271 S 
ATOM     18  O   UNL     1      -2.548   0.861  -2.310  1.00  0.00    -0.200 OA
ATOM     19  O   UNL     1      -2.903  -1.480  -3.143  1.00  0.00    -0.200 OA
BRANCH  17  20
ATOM     20  C   UNL     1      -0.851  -1.038  -1.678  1.00  0.00     0.140 A 
ATOM     21  C   UNL     1       2.726  -0.170  -0.421  1.00  0.00     0.056 C 
ATOM     22  C   UNL     1       1.479  -0.791  -0.940  1.00  0.00     0.003 A 
ATOM     23  C   UNL     1       1.028  -2.084  -0.783  1.00  0.00     0.016 A 
ATOM     24  S   UNL     1       0.370   0.146  -1.849  1.00  0.00    -0.127 S 
ATOM     25  C   UNL     1      -0.304  -2.239  -1.262  1.00  0.00     0.034 A 
ENDBRANCH  17  20
ENDBRANCH  15  17
ENDBRANCH   6  15
ENDBRANCH   3   5
ENDBRANCH   2   3
ENDBRANCH   1   2
BRANCH   1  26
ATOM     26  C   UNL     1      -0.580   0.482   3.303  1.00  0.00     0.275 C 
BRANCH  26  27
ATOM     27  O   UNL     1      -1.690   1.259   2.812  1.00  0.00    -0.458 OA
BRANCH  27  28
ATOM     28  C   UNL     1      -1.604   1.544   1.495  1.00  0.00     0.338 C 
ATOM     29  O   UNL     1      -0.668   1.270   0.763  1.00  0.00    -0.246 OA
BRANCH  28  30
ATOM     30  C   UNL     1      -2.803   2.204   0.965  1.00  0.00     0.060 A 
ATOM     31  C   UNL     1      -4.019   1.533   0.994  1.00  0.00     0.016 A 
ATOM     32  C   UNL     1      -2.654   3.352   0.182  1.00  0.00     0.016 A 
ATOM     33  C   UNL     1      -5.032   1.922   0.124  1.00  0.00     0.010 A 
ATOM     34  C   UNL     1      -3.724   3.817  -0.591  1.00  0.00     0.010 A 
ATOM     35  C   UNL     1      -4.917   3.084  -0.661  1.00  0.00    -0.014 A 
BRANCH  35  36
ATOM     36  C   UNL     1      -6.069   3.529  -1.495  1.00  0.00     0.031 A 
ATOM     37  C   UNL     1      -5.949   3.762  -2.980  1.00  0.00     0.074 A 
ATOM     38  C   UNL     1      -7.266   3.697  -0.896  1.00  0.00     0.049 A 
ATOM     39  N   UNL     1      -6.829   4.282  -3.802  1.00  0.00    -0.248 NA
ATOM     40  C   UNL     1      -4.695   3.357  -3.632  1.00  0.00     0.031 C 
ATOM     41  C   UNL     1      -7.537   3.469   0.526  1.00  0.00     0.029 A 
ATOM     42  N   UNL     1      -8.482   4.081  -1.403  1.00  0.00    -0.354 N 
ATOM     43  C   UNL     1      -6.226   4.298  -5.056  1.00  0.00     0.074 A 
ATOM     44  C   UNL     1      -4.906   3.727  -4.891  1.00  0.00     0.031 C 
ATOM     45  C   UNL     1      -8.840   3.649   0.763  1.00  0.00     0.029 A 
ATOM     46  C   UNL     1      -9.468   4.152  -0.449  1.00  0.00     0.049 A 
ATOM     47  H   UNL     1      -8.633   4.286  -2.354  1.00  0.00     0.167 HD
ATOM     48  C   UNL     1      -6.729   4.758  -6.228  1.00  0.00     0.037 A 
ATOM     49  C   UNL     1     -10.718   4.644  -0.501  1.00  0.00     0.037 A 
ATOM     50  C   UNL     1      -8.053   5.308  -6.389  1.00  0.00     0.049 A 
ATOM     51  C   UNL     1     -11.210   5.243  -1.778  1.00  0.00     0.074 A 
ATOM     52  C   UNL     1      -8.656   5.786  -7.542  1.00  0.00     0.029 A 
ATOM     53  N   UNL     1      -8.980   5.455  -5.368  1.00  0.00    -0.354 N 
ATOM     54  N   UNL     1     -10.604   5.318  -2.936  1.00  0.00    -0.248 NA
ATOM     55  C   UNL     1     -12.541   5.858  -1.746  1.00  0.00     0.031 C 
ATOM     56  C   UNL     1      -9.926   6.269  -7.208  1.00  0.00     0.029 A 
ATOM     57  C   UNL     1     -10.135   6.046  -5.857  1.00  0.00     0.049 A 
ATOM     58  H   UNL     1      -8.838   5.181  -4.433  1.00  0.00     0.167 HD
ATOM     59  C   UNL     1     -11.474   5.998  -3.772  1.00  0.00     0.074 A 
ATOM     60  C   UNL     1     -12.662   6.287  -2.994  1.00  0.00     0.031 C 
ATOM     61  C   UNL     1     -11.298   6.357  -5.067  1.00  0.00     0.037 A 
BRANCH  48  62
ATOM     62  C   UNL     1      -5.841   4.734  -7.441  1.00  0.00     0.057 A 
ATOM     63  C   UNL     1      -5.577   3.557  -8.150  1.00  0.00     0.134 A 
ATOM     64  C   UNL     1      -5.332   5.931  -7.966  1.00  0.00     0.134 A 
ATOM     65  F   UNL     1      -6.035   2.377  -7.705  1.00  0.00    -0.206 F 
ATOM     66  C   UNL     1      -4.835   3.570  -9.335  1.00  0.00     0.040 A 
ATOM     67  C   UNL     1      -4.607   5.959  -9.159  1.00  0.00     0.040 A 
ATOM     68  F   UNL     1      -5.559   7.098  -7.344  1.00  0.00    -0.206 F 
ATOM     69  C   UNL     1      -4.357   4.775  -9.848  1.00  0.00     0.006 A 
ENDBRANCH  48  62
BRANCH  49  70
ATOM     70  C   UNL     1     -11.528   4.676   0.740  1.00  0.00     0.057 A 
ATOM     71  C   UNL     1     -12.637   3.842   0.907  1.00  0.00     0.134 A 
ATOM     72  C   UNL     1     -11.159   5.490   1.821  1.00  0.00     0.134 A 
ATOM     73  F   UNL     1     -13.051   3.059  -0.099  1.00  0.00    -0.206 F 
ATOM     74  C   UNL     1     -13.341   3.804   2.112  1.00  0.00     0.040 A 
ATOM     75  C   UNL     1     -11.831   5.437   3.040  1.00  0.00     0.040 A 
ATOM     76  F   UNL     1     -10.099   6.307   1.721  1.00  0.00    -0.206 F 
ATOM     77  C   UNL     1     -12.927   4.591   3.187  1.00  0.00     0.006 A 
ENDBRANCH  49  70
BRANCH  61  78
ATOM     78  C   UNL     1     -12.427   7.099  -5.712  1.00  0.00     0.057 A 
ATOM     79  C   UNL     1     -12.689   8.441  -5.409  1.00  0.00     0.134 A 
ATOM     80  C   UNL     1     -13.270   6.464  -6.632  1.00  0.00     0.134 A 
ATOM     81  F   UNL     1     -11.930   9.098  -4.519  1.00  0.00    -0.206 F 
ATOM     82  C   UNL     1     -13.769   9.118  -5.977  1.00  0.00     0.040 A 
ATOM     83  C   UNL     1     -14.338   7.137  -7.224  1.00  0.00     0.040 A 
ATOM     84  F   UNL     1     -13.070   5.180  -6.966  1.00  0.00    -0.206 F 
ATOM     85  C   UNL     1     -14.595   8.466  -6.890  1.00  0.00     0.006 A 
ENDBRANCH  61  78
ENDBRANCH  35  36
ENDBRANCH  28  30
ENDBRANCH  27  28
ENDBRANCH  26  27
ENDBRANCH   1  26
TORSDOF 14
