REMARK SMILES C/C=C/C=C/C(=O)N[C@@H](C)CC(=O)OCCOC(=O)c1ccc(-c2c3nc(c(-c4c(F)cccc4F)c4ccc([nH]4)c(-c4c(F)cccc4F)c4nc(c(-c5c(F)cccc5F)c5ccc2[nH]5)C=C4)C=C3)cc1
REMARK SMILES IDX 15 1 14 2 12 3 13 4 11 5 9 6 10 7 8 8 6 9 7 10 5 12 4 13
REMARK SMILES IDX 3 14 1 15 2 16 16 17 17 18 18 19 19 20 20 21 21 22 73 23
REMARK SMILES IDX 22 24 72 25 23 26 24 27 25 28 66 29 26 30 71 31 65 32 67 33
REMARK SMILES IDX 27 34 70 35 64 36 63 37 28 39 54 40 37 41 53 42 38 43 41 44
REMARK SMILES IDX 52 45 68 46 39 47 40 48 51 50 69 51 42 52 29 53 30 54 35 55
REMARK SMILES IDX 31 56 32 57 34 58 36 59 33 60 55 61 56 62 61 63 57 64 58 65
REMARK SMILES IDX 60 66 62 67 59 68 43 69 44 70 49 71 45 72 46 73 48 74 50 75
REMARK SMILES IDX 47 76
REMARK H PARENT 8 11 67 38 41 49
REMARK Flexibility Score: inf
ROOT
ATOM      1  C   UNL     1      -5.104   1.676  -4.144  1.00  0.00     0.274 C 
ENDROOT
BRANCH   1   2
ATOM      2  O   UNL     1      -3.948   1.511  -4.992  1.00  0.00    -0.462 OA
BRANCH   2   3
ATOM      3  C   UNL     1      -3.169   2.608  -5.170  1.00  0.00     0.307 C 
ATOM      4  O   UNL     1      -3.349   3.692  -4.626  1.00  0.00    -0.252 OA
BRANCH   3   5
ATOM      5  C   UNL     1      -2.079   2.384  -6.190  1.00  0.00     0.147 C 
BRANCH   5   6
ATOM      6  C   UNL     1      -1.058   1.313  -5.790  1.00  0.00     0.090 C 
ATOM      7  C   UNL     1       0.305   1.638  -6.410  1.00  0.00     0.031 C 
BRANCH   6   8
ATOM      8  N   UNL     1      -1.466  -0.013  -6.256  1.00  0.00    -0.350 N 
ATOM      9  C   UNL     1      -1.516  -1.219  -5.632  1.00  0.00     0.244 C 
ATOM     10  O   UNL     1      -1.970  -2.185  -6.245  1.00  0.00    -0.270 OA
ATOM     11  H   UNL     1      -1.759  -0.035  -7.195  1.00  0.00     0.164 HD
BRANCH   9  12
ATOM     12  C   UNL     1      -1.136  -1.392  -4.215  1.00  0.00     0.071 C 
ATOM     13  C   UNL     1      -0.049  -0.895  -3.605  1.00  0.00     0.005 C 
BRANCH  13  14
ATOM     14  C   UNL     1       0.174  -1.080  -2.187  1.00  0.00    -0.004 C 
ATOM     15  C   UNL     1       1.141  -0.421   0.018  1.00  0.00     0.035 C 
ATOM     16  C   UNL     1       0.979  -0.289  -1.462  1.00  0.00    -0.030 C 
ENDBRANCH  13  14
ENDBRANCH   9  12
ENDBRANCH   6   8
ENDBRANCH   5   6
ENDBRANCH   3   5
ENDBRANCH   2   3
ENDBRANCH   1   2
BRANCH   1  17
ATOM     17  C   UNL     1      -4.861   1.233  -2.696  1.00  0.00     0.275 C 
BRANCH  17  18
ATOM     18  O   UNL     1      -4.044   2.168  -1.962  1.00  0.00    -0.458 OA
BRANCH  18  19
ATOM     19  C   UNL     1      -2.722   1.919  -2.058  1.00  0.00     0.338 C 
ATOM     20  O   UNL     1      -2.207   0.995  -2.668  1.00  0.00    -0.246 OA
BRANCH  19  21
ATOM     21  C   UNL     1      -1.904   2.950  -1.411  1.00  0.00     0.060 A 
ATOM     22  C   UNL     1      -0.951   3.612  -2.193  1.00  0.00     0.016 A 
ATOM     23  C   UNL     1      -1.960   3.151  -0.032  1.00  0.00     0.016 A 
ATOM     24  C   UNL     1      -0.034   4.470  -1.593  1.00  0.00     0.010 A 
ATOM     25  C   UNL     1      -1.040   4.016   0.569  1.00  0.00     0.010 A 
ATOM     26  C   UNL     1      -0.062   4.665  -0.206  1.00  0.00    -0.014 A 
BRANCH  26  27
ATOM     27  C   UNL     1       0.963   5.522   0.433  1.00  0.00     0.031 A 
ATOM     28  C   UNL     1       2.125   4.901   1.152  1.00  0.00     0.074 A 
ATOM     29  C   UNL     1       0.864   6.859   0.336  1.00  0.00     0.049 A 
ATOM     30  N   UNL     1       3.100   5.480   1.805  1.00  0.00    -0.248 NA
ATOM     31  C   UNL     1       2.200   3.433   1.132  1.00  0.00     0.031 C 
ATOM     32  C   UNL     1      -0.195   7.576  -0.374  1.00  0.00     0.029 A 
ATOM     33  N   UNL     1       1.669   7.851   0.834  1.00  0.00    -0.354 N 
ATOM     34  C   UNL     1       3.899   4.449   2.283  1.00  0.00     0.074 A 
ATOM     35  C   UNL     1       3.285   3.208   1.860  1.00  0.00     0.031 C 
ATOM     36  C   UNL     1       0.030   8.896  -0.274  1.00  0.00     0.029 A 
ATOM     37  C   UNL     1       1.226   9.115   0.535  1.00  0.00     0.049 A 
ATOM     38  H   UNL     1       2.485   7.673   1.355  1.00  0.00     0.167 HD
ATOM     39  C   UNL     1       5.042   4.533   3.006  1.00  0.00     0.037 A 
ATOM     40  C   UNL     1       1.724  10.315   0.888  1.00  0.00     0.037 A 
ATOM     41  C   UNL     1       5.653   5.769   3.421  1.00  0.00     0.049 A 
ATOM     42  C   UNL     1       2.965  10.380   1.731  1.00  0.00     0.074 A 
ATOM     43  C   UNL     1       6.807   5.957   4.164  1.00  0.00     0.029 A 
ATOM     44  N   UNL     1       5.160   7.030   3.124  1.00  0.00    -0.354 N 
ATOM     45  N   UNL     1       3.703   9.399   2.191  1.00  0.00    -0.248 NA
ATOM     46  C   UNL     1       3.439  11.719   2.107  1.00  0.00     0.031 C 
ATOM     47  C   UNL     1       6.996   7.333   4.338  1.00  0.00     0.029 A 
ATOM     48  C   UNL     1       5.979   8.001   3.676  1.00  0.00     0.049 A 
ATOM     49  H   UNL     1       4.347   7.209   2.599  1.00  0.00     0.167 HD
ATOM     50  C   UNL     1       4.741  10.001   2.889  1.00  0.00     0.074 A 
ATOM     51  C   UNL     1       4.541  11.432   2.786  1.00  0.00     0.031 C 
ATOM     52  C   UNL     1       5.769   9.421   3.555  1.00  0.00     0.037 A 
BRANCH  39  53
ATOM     53  C   UNL     1       5.692   3.245   3.412  1.00  0.00     0.057 A 
ATOM     54  C   UNL     1       6.402   2.457   2.498  1.00  0.00     0.134 A 
ATOM     55  C   UNL     1       5.624   2.798   4.738  1.00  0.00     0.134 A 
ATOM     56  F   UNL     1       6.490   2.823   1.210  1.00  0.00    -0.206 F 
ATOM     57  C   UNL     1       7.008   1.260   2.885  1.00  0.00     0.040 A 
ATOM     58  C   UNL     1       6.242   1.613   5.140  1.00  0.00     0.040 A 
ATOM     59  F   UNL     1       4.961   3.508   5.663  1.00  0.00    -0.206 F 
ATOM     60  C   UNL     1       6.933   0.838   4.211  1.00  0.00     0.006 A 
ENDBRANCH  39  53
BRANCH  40  61
ATOM     61  C   UNL     1       1.046  11.553   0.438  1.00  0.00     0.057 A 
ATOM     62  C   UNL     1       1.613  12.366  -0.549  1.00  0.00     0.134 A 
ATOM     63  C   UNL     1      -0.183  11.948   0.977  1.00  0.00     0.134 A 
ATOM     64  F   UNL     1       2.799  12.047  -1.087  1.00  0.00    -0.206 F 
ATOM     65  C   UNL     1       0.985  13.535  -0.979  1.00  0.00     0.040 A 
ATOM     66  C   UNL     1      -0.832  13.104   0.542  1.00  0.00     0.040 A 
ATOM     67  F   UNL     1      -0.776  11.207   1.925  1.00  0.00    -0.206 F 
ATOM     68  C   UNL     1      -0.245  13.903  -0.436  1.00  0.00     0.006 A 
ENDBRANCH  40  61
BRANCH  52  69
ATOM     69  C   UNL     1       6.771  10.336   4.189  1.00  0.00     0.057 A 
ATOM     70  C   UNL     1       6.493  11.021   5.378  1.00  0.00     0.134 A 
ATOM     71  C   UNL     1       8.034  10.517   3.614  1.00  0.00     0.134 A 
ATOM     72  F   UNL     1       5.295  10.900   5.969  1.00  0.00    -0.206 F 
ATOM     73  C   UNL     1       7.433  11.871   5.964  1.00  0.00     0.040 A 
ATOM     74  C   UNL     1       8.989  11.349   4.200  1.00  0.00     0.040 A 
ATOM     75  F   UNL     1       8.362   9.884   2.477  1.00  0.00    -0.206 F 
ATOM     76  C   UNL     1       8.687  12.033   5.376  1.00  0.00     0.006 A 
ENDBRANCH  52  69
ENDBRANCH  26  27
ENDBRANCH  19  21
ENDBRANCH  18  19
ENDBRANCH  17  18
ENDBRANCH   1  17
TORSDOF 15
