REMARK SMILES CC(C)=C1[C@H]2CC[C@@H]1[C@H](C(=O)NNC(=O)c1ccoc1C)[C@H]2C(=O)OCCOC(=O)c1ccc(-c2c3nc(c(-c4c(F)cccc4F)c4ccc([nH]4)c(-c4c(F)cccc4F)c4nc(c(-c5c(F)cccc5F)c5ccc2[nH]5)C=C4)C=C3)cc1
REMARK SMILES IDX 26 1 25 2 23 3 24 4 22 5 1 6 2 7 3 8 4 9 5 10 8 11 6 12 7 13
REMARK SMILES IDX 9 14 10 15 11 16 12 17 13 19 14 20 15 22 16 23 17 24 20 25
REMARK SMILES IDX 18 26 19 27 21 28 27 29 28 30 29 31 30 32 31 33 32 34 84 35
REMARK SMILES IDX 33 36 83 37 34 38 35 39 36 40 77 41 37 42 82 43 76 44 78 45
REMARK SMILES IDX 38 46 81 47 75 48 74 49 39 51 65 52 48 53 64 54 49 55 52 56
REMARK SMILES IDX 63 57 79 58 50 59 51 60 62 62 80 63 53 64 40 65 41 66 46 67
REMARK SMILES IDX 42 68 43 69 45 70 47 71 44 72 66 73 67 74 72 75 68 76 69 77
REMARK SMILES IDX 71 78 73 79 70 80 54 81 55 82 60 83 56 84 57 85 59 86 61 87
REMARK SMILES IDX 58 88
REMARK H PARENT 12 18 13 21 78 50 52 61
REMARK Flexibility Score: inf
ROOT
ATOM      1  C   UNL     1       2.133   1.649   2.914  1.00  0.00     0.274 C 
ENDROOT
BRANCH   1   2
ATOM      2  O   UNL     1       1.495   0.361   2.850  1.00  0.00    -0.462 OA
BRANCH   2   3
ATOM      3  C   UNL     1       1.879  -0.538   3.777  1.00  0.00     0.310 C 
ATOM      4  O   UNL     1       2.712  -0.306   4.647  1.00  0.00    -0.252 OA
BRANCH   3   5
ATOM      5  C   UNL     1       1.295  -1.934   3.622  1.00  0.00     0.119 C 
ATOM      6  C   UNL     1       1.280  -1.086  -0.850  1.00  0.00     0.039 C 
ATOM      7  C   UNL     1       0.468  -1.153   0.406  1.00  0.00    -0.077 C 
ATOM      8  C   UNL     1      -0.655  -0.143   0.496  1.00  0.00     0.039 C 
ATOM      9  C   UNL     1       0.705  -2.020   1.405  1.00  0.00    -0.064 C 
ATOM     10  C   UNL     1       0.040  -2.063   2.747  1.00  0.00     0.030 C 
ATOM     11  C   UNL     1       1.631  -3.207   1.602  1.00  0.00     0.029 C 
ATOM     12  C   UNL     1      -0.474  -3.513   2.744  1.00  0.00     0.009 C 
ATOM     13  C   UNL     1       0.512  -4.240   1.813  1.00  0.00     0.009 C 
ATOM     14  C   UNL     1       2.358  -2.813   2.924  1.00  0.00     0.102 C 
BRANCH  14  15
ATOM     15  C   UNL     1       2.792  -3.956   3.852  1.00  0.00     0.243 C 
ATOM     16  O   UNL     1       2.705  -5.142   3.535  1.00  0.00    -0.273 OA
ATOM     17  N   UNL     1       3.302  -3.674   5.101  1.00  0.00    -0.267 N 
ATOM     18  H   UNL     1       3.246  -4.383   5.782  1.00  0.00     0.191 HD
BRANCH  17  19
ATOM     19  N   UNL     1       3.890  -2.469   5.482  1.00  0.00    -0.263 N 
ATOM     20  C   UNL     1       4.376  -2.134   6.734  1.00  0.00     0.273 C 
ATOM     21  H   UNL     1       3.969  -1.780   4.783  1.00  0.00     0.191 HD
ATOM     22  O   UNL     1       4.716  -0.970   6.946  1.00  0.00    -0.267 OA
BRANCH  20  23
ATOM     23  C   UNL     1       4.435  -3.112   7.805  1.00  0.00     0.082 A 
ATOM     24  C   UNL     1       4.126  -2.839   9.176  1.00  0.00     0.056 A 
ATOM     25  C   UNL     1       4.915  -4.411   7.794  1.00  0.00     0.113 A 
ATOM     26  C   UNL     1       4.371  -3.991   9.877  1.00  0.00     0.196 A 
ATOM     27  O   UNL     1       4.839  -4.952   9.045  1.00  0.00    -0.469 OA
ATOM     28  C   UNL     1       5.525  -5.293   6.775  1.00  0.00     0.088 C 
ENDBRANCH  20  23
ENDBRANCH  17  19
ENDBRANCH  14  15
ENDBRANCH   3   5
ENDBRANCH   2   3
ENDBRANCH   1   2
BRANCH   1  29
ATOM     29  C   UNL     1       1.194   2.680   3.532  1.00  0.00     0.275 C 
BRANCH  29  30
ATOM     30  O   UNL     1       0.724   2.228   4.816  1.00  0.00    -0.458 OA
BRANCH  30  31
ATOM     31  C   UNL     1      -0.558   1.794   4.834  1.00  0.00     0.338 C 
ATOM     32  O   UNL     1      -1.369   1.815   3.926  1.00  0.00    -0.246 OA
BRANCH  31  33
ATOM     33  C   UNL     1      -0.848   1.158   6.125  1.00  0.00     0.060 A 
ATOM     34  C   UNL     1      -0.557  -0.198   6.270  1.00  0.00     0.016 A 
ATOM     35  C   UNL     1      -1.556   1.835   7.112  1.00  0.00     0.016 A 
ATOM     36  C   UNL     1      -0.999  -0.904   7.380  1.00  0.00     0.010 A 
ATOM     37  C   UNL     1      -1.975   1.136   8.249  1.00  0.00     0.010 A 
ATOM     38  C   UNL     1      -1.725  -0.244   8.375  1.00  0.00    -0.014 A 
BRANCH  38  39
ATOM     39  C   UNL     1      -2.311  -1.024   9.490  1.00  0.00     0.031 A 
ATOM     40  C   UNL     1      -3.803  -1.186   9.570  1.00  0.00     0.074 A 
ATOM     41  C   UNL     1      -1.514  -1.614  10.399  1.00  0.00     0.049 A 
ATOM     42  N   UNL     1      -4.532  -1.682  10.536  1.00  0.00    -0.248 NA
ATOM     43  C   UNL     1      -4.577  -0.722   8.407  1.00  0.00     0.031 C 
ATOM     44  C   UNL     1      -0.051  -1.596  10.382  1.00  0.00     0.029 A 
ATOM     45  N   UNL     1      -1.828  -2.343  11.517  1.00  0.00    -0.354 N 
ATOM     46  C   UNL     1      -5.851  -1.544  10.120  1.00  0.00     0.074 A 
ATOM     47  C   UNL     1      -5.822  -0.920   8.815  1.00  0.00     0.031 C 
ATOM     48  C   UNL     1       0.407  -2.286  11.439  1.00  0.00     0.029 A 
ATOM     49  C   UNL     1      -0.728  -2.735  12.239  1.00  0.00     0.049 A 
ATOM     50  H   UNL     1      -2.752  -2.564  11.776  1.00  0.00     0.167 HD
ATOM     51  C   UNL     1      -6.981  -1.903  10.774  1.00  0.00     0.037 A 
ATOM     52  C   UNL     1      -0.648  -3.350  13.434  1.00  0.00     0.037 A 
ATOM     53  C   UNL     1      -6.995  -2.556  12.057  1.00  0.00     0.049 A 
ATOM     54  C   UNL     1      -1.915  -3.705  14.159  1.00  0.00     0.074 A 
ATOM     55  C   UNL     1      -8.083  -2.951  12.815  1.00  0.00     0.029 A 
ATOM     56  N   UNL     1      -5.859  -2.925  12.763  1.00  0.00    -0.354 N 
ATOM     57  N   UNL     1      -3.159  -3.512  13.791  1.00  0.00    -0.248 NA
ATOM     58  C   UNL     1      -1.768  -4.355  15.468  1.00  0.00     0.031 C 
ATOM     59  C   UNL     1      -7.605  -3.535  13.994  1.00  0.00     0.029 A 
ATOM     60  C   UNL     1      -6.220  -3.541  13.950  1.00  0.00     0.049 A 
ATOM     61  H   UNL     1      -4.934  -2.772  12.465  1.00  0.00     0.167 HD
ATOM     62  C   UNL     1      -3.943  -4.034  14.811  1.00  0.00     0.074 A 
ATOM     63  C   UNL     1      -3.033  -4.565  15.806  1.00  0.00     0.031 C 
ATOM     64  C   UNL     1      -5.294  -4.070  14.918  1.00  0.00     0.037 A 
BRANCH  51  65
ATOM     65  C   UNL     1      -8.291  -1.556  10.130  1.00  0.00     0.057 A 
ATOM     66  C   UNL     1      -8.775  -2.240   9.008  1.00  0.00     0.134 A 
ATOM     67  C   UNL     1      -9.087  -0.529  10.654  1.00  0.00     0.134 A 
ATOM     68  F   UNL     1      -8.053  -3.221   8.446  1.00  0.00    -0.206 F 
ATOM     69  C   UNL     1      -9.994  -1.901   8.418  1.00  0.00     0.040 A 
ATOM     70  C   UNL     1     -10.318  -0.197  10.087  1.00  0.00     0.040 A 
ATOM     71  F   UNL     1      -8.683   0.166  11.728  1.00  0.00    -0.206 F 
ATOM     72  C   UNL     1     -10.772  -0.880   8.961  1.00  0.00     0.006 A 
ENDBRANCH  51  65
BRANCH  52  73
ATOM     73  C   UNL     1       0.680  -3.636  14.031  1.00  0.00     0.057 A 
ATOM     74  C   UNL     1       1.154  -4.947  14.150  1.00  0.00     0.134 A 
ATOM     75  C   UNL     1       1.509  -2.606  14.493  1.00  0.00     0.134 A 
ATOM     76  F   UNL     1       0.397  -5.977  13.745  1.00  0.00    -0.206 F 
ATOM     77  C   UNL     1       2.399  -5.225  14.716  1.00  0.00     0.040 A 
ATOM     78  C   UNL     1       2.766  -2.867  15.038  1.00  0.00     0.040 A 
ATOM     79  F   UNL     1       1.113  -1.327  14.405  1.00  0.00    -0.206 F 
ATOM     80  C   UNL     1       3.212  -4.182  15.156  1.00  0.00     0.006 A 
ENDBRANCH  52  73
BRANCH  64  81
ATOM     81  C   UNL     1      -5.859  -4.746  16.131  1.00  0.00     0.057 A 
ATOM     82  C   UNL     1      -5.821  -4.148  17.397  1.00  0.00     0.134 A 
ATOM     83  C   UNL     1      -6.462  -6.006  16.025  1.00  0.00     0.134 A 
ATOM     84  F   UNL     1      -5.244  -2.949  17.565  1.00  0.00    -0.206 F 
ATOM     85  C   UNL     1      -6.340  -4.793  18.521  1.00  0.00     0.040 A 
ATOM     86  C   UNL     1      -7.005  -6.649  17.137  1.00  0.00     0.040 A 
ATOM     87  F   UNL     1      -6.536  -6.628  14.838  1.00  0.00    -0.206 F 
ATOM     88  C   UNL     1      -6.937  -6.045  18.391  1.00  0.00     0.006 A 
ENDBRANCH  64  81
ENDBRANCH  38  39
ENDBRANCH  31  33
ENDBRANCH  30  31
ENDBRANCH  29  30
ENDBRANCH   1  29
TORSDOF 14
