REMARK SMILES O=C(OCCOC(=O)[C@@H]1[C@H](C(=O)Nc2ccccc2OC(F)F)[C@@H]2C=C[C@H]1C2)c1ccc(-c2c3nc(c(-c4c(F)cccc4F)c4ccc([nH]4)c(-c4c(F)cccc4F)c4nc(c(-c5c(F)cccc5F)c5ccc2[nH]5)C=C4)C=C3)cc1
REMARK SMILES IDX 5 1 4 2 3 3 2 4 1 5 29 6 30 7 82 8 31 9 81 10 32 11 33 12
REMARK SMILES IDX 34 13 75 14 35 15 80 16 74 17 76 18 36 19 79 20 73 21 72 22
REMARK SMILES IDX 37 24 63 25 46 26 62 27 47 28 50 29 61 30 77 31 48 32 49 33
REMARK SMILES IDX 60 35 78 36 51 37 38 38 39 39 44 40 40 41 41 42 43 43 45 44
REMARK SMILES IDX 42 45 64 46 65 47 70 48 66 49 67 50 69 51 71 52 68 53 52 54
REMARK SMILES IDX 53 55 58 56 54 57 55 58 57 59 59 60 56 61 6 62 7 63 8 64
REMARK SMILES IDX 9 65 10 66 27 67 24 68 26 69 28 70 25 71 11 72 12 73 13 74
REMARK SMILES IDX 14 76 15 77 19 78 16 79 18 80 17 81 20 82 21 83 22 84 23 85
REMARK H PARENT 76 23 50 34 13 75
REMARK Flexibility Score: inf
ROOT
ATOM      1  C   UNL     1       4.156  -2.626  -1.310  1.00  0.00     0.274 C 
ENDROOT
BRANCH   1   2
ATOM      2  C   UNL     1       4.745  -1.975   0.027  1.00  0.00     0.275 C 
BRANCH   2   3
ATOM      3  O   UNL     1       3.794  -1.363   0.868  1.00  0.00    -0.458 OA
BRANCH   3   4
ATOM      4  C   UNL     1       4.005  -0.044   1.210  1.00  0.00     0.338 C 
ATOM      5  O   UNL     1       4.280   0.192   2.382  1.00  0.00    -0.246 OA
BRANCH   4   6
ATOM      6  C   UNL     1       3.511   1.153  -0.047  1.00  0.00     0.060 A 
ATOM      7  C   UNL     1       5.029   1.406  -0.785  1.00  0.00     0.016 A 
ATOM      8  C   UNL     1       2.128   2.576  -0.074  1.00  0.00     0.016 A 
ATOM      9  C   UNL     1       5.293   2.659  -1.696  1.00  0.00     0.010 A 
ATOM     10  C   UNL     1       2.733   4.098  -0.945  1.00  0.00     0.010 A 
ATOM     11  C   UNL     1       4.233   3.945  -1.844  1.00  0.00    -0.014 A 
BRANCH  11  12
ATOM     12  C   UNL     1       4.730   4.876  -2.866  1.00  0.00     0.031 A 
ATOM     13  C   UNL     1       5.395   6.040  -2.261  1.00  0.00     0.074 A 
ATOM     14  C   UNL     1       4.782   4.599  -4.195  1.00  0.00     0.049 A 
ATOM     15  N   UNL     1       6.081   6.988  -2.811  1.00  0.00    -0.248 NA
ATOM     16  C   UNL     1       5.313   6.113  -0.799  1.00  0.00     0.031 C 
ATOM     17  C   UNL     1       4.347   3.375  -4.891  1.00  0.00     0.029 A 
ATOM     18  N   UNL     1       5.225   5.382  -5.237  1.00  0.00    -0.354 N 
ATOM     19  C   UNL     1       6.520   7.746  -1.740  1.00  0.00     0.074 A 
ATOM     20  C   UNL     1       6.046   7.160  -0.525  1.00  0.00     0.031 C 
ATOM     21  C   UNL     1       4.448   3.536  -6.224  1.00  0.00     0.029 A 
ATOM     22  C   UNL     1       4.960   4.867  -6.491  1.00  0.00     0.049 A 
ATOM     23  H   UNL     1       5.692   6.238  -5.100  1.00  0.00     0.167 HD
ATOM     24  C   UNL     1       7.201   8.899  -1.774  1.00  0.00     0.037 A 
ATOM     25  C   UNL     1       5.090   5.438  -7.707  1.00  0.00     0.037 A 
ATOM     26  C   UNL     1       7.425   9.573  -3.004  1.00  0.00     0.049 A 
ATOM     27  C   UNL     1       5.659   6.831  -7.732  1.00  0.00     0.074 A 
ATOM     28  C   UNL     1       7.953  10.823  -3.207  1.00  0.00     0.029 A 
ATOM     29  N   UNL     1       7.035   9.066  -4.239  1.00  0.00    -0.354 N 
ATOM     30  N   UNL     1       6.050   7.567  -6.716  1.00  0.00    -0.248 NA
ATOM     31  C   UNL     1       5.818   7.476  -9.040  1.00  0.00     0.031 C 
ATOM     32  C   UNL     1       7.793  11.116  -4.561  1.00  0.00     0.029 A 
ATOM     33  C   UNL     1       7.289   9.997  -5.216  1.00  0.00     0.049 A 
ATOM     34  H   UNL     1       6.638   8.178  -4.390  1.00  0.00     0.167 HD
ATOM     35  C   UNL     1       6.547   8.740  -7.258  1.00  0.00     0.074 A 
ATOM     36  C   UNL     1       6.391   8.623  -8.697  1.00  0.00     0.031 C 
ATOM     37  C   UNL     1       7.105   9.806  -6.633  1.00  0.00     0.037 A 
BRANCH  24  38
ATOM     38  C   UNL     1       7.477   9.509  -0.440  1.00  0.00     0.057 A 
ATOM     39  C   UNL     1       8.289   8.865   0.510  1.00  0.00     0.134 A 
ATOM     40  C   UNL     1       6.733  10.616  -0.020  1.00  0.00     0.134 A 
ATOM     41  F   UNL     1       8.943   7.736   0.193  1.00  0.00    -0.206 F 
ATOM     42  C   UNL     1       8.306   9.275   1.842  1.00  0.00     0.040 A 
ATOM     43  C   UNL     1       6.790  11.067   1.295  1.00  0.00     0.040 A 
ATOM     44  F   UNL     1       5.882  11.225  -0.859  1.00  0.00    -0.206 F 
ATOM     45  C   UNL     1       7.562  10.386   2.234  1.00  0.00     0.006 A 
ENDBRANCH  24  38
BRANCH  25  46
ATOM     46  C   UNL     1       4.656   4.738  -8.953  1.00  0.00     0.057 A 
ATOM     47  C   UNL     1       5.567   4.353  -9.946  1.00  0.00     0.134 A 
ATOM     48  C   UNL     1       3.306   4.440  -9.191  1.00  0.00     0.134 A 
ATOM     49  F   UNL     1       6.873   4.621  -9.803  1.00  0.00    -0.206 F 
ATOM     50  C   UNL     1       5.157   3.710 -11.120  1.00  0.00     0.040 A 
ATOM     51  C   UNL     1       2.884   3.775 -10.348  1.00  0.00     0.040 A 
ATOM     52  F   UNL     1       2.369   4.785  -8.295  1.00  0.00    -0.206 F 
ATOM     53  C   UNL     1       3.811   3.411 -11.321  1.00  0.00     0.006 A 
ENDBRANCH  25  46
BRANCH  37  54
ATOM     54  C   UNL     1       7.664  10.891  -7.490  1.00  0.00     0.057 A 
ATOM     55  C   UNL     1       6.850  11.788  -8.184  1.00  0.00     0.134 A 
ATOM     56  C   UNL     1       9.046  11.128  -7.466  1.00  0.00     0.134 A 
ATOM     57  F   UNL     1       5.521  11.612  -8.227  1.00  0.00    -0.206 F 
ATOM     58  C   UNL     1       7.397  12.886  -8.842  1.00  0.00     0.040 A 
ATOM     59  C   UNL     1       9.596  12.249  -8.074  1.00  0.00     0.040 A 
ATOM     60  F   UNL     1       9.867  10.313  -6.785  1.00  0.00    -0.206 F 
ATOM     61  C   UNL     1       8.770  13.128  -8.771  1.00  0.00     0.006 A 
ENDBRANCH  37  54
ENDBRANCH  11  12
ENDBRANCH   4   6
ENDBRANCH   3   4
ENDBRANCH   2   3
ENDBRANCH   1   2
BRANCH   1  62
ATOM     62  O   UNL     1       2.662  -2.269  -1.997  1.00  0.00    -0.462 OA
BRANCH  62  63
ATOM     63  C   UNL     1       1.725  -1.267  -2.607  1.00  0.00     0.310 C 
ATOM     64  O   UNL     1       0.776  -1.768  -3.224  1.00  0.00    -0.252 OA
BRANCH  63  65
ATOM     65  C   UNL     1       1.844   0.635  -2.550  1.00  0.00     0.119 C 
ATOM     66  C   UNL     1       2.806   2.166  -1.710  1.00  0.00     0.100 C 
ATOM     67  C   UNL     1       0.368   1.067  -2.928  1.00  0.00     0.027 C 
ATOM     68  C   UNL     1       1.081   2.990  -2.107  1.00  0.00     0.025 C 
ATOM     69  C   UNL     1      -0.522   1.343  -1.761  1.00  0.00    -0.027 C 
ATOM     70  C   UNL     1       0.569   2.474  -3.429  1.00  0.00     0.017 C 
ATOM     71  C   UNL     1      -0.141   2.522  -1.277  1.00  0.00    -0.027 C 
BRANCH  66  72
ATOM     72  C   UNL     1       3.869   2.917   0.141  1.00  0.00     0.229 C 
ATOM     73  O   UNL     1       4.862   3.571   0.496  1.00  0.00    -0.274 OA
ATOM     74  N   UNL     1       3.093   2.260   1.655  1.00  0.00    -0.323 N 
ATOM     75  H   UNL     1       3.359   2.613   2.535  1.00  0.00     0.170 HD
BRANCH  74  76
ATOM     76  C   UNL     1       1.861   0.990   1.551  1.00  0.00     0.084 A 
ATOM     77  C   UNL     1       0.933   0.978   2.578  1.00  0.00     0.030 A 
ATOM     78  C   UNL     1       1.639  -0.023   0.261  1.00  0.00     0.149 A 
ATOM     79  C   UNL     1      -0.175   0.126   2.433  1.00  0.00     0.002 A 
ATOM     80  C   UNL     1       0.511  -0.830   0.241  1.00  0.00     0.049 A 
ATOM     81  C   UNL     1      -0.384  -0.723   1.310  1.00  0.00     0.004 A 
BRANCH  78  82
ATOM     82  O   UNL     1       2.642  -0.463  -0.916  1.00  0.00    -0.433 OA
BRANCH  82  83
ATOM     83  C   UNL     1       3.967  -0.265  -2.165  1.00  0.00     0.542 C 
ATOM     84  F   UNL     1       3.798  -1.044  -3.298  1.00  0.00    -0.167 F 
ATOM     85  F   UNL     1       4.132   0.902  -2.821  1.00  0.00    -0.167 F 
ENDBRANCH  82  83
ENDBRANCH  78  82
ENDBRANCH  74  76
ENDBRANCH  66  72
ENDBRANCH  63  65
ENDBRANCH  62  63
ENDBRANCH   1  62
TORSDOF 15
