REMARK SMILES COc1ccc(NC(=O)[C@H](CC(=O)OCCOC(=O)c2ccc(-c3c4nc(c(-c5c(F)cccc5F)c5ccc([nH]5)c(-c5c(F)cccc5F)c5nc(c(-c6c(F)cccc6F)c6ccc3[nH]6)C=C5)C=C4)cc2)Cc2ccccc2)cc1
REMARK SMILES IDX 15 1 14 2 12 3 13 4 11 5 10 6 8 7 7 8 9 10 6 11 3 12 4 13
REMARK SMILES IDX 82 14 5 15 81 16 2 17 1 18 74 19 75 20 76 21 80 22 77 23
REMARK SMILES IDX 79 24 78 25 16 26 17 27 18 28 19 29 20 30 21 31 73 32 22 33
REMARK SMILES IDX 72 34 23 35 24 36 25 37 66 38 26 39 71 40 65 41 67 42 27 43
REMARK SMILES IDX 70 44 64 45 63 46 28 48 54 49 37 50 53 51 38 52 41 53 52 54
REMARK SMILES IDX 68 55 39 56 40 57 51 59 69 60 42 61 29 62 30 63 35 64 31 65
REMARK SMILES IDX 32 66 34 67 36 68 33 69 55 70 56 71 61 72 57 73 58 74 60 75
REMARK SMILES IDX 62 76 59 77 43 78 44 79 49 80 45 81 46 82 48 83 50 84 47 85
REMARK H PARENT 7 9 67 47 41 58
REMARK Flexibility Score: inf
ROOT
ATOM      1  C   UNL     1       1.810   5.886  -4.215  1.00  0.00     0.274 C 
ENDROOT
BRANCH   1   2
ATOM      2  O   UNL     1       0.975   5.410  -5.291  1.00  0.00    -0.462 OA
BRANCH   2   3
ATOM      3  C   UNL     1       1.417   4.327  -5.972  1.00  0.00     0.306 C 
ATOM      4  O   UNL     1       2.441   3.724  -5.695  1.00  0.00    -0.252 OA
BRANCH   3   5
ATOM      5  C   UNL     1       0.562   4.026  -7.181  1.00  0.00     0.136 C 
BRANCH   5   6
ATOM      6  C   UNL     1      -0.397   2.844  -7.109  1.00  0.00     0.094 C 
BRANCH   6   7
ATOM      7  C   UNL     1       0.024   1.359  -7.125  1.00  0.00     0.228 C 
ATOM      8  N   UNL     1       1.160   0.707  -7.440  1.00  0.00    -0.326 N 
ATOM      9  H   UNL     1       0.954  -0.249  -7.548  1.00  0.00     0.169 HD
ATOM     10  O   UNL     1      -0.883   0.538  -6.862  1.00  0.00    -0.274 OA
BRANCH   8  11
ATOM     11  C   UNL     1       2.531   0.897  -7.671  1.00  0.00     0.041 A 
ATOM     12  C   UNL     1       5.330   1.073  -7.372  1.00  0.00     0.119 A 
ATOM     13  C   UNL     1       4.576   2.206  -7.629  1.00  0.00     0.048 A 
ATOM     14  C   UNL     1       4.713  -0.170  -7.426  1.00  0.00     0.048 A 
ATOM     15  C   UNL     1       3.193   2.096  -7.843  1.00  0.00     0.030 A 
ATOM     16  C   UNL     1       3.324  -0.258  -7.575  1.00  0.00     0.030 A 
BRANCH  12  17
ATOM     17  O   UNL     1       6.610   1.077  -6.914  1.00  0.00    -0.497 OA
ATOM     18  C   UNL     1       7.513   1.994  -7.506  1.00  0.00     0.278 C 
ENDBRANCH  12  17
ENDBRANCH   8  11
ENDBRANCH   6   7
BRANCH   6  19
ATOM     19  C   UNL     1      -1.495   3.011  -5.995  1.00  0.00     0.049 C 
BRANCH  19  20
ATOM     20  C   UNL     1      -1.985   4.423  -5.751  1.00  0.00    -0.047 A 
ATOM     21  C   UNL     1      -1.905   4.970  -4.463  1.00  0.00     0.004 A 
ATOM     22  C   UNL     1      -2.421   5.236  -6.806  1.00  0.00     0.004 A 
ATOM     23  C   UNL     1      -2.100   6.338  -4.265  1.00  0.00     0.000 A 
ATOM     24  C   UNL     1      -2.601   6.605  -6.609  1.00  0.00     0.000 A 
ATOM     25  C   UNL     1      -2.413   7.160  -5.345  1.00  0.00     0.000 A 
ENDBRANCH  19  20
ENDBRANCH   6  19
ENDBRANCH   5   6
ENDBRANCH   3   5
ENDBRANCH   2   3
ENDBRANCH   1   2
BRANCH   1  26
ATOM     26  C   UNL     1       1.582   5.117  -2.911  1.00  0.00     0.275 C 
BRANCH  26  27
ATOM     27  O   UNL     1       2.344   3.896  -2.912  1.00  0.00    -0.458 OA
BRANCH  27  28
ATOM     28  C   UNL     1       1.705   2.776  -2.500  1.00  0.00     0.338 C 
ATOM     29  O   UNL     1       0.564   2.683  -2.086  1.00  0.00    -0.246 OA
BRANCH  28  30
ATOM     30  C   UNL     1       2.640   1.639  -2.599  1.00  0.00     0.060 A 
ATOM     31  C   UNL     1       3.049   1.204  -3.854  1.00  0.00     0.016 A 
ATOM     32  C   UNL     1       3.076   0.966  -1.454  1.00  0.00     0.016 A 
ATOM     33  C   UNL     1       3.908   0.117  -3.963  1.00  0.00     0.010 A 
ATOM     34  C   UNL     1       3.967  -0.116  -1.571  1.00  0.00     0.010 A 
ATOM     35  C   UNL     1       4.397  -0.545  -2.835  1.00  0.00    -0.014 A 
BRANCH  35  36
ATOM     36  C   UNL     1       5.299  -1.709  -3.046  1.00  0.00     0.031 A 
ATOM     37  C   UNL     1       4.780  -3.103  -2.851  1.00  0.00     0.074 A 
ATOM     38  C   UNL     1       6.529  -1.536  -3.570  1.00  0.00     0.049 A 
ATOM     39  N   UNL     1       5.419  -4.242  -2.934  1.00  0.00    -0.248 NA
ATOM     40  C   UNL     1       3.350  -3.231  -2.541  1.00  0.00     0.031 C 
ATOM     41  C   UNL     1       7.102  -0.248  -3.956  1.00  0.00     0.029 A 
ATOM     42  N   UNL     1       7.494  -2.448  -3.929  1.00  0.00    -0.354 N 
ATOM     43  C   UNL     1       4.484  -5.220  -2.624  1.00  0.00     0.074 A 
ATOM     44  C   UNL     1       3.225  -4.543  -2.393  1.00  0.00     0.031 C 
ATOM     45  C   UNL     1       8.277  -0.458  -4.571  1.00  0.00     0.029 A 
ATOM     46  C   UNL     1       8.586  -1.883  -4.547  1.00  0.00     0.049 A 
ATOM     47  H   UNL     1       7.411  -3.414  -3.759  1.00  0.00     0.167 HD
ATOM     48  C   UNL     1       4.672  -6.557  -2.512  1.00  0.00     0.037 A 
ATOM     49  C   UNL     1       9.713  -2.447  -5.024  1.00  0.00     0.037 A 
ATOM     50  C   UNL     1       5.923  -7.227  -2.759  1.00  0.00     0.049 A 
ATOM     51  C   UNL     1       9.927  -3.922  -4.818  1.00  0.00     0.074 A 
ATOM     52  C   UNL     1       6.245  -8.559  -2.570  1.00  0.00     0.029 A 
ATOM     53  N   UNL     1       7.057  -6.611  -3.268  1.00  0.00    -0.354 N 
ATOM     54  N   UNL     1       9.090  -4.827  -4.373  1.00  0.00    -0.248 NA
ATOM     55  C   UNL     1      11.267  -4.445  -5.129  1.00  0.00     0.031 C 
ATOM     56  C   UNL     1       7.586  -8.742  -2.931  1.00  0.00     0.029 A 
ATOM     57  C   UNL     1       8.085  -7.533  -3.386  1.00  0.00     0.049 A 
ATOM     58  H   UNL     1       7.122  -5.659  -3.511  1.00  0.00     0.167 HD
ATOM     59  C   UNL     1       9.802  -6.018  -4.335  1.00  0.00     0.074 A 
ATOM     60  C   UNL     1      11.126  -5.733  -4.847  1.00  0.00     0.031 C 
ATOM     61  C   UNL     1       9.401  -7.235  -3.891  1.00  0.00     0.037 A 
BRANCH  48  62
ATOM     62  C   UNL     1       3.516  -7.356  -1.992  1.00  0.00     0.057 A 
ATOM     63  C   UNL     1       2.397  -7.660  -2.774  1.00  0.00     0.134 A 
ATOM     64  C   UNL     1       3.520  -7.802  -0.663  1.00  0.00     0.134 A 
ATOM     65  F   UNL     1       2.322  -7.242  -4.046  1.00  0.00    -0.206 F 
ATOM     66  C   UNL     1       1.307  -8.355  -2.244  1.00  0.00     0.040 A 
ATOM     67  C   UNL     1       2.448  -8.517  -0.129  1.00  0.00     0.040 A 
ATOM     68  F   UNL     1       4.564  -7.543   0.139  1.00  0.00    -0.206 F 
ATOM     69  C   UNL     1       1.332  -8.787  -0.918  1.00  0.00     0.006 A 
ENDBRANCH  48  62
BRANCH  49  70
ATOM     70  C   UNL     1      10.757  -1.625  -5.694  1.00  0.00     0.057 A 
ATOM     71  C   UNL     1      11.095  -1.844  -7.036  1.00  0.00     0.134 A 
ATOM     72  C   UNL     1      11.471  -0.633  -5.010  1.00  0.00     0.134 A 
ATOM     73  F   UNL     1      10.477  -2.803  -7.741  1.00  0.00    -0.206 F 
ATOM     74  C   UNL     1      12.105  -1.114  -7.668  1.00  0.00     0.040 A 
ATOM     75  C   UNL     1      12.461   0.126  -5.637  1.00  0.00     0.040 A 
ATOM     76  F   UNL     1      11.214  -0.382  -3.717  1.00  0.00    -0.206 F 
ATOM     77  C   UNL     1      12.786  -0.119  -6.969  1.00  0.00     0.006 A 
ENDBRANCH  49  70
BRANCH  61  78
ATOM     78  C   UNL     1      10.410  -8.343  -3.936  1.00  0.00     0.057 A 
ATOM     79  C   UNL     1      11.477  -8.399  -3.029  1.00  0.00     0.134 A 
ATOM     80  C   UNL     1      10.300  -9.379  -4.871  1.00  0.00     0.134 A 
ATOM     81  F   UNL     1      11.647  -7.429  -2.118  1.00  0.00    -0.206 F 
ATOM     82  C   UNL     1      12.410  -9.437  -3.064  1.00  0.00     0.040 A 
ATOM     83  C   UNL     1      11.214 -10.434  -4.901  1.00  0.00     0.040 A 
ATOM     84  F   UNL     1       9.298  -9.387  -5.763  1.00  0.00    -0.206 F 
ATOM     85  C   UNL     1      12.275 -10.461  -3.998  1.00  0.00     0.006 A 
ENDBRANCH  61  78
ENDBRANCH  35  36
ENDBRANCH  28  30
ENDBRANCH  27  28
ENDBRANCH  26  27
ENDBRANCH   1  26
TORSDOF 17
