REMARK SMILES Cc1cc(OC(F)(F)F)cc2c1O[C@H](C(F)(F)F)C(C(=O)OCCOC(=O)c1ccc(-c3c4nc(c(-c5c(F)cccc5F)c5ccc([nH]5)c(-c5c(F)cccc5F)c5nc(c(-c6c(F)cccc6F)c6ccc3[nH]6)C=C5)C=C4)cc1)=C2
REMARK SMILES IDX 23 1 22 2 20 3 21 4 19 5 1 6 2 7 3 8 12 9 4 10 11 11 13 12
REMARK SMILES IDX 10 13 82 14 14 15 5 16 6 17 7 18 8 19 9 20 15 21 16 22 17 23
REMARK SMILES IDX 18 24 24 25 25 26 26 27 27 28 28 29 29 30 81 31 30 32 80 33
REMARK SMILES IDX 31 34 32 35 33 36 74 37 34 38 79 39 73 40 75 41 35 42 78 43
REMARK SMILES IDX 72 44 71 45 36 47 62 48 45 49 61 50 46 51 49 52 60 53 76 54
REMARK SMILES IDX 47 55 48 56 59 58 77 59 50 60 37 61 38 62 43 63 39 64 40 65
REMARK SMILES IDX 42 66 44 67 41 68 63 69 64 70 69 71 65 72 66 73 68 74 70 75
REMARK SMILES IDX 67 76 51 77 52 78 57 79 53 80 54 81 56 82 58 83 55 84
REMARK H PARENT 75 46 49 57
REMARK Flexibility Score: inf
ROOT
ATOM      1  C   UNL     1      -6.113   1.495   4.257  1.00  0.00     0.275 C 
ENDROOT
BRANCH   1   2
ATOM      2  O   UNL     1      -4.828   1.294   3.630  1.00  0.00    -0.459 OA
BRANCH   2   3
ATOM      3  C   UNL     1      -4.590   2.046   2.528  1.00  0.00     0.338 C 
ATOM      4  O   UNL     1      -5.348   2.843   2.010  1.00  0.00    -0.246 OA
BRANCH   3   5
ATOM      5  C   UNL     1      -3.221   1.794   2.032  1.00  0.00     0.087 C 
ATOM      6  C   UNL     1       1.030  -0.299   0.055  1.00  0.00     0.048 C 
ATOM      7  C   UNL     1       0.544   1.094   0.346  1.00  0.00    -0.005 A 
ATOM      8  C   UNL     1       1.321   2.195  -0.066  1.00  0.00     0.054 A 
ATOM      9  C   UNL     1      -0.705   1.315   0.946  1.00  0.00     0.131 A 
ATOM     10  C   UNL     1       0.878   3.501   0.144  1.00  0.00     0.130 A 
ATOM     11  C   UNL     1      -1.159   2.619   1.136  1.00  0.00     0.021 A 
ATOM     12  O   UNL     1      -1.420   0.215   1.332  1.00  0.00    -0.475 OA
ATOM     13  C   UNL     1      -0.362   3.704   0.751  1.00  0.00     0.058 A 
ATOM     14  C   UNL     1      -2.474   2.852   1.703  1.00  0.00     0.027 C 
ATOM     15  C   UNL     1      -2.778   0.375   1.823  1.00  0.00     0.316 C 
BRANCH  10  16
ATOM     16  O   UNL     1       1.533   4.651  -0.193  1.00  0.00    -0.406 OA
BRANCH  16  17
ATOM     17  C   UNL     1       2.750   4.538  -0.911  1.00  0.00     0.573 C 
ATOM     18  F   UNL     1       3.684   3.888  -0.185  1.00  0.00    -0.132 F 
ATOM     19  F   UNL     1       2.563   3.894  -2.083  1.00  0.00    -0.132 F 
ATOM     20  F   UNL     1       3.213   5.777  -1.182  1.00  0.00    -0.132 F 
ENDBRANCH  16  17
ENDBRANCH  10  16
BRANCH  15  21
ATOM     21  C   UNL     1      -3.728  -0.371   0.873  1.00  0.00     0.430 C 
ATOM     22  F   UNL     1      -3.317  -1.644   0.662  1.00  0.00    -0.167 F 
ATOM     23  F   UNL     1      -4.983  -0.450   1.378  1.00  0.00    -0.167 F 
ATOM     24  F   UNL     1      -3.818   0.233  -0.334  1.00  0.00    -0.167 F 
ENDBRANCH  15  21
ENDBRANCH   3   5
ENDBRANCH   2   3
ENDBRANCH   1   2
BRANCH   1  25
ATOM     25  C   UNL     1      -5.979   2.346   5.519  1.00  0.00     0.275 C 
BRANCH  25  26
ATOM     26  O   UNL     1      -5.570   3.682   5.173  1.00  0.00    -0.458 OA
BRANCH  26  27
ATOM     27  C   UNL     1      -4.279   3.975   5.439  1.00  0.00     0.338 C 
ATOM     28  O   UNL     1      -3.448   3.261   5.976  1.00  0.00    -0.246 OA
BRANCH  27  29
ATOM     29  C   UNL     1      -3.950   5.314   4.931  1.00  0.00     0.060 A 
ATOM     30  C   UNL     1      -3.977   5.547   3.558  1.00  0.00     0.016 A 
ATOM     31  C   UNL     1      -3.427   6.273   5.796  1.00  0.00     0.016 A 
ATOM     32  C   UNL     1      -3.339   6.666   3.031  1.00  0.00     0.010 A 
ATOM     33  C   UNL     1      -2.902   7.457   5.270  1.00  0.00     0.010 A 
ATOM     34  C   UNL     1      -2.793   7.638   3.879  1.00  0.00    -0.014 A 
BRANCH  34  35
ATOM     35  C   UNL     1      -2.053   8.805   3.325  1.00  0.00     0.031 A 
ATOM     36  C   UNL     1      -0.618   9.041   3.723  1.00  0.00     0.074 A 
ATOM     37  C   UNL     1      -2.648   9.648   2.458  1.00  0.00     0.049 A 
ATOM     38  N   UNL     1       0.141  10.089   3.521  1.00  0.00    -0.248 NA
ATOM     39  C   UNL     1       0.048   7.953   4.457  1.00  0.00     0.031 C 
ATOM     40  C   UNL     1      -4.005   9.506   1.927  1.00  0.00     0.029 A 
ATOM     41  N   UNL     1      -2.183  10.799   1.871  1.00  0.00    -0.354 N 
ATOM     42  C   UNL     1       1.351   9.808   4.145  1.00  0.00     0.074 A 
ATOM     43  C   UNL     1       1.220   8.499   4.748  1.00  0.00     0.031 C 
ATOM     44  C   UNL     1      -4.252  10.512   1.074  1.00  0.00     0.029 A 
ATOM     45  C   UNL     1      -3.111  11.419   1.071  1.00  0.00     0.049 A 
ATOM     46  H   UNL     1      -1.272  11.146   2.011  1.00  0.00     0.167 HD
ATOM     47  C   UNL     1       2.471  10.570   4.207  1.00  0.00     0.037 A 
ATOM     48  C   UNL     1      -3.071  12.610   0.446  1.00  0.00     0.037 A 
ATOM     49  C   UNL     1       2.607  11.858   3.576  1.00  0.00     0.049 A 
ATOM     50  C   UNL     1      -1.855  13.478   0.604  1.00  0.00     0.074 A 
ATOM     51  C   UNL     1       3.695  12.713   3.580  1.00  0.00     0.029 A 
ATOM     52  N   UNL     1       1.620  12.472   2.819  1.00  0.00    -0.354 N 
ATOM     53  N   UNL     1      -0.739  13.231   1.245  1.00  0.00    -0.248 NA
ATOM     54  C   UNL     1      -1.905  14.801  -0.032  1.00  0.00     0.031 C 
ATOM     55  C   UNL     1       3.351  13.863   2.861  1.00  0.00     0.029 A 
ATOM     56  C   UNL     1       2.067  13.703   2.366  1.00  0.00     0.049 A 
ATOM     57  H   UNL     1       0.733  12.089   2.630  1.00  0.00     0.167 HD
ATOM     58  C   UNL     1       0.057  14.356   1.068  1.00  0.00     0.074 A 
ATOM     59  C   UNL     1      -0.701  15.278   0.247  1.00  0.00     0.031 C 
ATOM     60  C   UNL     1       1.301  14.605   1.544  1.00  0.00     0.037 A 
BRANCH  47  61
ATOM     61  C   UNL     1       3.620  10.042   5.019  1.00  0.00     0.057 A 
ATOM     62  C   UNL     1       3.968  10.649   6.234  1.00  0.00     0.134 A 
ATOM     63  C   UNL     1       4.384   8.942   4.608  1.00  0.00     0.134 A 
ATOM     64  F   UNL     1       3.285  11.711   6.686  1.00  0.00    -0.206 F 
ATOM     65  C   UNL     1       5.028  10.177   7.011  1.00  0.00     0.040 A 
ATOM     66  C   UNL     1       5.428   8.442   5.392  1.00  0.00     0.040 A 
ATOM     67  F   UNL     1       4.097   8.304   3.464  1.00  0.00    -0.206 F 
ATOM     68  C   UNL     1       5.754   9.063   6.596  1.00  0.00     0.006 A 
ENDBRANCH  47  61
BRANCH  48  69
ATOM     69  C   UNL     1      -4.236  13.078  -0.348  1.00  0.00     0.057 A 
ATOM     70  C   UNL     1      -5.454  13.408   0.261  1.00  0.00     0.134 A 
ATOM     71  C   UNL     1      -4.149  13.228  -1.736  1.00  0.00     0.134 A 
ATOM     72  F   UNL     1      -5.604  13.285   1.588  1.00  0.00    -0.206 F 
ATOM     73  C   UNL     1      -6.545  13.859  -0.482  1.00  0.00     0.040 A 
ATOM     74  C   UNL     1      -5.223  13.707  -2.489  1.00  0.00     0.040 A 
ATOM     75  F   UNL     1      -3.003  12.951  -2.374  1.00  0.00    -0.206 F 
ATOM     76  C   UNL     1      -6.428  14.019  -1.861  1.00  0.00     0.006 A 
ENDBRANCH  48  69
BRANCH  60  77
ATOM     77  C   UNL     1       1.932  15.907   1.145  1.00  0.00     0.057 A 
ATOM     78  C   UNL     1       2.992  15.931   0.230  1.00  0.00     0.134 A 
ATOM     79  C   UNL     1       1.499  17.132   1.667  1.00  0.00     0.134 A 
ATOM     80  F   UNL     1       3.459  14.792  -0.303  1.00  0.00    -0.206 F 
ATOM     81  C   UNL     1       3.599  17.128  -0.151  1.00  0.00     0.040 A 
ATOM     82  C   UNL     1       2.079  18.339   1.272  1.00  0.00     0.040 A 
ATOM     83  F   UNL     1       0.476  17.179   2.534  1.00  0.00    -0.206 F 
ATOM     84  C   UNL     1       3.136  18.338   0.363  1.00  0.00     0.006 A 
ENDBRANCH  60  77
ENDBRANCH  34  35
ENDBRANCH  27  29
ENDBRANCH  26  27
ENDBRANCH  25  26
ENDBRANCH   1  25
TORSDOF 14
