REMARK SMILES C[C@@H]1CCC[C@H](C)[N@H+]1Cc1cc2c(cc1Cl)C=C(C(=O)OCCOC(=O)c1ccc(-c3c4nc(c(-c5c(F)cccc5F)c5ccc([nH]5)c(-c5c(F)cccc5F)c5nc(c(-c6c(F)cccc6F)c6ccc3[nH]6)C=C5)C=C4)cc1)[C@@H](C(F)(F)F)O2
REMARK SMILES IDX 22 1 21 2 19 3 20 4 18 5 10 6 11 7 15 8 12 9 14 10 16 11
REMARK SMILES IDX 13 12 86 13 17 14 81 15 9 16 8 17 7 18 6 19 5 20 4 21 2 22
REMARK SMILES IDX 3 24 1 25 82 26 83 27 84 28 85 29 23 30 24 31 25 32 26 33
REMARK SMILES IDX 27 34 28 35 80 36 29 37 79 38 30 39 31 40 32 41 73 42 33 43
REMARK SMILES IDX 78 44 72 45 74 46 34 47 77 48 71 49 70 50 35 52 61 53 44 54
REMARK SMILES IDX 60 55 45 56 48 57 59 58 75 59 46 60 47 61 58 63 76 64 49 65
REMARK SMILES IDX 36 66 37 67 42 68 38 69 39 70 41 71 43 72 40 73 62 74 63 75
REMARK SMILES IDX 68 76 64 77 65 78 67 79 69 80 66 81 50 82 51 83 56 84 52 85
REMARK SMILES IDX 53 86 55 87 57 88 54 89
REMARK H PARENT 8 23 74 51 48 62
REMARK Flexibility Score: inf
ROOT
ATOM      1  C   UNL     1      -7.194   7.306  -1.768  1.00  0.00     0.275 C 
ENDROOT
BRANCH   1   2
ATOM      2  O   UNL     1      -6.189   6.334  -2.133  1.00  0.00    -0.459 OA
BRANCH   2   3
ATOM      3  C   UNL     1      -5.014   6.860  -2.562  1.00  0.00     0.338 C 
ATOM      4  O   UNL     1      -4.738   8.043  -2.619  1.00  0.00    -0.246 OA
BRANCH   3   5
ATOM      5  C   UNL     1      -4.044   5.795  -2.903  1.00  0.00     0.087 C 
ATOM      6  C   UNL     1       0.156   3.032  -3.237  1.00  0.00     0.029 A 
ATOM      7  C   UNL     1      -1.223   2.751  -3.372  1.00  0.00     0.058 A 
ATOM      8  C   UNL     1       0.546   4.380  -3.184  1.00  0.00     0.050 A 
ATOM      9  C   UNL     1      -2.179   3.769  -3.299  1.00  0.00     0.128 A 
ATOM     10  C   UNL     1      -0.409   5.391  -3.066  1.00  0.00     0.033 A 
ATOM     11  Cl  UNL     1       2.195   4.891  -3.252  1.00  0.00    -0.084 Cl
ATOM     12  C   UNL     1      -1.768   5.081  -3.083  1.00  0.00     0.019 A 
ATOM     13  O   UNL     1      -3.498   3.405  -3.362  1.00  0.00    -0.475 OA
ATOM     14  C   UNL     1      -2.748   6.109  -2.795  1.00  0.00     0.027 C 
ATOM     15  C   UNL     1      -4.491   4.472  -3.463  1.00  0.00     0.316 C 
BRANCH   6  16
ATOM     16  C   UNL     1       1.141   1.886  -3.087  1.00  0.00     0.301 C 
BRANCH  16  17
ATOM     17  N   UNL     1       1.383   1.378  -1.717  1.00  0.00    -0.327 N 
ATOM     18  C   UNL     1       0.788  -0.611  -0.369  1.00  0.00     0.075 C 
ATOM     19  C   UNL     1       0.270   0.628  -1.119  1.00  0.00     0.181 C 
ATOM     20  C   UNL     1      -0.640   1.467  -0.207  1.00  0.00     0.065 C 
ATOM     21  C   UNL     1       0.131   2.327   0.787  1.00  0.00     0.012 C 
ATOM     22  C   UNL     1       2.113   2.293  -0.824  1.00  0.00     0.181 C 
ATOM     23  H   UNL     1       2.074   0.641  -1.861  1.00  0.00     0.348 HD
ATOM     24  C   UNL     1       1.206   3.143   0.082  1.00  0.00     0.065 C 
ATOM     25  C   UNL     1       3.171   1.552   0.007  1.00  0.00     0.075 C 
ENDBRANCH  16  17
ENDBRANCH   6  16
BRANCH  15  26
ATOM     26  C   UNL     1      -4.929   4.664  -4.926  1.00  0.00     0.430 C 
ATOM     27  F   UNL     1      -5.322   3.500  -5.492  1.00  0.00    -0.167 F 
ATOM     28  F   UNL     1      -5.980   5.517  -5.012  1.00  0.00    -0.167 F 
ATOM     29  F   UNL     1      -3.938   5.175  -5.694  1.00  0.00    -0.167 F 
ENDBRANCH  15  26
ENDBRANCH   3   5
ENDBRANCH   2   3
ENDBRANCH   1   2
BRANCH   1  30
ATOM     30  C   UNL     1      -7.291   7.505  -0.253  1.00  0.00     0.275 C 
BRANCH  30  31
ATOM     31  O   UNL     1      -6.072   8.057   0.279  1.00  0.00    -0.458 OA
BRANCH  31  32
ATOM     32  C   UNL     1      -5.339   7.224   1.050  1.00  0.00     0.338 C 
ATOM     33  O   UNL     1      -5.598   6.068   1.358  1.00  0.00    -0.246 OA
BRANCH  32  34
ATOM     34  C   UNL     1      -4.074   7.875   1.411  1.00  0.00     0.060 A 
ATOM     35  C   UNL     1      -3.893   8.489   2.647  1.00  0.00     0.016 A 
ATOM     36  C   UNL     1      -3.005   7.751   0.526  1.00  0.00     0.016 A 
ATOM     37  C   UNL     1      -2.632   9.010   2.973  1.00  0.00     0.010 A 
ATOM     38  C   UNL     1      -1.739   8.215   0.874  1.00  0.00     0.010 A 
ATOM     39  C   UNL     1      -1.537   8.869   2.095  1.00  0.00    -0.014 A 
BRANCH  39  40
ATOM     40  C   UNL     1      -0.182   9.372   2.461  1.00  0.00     0.031 A 
ATOM     41  C   UNL     1       0.512  10.423   1.629  1.00  0.00     0.074 A 
ATOM     42  C   UNL     1       0.459   8.846   3.525  1.00  0.00     0.049 A 
ATOM     43  N   UNL     1       1.673  11.000   1.825  1.00  0.00    -0.248 NA
ATOM     44  C   UNL     1      -0.166  10.855   0.398  1.00  0.00     0.031 C 
ATOM     45  C   UNL     1      -0.040   7.748   4.355  1.00  0.00     0.029 A 
ATOM     46  N   UNL     1       1.664   9.172   4.097  1.00  0.00    -0.354 N 
ATOM     47  C   UNL     1       1.869  11.843   0.736  1.00  0.00     0.074 A 
ATOM     48  C   UNL     1       0.740  11.653  -0.148  1.00  0.00     0.031 C 
ATOM     49  C   UNL     1       0.817   7.537   5.367  1.00  0.00     0.029 A 
ATOM     50  C   UNL     1       1.936   8.466   5.245  1.00  0.00     0.049 A 
ATOM     51  H   UNL     1       2.275   9.846   3.721  1.00  0.00     0.167 HD
ATOM     52  C   UNL     1       2.875  12.723   0.506  1.00  0.00     0.037 A 
ATOM     53  C   UNL     1       2.957   8.573   6.115  1.00  0.00     0.037 A 
ATOM     54  C   UNL     1       3.976  12.950   1.406  1.00  0.00     0.049 A 
ATOM     55  C   UNL     1       4.026   9.602   5.878  1.00  0.00     0.074 A 
ATOM     56  C   UNL     1       4.998  13.879   1.307  1.00  0.00     0.029 A 
ATOM     57  N   UNL     1       4.196  12.240   2.576  1.00  0.00    -0.354 N 
ATOM     58  N   UNL     1       4.142  10.464   4.897  1.00  0.00    -0.248 NA
ATOM     59  C   UNL     1       5.102   9.680   6.877  1.00  0.00     0.031 C 
ATOM     60  C   UNL     1       5.849  13.715   2.406  1.00  0.00     0.029 A 
ATOM     61  C   UNL     1       5.339  12.705   3.205  1.00  0.00     0.049 A 
ATOM     62  H   UNL     1       3.623  11.512   2.911  1.00  0.00     0.167 HD
ATOM     63  C   UNL     1       5.288  11.199   5.172  1.00  0.00     0.074 A 
ATOM     64  C   UNL     1       5.819  10.697   6.422  1.00  0.00     0.031 C 
ATOM     65  C   UNL     1       5.852  12.199   4.451  1.00  0.00     0.037 A 
BRANCH  52  66
ATOM     66  C   UNL     1       2.811  13.530  -0.760  1.00  0.00     0.057 A 
ATOM     67  C   UNL     1       3.730  13.323  -1.796  1.00  0.00     0.134 A 
ATOM     68  C   UNL     1       1.845  14.529  -0.946  1.00  0.00     0.134 A 
ATOM     69  F   UNL     1       4.690  12.392  -1.681  1.00  0.00    -0.206 F 
ATOM     70  C   UNL     1       3.685  14.073  -2.973  1.00  0.00     0.040 A 
ATOM     71  C   UNL     1       1.772  15.266  -2.129  1.00  0.00     0.040 A 
ATOM     72  F   UNL     1       0.930  14.775   0.004  1.00  0.00    -0.206 F 
ATOM     73  C   UNL     1       2.697  15.041  -3.146  1.00  0.00     0.006 A 
ENDBRANCH  52  66
BRANCH  53  74
ATOM     74  C   UNL     1       2.985   7.731   7.337  1.00  0.00     0.057 A 
ATOM     75  C   UNL     1       3.268   6.362   7.282  1.00  0.00     0.134 A 
ATOM     76  C   UNL     1       2.739   8.290   8.597  1.00  0.00     0.134 A 
ATOM     77  F   UNL     1       3.505   5.766   6.105  1.00  0.00    -0.206 F 
ATOM     78  C   UNL     1       3.305   5.579   8.437  1.00  0.00     0.040 A 
ATOM     79  C   UNL     1       2.795   7.524   9.761  1.00  0.00     0.040 A 
ATOM     80  F   UNL     1       2.479   9.601   8.713  1.00  0.00    -0.206 F 
ATOM     81  C   UNL     1       3.075   6.162   9.682  1.00  0.00     0.006 A 
ENDBRANCH  53  74
BRANCH  65  82
ATOM     82  C   UNL     1       7.092  12.828   5.014  1.00  0.00     0.057 A 
ATOM     83  C   UNL     1       7.054  14.117   5.559  1.00  0.00     0.134 A 
ATOM     84  C   UNL     1       8.325  12.165   5.001  1.00  0.00     0.134 A 
ATOM     85  F   UNL     1       5.904  14.808   5.596  1.00  0.00    -0.206 F 
ATOM     86  C   UNL     1       8.200  14.724   6.074  1.00  0.00     0.040 A 
ATOM     87  C   UNL     1       9.473  12.752   5.534  1.00  0.00     0.040 A 
ATOM     88  F   UNL     1       8.424  10.922   4.506  1.00  0.00    -0.206 F 
ATOM     89  C   UNL     1       9.413  14.038   6.068  1.00  0.00     0.006 A 
ENDBRANCH  65  82
ENDBRANCH  39  40
ENDBRANCH  32  34
ENDBRANCH  31  32
ENDBRANCH  30  31
ENDBRANCH   1  30
TORSDOF 14
