REMARK SMILES C[C@@H](C(=O)OCCOC(=O)c1ccc(-c2c3nc(c(-c4c(F)cccc4F)c4ccc([nH]4)c(-c4c(F)cccc4F)c4nc(c(-c5c(F)cccc5F)c5ccc2[nH]5)C=C4)C=C3)cc1)c1ccc(C[C@H]2CCC[C@@H]2O)cc1F
REMARK SMILES IDX 6 1 5 2 3 3 4 4 2 5 1 6 65 7 66 8 77 9 67 10 76 11 78 12
REMARK SMILES IDX 68 13 69 14 70 15 71 16 74 17 72 18 73 19 75 20 7 22 8 23
REMARK SMILES IDX 9 24 10 25 11 26 12 27 64 28 13 29 63 30 14 31 15 32 16 33
REMARK SMILES IDX 57 34 17 35 62 36 56 37 58 38 18 39 61 40 55 41 54 42 19 44
REMARK SMILES IDX 45 45 28 46 44 47 29 48 32 49 43 50 59 51 30 52 31 53 42 55
REMARK SMILES IDX 60 56 33 57 20 58 21 59 26 60 22 61 23 62 25 63 27 64 24 65
REMARK SMILES IDX 46 66 47 67 52 68 48 69 49 70 51 71 53 72 50 73 34 74 35 75
REMARK SMILES IDX 40 76 36 77 37 78 39 79 41 80 38 81
REMARK H PARENT 75 21 58 43 32 54
REMARK Flexibility Score: inf
ROOT
ATOM      1  C   UNL     1       2.213   2.775   2.112  1.00  0.00     0.274 C 
ENDROOT
BRANCH   1   2
ATOM      2  O   UNL     1       1.880   1.566   1.400  1.00  0.00    -0.462 OA
BRANCH   2   3
ATOM      3  C   UNL     1       1.688   0.450   2.162  1.00  0.00     0.313 C 
ATOM      4  O   UNL     1       1.819   0.415   3.380  1.00  0.00    -0.252 OA
BRANCH   3   5
ATOM      5  C   UNL     1       1.192  -0.735   1.321  1.00  0.00     0.129 C 
ATOM      6  C   UNL     1       1.698  -0.689  -0.122  1.00  0.00     0.025 C 
BRANCH   5   7
ATOM      7  C   UNL     1      -0.318  -0.830   1.410  1.00  0.00     0.002 A 
ATOM      8  C   UNL     1      -1.115   0.229   0.977  1.00  0.00     0.008 A 
ATOM      9  C   UNL     1      -0.951  -1.915   2.027  1.00  0.00     0.127 A 
ATOM     10  C   UNL     1      -2.473   0.248   1.280  1.00  0.00     0.004 A 
ATOM     11  C   UNL     1      -2.309  -1.879   2.360  1.00  0.00     0.043 A 
ATOM     12  F   UNL     1      -0.240  -3.006   2.347  1.00  0.00    -0.207 F 
ATOM     13  C   UNL     1      -3.067  -0.748   2.059  1.00  0.00    -0.045 A 
BRANCH  13  14
ATOM     14  C   UNL     1      -4.467  -0.531   2.574  1.00  0.00     0.041 C 
BRANCH  14  15
ATOM     15  C   UNL     1      -4.617   0.236   3.914  1.00  0.00     0.022 C 
ATOM     16  C   UNL     1      -4.915  -0.685   5.109  1.00  0.00     0.007 C 
ATOM     17  C   UNL     1      -3.457   1.087   4.450  1.00  0.00     0.117 C 
ATOM     18  C   UNL     1      -4.460   0.072   6.364  1.00  0.00     0.003 C 
ATOM     19  C   UNL     1      -3.907   1.395   5.872  1.00  0.00     0.032 C 
BRANCH  17  20
ATOM     20  O   UNL     1      -3.269   2.298   3.758  1.00  0.00    -0.393 OA
ATOM     21  H   UNL     1      -4.082   2.825   3.802  1.00  0.00     0.210 HD
ENDBRANCH  17  20
ENDBRANCH  14  15
ENDBRANCH  13  14
ENDBRANCH   5   7
ENDBRANCH   3   5
ENDBRANCH   2   3
ENDBRANCH   1   2
BRANCH   1  22
ATOM     22  C   UNL     1       1.822   3.974   1.243  1.00  0.00     0.275 C 
BRANCH  22  23
ATOM     23  O   UNL     1       0.387   4.087   1.255  1.00  0.00    -0.458 OA
BRANCH  23  24
ATOM     24  C   UNL     1      -0.181   4.850   0.286  1.00  0.00     0.338 C 
ATOM     25  O   UNL     1       0.407   5.475  -0.579  1.00  0.00    -0.246 OA
BRANCH  24  26
ATOM     26  C   UNL     1      -1.665   4.802   0.422  1.00  0.00     0.060 A 
ATOM     27  C   UNL     1      -2.263   3.773   1.138  1.00  0.00     0.016 A 
ATOM     28  C   UNL     1      -2.490   5.743  -0.213  1.00  0.00     0.016 A 
ATOM     29  C   UNL     1      -3.649   3.651   1.162  1.00  0.00     0.010 A 
ATOM     30  C   UNL     1      -3.897   5.652  -0.117  1.00  0.00     0.010 A 
ATOM     31  C   UNL     1      -4.492   4.589   0.572  1.00  0.00    -0.014 A 
BRANCH  31  32
ATOM     32  C   UNL     1      -5.953   4.298   0.631  1.00  0.00     0.031 A 
ATOM     33  C   UNL     1      -6.676   3.876  -0.612  1.00  0.00     0.074 A 
ATOM     34  C   UNL     1      -6.585   4.162   1.819  1.00  0.00     0.049 A 
ATOM     35  N   UNL     1      -7.954   3.658  -0.781  1.00  0.00    -0.248 NA
ATOM     36  C   UNL     1      -5.861   3.665  -1.817  1.00  0.00     0.031 C 
ATOM     37  C   UNL     1      -5.975   4.392   3.127  1.00  0.00     0.029 A 
ATOM     38  N   UNL     1      -7.843   3.698   2.125  1.00  0.00    -0.354 N 
ATOM     39  C   UNL     1      -8.114   3.421  -2.138  1.00  0.00     0.074 A 
ATOM     40  C   UNL     1      -6.792   3.409  -2.726  1.00  0.00     0.031 C 
ATOM     41  C   UNL     1      -6.792   3.919   4.084  1.00  0.00     0.029 A 
ATOM     42  C   UNL     1      -8.042   3.478   3.470  1.00  0.00     0.049 A 
ATOM     43  H   UNL     1      -8.537   3.538   1.446  1.00  0.00     0.167 HD
ATOM     44  C   UNL     1      -9.274   3.309  -2.826  1.00  0.00     0.037 A 
ATOM     45  C   UNL     1      -9.120   3.003   4.129  1.00  0.00     0.037 A 
ATOM     46  C   UNL     1     -10.573   3.266  -2.208  1.00  0.00     0.049 A 
ATOM     47  C   UNL     1     -10.400   2.814   3.355  1.00  0.00     0.074 A 
ATOM     48  C   UNL     1     -11.824   3.309  -2.797  1.00  0.00     0.029 A 
ATOM     49  N   UNL     1     -10.780   3.128  -0.844  1.00  0.00    -0.354 N 
ATOM     50  N   UNL     1     -10.598   2.870   2.060  1.00  0.00    -0.248 NA
ATOM     51  C   UNL     1     -11.623   2.591   4.141  1.00  0.00     0.031 C 
ATOM     52  C   UNL     1     -12.789   3.217  -1.784  1.00  0.00     0.029 A 
ATOM     53  C   UNL     1     -12.135   3.076  -0.570  1.00  0.00     0.049 A 
ATOM     54  H   UNL     1     -10.066   3.075  -0.168  1.00  0.00     0.167 HD
ATOM     55  C   UNL     1     -11.972   2.765   1.883  1.00  0.00     0.074 A 
ATOM     56  C   UNL     1     -12.550   2.549   3.193  1.00  0.00     0.031 C 
ATOM     57  C   UNL     1     -12.694   2.891   0.743  1.00  0.00     0.037 A 
BRANCH  44  58
ATOM     58  C   UNL     1      -9.178   3.410  -4.316  1.00  0.00     0.057 A 
ATOM     59  C   UNL     1      -8.746   2.361  -5.131  1.00  0.00     0.134 A 
ATOM     60  C   UNL     1      -9.494   4.628  -4.936  1.00  0.00     0.134 A 
ATOM     61  F   UNL     1      -8.395   1.182  -4.595  1.00  0.00    -0.206 F 
ATOM     62  C   UNL     1      -8.611   2.526  -6.512  1.00  0.00     0.040 A 
ATOM     63  C   UNL     1      -9.384   4.798  -6.315  1.00  0.00     0.040 A 
ATOM     64  F   UNL     1      -9.905   5.676  -4.206  1.00  0.00    -0.206 F 
ATOM     65  C   UNL     1      -8.933   3.746  -7.107  1.00  0.00     0.006 A 
ENDBRANCH  44  58
BRANCH  45  66
ATOM     66  C   UNL     1      -9.095   2.756   5.598  1.00  0.00     0.057 A 
ATOM     67  C   UNL     1      -9.315   1.470   6.112  1.00  0.00     0.134 A 
ATOM     68  C   UNL     1      -8.905   3.787   6.525  1.00  0.00     0.134 A 
ATOM     69  F   UNL     1      -9.545   0.442   5.283  1.00  0.00    -0.206 F 
ATOM     70  C   UNL     1      -9.350   1.223   7.488  1.00  0.00     0.040 A 
ATOM     71  C   UNL     1      -8.901   3.549   7.902  1.00  0.00     0.040 A 
ATOM     72  F   UNL     1      -8.715   5.047   6.109  1.00  0.00    -0.206 F 
ATOM     73  C   UNL     1      -9.131   2.264   8.387  1.00  0.00     0.006 A 
ENDBRANCH  45  66
BRANCH  57  74
ATOM     74  C   UNL     1     -14.186   2.855   0.879  1.00  0.00     0.057 A 
ATOM     75  C   UNL     1     -14.893   3.949   1.398  1.00  0.00     0.134 A 
ATOM     76  C   UNL     1     -14.923   1.740   0.469  1.00  0.00     0.134 A 
ATOM     77  F   UNL     1     -14.240   5.042   1.820  1.00  0.00    -0.206 F 
ATOM     78  C   UNL     1     -16.282   3.925   1.522  1.00  0.00     0.040 A 
ATOM     79  C   UNL     1     -16.315   1.712   0.571  1.00  0.00     0.040 A 
ATOM     80  F   UNL     1     -14.305   0.664  -0.040  1.00  0.00    -0.206 F 
ATOM     81  C   UNL     1     -16.997   2.805   1.103  1.00  0.00     0.006 A 
ENDBRANCH  57  74
ENDBRANCH  31  32
ENDBRANCH  24  26
ENDBRANCH  23  24
ENDBRANCH  22  23
ENDBRANCH   1  22
TORSDOF 15
