REMARK SMILES O=C(CSc1nc(O)cc(=O)[nH]1)Nc1cccc(C(=O)OCCOC(=O)c2ccc(-c3c4nc(c(-c5c(F)cccc5F)c5ccc([nH]5)c(-c5c(F)cccc5F)c5nc(c(-c6c(F)cccc6F)c6ccc3[nH]6)C=C5)C=C4)cc2)c1
REMARK SMILES IDX 21 1 19 2 20 3 18 4 14 5 15 6 81 7 16 8 17 9 13 10 1 11 2 12
REMARK SMILES IDX 3 14 4 15 5 16 6 17 12 18 7 19 10 20 9 22 11 23 8 24 22 26
REMARK SMILES IDX 23 27 24 28 25 29 26 30 27 31 28 32 80 33 29 34 79 35 30 36
REMARK SMILES IDX 31 37 32 38 73 39 33 40 78 41 72 42 74 43 34 44 77 45 71 46
REMARK SMILES IDX 70 47 35 49 61 50 44 51 60 52 45 53 48 54 59 55 75 56 46 57
REMARK SMILES IDX 47 58 58 60 76 61 49 62 36 63 37 64 42 65 38 66 39 67 41 68
REMARK SMILES IDX 43 69 40 70 62 71 63 72 68 73 64 74 65 75 67 76 69 77 66 78
REMARK SMILES IDX 50 79 51 80 56 81 52 82 53 83 55 84 57 85 54 86
REMARK H PARENT 13 13 12 21 8 25 74 48 48 59
REMARK Flexibility Score: inf
ROOT
ATOM      1  O   UNL     1      -0.838   1.245   3.718  1.00  0.00    -0.458 OA
ENDROOT
BRANCH   1   2
ATOM      2  C   UNL     1      -0.796   2.477   3.152  1.00  0.00     0.338 C 
ATOM      3  O   UNL     1      -1.603   3.379   3.307  1.00  0.00    -0.246 OA
BRANCH   2   4
ATOM      4  C   UNL     1       0.471   2.650   2.399  1.00  0.00     0.062 A 
ATOM      5  C   UNL     1       2.282   1.784   1.047  1.00  0.00     0.042 A 
ATOM      6  C   UNL     1       2.922   3.027   1.123  1.00  0.00     0.026 A 
ATOM      7  C   UNL     1       1.076   1.585   1.724  1.00  0.00     0.041 A 
ATOM      8  C   UNL     1       2.305   4.099   1.765  1.00  0.00     0.003 A 
ATOM      9  C   UNL     1       1.062   3.919   2.365  1.00  0.00     0.016 A 
BRANCH   5  10
ATOM     10  N   UNL     1       2.894   0.799   0.250  1.00  0.00    -0.325 N 
ATOM     11  O   UNL     1       1.079  -0.588  -0.191  1.00  0.00    -0.274 OA
ATOM     12  C   UNL     1       2.268  -0.300  -0.308  1.00  0.00     0.234 C 
ATOM     13  H   UNL     1       3.857   0.901   0.074  1.00  0.00     0.169 HD
BRANCH  12  14
ATOM     14  C   UNL     1       3.189  -1.212  -1.096  1.00  0.00     0.178 C 
BRANCH  14  15
ATOM     15  S   UNL     1       4.326  -0.332  -2.198  1.00  0.00    -0.078 SA
BRANCH  15  16
ATOM     16  C   UNL     1       3.226   0.658  -3.108  1.00  0.00     0.172 A 
ATOM     17  N   UNL     1       3.307   1.944  -3.036  1.00  0.00    -0.189 NA
ATOM     18  N   UNL     1       2.358  -0.022  -3.900  1.00  0.00    -0.301 N 
ATOM     19  C   UNL     1       2.444   2.641  -3.832  1.00  0.00     0.218 A 
ATOM     20  C   UNL     1       1.474   0.630  -4.704  1.00  0.00     0.255 A 
ATOM     21  H   UNL     1       2.368  -1.007  -3.892  1.00  0.00     0.172 HD
ATOM     22  C   UNL     1       1.541   2.094  -4.649  1.00  0.00     0.139 A 
ATOM     23  O   UNL     1       0.690   0.045  -5.439  1.00  0.00    -0.269 OA
BRANCH  19  24
ATOM     24  O   UNL     1       2.563   4.004  -3.780  1.00  0.00    -0.493 OA
ATOM     25  H   UNL     1       3.194   4.398  -3.210  1.00  0.00     0.295 HD
ENDBRANCH  19  24
ENDBRANCH  15  16
ENDBRANCH  14  15
ENDBRANCH  12  14
ENDBRANCH   5  10
ENDBRANCH   2   4
ENDBRANCH   1   2
BRANCH   1  26
ATOM     26  C   UNL     1      -1.958   0.975   4.587  1.00  0.00     0.275 C 
BRANCH  26  27
ATOM     27  C   UNL     1      -1.541   1.079   6.053  1.00  0.00     0.275 C 
BRANCH  27  28
ATOM     28  O   UNL     1      -1.237   2.450   6.362  1.00  0.00    -0.458 OA
BRANCH  28  29
ATOM     29  C   UNL     1      -0.041   2.682   6.941  1.00  0.00     0.338 C 
ATOM     30  O   UNL     1       0.788   1.865   7.312  1.00  0.00    -0.246 OA
BRANCH  29  31
ATOM     31  C   UNL     1       0.163   4.134   7.043  1.00  0.00     0.060 A 
ATOM     32  C   UNL     1       0.329   4.872   5.874  1.00  0.00     0.016 A 
ATOM     33  C   UNL     1       0.308   4.746   8.286  1.00  0.00     0.016 A 
ATOM     34  C   UNL     1       0.707   6.211   5.931  1.00  0.00     0.010 A 
ATOM     35  C   UNL     1       0.619   6.110   8.346  1.00  0.00     0.010 A 
ATOM     36  C   UNL     1       0.860   6.847   7.170  1.00  0.00    -0.014 A 
BRANCH  36  37
ATOM     37  C   UNL     1       1.361   8.247   7.239  1.00  0.00     0.031 A 
ATOM     38  C   UNL     1       2.681   8.535   7.906  1.00  0.00     0.074 A 
ATOM     39  C   UNL     1       0.670   9.260   6.681  1.00  0.00     0.049 A 
ATOM     40  N   UNL     1       3.224   9.686   8.213  1.00  0.00    -0.248 NA
ATOM     41  C   UNL     1       3.494   7.368   8.286  1.00  0.00     0.031 C 
ATOM     42  C   UNL     1      -0.590   9.128   5.949  1.00  0.00     0.029 A 
ATOM     43  N   UNL     1       0.940  10.607   6.638  1.00  0.00    -0.354 N 
ATOM     44  C   UNL     1       4.407   9.382   8.873  1.00  0.00     0.074 A 
ATOM     45  C   UNL     1       4.507   7.939   8.921  1.00  0.00     0.031 C 
ATOM     46  C   UNL     1      -0.965  10.337   5.500  1.00  0.00     0.029 A 
ATOM     47  C   UNL     1      -0.014  11.338   5.973  1.00  0.00     0.049 A 
ATOM     48  H   UNL     1       1.742  11.009   7.044  1.00  0.00     0.167 HD
ATOM     49  C   UNL     1       5.328  10.228   9.394  1.00  0.00     0.037 A 
ATOM     50  C   UNL     1      -0.129  12.668   5.792  1.00  0.00     0.037 A 
ATOM     51  C   UNL     1       5.264  11.662   9.296  1.00  0.00     0.049 A 
ATOM     52  C   UNL     1       0.895  13.589   6.394  1.00  0.00     0.074 A 
ATOM     53  C   UNL     1       6.150  12.603   9.793  1.00  0.00     0.029 A 
ATOM     54  N   UNL     1       4.265  12.363   8.637  1.00  0.00    -0.354 N 
ATOM     55  N   UNL     1       1.972  13.293   7.080  1.00  0.00    -0.248 NA
ATOM     56  C   UNL     1       0.674  15.032   6.215  1.00  0.00     0.031 C 
ATOM     57  C   UNL     1       5.676  13.875   9.451  1.00  0.00     0.029 A 
ATOM     58  C   UNL     1       4.512  13.723   8.716  1.00  0.00     0.049 A 
ATOM     59  H   UNL     1       3.495  11.953   8.181  1.00  0.00     0.167 HD
ATOM     60  C   UNL     1       2.561  14.507   7.406  1.00  0.00     0.074 A 
ATOM     61  C   UNL     1       1.733  15.545   6.826  1.00  0.00     0.031 C 
ATOM     62  C   UNL     1       3.683  14.742   8.127  1.00  0.00     0.037 A 
BRANCH  49  63
ATOM     63  C   UNL     1       6.470   9.619  10.150  1.00  0.00     0.057 A 
ATOM     64  C   UNL     1       7.530   8.972   9.505  1.00  0.00     0.134 A 
ATOM     65  C   UNL     1       6.515   9.699  11.549  1.00  0.00     0.134 A 
ATOM     66  F   UNL     1       7.538   8.846   8.169  1.00  0.00    -0.206 F 
ATOM     67  C   UNL     1       8.585   8.406  10.225  1.00  0.00     0.040 A 
ATOM     68  C   UNL     1       7.574   9.158  12.277  1.00  0.00     0.040 A 
ATOM     69  F   UNL     1       5.532  10.310  12.227  1.00  0.00    -0.206 F 
ATOM     70  C   UNL     1       8.611   8.503  11.615  1.00  0.00     0.006 A 
ENDBRANCH  49  63
BRANCH  50  71
ATOM     71  C   UNL     1      -1.277  13.214   5.027  1.00  0.00     0.057 A 
ATOM     72  C   UNL     1      -1.096  13.780   3.761  1.00  0.00     0.134 A 
ATOM     73  C   UNL     1      -2.578  13.187   5.544  1.00  0.00     0.134 A 
ATOM     74  F   UNL     1       0.131  13.859   3.226  1.00  0.00    -0.206 F 
ATOM     75  C   UNL     1      -2.167  14.305   3.036  1.00  0.00     0.040 A 
ATOM     76  C   UNL     1      -3.661  13.686   4.821  1.00  0.00     0.040 A 
ATOM     77  F   UNL     1      -2.815  12.660   6.754  1.00  0.00    -0.206 F 
ATOM     78  C   UNL     1      -3.456  14.252   3.564  1.00  0.00     0.006 A 
ENDBRANCH  50  71
BRANCH  62  79
ATOM     79  C   UNL     1       4.095  16.172   8.304  1.00  0.00     0.057 A 
ATOM     80  C   UNL     1       3.438  17.019   9.204  1.00  0.00     0.134 A 
ATOM     81  C   UNL     1       5.178  16.696   7.590  1.00  0.00     0.134 A 
ATOM     82  F   UNL     1       2.384  16.578   9.908  1.00  0.00    -0.206 F 
ATOM     83  C   UNL     1       3.834  18.346   9.375  1.00  0.00     0.040 A 
ATOM     84  C   UNL     1       5.596  18.016   7.766  1.00  0.00     0.040 A 
ATOM     85  F   UNL     1       5.852  15.933   6.716  1.00  0.00    -0.206 F 
ATOM     86  C   UNL     1       4.920  18.846   8.658  1.00  0.00     0.006 A 
ENDBRANCH  62  79
ENDBRANCH  36  37
ENDBRANCH  29  31
ENDBRANCH  28  29
ENDBRANCH  27  28
ENDBRANCH  26  27
ENDBRANCH   1  26
TORSDOF 16
