REMARK SMILES O=C(OCCOC(=O)c1ccc(-c2c3nc(c(-c4c(F)cccc4F)c4ccc([nH]4)c(-c4c(F)cccc4F)c4nc(c(-c5c(F)cccc5F)c5ccc2[nH]5)C=C4)C=C3)cc1)c1ccc(N/C=C\C(=O)c2ccco2)cc1
REMARK SMILES IDX 4 1 3 2 2 3 1 4 63 5 64 6 78 7 65 8 77 9 66 10 67 11 68 13
REMARK SMILES IDX 69 14 70 15 71 16 72 17 73 18 76 19 74 20 75 21 5 22 6 23
REMARK SMILES IDX 7 24 8 25 9 26 10 27 62 28 11 29 61 30 12 31 13 32 14 33
REMARK SMILES IDX 55 34 15 35 60 36 54 37 56 38 16 39 59 40 53 41 52 42 17 44
REMARK SMILES IDX 43 45 26 46 42 47 27 48 30 49 41 50 57 51 28 52 29 53 40 55
REMARK SMILES IDX 58 56 31 57 18 58 19 59 24 60 20 61 21 62 23 63 25 64 22 65
REMARK SMILES IDX 44 66 45 67 50 68 46 69 47 70 49 71 51 72 48 73 32 74 33 75
REMARK SMILES IDX 38 76 34 77 35 78 37 79 39 80 36 81
REMARK H PARENT 67 12 56 43 30 54
REMARK Flexibility Score: inf
ROOT
ATOM      1  C   UNL     1       4.123  -0.652  -1.413  1.00  0.00     0.275 C 
ENDROOT
BRANCH   1   2
ATOM      2  O   UNL     1       3.014  -0.882  -0.526  1.00  0.00    -0.458 OA
BRANCH   2   3
ATOM      3  C   UNL     1       2.960  -0.680   0.813  1.00  0.00     0.338 C 
ATOM      4  O   UNL     1       2.146  -1.308   1.488  1.00  0.00    -0.246 OA
BRANCH   3   5
ATOM      5  C   UNL     1       3.701   0.432   1.478  1.00  0.00     0.060 A 
ATOM      6  C   UNL     1       5.019   0.808   1.217  1.00  0.00     0.018 A 
ATOM      7  C   UNL     1       3.006   1.136   2.471  1.00  0.00     0.018 A 
ATOM      8  C   UNL     1       5.584   1.934   1.832  1.00  0.00     0.027 A 
ATOM      9  C   UNL     1       3.590   2.234   3.111  1.00  0.00     0.027 A 
ATOM     10  C   UNL     1       4.872   2.677   2.771  1.00  0.00     0.038 A 
BRANCH  10  11
ATOM     11  N   UNL     1       5.386   3.811   3.415  1.00  0.00    -0.362 N 
ATOM     12  H   UNL     1       4.759   4.282   4.011  1.00  0.00     0.166 HD
BRANCH  11  13
ATOM     13  C   UNL     1       6.640   4.353   3.330  1.00  0.00     0.087 C 
ATOM     14  C   UNL     1       7.333   5.050   4.241  1.00  0.00     0.074 C 
BRANCH  14  15
ATOM     15  C   UNL     1       6.951   5.345   5.657  1.00  0.00     0.222 C 
ATOM     16  O   UNL     1       7.612   6.190   6.259  1.00  0.00    -0.286 OA
BRANCH  15  17
ATOM     17  C   UNL     1       5.849   4.624   6.248  1.00  0.00     0.173 A 
ATOM     18  C   UNL     1       5.645   3.280   6.510  1.00  0.00     0.054 A 
ATOM     19  O   UNL     1       4.708   5.320   6.528  1.00  0.00    -0.461 OA
ATOM     20  C   UNL     1       4.305   3.152   6.950  1.00  0.00     0.043 A 
ATOM     21  C   UNL     1       3.783   4.422   6.946  1.00  0.00     0.196 A 
ENDBRANCH  15  17
ENDBRANCH  14  15
ENDBRANCH  11  13
ENDBRANCH  10  11
ENDBRANCH   3   5
ENDBRANCH   2   3
ENDBRANCH   1   2
BRANCH   1  22
ATOM     22  C   UNL     1       4.071   0.685  -2.158  1.00  0.00     0.275 C 
BRANCH  22  23
ATOM     23  O   UNL     1       3.669   1.781  -1.321  1.00  0.00    -0.458 OA
BRANCH  23  24
ATOM     24  C   UNL     1       2.342   2.067  -1.374  1.00  0.00     0.338 C 
ATOM     25  O   UNL     1       1.522   1.537  -2.107  1.00  0.00    -0.246 OA
BRANCH  24  26
ATOM     26  C   UNL     1       1.961   3.061  -0.342  1.00  0.00     0.060 A 
ATOM     27  C   UNL     1       0.670   2.964   0.192  1.00  0.00     0.016 A 
ATOM     28  C   UNL     1       2.813   4.082   0.092  1.00  0.00     0.016 A 
ATOM     29  C   UNL     1       0.219   3.898   1.126  1.00  0.00     0.010 A 
ATOM     30  C   UNL     1       2.363   5.012   1.044  1.00  0.00     0.010 A 
ATOM     31  C   UNL     1       1.053   4.943   1.549  1.00  0.00    -0.014 A 
BRANCH  31  32
ATOM     32  C   UNL     1       0.500   5.990   2.452  1.00  0.00     0.031 A 
ATOM     33  C   UNL     1       0.105   7.331   1.893  1.00  0.00     0.074 A 
ATOM     34  C   UNL     1       0.271   5.732   3.754  1.00  0.00     0.049 A 
ATOM     35  N   UNL     1      -0.523   8.318   2.483  1.00  0.00    -0.248 NA
ATOM     36  C   UNL     1       0.446   7.591   0.486  1.00  0.00     0.031 C 
ATOM     37  C   UNL     1       0.570   4.476   4.438  1.00  0.00     0.029 A 
ATOM     38  N   UNL     1      -0.278   6.521   4.737  1.00  0.00    -0.354 N 
ATOM     39  C   UNL     1      -0.696   9.293   1.510  1.00  0.00     0.074 A 
ATOM     40  C   UNL     1      -0.040   8.812   0.312  1.00  0.00     0.031 C 
ATOM     41  C   UNL     1       0.233   4.588   5.734  1.00  0.00     0.029 A 
ATOM     42  C   UNL     1      -0.326   5.916   5.969  1.00  0.00     0.049 A 
ATOM     43  H   UNL     1      -0.606   7.434   4.573  1.00  0.00     0.167 HD
ATOM     44  C   UNL     1      -1.374  10.463   1.589  1.00  0.00     0.037 A 
ATOM     45  C   UNL     1      -0.783   6.372   7.151  1.00  0.00     0.037 A 
ATOM     46  C   UNL     1      -2.017  10.967   2.774  1.00  0.00     0.049 A 
ATOM     47  C   UNL     1      -1.453   7.711   7.235  1.00  0.00     0.074 A 
ATOM     48  C   UNL     1      -2.752  12.131   2.929  1.00  0.00     0.029 A 
ATOM     49  N   UNL     1      -1.993  10.347   4.013  1.00  0.00    -0.354 N 
ATOM     50  N   UNL     1      -1.670   8.589   6.288  1.00  0.00    -0.248 NA
ATOM     51  C   UNL     1      -1.980   8.101   8.551  1.00  0.00     0.031 C 
ATOM     52  C   UNL     1      -3.137  12.236   4.270  1.00  0.00     0.029 A 
ATOM     53  C   UNL     1      -2.678  11.115   4.941  1.00  0.00     0.049 A 
ATOM     54  H   UNL     1      -1.553   9.487   4.205  1.00  0.00     0.167 HD
ATOM     55  C   UNL     1      -2.381   9.621   6.886  1.00  0.00     0.074 A 
ATOM     56  C   UNL     1      -2.566   9.257   8.274  1.00  0.00     0.031 C 
ATOM     57  C   UNL     1      -2.848  10.763   6.326  1.00  0.00     0.037 A 
BRANCH  44  58
ATOM     58  C   UNL     1      -1.479  11.279   0.335  1.00  0.00     0.057 A 
ATOM     59  C   UNL     1      -2.326  10.894  -0.712  1.00  0.00     0.134 A 
ATOM     60  C   UNL     1      -0.778  12.482   0.196  1.00  0.00     0.134 A 
ATOM     61  F   UNL     1      -3.017   9.746  -0.641  1.00  0.00    -0.206 F 
ATOM     62  C   UNL     1      -2.462  11.672  -1.862  1.00  0.00     0.040 A 
ATOM     63  C   UNL     1      -0.922  13.279  -0.941  1.00  0.00     0.040 A 
ATOM     64  F   UNL     1       0.044  12.909   1.165  1.00  0.00    -0.206 F 
ATOM     65  C   UNL     1      -1.765  12.873  -1.975  1.00  0.00     0.006 A 
ENDBRANCH  44  58
BRANCH  45  66
ATOM     66  C   UNL     1      -0.636   5.549   8.373  1.00  0.00     0.057 A 
ATOM     67  C   UNL     1      -1.706   4.824   8.903  1.00  0.00     0.134 A 
ATOM     68  C   UNL     1       0.576   5.526   9.071  1.00  0.00     0.134 A 
ATOM     69  F   UNL     1      -2.903   4.849   8.300  1.00  0.00    -0.206 F 
ATOM     70  C   UNL     1      -1.576   4.102  10.091  1.00  0.00     0.040 A 
ATOM     71  C   UNL     1       0.729   4.789  10.245  1.00  0.00     0.040 A 
ATOM     72  F   UNL     1       1.621   6.239   8.629  1.00  0.00    -0.206 F 
ATOM     73  C   UNL     1      -0.353   4.078  10.761  1.00  0.00     0.006 A 
ENDBRANCH  45  66
BRANCH  57  74
ATOM     74  C   UNL     1      -3.620  11.692   7.215  1.00  0.00     0.057 A 
ATOM     75  C   UNL     1      -2.994  12.450   8.213  1.00  0.00     0.134 A 
ATOM     76  C   UNL     1      -5.006  11.832   7.072  1.00  0.00     0.134 A 
ATOM     77  F   UNL     1      -1.671  12.349   8.413  1.00  0.00    -0.206 F 
ATOM     78  C   UNL     1      -3.723  13.290   9.057  1.00  0.00     0.040 A 
ATOM     79  C   UNL     1      -5.743  12.687   7.893  1.00  0.00     0.040 A 
ATOM     80  F   UNL     1      -5.668  11.139   6.133  1.00  0.00    -0.206 F 
ATOM     81  C   UNL     1      -5.102  13.413   8.895  1.00  0.00     0.006 A 
ENDBRANCH  57  74
ENDBRANCH  31  32
ENDBRANCH  24  26
ENDBRANCH  23  24
ENDBRANCH  22  23
ENDBRANCH   1  22
TORSDOF 15
