REMARK SMILES Cc1ccc(NC(=O)C[C@H]([NH2+]Cc2cccnc2)C(=O)OCCOC(=O)c2ccc(-c3c4nc(c(-c5c(F)cccc5F)c5ccc([nH]5)c(-c5c(F)cccc5F)c5nc(c(-c6c(F)cccc6F)c6ccc3[nH]6)C=C5)C=C4)cc2)cc1Cl
REMARK SMILES IDX 22 1 21 2 19 3 20 4 10 5 9 6 7 7 6 8 8 10 5 11 1 12 2 13
REMARK SMILES IDX 3 14 82 15 4 16 81 17 83 18 11 19 12 22 13 23 14 24 18 25
REMARK SMILES IDX 15 26 17 27 16 28 23 29 24 30 25 31 26 32 27 33 28 34 80 35
REMARK SMILES IDX 29 36 79 37 30 38 31 39 32 40 73 41 33 42 78 43 72 44 74 45
REMARK SMILES IDX 34 46 77 47 71 48 70 49 35 51 61 52 44 53 60 54 45 55 48 56
REMARK SMILES IDX 59 57 75 58 46 59 47 60 58 62 76 63 49 64 36 65 37 66 42 67
REMARK SMILES IDX 38 68 39 69 41 70 43 71 40 72 62 73 63 74 68 75 64 76 65 77
REMARK SMILES IDX 67 78 69 79 66 80 50 81 51 82 56 83 52 84 53 85 55 86 57 87
REMARK SMILES IDX 54 88
REMARK H PARENT 6 9 11 20 11 21 74 50 48 61
REMARK Flexibility Score: inf
ROOT
ATOM      1  C   UNL     1       3.404  -2.731  -0.808  1.00  0.00     0.274 C 
ENDROOT
BRANCH   1   2
ATOM      2  O   UNL     1       1.989  -2.594  -0.562  1.00  0.00    -0.458 OA
BRANCH   2   3
ATOM      3  C   UNL     1       1.148  -2.582  -1.628  1.00  0.00     0.365 C 
ATOM      4  O   UNL     1       1.511  -2.722  -2.792  1.00  0.00    -0.245 OA
BRANCH   3   5
ATOM      5  C   UNL     1      -0.330  -2.350  -1.242  1.00  0.00     0.303 C 
BRANCH   5   6
ATOM      6  C   UNL     1      -0.460  -1.062  -0.452  1.00  0.00     0.177 C 
BRANCH   6   7
ATOM      7  C   UNL     1       0.349  -0.702   0.783  1.00  0.00     0.231 C 
ATOM      8  N   UNL     1       0.455  -1.340   1.970  1.00  0.00    -0.326 N 
ATOM      9  H   UNL     1       0.666  -0.683   2.672  1.00  0.00     0.169 HD
ATOM     10  O   UNL     1       0.822   0.452   0.799  1.00  0.00    -0.274 OA
BRANCH   8  11
ATOM     11  C   UNL     1       0.366  -2.620   2.549  1.00  0.00     0.042 A 
ATOM     12  C   UNL     1       0.289  -6.367   4.772  1.00  0.00     0.046 C 
ATOM     13  C   UNL     1       0.323  -5.080   4.002  1.00  0.00    -0.032 A 
ATOM     14  C   UNL     1       0.276  -3.853   4.666  1.00  0.00     0.007 A 
ATOM     15  C   UNL     1       0.395  -5.062   2.609  1.00  0.00     0.046 A 
ATOM     16  C   UNL     1       0.295  -2.649   3.948  1.00  0.00     0.026 A 
ATOM     17  C   UNL     1       0.459  -3.845   1.906  1.00  0.00     0.047 A 
ATOM     18  Cl  UNL     1       0.402  -6.555   1.730  1.00  0.00    -0.084 Cl
ENDBRANCH   8  11
ENDBRANCH   6   7
ENDBRANCH   5   6
BRANCH   5  19
ATOM     19  N   UNL     1      -0.995  -3.506  -0.629  1.00  0.00    -0.330 N 
ATOM     20  H   UNL     1      -0.589  -3.640   0.297  1.00  0.00     0.347 HD
ATOM     21  H   UNL     1      -0.842  -4.276  -1.280  1.00  0.00     0.347 HD
BRANCH  19  22
ATOM     22  C   UNL     1      -2.441  -3.428  -0.467  1.00  0.00     0.299 C 
BRANCH  22  23
ATOM     23  C   UNL     1      -2.879  -4.086   0.816  1.00  0.00     0.024 A 
ATOM     24  C   UNL     1      -3.060  -5.467   0.915  1.00  0.00     0.013 A 
ATOM     25  C   UNL     1      -3.074  -3.339   1.978  1.00  0.00     0.120 A 
ATOM     26  C   UNL     1      -3.426  -6.033   2.135  1.00  0.00     0.021 A 
ATOM     27  N   UNL     1      -3.443  -3.858   3.174  1.00  0.00    -0.264 NA
ATOM     28  C   UNL     1      -3.602  -5.196   3.224  1.00  0.00     0.111 A 
ENDBRANCH  22  23
ENDBRANCH  19  22
ENDBRANCH   5  19
ENDBRANCH   3   5
ENDBRANCH   2   3
ENDBRANCH   1   2
BRANCH   1  29
ATOM     29  C   UNL     1       3.907  -4.162  -0.579  1.00  0.00     0.275 C 
BRANCH  29  30
ATOM     30  O   UNL     1       3.595  -5.024  -1.689  1.00  0.00    -0.458 OA
BRANCH  30  31
ATOM     31  C   UNL     1       2.353  -5.548  -1.639  1.00  0.00     0.338 C 
ATOM     32  O   UNL     1       1.530  -5.412  -0.755  1.00  0.00    -0.246 OA
BRANCH  31  33
ATOM     33  C   UNL     1       1.982  -6.188  -2.895  1.00  0.00     0.060 A 
ATOM     34  C   UNL     1       0.790  -5.751  -3.486  1.00  0.00     0.016 A 
ATOM     35  C   UNL     1       2.713  -7.247  -3.427  1.00  0.00     0.016 A 
ATOM     36  C   UNL     1       0.322  -6.361  -4.632  1.00  0.00     0.010 A 
ATOM     37  C   UNL     1       2.242  -7.862  -4.583  1.00  0.00     0.010 A 
ATOM     38  C   UNL     1       1.052  -7.415  -5.185  1.00  0.00    -0.014 A 
BRANCH  38  39
ATOM     39  C   UNL     1       0.569  -8.042  -6.422  1.00  0.00     0.031 A 
ATOM     40  C   UNL     1      -0.116  -9.365  -6.359  1.00  0.00     0.074 A 
ATOM     41  C   UNL     1       0.780  -7.403  -7.583  1.00  0.00     0.049 A 
ATOM     42  N   UNL     1      -0.470 -10.152  -7.337  1.00  0.00    -0.248 NA
ATOM     43  C   UNL     1      -0.440  -9.872  -5.017  1.00  0.00     0.031 C 
ATOM     44  C   UNL     1       1.395  -6.080  -7.715  1.00  0.00     0.029 A 
ATOM     45  N   UNL     1       0.528  -7.790  -8.870  1.00  0.00    -0.354 N 
ATOM     46  C   UNL     1      -1.032 -11.266  -6.731  1.00  0.00     0.074 A 
ATOM     47  C   UNL     1      -0.974 -11.051  -5.301  1.00  0.00     0.031 C 
ATOM     48  C   UNL     1       1.507  -5.781  -9.017  1.00  0.00     0.029 A 
ATOM     49  C   UNL     1       1.022  -6.911  -9.800  1.00  0.00     0.049 A 
ATOM     50  H   UNL     1       0.043  -8.614  -9.104  1.00  0.00     0.167 HD
ATOM     51  C   UNL     1      -1.535 -12.369  -7.331  1.00  0.00     0.037 A 
ATOM     52  C   UNL     1       1.121  -7.038 -11.135  1.00  0.00     0.037 A 
ATOM     53  C   UNL     1      -1.575 -12.549  -8.758  1.00  0.00     0.049 A 
ATOM     54  C   UNL     1       0.605  -8.292 -11.774  1.00  0.00     0.074 A 
ATOM     55  C   UNL     1      -2.082 -13.610  -9.483  1.00  0.00     0.029 A 
ATOM     56  N   UNL     1      -1.071 -11.637  -9.678  1.00  0.00    -0.354 N 
ATOM     57  N   UNL     1       0.067  -9.345 -11.204  1.00  0.00    -0.248 NA
ATOM     58  C   UNL     1       0.710  -8.384 -13.235  1.00  0.00     0.031 C 
ATOM     59  C   UNL     1      -1.845 -13.361 -10.840  1.00  0.00     0.029 A 
ATOM     60  C   UNL     1      -1.232 -12.123 -10.964  1.00  0.00     0.049 A 
ATOM     61  H   UNL     1      -0.661 -10.771  -9.449  1.00  0.00     0.167 HD
ATOM     62  C   UNL     1      -0.247 -10.218 -12.234  1.00  0.00     0.074 A 
ATOM     63  C   UNL     1       0.155  -9.567 -13.466  1.00  0.00     0.031 C 
ATOM     64  C   UNL     1      -0.820 -11.445 -12.168  1.00  0.00     0.037 A 
BRANCH  51  65
ATOM     65  C   UNL     1      -2.020 -13.473  -6.441  1.00  0.00     0.057 A 
ATOM     66  C   UNL     1      -3.198 -13.366  -5.691  1.00  0.00     0.134 A 
ATOM     67  C   UNL     1      -1.288 -14.662  -6.328  1.00  0.00     0.134 A 
ATOM     68  F   UNL     1      -3.935 -12.246  -5.739  1.00  0.00    -0.206 F 
ATOM     69  C   UNL     1      -3.616 -14.392  -4.840  1.00  0.00     0.040 A 
ATOM     70  C   UNL     1      -1.708 -15.703  -5.498  1.00  0.00     0.040 A 
ATOM     71  F   UNL     1      -0.149 -14.829  -7.017  1.00  0.00    -0.206 F 
ATOM     72  C   UNL     1      -2.871 -15.566  -4.745  1.00  0.00     0.006 A 
ENDBRANCH  51  65
BRANCH  52  73
ATOM     73  C   UNL     1       1.770  -5.962 -11.918  1.00  0.00     0.057 A 
ATOM     74  C   UNL     1       1.024  -5.101 -12.727  1.00  0.00     0.134 A 
ATOM     75  C   UNL     1       3.149  -5.728 -11.823  1.00  0.00     0.134 A 
ATOM     76  F   UNL     1      -0.298  -5.282 -12.865  1.00  0.00    -0.206 F 
ATOM     77  C   UNL     1       1.624  -4.045 -13.415  1.00  0.00     0.040 A 
ATOM     78  C   UNL     1       3.758  -4.664 -12.487  1.00  0.00     0.040 A 
ATOM     79  F   UNL     1       3.917  -6.513 -11.052  1.00  0.00    -0.206 F 
ATOM     80  C   UNL     1       2.994  -3.819 -13.289  1.00  0.00     0.006 A 
ENDBRANCH  52  73
BRANCH  64  81
ATOM     81  C   UNL     1      -1.070 -12.146 -13.468  1.00  0.00     0.057 A 
ATOM     82  C   UNL     1      -0.036 -12.761 -14.182  1.00  0.00     0.134 A 
ATOM     83  C   UNL     1      -2.371 -12.260 -13.973  1.00  0.00     0.134 A 
ATOM     84  F   UNL     1       1.233 -12.674 -13.754  1.00  0.00    -0.206 F 
ATOM     85  C   UNL     1      -0.287 -13.461 -15.363  1.00  0.00     0.040 A 
ATOM     86  C   UNL     1      -2.637 -12.975 -15.140  1.00  0.00     0.040 A 
ATOM     87  F   UNL     1      -3.403 -11.696 -13.329  1.00  0.00    -0.206 F 
ATOM     88  C   UNL     1      -1.592 -13.576 -15.839  1.00  0.00     0.006 A 
ENDBRANCH  64  81
ENDBRANCH  38  39
ENDBRANCH  31  33
ENDBRANCH  30  31
ENDBRANCH  29  30
ENDBRANCH   1  29
TORSDOF 17
