REMARK SMILES COc1ccccc1-n1nnc(C(=O)OCCOC(=O)c2ccc(-c3c4nc(c(-c5c(F)cccc5F)c5ccc([nH]5)c(-c5c(F)cccc5F)c5nc(c(-c6c(F)cccc6F)c6ccc3[nH]6)C=C5)C=C4)cc2)c1-c1ccc(Cl)cc1
REMARK SMILES IDX 16 1 15 2 13 3 14 4 12 5 9 6 10 7 75 8 11 9 8 10 3 11 4 12
REMARK SMILES IDX 5 13 7 14 6 15 2 16 1 17 76 18 77 19 82 20 78 21 81 22 79 23
REMARK SMILES IDX 80 24 17 25 18 26 19 27 20 28 21 29 22 30 74 31 23 32 73 33
REMARK SMILES IDX 24 34 25 35 26 36 67 37 27 38 72 39 66 40 68 41 28 42 71 43
REMARK SMILES IDX 65 44 64 45 29 47 55 48 38 49 54 50 39 51 42 52 53 53 69 54
REMARK SMILES IDX 40 55 41 56 52 58 70 59 43 60 30 61 31 62 36 63 32 64 33 65
REMARK SMILES IDX 35 66 37 67 34 68 56 69 57 70 62 71 58 72 59 73 61 74 63 75
REMARK SMILES IDX 60 76 44 77 45 78 50 79 46 80 47 81 49 82 51 83 48 84
REMARK H PARENT 68 46 42 57
REMARK Flexibility Score: inf
ROOT
ATOM      1  C   UNL     1       4.075  -4.753  -1.421  1.00  0.00     0.275 C 
ENDROOT
BRANCH   1   2
ATOM      2  O   UNL     1       3.653  -3.388  -1.323  1.00  0.00    -0.457 OA
BRANCH   2   3
ATOM      3  C   UNL     1       3.962  -2.642  -0.224  1.00  0.00     0.361 C 
ATOM      4  O   UNL     1       4.394  -3.113   0.824  1.00  0.00    -0.244 OA
BRANCH   3   5
ATOM      5  C   UNL     1       3.783  -1.216  -0.473  1.00  0.00     0.198 A 
ATOM      6  N   UNL     1       3.172   0.720  -1.243  1.00  0.00    -0.208 N 
ATOM      7  N   UNL     1       3.987   0.955  -0.191  1.00  0.00    -0.061 NA
ATOM      8  C   UNL     1       3.175  -0.621  -1.571  1.00  0.00     0.109 A 
ATOM      9  N   UNL     1       4.289  -0.226   0.344  1.00  0.00    -0.122 NA
BRANCH   6  10
ATOM     10  C   UNL     1       2.289   1.699  -1.729  1.00  0.00     0.109 A 
ATOM     11  C   UNL     1       0.917   1.416  -1.817  1.00  0.00     0.144 A 
ATOM     12  C   UNL     1       0.096   2.256  -2.563  1.00  0.00     0.049 A 
ATOM     13  C   UNL     1       0.626   3.399  -3.162  1.00  0.00     0.004 A 
ATOM     14  C   UNL     1       2.817   2.880  -2.263  1.00  0.00     0.032 A 
ATOM     15  C   UNL     1       1.977   3.721  -2.995  1.00  0.00     0.003 A 
BRANCH  11  16
ATOM     16  O   UNL     1       0.315   0.314  -1.267  1.00  0.00    -0.494 OA
ATOM     17  C   UNL     1       0.361   0.298   0.163  1.00  0.00     0.278 C 
ENDBRANCH  11  16
ENDBRANCH   6  10
BRANCH   8  18
ATOM     18  C   UNL     1       2.620  -1.178  -2.803  1.00  0.00     0.003 A 
ATOM     19  C   UNL     1       1.623  -2.161  -2.749  1.00  0.00     0.012 A 
ATOM     20  C   UNL     1       3.137  -0.796  -4.048  1.00  0.00     0.012 A 
ATOM     21  C   UNL     1       1.202  -2.809  -3.908  1.00  0.00     0.021 A 
ATOM     22  C   UNL     1       2.692  -1.424  -5.215  1.00  0.00     0.021 A 
ATOM     23  C   UNL     1       1.743  -2.441  -5.136  1.00  0.00     0.041 A 
ATOM     24  Cl  UNL     1       1.248  -3.266  -6.561  1.00  0.00    -0.084 Cl
ENDBRANCH   8  18
ENDBRANCH   3   5
ENDBRANCH   2   3
ENDBRANCH   1   2
BRANCH   1  25
ATOM     25  C   UNL     1       5.450  -4.819  -2.067  1.00  0.00     0.275 C 
BRANCH  25  26
ATOM     26  O   UNL     1       6.407  -4.371  -1.117  1.00  0.00    -0.458 OA
BRANCH  26  27
ATOM     27  C   UNL     1       6.692  -3.050  -1.121  1.00  0.00     0.338 C 
ATOM     28  O   UNL     1       6.242  -2.202  -1.872  1.00  0.00    -0.246 OA
BRANCH  27  29
ATOM     29  C   UNL     1       7.774  -2.820  -0.159  1.00  0.00     0.060 A 
ATOM     30  C   UNL     1       8.353  -1.549  -0.178  1.00  0.00     0.016 A 
ATOM     31  C   UNL     1       8.437  -3.945   0.349  1.00  0.00     0.016 A 
ATOM     32  C   UNL     1       9.714  -1.474  -0.011  1.00  0.00     0.010 A 
ATOM     33  C   UNL     1       9.794  -3.879   0.464  1.00  0.00     0.010 A 
ATOM     34  C   UNL     1      10.414  -2.669   0.171  1.00  0.00    -0.014 A 
BRANCH  34  35
ATOM     35  C   UNL     1      11.851  -2.652   0.081  1.00  0.00     0.031 A 
ATOM     36  C   UNL     1      12.487  -2.215   1.337  1.00  0.00     0.074 A 
ATOM     37  C   UNL     1      12.485  -3.156  -0.993  1.00  0.00     0.049 A 
ATOM     38  N   UNL     1      13.142  -1.125   1.554  1.00  0.00    -0.248 NA
ATOM     39  C   UNL     1      12.176  -2.989   2.552  1.00  0.00     0.031 C 
ATOM     40  C   UNL     1      11.922  -3.884  -2.136  1.00  0.00     0.029 A 
ATOM     41  N   UNL     1      13.820  -3.215  -1.222  1.00  0.00    -0.354 N 
ATOM     42  C   UNL     1      13.504  -1.186   2.894  1.00  0.00     0.074 A 
ATOM     43  C   UNL     1      12.690  -2.204   3.496  1.00  0.00     0.031 C 
ATOM     44  C   UNL     1      12.923  -4.502  -2.806  1.00  0.00     0.029 A 
ATOM     45  C   UNL     1      14.191  -4.112  -2.216  1.00  0.00     0.049 A 
ATOM     46  H   UNL     1      14.472  -2.668  -0.726  1.00  0.00     0.167 HD
ATOM     47  C   UNL     1      14.649  -0.605   3.338  1.00  0.00     0.037 A 
ATOM     48  C   UNL     1      15.456  -4.558  -2.417  1.00  0.00     0.037 A 
ATOM     49  C   UNL     1      15.137   0.371   2.398  1.00  0.00     0.049 A 
ATOM     50  C   UNL     1      16.372  -3.600  -1.733  1.00  0.00     0.074 A 
ATOM     51  C   UNL     1      14.623   1.538   1.865  1.00  0.00     0.029 A 
ATOM     52  N   UNL     1      16.160  -0.003   1.559  1.00  0.00    -0.354 N 
ATOM     53  N   UNL     1      16.539  -2.363  -2.118  1.00  0.00    -0.248 NA
ATOM     54  C   UNL     1      16.695  -3.865  -0.336  1.00  0.00     0.031 C 
ATOM     55  C   UNL     1      15.031   1.533   0.499  1.00  0.00     0.029 A 
ATOM     56  C   UNL     1      15.823   0.403   0.292  1.00  0.00     0.049 A 
ATOM     57  H   UNL     1      16.984  -0.475   1.820  1.00  0.00     0.167 HD
ATOM     58  C   UNL     1      16.583  -1.623  -0.942  1.00  0.00     0.074 A 
ATOM     59  C   UNL     1      16.730  -2.611   0.125  1.00  0.00     0.031 C 
ATOM     60  C   UNL     1      16.197  -0.312  -0.908  1.00  0.00     0.037 A 
BRANCH  47  61
ATOM     61  C   UNL     1      15.511  -1.202   4.419  1.00  0.00     0.057 A 
ATOM     62  C   UNL     1      16.582  -0.448   4.924  1.00  0.00     0.134 A 
ATOM     63  C   UNL     1      15.511  -2.565   4.789  1.00  0.00     0.134 A 
ATOM     64  F   UNL     1      16.703   0.856   4.633  1.00  0.00    -0.206 F 
ATOM     65  C   UNL     1      17.611  -1.024   5.677  1.00  0.00     0.040 A 
ATOM     66  C   UNL     1      16.502  -3.136   5.589  1.00  0.00     0.040 A 
ATOM     67  F   UNL     1      14.619  -3.446   4.321  1.00  0.00    -0.206 F 
ATOM     68  C   UNL     1      17.576  -2.373   6.007  1.00  0.00     0.006 A 
ENDBRANCH  47  61
BRANCH  48  69
ATOM     69  C   UNL     1      15.866  -5.930  -2.799  1.00  0.00     0.057 A 
ATOM     70  C   UNL     1      17.146  -6.201  -3.298  1.00  0.00     0.134 A 
ATOM     71  C   UNL     1      15.092  -7.052  -2.447  1.00  0.00     0.134 A 
ATOM     72  F   UNL     1      17.980  -5.199  -3.611  1.00  0.00    -0.206 F 
ATOM     73  C   UNL     1      17.629  -7.511  -3.438  1.00  0.00     0.040 A 
ATOM     74  C   UNL     1      15.558  -8.363  -2.587  1.00  0.00     0.040 A 
ATOM     75  F   UNL     1      13.889  -6.912  -1.873  1.00  0.00    -0.206 F 
ATOM     76  C   UNL     1      16.836  -8.597  -3.076  1.00  0.00     0.006 A 
ENDBRANCH  48  69
BRANCH  60  77
ATOM     77  C   UNL     1      15.900   0.371  -2.217  1.00  0.00     0.057 A 
ATOM     78  C   UNL     1      14.849   0.001  -3.071  1.00  0.00     0.134 A 
ATOM     79  C   UNL     1      16.584   1.548  -2.538  1.00  0.00     0.134 A 
ATOM     80  F   UNL     1      14.068  -1.049  -2.792  1.00  0.00    -0.206 F 
ATOM     81  C   UNL     1      14.521   0.744  -4.210  1.00  0.00     0.040 A 
ATOM     82  C   UNL     1      16.246   2.317  -3.654  1.00  0.00     0.040 A 
ATOM     83  F   UNL     1      17.561   2.000  -1.736  1.00  0.00    -0.206 F 
ATOM     84  C   UNL     1      15.218   1.912  -4.500  1.00  0.00     0.006 A 
ENDBRANCH  60  77
ENDBRANCH  34  35
ENDBRANCH  27  29
ENDBRANCH  26  27
ENDBRANCH  25  26
ENDBRANCH   1  25
TORSDOF 14
