REMARK SMILES O=C(C[NH2+]C1CCCC1)N[C@@H]1CCCCC[C@H]1C(=O)OCCOC(=O)c1ccc(-c2c3nc(c(-c4c(F)cccc4F)c4ccc([nH]4)c(-c4c(F)cccc4F)c4nc(c(-c5c(F)cccc5F)c5ccc2[nH]5)C=C4)C=C3)cc1
REMARK SMILES IDX 20 1 18 2 19 3 17 4 11 5 10 7 1 8 2 9 3 11 4 12 5 15 6 16
REMARK SMILES IDX 9 17 7 18 8 19 16 20 15 21 14 22 13 23 12 24 21 26 22 27
REMARK SMILES IDX 23 28 24 29 25 30 26 31 27 32 79 33 28 34 78 35 29 36 30 37
REMARK SMILES IDX 31 38 72 39 32 40 77 41 71 42 73 43 33 44 76 45 70 46 69 47
REMARK SMILES IDX 34 49 60 50 43 51 59 52 44 53 47 54 58 55 74 56 45 57 46 58
REMARK SMILES IDX 57 60 75 61 48 62 35 63 36 64 41 65 37 66 38 67 40 68 42 69
REMARK SMILES IDX 39 70 61 71 62 72 67 73 63 74 64 75 66 76 68 77 65 78 49 79
REMARK SMILES IDX 50 80 55 81 51 82 52 83 54 84 56 85 53 86
REMARK H PARENT 10 10 4 13 4 14 73 48 47 59
REMARK Flexibility Score: 100.00
ROOT
ATOM      1  O   UNL     1       1.640  -2.541  -4.602  1.00  0.00    -0.462 OA
ENDROOT
BRANCH   1   2
ATOM      2  C   UNL     1       2.614  -3.094  -3.844  1.00  0.00     0.311 C 
ATOM      3  O   UNL     1       3.494  -3.831  -4.279  1.00  0.00    -0.252 OA
BRANCH   2   4
ATOM      4  C   UNL     1       2.479  -2.795  -2.351  1.00  0.00     0.121 C 
BRANCH   4   5
ATOM      5  C   UNL     1       1.773  -1.472  -1.968  1.00  0.00     0.096 CG0
ATOM      6  G   UNL     1       0.259  -1.587  -1.674  1.00  0.00     0.000 G0
BRANCH   5   7
ATOM      7  N   UNL     1       2.499  -0.835  -0.818  1.00  0.00    -0.348 N 
ATOM      8  O   UNL     1       0.840   0.564  -0.028  1.00  0.00    -0.268 OA
ATOM      9  C   UNL     1       1.998   0.155   0.005  1.00  0.00     0.275 C 
ATOM     10  H   UNL     1       3.414  -1.151  -0.635  1.00  0.00     0.163 HD
BRANCH   9  11
ATOM     11  C   UNL     1       2.996   0.805   0.970  1.00  0.00     0.362 C 
BRANCH  11  12
ATOM     12  N   UNL     1       4.096  -0.088   1.395  1.00  0.00    -0.336 N 
ATOM     13  H   UNL     1       4.780  -0.161   0.642  1.00  0.00     0.346 HD
ATOM     14  H   UNL     1       3.710  -1.008   1.609  1.00  0.00     0.346 HD
BRANCH  12  15
ATOM     15  C   UNL     1       4.757   0.446   2.602  1.00  0.00     0.182 C 
ATOM     16  C   UNL     1       6.149  -0.149   2.810  1.00  0.00     0.065 C 
ATOM     17  C   UNL     1       5.057   1.949   2.627  1.00  0.00     0.065 C 
ATOM     18  C   UNL     1       6.793   0.760   3.858  1.00  0.00     0.006 C 
ATOM     19  C   UNL     1       6.096   2.114   3.731  1.00  0.00     0.006 C 
ENDBRANCH  12  15
ENDBRANCH  11  12
ENDBRANCH   9  11
ENDBRANCH   5   7
ENDBRANCH   4   5
BRANCH   4  20
ATOM     20  C   UNL     1       1.968  -4.035  -1.605  1.00  0.00     0.017 C 
BRANCH  20  21
ATOM     21  C   UNL     1       0.741  -4.713  -2.215  1.00  0.00     0.001 C 
BRANCH  21  22
ATOM     22  C   UNL     1      -0.576  -3.968  -2.053  1.00  0.00     0.000 C 
BRANCH  22  23
ATOM     23  C   UNL     1      -0.600  -2.519  -2.519  1.00  0.00     0.002 C 
BRANCH  23  24
ATOM     24  C   UNL     1       0.259  -1.587  -1.674  1.00  0.00     0.026 CG0
ATOM     25  G   UNL     1       1.773  -1.472  -1.968  1.00  0.00     0.000 G0
ENDBRANCH  23  24
ENDBRANCH  22  23
ENDBRANCH  21  22
ENDBRANCH  20  21
ENDBRANCH   4  20
ENDBRANCH   2   4
ENDBRANCH   1   2
BRANCH   1  26
ATOM     26  C   UNL     1       1.584  -2.911  -5.996  1.00  0.00     0.274 C 
BRANCH  26  27
ATOM     27  C   UNL     1       2.026  -1.758  -6.898  1.00  0.00     0.275 C 
BRANCH  27  28
ATOM     28  O   UNL     1       3.437  -1.520  -6.767  1.00  0.00    -0.458 OA
BRANCH  28  29
ATOM     29  C   UNL     1       3.776  -0.675  -5.767  1.00  0.00     0.338 C 
ATOM     30  O   UNL     1       3.033  -0.028  -5.051  1.00  0.00    -0.246 OA
BRANCH  29  31
ATOM     31  C   UNL     1       5.220  -0.779  -5.530  1.00  0.00     0.060 A 
ATOM     32  C   UNL     1       5.642  -1.215  -4.270  1.00  0.00     0.016 A 
ATOM     33  C   UNL     1       6.141  -0.410  -6.509  1.00  0.00     0.016 A 
ATOM     34  C   UNL     1       6.997  -1.285  -3.978  1.00  0.00     0.010 A 
ATOM     35  C   UNL     1       7.503  -0.472  -6.213  1.00  0.00     0.010 A 
ATOM     36  C   UNL     1       7.933  -0.899  -4.943  1.00  0.00    -0.014 A 
BRANCH  36  37
ATOM     37  C   UNL     1       9.368  -0.868  -4.596  1.00  0.00     0.031 A 
ATOM     38  C   UNL     1      10.024   0.449  -4.317  1.00  0.00     0.074 A 
ATOM     39  C   UNL     1      10.063  -2.016  -4.522  1.00  0.00     0.049 A 
ATOM     40  N   UNL     1      11.286   0.717  -4.104  1.00  0.00    -0.248 NA
ATOM     41  C   UNL     1       9.140   1.626  -4.277  1.00  0.00     0.031 C 
ATOM     42  C   UNL     1       9.508  -3.355  -4.721  1.00  0.00     0.029 A 
ATOM     43  N   UNL     1      11.392  -2.236  -4.268  1.00  0.00    -0.354 N 
ATOM     44  C   UNL     1      11.352   2.092  -3.926  1.00  0.00     0.074 A 
ATOM     45  C   UNL     1      10.007   2.606  -4.071  1.00  0.00     0.031 C 
ATOM     46  C   UNL     1      10.493  -4.258  -4.594  1.00  0.00     0.029 A 
ATOM     47  C   UNL     1      11.751  -3.558  -4.351  1.00  0.00     0.049 A 
ATOM     48  H   UNL     1      12.026  -1.516  -4.048  1.00  0.00     0.167 HD
ATOM     49  C   UNL     1      12.441   2.852  -3.664  1.00  0.00     0.037 A 
ATOM     50  C   UNL     1      12.967  -4.130  -4.273  1.00  0.00     0.037 A 
ATOM     51  C   UNL     1      13.772   2.325  -3.516  1.00  0.00     0.049 A 
ATOM     52  C   UNL     1      14.169  -3.257  -4.043  1.00  0.00     0.074 A 
ATOM     53  C   UNL     1      14.946   3.005  -3.247  1.00  0.00     0.029 A 
ATOM     54  N   UNL     1      14.103   0.981  -3.626  1.00  0.00    -0.354 N 
ATOM     55  N   UNL     1      14.228  -1.956  -3.886  1.00  0.00    -0.248 NA
ATOM     56  C   UNL     1      15.474  -3.930  -3.985  1.00  0.00     0.031 C 
ATOM     57  C   UNL     1      15.993   2.078  -3.233  1.00  0.00     0.029 A 
ATOM     58  C   UNL     1      15.466   0.814  -3.448  1.00  0.00     0.049 A 
ATOM     59  H   UNL     1      13.463   0.255  -3.805  1.00  0.00     0.167 HD
ATOM     60  C   UNL     1      15.569  -1.656  -3.690  1.00  0.00     0.074 A 
ATOM     61  C   UNL     1      16.288  -2.914  -3.733  1.00  0.00     0.031 C 
ATOM     62  C   UNL     1      16.156  -0.450  -3.492  1.00  0.00     0.037 A 
BRANCH  49  63
ATOM     63  C   UNL     1      12.238   4.333  -3.558  1.00  0.00     0.057 A 
ATOM     64  C   UNL     1      11.600   4.918  -2.457  1.00  0.00     0.134 A 
ATOM     65  C   UNL     1      12.703   5.189  -4.566  1.00  0.00     0.134 A 
ATOM     66  F   UNL     1      11.115   4.154  -1.467  1.00  0.00    -0.206 F 
ATOM     67  C   UNL     1      11.413   6.300  -2.372  1.00  0.00     0.040 A 
ATOM     68  C   UNL     1      12.543   6.572  -4.480  1.00  0.00     0.040 A 
ATOM     69  F   UNL     1      13.323   4.693  -5.647  1.00  0.00    -0.206 F 
ATOM     70  C   UNL     1      11.891   7.131  -3.383  1.00  0.00     0.006 A 
ENDBRANCH  49  63
BRANCH  50  71
ATOM     71  C   UNL     1      13.107  -5.597  -4.441  1.00  0.00     0.057 A 
ATOM     72  C   UNL     1      13.463  -6.420  -3.367  1.00  0.00     0.134 A 
ATOM     73  C   UNL     1      12.890  -6.212  -5.680  1.00  0.00     0.134 A 
ATOM     74  F   UNL     1      13.706  -5.886  -2.160  1.00  0.00    -0.206 F 
ATOM     75  C   UNL     1      13.611  -7.799  -3.520  1.00  0.00     0.040 A 
ATOM     76  C   UNL     1      13.010  -7.593  -5.843  1.00  0.00     0.040 A 
ATOM     77  F   UNL     1      12.544  -5.479  -6.749  1.00  0.00    -0.206 F 
ATOM     78  C   UNL     1      13.378  -8.390  -4.761  1.00  0.00     0.006 A 
ENDBRANCH  50  71
BRANCH  62  79
ATOM     79  C   UNL     1      17.640  -0.441  -3.275  1.00  0.00     0.057 A 
ATOM     80  C   UNL     1      18.540  -0.655  -4.325  1.00  0.00     0.134 A 
ATOM     81  C   UNL     1      18.171  -0.177  -2.007  1.00  0.00     0.134 A 
ATOM     82  F   UNL     1      18.092  -0.927  -5.561  1.00  0.00    -0.206 F 
ATOM     83  C   UNL     1      19.920  -0.628  -4.117  1.00  0.00     0.040 A 
ATOM     84  C   UNL     1      19.548  -0.122  -1.791  1.00  0.00     0.040 A 
ATOM     85  F   UNL     1      17.361   0.045  -0.961  1.00  0.00    -0.206 F 
ATOM     86  C   UNL     1      20.427  -0.354  -2.848  1.00  0.00     0.006 A 
ENDBRANCH  62  79
ENDBRANCH  36  37
ENDBRANCH  29  31
ENDBRANCH  28  29
ENDBRANCH  27  28
ENDBRANCH  26  27
ENDBRANCH   1  26
TORSDOF 15
