REMARK SMILES NS(=O)(=O)c1ccc(-n2nc(C(=O)NCCCC(=O)OCCOC(=O)c3ccc(-c4c5nc(c(-c6c(F)cccc6F)c6ccc([nH]6)c(-c6c(F)cccc6F)c6nc(c(-c7c(F)cccc7F)c7ccc4[nH]7)C=C6)C=C5)cc3)cc2-c2ccccc2)cc1
REMARK SMILES IDX 18 1 19 2 17 3 16 4 15 5 14 6 12 7 13 8 11 10 9 11 10 12
REMARK SMILES IDX 81 13 80 14 8 15 5 16 6 17 89 18 7 19 88 20 2 21 3 22 4 23
REMARK SMILES IDX 1 24 82 27 83 28 87 29 84 30 86 31 85 32 20 33 21 34 22 35
REMARK SMILES IDX 23 36 24 37 25 38 26 39 27 40 79 41 28 42 78 43 29 44 30 45
REMARK SMILES IDX 31 46 72 47 32 48 77 49 71 50 73 51 33 52 76 53 70 54 69 55
REMARK SMILES IDX 34 57 60 58 43 59 59 60 44 61 47 62 58 63 74 64 45 65 46 66
REMARK SMILES IDX 57 68 75 69 48 70 35 71 36 72 41 73 37 74 38 75 40 76 42 77
REMARK SMILES IDX 39 78 61 79 62 80 67 81 63 82 64 83 66 84 68 85 65 86 49 87
REMARK SMILES IDX 50 88 55 89 51 90 52 91 54 92 56 93 53 94
REMARK H PARENT 14 9 1 25 1 26 73 56 47 67
REMARK Flexibility Score: inf
ROOT
ATOM      1  C   UNL     1       3.998  13.590  -4.482  1.00  0.00     0.305 C 
ATOM      2  O   UNL     1       4.176  14.690  -4.990  1.00  0.00    -0.252 OA
ENDROOT
BRANCH   1   3
ATOM      3  C   UNL     1       2.629  13.052  -4.138  1.00  0.00     0.124 C 
BRANCH   3   4
ATOM      4  C   UNL     1       2.250  11.683  -4.697  1.00  0.00     0.033 C 
BRANCH   4   5
ATOM      5  C   UNL     1       3.099  10.488  -4.269  1.00  0.00     0.117 C 
BRANCH   5   6
ATOM      6  N   UNL     1       3.056  10.261  -2.837  1.00  0.00    -0.351 N 
ATOM      7  C   UNL     1       2.745   9.136  -2.105  1.00  0.00     0.271 C 
ATOM      8  O   UNL     1       2.626   9.290  -0.887  1.00  0.00    -0.267 OA
ATOM      9  H   UNL     1       3.291  11.048  -2.294  1.00  0.00     0.163 HD
BRANCH   7  10
ATOM     10  C   UNL     1       2.597   7.818  -2.756  1.00  0.00     0.151 A 
ATOM     11  N   UNL     1       2.081   5.747  -2.957  1.00  0.00    -0.232 N 
ATOM     12  N   UNL     1       1.854   6.841  -2.193  1.00  0.00    -0.162 NA
ATOM     13  C   UNL     1       2.688   6.075  -4.160  1.00  0.00     0.075 A 
ATOM     14  C   UNL     1       3.177   7.348  -3.963  1.00  0.00     0.065 A 
BRANCH  11  15
ATOM     15  C   UNL     1       1.737   4.448  -2.502  1.00  0.00     0.065 A 
ATOM     16  C   UNL     1       0.972   1.858  -1.853  1.00  0.00     0.082 A 
ATOM     17  C   UNL     1       2.190   2.070  -2.500  1.00  0.00     0.024 A 
ATOM     18  C   UNL     1       0.151   2.934  -1.491  1.00  0.00     0.024 A 
ATOM     19  C   UNL     1       2.571   3.366  -2.826  1.00  0.00     0.030 A 
ATOM     20  C   UNL     1       0.552   4.242  -1.786  1.00  0.00     0.030 A 
BRANCH  16  21
ATOM     21  S   UNL     1       0.444   0.195  -1.571  1.00  0.00     0.238 S 
ATOM     22  O   UNL     1       1.130  -0.682  -2.498  1.00  0.00    -0.207 OA
ATOM     23  O   UNL     1      -0.987   0.168  -1.402  1.00  0.00    -0.207 OA
BRANCH  21  24
ATOM     24  N   UNL     1       1.107  -0.123  -0.065  1.00  0.00    -0.225 NA
ATOM     25  H   UNL     1       0.869  -1.074   0.217  1.00  0.00     0.137 HD
ATOM     26  H   UNL     1       0.734   0.538   0.617  1.00  0.00     0.137 HD
ENDBRANCH  21  24
ENDBRANCH  16  21
ENDBRANCH  11  15
BRANCH  13  27
ATOM     27  C   UNL     1       2.724   5.244  -5.365  1.00  0.00     0.000 A 
ATOM     28  C   UNL     1       1.576   4.567  -5.807  1.00  0.00     0.010 A 
ATOM     29  C   UNL     1       3.894   5.157  -6.128  1.00  0.00     0.010 A 
ATOM     30  C   UNL     1       1.606   3.800  -6.973  1.00  0.00     0.001 A 
ATOM     31  C   UNL     1       3.921   4.395  -7.297  1.00  0.00     0.001 A 
ATOM     32  C   UNL     1       2.779   3.715  -7.718  1.00  0.00     0.000 A 
ENDBRANCH  13  27
ENDBRANCH   7  10
ENDBRANCH   5   6
ENDBRANCH   4   5
ENDBRANCH   3   4
ENDBRANCH   1   3
BRANCH   1  33
ATOM     33  O   UNL     1       4.989  12.740  -4.104  1.00  0.00    -0.462 OA
BRANCH  33  34
ATOM     34  C   UNL     1       6.335  13.117  -4.456  1.00  0.00     0.274 C 
BRANCH  34  35
ATOM     35  C   UNL     1       6.717  12.623  -5.845  1.00  0.00     0.275 C 
BRANCH  35  36
ATOM     36  O   UNL     1       5.997  13.323  -6.857  1.00  0.00    -0.458 OA
BRANCH  36  37
ATOM     37  C   UNL     1       4.891  12.693  -7.305  1.00  0.00     0.338 C 
ATOM     38  O   UNL     1       4.358  11.707  -6.822  1.00  0.00    -0.246 OA
BRANCH  37  39
ATOM     39  C   UNL     1       4.516  13.230  -8.612  1.00  0.00     0.060 A 
ATOM     40  C   UNL     1       3.264  12.886  -9.133  1.00  0.00     0.016 A 
ATOM     41  C   UNL     1       5.521  13.796  -9.404  1.00  0.00     0.016 A 
ATOM     42  C   UNL     1       3.082  12.954 -10.499  1.00  0.00     0.010 A 
ATOM     43  C   UNL     1       5.346  13.845 -10.763  1.00  0.00     0.010 A 
ATOM     44  C   UNL     1       4.160  13.350 -11.299  1.00  0.00    -0.014 A 
BRANCH  44  45
ATOM     45  C   UNL     1       4.000  13.361 -12.737  1.00  0.00     0.031 A 
ATOM     46  C   UNL     1       3.119  14.457 -13.203  1.00  0.00     0.074 A 
ATOM     47  C   UNL     1       4.723  12.559 -13.544  1.00  0.00     0.049 A 
ATOM     48  N   UNL     1       1.976  14.353 -13.794  1.00  0.00    -0.248 NA
ATOM     49  C   UNL     1       3.466  15.833 -12.804  1.00  0.00     0.031 C 
ATOM     50  C   UNL     1       5.812  11.645 -13.184  1.00  0.00     0.029 A 
ATOM     51  N   UNL     1       4.691  12.465 -14.899  1.00  0.00    -0.354 N 
ATOM     52  C   UNL     1       1.565  15.660 -14.036  1.00  0.00     0.074 A 
ATOM     53  C   UNL     1       2.406  16.512 -13.240  1.00  0.00     0.031 C 
ATOM     54  C   UNL     1       6.475  11.273 -14.304  1.00  0.00     0.029 A 
ATOM     55  C   UNL     1       5.780  11.807 -15.461  1.00  0.00     0.049 A 
ATOM     56  H   UNL     1       3.955  12.834 -15.441  1.00  0.00     0.167 HD
ATOM     57  C   UNL     1       0.746  15.950 -15.081  1.00  0.00     0.037 A 
ATOM     58  C   UNL     1       6.098  11.777 -16.781  1.00  0.00     0.037 A 
ATOM     59  C   UNL     1       0.050  14.774 -15.538  1.00  0.00     0.049 A 
ATOM     60  C   UNL     1       4.872  12.146 -17.537  1.00  0.00     0.074 A 
ATOM     61  C   UNL     1      -0.834  13.887 -14.954  1.00  0.00     0.029 A 
ATOM     62  N   UNL     1       0.535  14.138 -16.653  1.00  0.00    -0.354 N 
ATOM     63  N   UNL     1       3.807  11.396 -17.591  1.00  0.00    -0.248 NA
ATOM     64  C   UNL     1       4.659  13.557 -17.818  1.00  0.00     0.031 C 
ATOM     65  C   UNL     1      -0.463  12.608 -15.462  1.00  0.00     0.029 A 
ATOM     66  C   UNL     1       0.570  12.794 -16.382  1.00  0.00     0.049 A 
ATOM     67  H   UNL     1       0.808  14.568 -17.496  1.00  0.00     0.167 HD
ATOM     68  C   UNL     1       2.746  12.282 -17.474  1.00  0.00     0.074 A 
ATOM     69  C   UNL     1       3.331  13.606 -17.685  1.00  0.00     0.031 C 
ATOM     70  C   UNL     1       1.558  11.891 -16.925  1.00  0.00     0.037 A 
BRANCH  57  71
ATOM     71  C   UNL     1       0.891  17.192 -15.923  1.00  0.00     0.057 A 
ATOM     72  C   UNL     1      -0.084  17.477 -16.894  1.00  0.00     0.134 A 
ATOM     73  C   UNL     1       2.075  17.953 -16.023  1.00  0.00     0.134 A 
ATOM     74  F   UNL     1      -1.245  16.806 -16.921  1.00  0.00    -0.206 F 
ATOM     75  C   UNL     1       0.134  18.400 -17.924  1.00  0.00     0.040 A 
ATOM     76  C   UNL     1       2.281  18.914 -17.014  1.00  0.00     0.040 A 
ATOM     77  F   UNL     1       3.139  17.741 -15.238  1.00  0.00    -0.206 F 
ATOM     78  C   UNL     1       1.321  19.118 -17.990  1.00  0.00     0.006 A 
ENDBRANCH  57  71
BRANCH  58  79
ATOM     79  C   UNL     1       7.441  11.811 -17.410  1.00  0.00     0.057 A 
ATOM     80  C   UNL     1       7.616  11.506 -18.769  1.00  0.00     0.134 A 
ATOM     81  C   UNL     1       8.534  12.425 -16.774  1.00  0.00     0.134 A 
ATOM     82  F   UNL     1       6.617  10.960 -19.477  1.00  0.00    -0.206 F 
ATOM     83  C   UNL     1       8.797  11.815 -19.459  1.00  0.00     0.040 A 
ATOM     84  C   UNL     1       9.720  12.736 -17.450  1.00  0.00     0.040 A 
ATOM     85  F   UNL     1       8.454  12.829 -15.498  1.00  0.00    -0.206 F 
ATOM     86  C   UNL     1       9.850  12.444 -18.801  1.00  0.00     0.006 A 
ENDBRANCH  58  79
BRANCH  70  87
ATOM     87  C   UNL     1       1.357  10.422 -16.660  1.00  0.00     0.057 A 
ATOM     88  C   UNL     1       2.119   9.670 -15.751  1.00  0.00     0.134 A 
ATOM     89  C   UNL     1       0.256   9.782 -17.238  1.00  0.00     0.134 A 
ATOM     90  F   UNL     1       3.132  10.220 -15.072  1.00  0.00    -0.206 F 
ATOM     91  C   UNL     1       1.821   8.333 -15.464  1.00  0.00     0.040 A 
ATOM     92  C   UNL     1      -0.072   8.459 -16.934  1.00  0.00     0.040 A 
ATOM     93  F   UNL     1      -0.552  10.453 -18.073  1.00  0.00    -0.206 F 
ATOM     94  C   UNL     1       0.717   7.725 -16.053  1.00  0.00     0.006 A 
ENDBRANCH  70  87
ENDBRANCH  44  45
ENDBRANCH  37  39
ENDBRANCH  36  37
ENDBRANCH  35  36
ENDBRANCH  34  35
ENDBRANCH  33  34
ENDBRANCH   1  33
TORSDOF 19
