REMARK SMILES CN(C(=O)C[C@@H]1SC(=O)N(c2ccccc2)C1=O)c1ccccc1C(=O)OCCOC(=O)c1ccc(-c2c3nc(c(-c4c(F)cccc4F)c4ccc([nH]4)c(-c4c(F)cccc4F)c4nc(c(-c5c(F)cccc5F)c5ccc2[nH]5)C=C4)C=C3)cc1
REMARK SMILES IDX 27 1 25 2 26 3 24 4 19 5 20 6 21 7 23 8 22 9 2 10 1 11 3 12
REMARK SMILES IDX 4 13 5 14 6 15 7 16 17 17 8 18 10 19 18 20 9 21 11 22 12 23
REMARK SMILES IDX 16 24 13 25 15 26 14 27 28 28 29 29 30 30 31 31 32 32 33 33
REMARK SMILES IDX 34 34 86 35 35 36 85 37 36 38 37 39 38 40 79 41 39 42 84 43
REMARK SMILES IDX 78 44 80 45 40 46 83 47 77 48 76 49 41 51 67 52 50 53 66 54
REMARK SMILES IDX 51 55 54 56 65 57 81 58 52 59 53 60 64 62 82 63 55 64 42 65
REMARK SMILES IDX 43 66 48 67 44 68 45 69 47 70 49 71 46 72 68 73 69 74 74 75
REMARK SMILES IDX 70 76 71 77 73 78 75 79 72 80 56 81 57 82 62 83 58 84 59 85
REMARK SMILES IDX 61 86 63 87 60 88
REMARK H PARENT 80 50 54 61
REMARK Flexibility Score: inf
ROOT
ATOM      1  O   UNL     1       2.838  -0.092   0.796  1.00  0.00    -0.458 OA
ENDROOT
BRANCH   1   2
ATOM      2  C   UNL     1       2.537  -0.085   2.118  1.00  0.00     0.340 C 
ATOM      3  O   UNL     1       3.032  -0.832   2.953  1.00  0.00    -0.246 OA
BRANCH   2   4
ATOM      4  C   UNL     1       1.581   0.991   2.521  1.00  0.00     0.083 A 
ATOM      5  C   UNL     1       0.547   1.556   1.744  1.00  0.00     0.058 A 
ATOM      6  C   UNL     1      -0.198   2.612   2.324  1.00  0.00     0.027 A 
ATOM      7  C   UNL     1       0.073   3.117   3.598  1.00  0.00     0.002 A 
ATOM      8  C   UNL     1       1.807   1.486   3.829  1.00  0.00     0.018 A 
ATOM      9  C   UNL     1       1.081   2.552   4.355  1.00  0.00     0.001 A 
BRANCH   5  10
ATOM     10  N   UNL     1       0.139   1.097   0.435  1.00  0.00    -0.315 N 
ATOM     11  C   UNL     1       0.033  -0.344   0.229  1.00  0.00     0.153 C 
BRANCH  10  12
ATOM     12  C   UNL     1      -0.252   2.029  -0.532  1.00  0.00     0.228 C 
ATOM     13  O   UNL     1      -0.231   3.250  -0.355  1.00  0.00    -0.274 OA
BRANCH  12  14
ATOM     14  C   UNL     1      -0.684   1.541  -1.903  1.00  0.00     0.125 C 
BRANCH  14  15
ATOM     15  C   UNL     1       0.344   1.791  -3.006  1.00  0.00     0.156 C 
ATOM     16  S   UNL     1       1.292   0.300  -3.364  1.00  0.00    -0.050 SA
ATOM     17  C   UNL     1       1.373   2.880  -2.758  1.00  0.00     0.248 C 
ATOM     18  C   UNL     1       2.834   1.067  -3.034  1.00  0.00     0.293 C 
ATOM     19  N   UNL     1       2.662   2.382  -2.639  1.00  0.00    -0.240 N 
ATOM     20  O   UNL     1       1.049   4.065  -2.804  1.00  0.00    -0.273 OA
ATOM     21  O   UNL     1       3.846   0.413  -3.162  1.00  0.00    -0.261 OA
BRANCH  19  22
ATOM     22  C   UNL     1       3.759   3.209  -2.223  1.00  0.00     0.053 A 
ATOM     23  C   UNL     1       3.545   4.299  -1.358  1.00  0.00     0.027 A 
ATOM     24  C   UNL     1       5.086   2.938  -2.596  1.00  0.00     0.027 A 
ATOM     25  C   UNL     1       4.614   5.061  -0.867  1.00  0.00     0.002 A 
ATOM     26  C   UNL     1       6.154   3.706  -2.116  1.00  0.00     0.002 A 
ATOM     27  C   UNL     1       5.919   4.763  -1.244  1.00  0.00     0.000 A 
ENDBRANCH  19  22
ENDBRANCH  14  15
ENDBRANCH  12  14
ENDBRANCH  10  12
ENDBRANCH   5  10
ENDBRANCH   2   4
ENDBRANCH   1   2
BRANCH   1  28
ATOM     28  C   UNL     1       3.816  -1.071   0.368  1.00  0.00     0.275 C 
BRANCH  28  29
ATOM     29  C   UNL     1       5.105  -0.437  -0.170  1.00  0.00     0.275 C 
BRANCH  29  30
ATOM     30  O   UNL     1       5.870   0.239   0.844  1.00  0.00    -0.458 OA
BRANCH  30  31
ATOM     31  C   UNL     1       5.439   1.498   1.080  1.00  0.00     0.338 C 
ATOM     32  O   UNL     1       4.483   2.058   0.572  1.00  0.00    -0.246 OA
BRANCH  31  33
ATOM     33  C   UNL     1       6.155   2.097   2.205  1.00  0.00     0.060 A 
ATOM     34  C   UNL     1       5.388   2.353   3.337  1.00  0.00     0.016 A 
ATOM     35  C   UNL     1       7.474   2.541   2.118  1.00  0.00     0.016 A 
ATOM     36  C   UNL     1       5.915   3.084   4.387  1.00  0.00     0.010 A 
ATOM     37  C   UNL     1       8.021   3.252   3.195  1.00  0.00     0.010 A 
ATOM     38  C   UNL     1       7.238   3.541   4.329  1.00  0.00    -0.014 A 
BRANCH  38  39
ATOM     39  C   UNL     1       7.753   4.349   5.460  1.00  0.00     0.031 A 
ATOM     40  C   UNL     1       8.043   5.811   5.278  1.00  0.00     0.074 A 
ATOM     41  C   UNL     1       7.877   3.776   6.672  1.00  0.00     0.049 A 
ATOM     42  N   UNL     1       8.544   6.664   6.134  1.00  0.00    -0.248 NA
ATOM     43  C   UNL     1       7.737   6.390   3.961  1.00  0.00     0.031 C 
ATOM     44  C   UNL     1       7.576   2.375   6.978  1.00  0.00     0.029 A 
ATOM     45  N   UNL     1       8.259   4.304   7.878  1.00  0.00    -0.354 N 
ATOM     46  C   UNL     1       8.665   7.865   5.446  1.00  0.00     0.074 A 
ATOM     47  C   UNL     1       8.174   7.634   4.104  1.00  0.00     0.031 C 
ATOM     48  C   UNL     1       7.737   2.168   8.294  1.00  0.00     0.029 A 
ATOM     49  C   UNL     1       8.216   3.400   8.911  1.00  0.00     0.049 A 
ATOM     50  H   UNL     1       8.537   5.242   7.993  1.00  0.00     0.167 HD
ATOM     51  C   UNL     1       9.149   9.046   5.896  1.00  0.00     0.037 A 
ATOM     52  C   UNL     1       8.543   3.544  10.208  1.00  0.00     0.037 A 
ATOM     53  C   UNL     1       9.582   9.281   7.250  1.00  0.00     0.049 A 
ATOM     54  C   UNL     1       9.055   4.873  10.684  1.00  0.00     0.074 A 
ATOM     55  C   UNL     1      10.090  10.441   7.808  1.00  0.00     0.029 A 
ATOM     56  N   UNL     1       9.533   8.338   8.266  1.00  0.00    -0.354 N 
ATOM     57  N   UNL     1       9.216   5.985  10.009  1.00  0.00    -0.248 NA
ATOM     58  C   UNL     1       9.443   4.964  12.098  1.00  0.00     0.031 C 
ATOM     59  C   UNL     1      10.368  10.194   9.157  1.00  0.00     0.029 A 
ATOM     60  C   UNL     1      10.002   8.890   9.447  1.00  0.00     0.049 A 
ATOM     61  H   UNL     1       9.214   7.412   8.163  1.00  0.00     0.167 HD
ATOM     62  C   UNL     1       9.711   6.911  10.916  1.00  0.00     0.074 A 
ATOM     63  C   UNL     1       9.802   6.236  12.195  1.00  0.00     0.031 C 
ATOM     64  C   UNL     1      10.068   8.201  10.709  1.00  0.00     0.037 A 
BRANCH  51  65
ATOM     65  C   UNL     1       9.278  10.166   4.906  1.00  0.00     0.057 A 
ATOM     66  C   UNL     1       8.171  10.889   4.447  1.00  0.00     0.134 A 
ATOM     67  C   UNL     1      10.541  10.546   4.433  1.00  0.00     0.134 A 
ATOM     68  F   UNL     1       6.933  10.566   4.850  1.00  0.00    -0.206 F 
ATOM     69  C   UNL     1       8.314  11.941   3.539  1.00  0.00     0.040 A 
ATOM     70  C   UNL     1      10.699  11.608   3.542  1.00  0.00     0.040 A 
ATOM     71  F   UNL     1      11.643   9.895   4.835  1.00  0.00    -0.206 F 
ATOM     72  C   UNL     1       9.582  12.307   3.089  1.00  0.00     0.006 A 
ENDBRANCH  51  65
BRANCH  52  73
ATOM     73  C   UNL     1       8.413   2.398  11.142  1.00  0.00     0.057 A 
ATOM     74  C   UNL     1       7.449   2.397  12.156  1.00  0.00     0.134 A 
ATOM     75  C   UNL     1       9.250   1.280  11.045  1.00  0.00     0.134 A 
ATOM     76  F   UNL     1       6.631   3.449  12.312  1.00  0.00    -0.206 F 
ATOM     77  C   UNL     1       7.330   1.332  13.050  1.00  0.00     0.040 A 
ATOM     78  C   UNL     1       9.125   0.197  11.915  1.00  0.00     0.040 A 
ATOM     79  F   UNL     1      10.192   1.219  10.092  1.00  0.00    -0.206 F 
ATOM     80  C   UNL     1       8.167   0.224  12.926  1.00  0.00     0.006 A 
ENDBRANCH  52  73
BRANCH  64  81
ATOM     81  C   UNL     1      10.549   8.965  11.905  1.00  0.00     0.057 A 
ATOM     82  C   UNL     1      11.822   8.757  12.448  1.00  0.00     0.134 A 
ATOM     83  C   UNL     1       9.728   9.920  12.515  1.00  0.00     0.134 A 
ATOM     84  F   UNL     1      12.648   7.843  11.916  1.00  0.00    -0.206 F 
ATOM     85  C   UNL     1      12.253   9.454  13.578  1.00  0.00     0.040 A 
ATOM     86  C   UNL     1      10.155  10.639  13.632  1.00  0.00     0.040 A 
ATOM     87  F   UNL     1       8.499  10.168  12.037  1.00  0.00    -0.206 F 
ATOM     88  C   UNL     1      11.418  10.400  14.171  1.00  0.00     0.006 A 
ENDBRANCH  64  81
ENDBRANCH  38  39
ENDBRANCH  31  33
ENDBRANCH  30  31
ENDBRANCH  29  30
ENDBRANCH  28  29
ENDBRANCH   1  28
TORSDOF 16
