REMARK SMILES CCn1cc(CNC(=O)[C@H]2CC=CC[C@H]2C(=O)OCCOC(=O)c2ccc(-c3c4nc(c(-c5c(F)cccc5F)c5ccc([nH]5)c(-c5c(F)cccc5F)c5nc(c(-c6c(F)cccc6F)c6ccc3[nH]6)C=C5)C=C4)cc2)cn1
REMARK SMILES IDX 19 1 18 2 16 3 17 4 15 5 10 6 11 7 12 8 14 9 13 10 8 11 7 12
REMARK SMILES IDX 9 14 6 15 5 16 3 17 4 18 79 19 78 20 2 21 1 22 20 23 21 24
REMARK SMILES IDX 22 25 23 26 24 27 25 28 77 29 26 30 76 31 27 32 28 33 29 34
REMARK SMILES IDX 70 35 30 36 75 37 69 38 71 39 31 40 74 41 68 42 67 43 32 45
REMARK SMILES IDX 58 46 41 47 57 48 42 49 45 50 56 51 72 52 43 53 44 54 55 56
REMARK SMILES IDX 73 57 46 58 33 59 34 60 39 61 35 62 36 63 38 64 40 65 37 66
REMARK SMILES IDX 59 67 60 68 65 69 61 70 62 71 64 72 66 73 63 74 47 75 48 76
REMARK SMILES IDX 53 77 49 78 50 79 52 80 54 81 51 82
REMARK H PARENT 7 13 71 44 45 55
REMARK Flexibility Score: inf
ROOT
ATOM      1  C   UNL     1       6.047  -7.858  -6.427  1.00  0.00     0.274 C 
ENDROOT
BRANCH   1   2
ATOM      2  O   UNL     1       5.106  -6.767  -6.459  1.00  0.00    -0.462 OA
BRANCH   2   3
ATOM      3  C   UNL     1       4.117  -6.869  -7.374  1.00  0.00     0.310 C 
ATOM      4  O   UNL     1       4.091  -7.713  -8.268  1.00  0.00    -0.252 OA
BRANCH   3   5
ATOM      5  C   UNL     1       3.062  -5.787  -7.273  1.00  0.00     0.115 C 
ATOM      6  C   UNL     1       2.369  -5.482  -5.927  1.00  0.00     0.096 C 
ATOM      7  C   UNL     1       1.143  -4.586  -6.185  1.00  0.00     0.041 C 
ATOM      8  C   UNL     1       1.324  -3.577  -7.293  1.00  0.00    -0.030 C 
ATOM      9  C   UNL     1       3.538  -4.515  -7.969  1.00  0.00     0.043 C 
ATOM     10  C   UNL     1       2.419  -3.516  -8.067  1.00  0.00    -0.030 C 
BRANCH   6  11
ATOM     11  C   UNL     1       3.305  -5.118  -4.759  1.00  0.00     0.224 C 
ATOM     12  N   UNL     1       3.586  -3.879  -4.309  1.00  0.00    -0.352 N 
ATOM     13  H   UNL     1       4.325  -3.873  -3.658  1.00  0.00     0.163 HD
ATOM     14  O   UNL     1       3.906  -6.005  -4.138  1.00  0.00    -0.275 OA
BRANCH  12  15
ATOM     15  C   UNL     1       3.059  -2.562  -4.555  1.00  0.00     0.155 C 
BRANCH  15  16
ATOM     16  C   UNL     1       2.161  -2.154  -3.440  1.00  0.00     0.009 A 
ATOM     17  N   UNL     1       1.027  -0.973  -1.964  1.00  0.00    -0.273 N 
ATOM     18  C   UNL     1       1.928  -0.870  -2.985  1.00  0.00     0.114 A 
ATOM     19  N   UNL     1       0.635  -2.236  -1.729  1.00  0.00    -0.181 NA
ATOM     20  C   UNL     1       1.331  -2.953  -2.614  1.00  0.00     0.140 A 
BRANCH  17  21
ATOM     21  C   UNL     1       0.478   0.113  -1.176  1.00  0.00     0.141 C 
ATOM     22  C   UNL     1       1.023   0.130   0.242  1.00  0.00     0.029 C 
ENDBRANCH  17  21
ENDBRANCH  15  16
ENDBRANCH  12  15
ENDBRANCH   6  11
ENDBRANCH   3   5
ENDBRANCH   2   3
ENDBRANCH   1   2
BRANCH   1  23
ATOM     23  C   UNL     1       5.607  -8.989  -5.497  1.00  0.00     0.275 C 
BRANCH  23  24
ATOM     24  O   UNL     1       4.589  -9.828  -6.060  1.00  0.00    -0.458 OA
BRANCH  24  25
ATOM     25  C   UNL     1       3.333  -9.435  -5.761  1.00  0.00     0.338 C 
ATOM     26  O   UNL     1       2.989  -8.353  -5.325  1.00  0.00    -0.246 OA
BRANCH  25  27
ATOM     27  C   UNL     1       2.374 -10.535  -5.822  1.00  0.00     0.060 A 
ATOM     28  C   UNL     1       1.021 -10.200  -5.668  1.00  0.00     0.016 A 
ATOM     29  C   UNL     1       2.815 -11.859  -5.777  1.00  0.00     0.016 A 
ATOM     30  C   UNL     1       0.114 -11.192  -5.362  1.00  0.00     0.010 A 
ATOM     31  C   UNL     1       1.906 -12.851  -5.468  1.00  0.00     0.010 A 
ATOM     32  C   UNL     1       0.575 -12.503  -5.218  1.00  0.00    -0.014 A 
BRANCH  32  33
ATOM     33  C   UNL     1      -0.407 -13.530  -4.918  1.00  0.00     0.031 A 
ATOM     34  C   UNL     1      -1.319 -13.851  -6.042  1.00  0.00     0.074 A 
ATOM     35  C   UNL     1      -0.379 -14.252  -3.782  1.00  0.00     0.049 A 
ATOM     36  N   UNL     1      -2.610 -13.852  -6.051  1.00  0.00    -0.248 NA
ATOM     37  C   UNL     1      -0.704 -14.133  -7.351  1.00  0.00     0.031 C 
ATOM     38  C   UNL     1       0.665 -14.227  -2.755  1.00  0.00     0.029 A 
ATOM     39  N   UNL     1      -1.208 -15.257  -3.373  1.00  0.00    -0.354 N 
ATOM     40  C   UNL     1      -2.970 -14.330  -7.307  1.00  0.00     0.074 A 
ATOM     41  C   UNL     1      -1.776 -14.351  -8.109  1.00  0.00     0.031 C 
ATOM     42  C   UNL     1       0.529 -15.315  -1.967  1.00  0.00     0.029 A 
ATOM     43  C   UNL     1      -0.670 -16.038  -2.361  1.00  0.00     0.049 A 
ATOM     44  H   UNL     1      -2.100 -15.411  -3.758  1.00  0.00     0.167 HD
ATOM     45  C   UNL     1      -4.165 -14.939  -7.509  1.00  0.00     0.037 A 
ATOM     46  C   UNL     1      -1.131 -17.232  -1.922  1.00  0.00     0.037 A 
ATOM     47  C   UNL     1      -5.121 -14.604  -6.490  1.00  0.00     0.049 A 
ATOM     48  C   UNL     1      -2.546 -17.369  -2.331  1.00  0.00     0.074 A 
ATOM     49  C   UNL     1      -5.784 -13.466  -6.084  1.00  0.00     0.029 A 
ATOM     50  N   UNL     1      -5.270 -15.529  -5.493  1.00  0.00    -0.354 N 
ATOM     51  N   UNL     1      -3.530 -16.678  -1.831  1.00  0.00    -0.248 NA
ATOM     52  C   UNL     1      -2.871 -18.128  -3.534  1.00  0.00     0.031 C 
ATOM     53  C   UNL     1      -6.068 -13.653  -4.698  1.00  0.00     0.029 A 
ATOM     54  C   UNL     1      -5.569 -14.898  -4.316  1.00  0.00     0.049 A 
ATOM     55  H   UNL     1      -5.177 -16.503  -5.606  1.00  0.00     0.167 HD
ATOM     56  C   UNL     1      -4.437 -16.567  -2.868  1.00  0.00     0.074 A 
ATOM     57  C   UNL     1      -4.082 -17.630  -3.795  1.00  0.00     0.031 C 
ATOM     58  C   UNL     1      -5.175 -15.431  -3.029  1.00  0.00     0.037 A 
BRANCH  45  59
ATOM     59  C   UNL     1      -4.310 -16.186  -8.350  1.00  0.00     0.057 A 
ATOM     60  C   UNL     1      -5.596 -16.658  -8.662  1.00  0.00     0.134 A 
ATOM     61  C   UNL     1      -3.260 -17.100  -8.582  1.00  0.00     0.134 A 
ATOM     62  F   UNL     1      -6.678 -15.894  -8.448  1.00  0.00    -0.206 F 
ATOM     63  C   UNL     1      -5.824 -17.963  -9.117  1.00  0.00     0.040 A 
ATOM     64  C   UNL     1      -3.472 -18.385  -9.088  1.00  0.00     0.040 A 
ATOM     65  F   UNL     1      -1.994 -16.841  -8.232  1.00  0.00    -0.206 F 
ATOM     66  C   UNL     1      -4.760 -18.832  -9.329  1.00  0.00     0.006 A 
ENDBRANCH  45  59
BRANCH  46  67
ATOM     67  C   UNL     1      -0.376 -18.357  -1.327  1.00  0.00     0.057 A 
ATOM     68  C   UNL     1      -1.033 -19.370  -0.616  1.00  0.00     0.134 A 
ATOM     69  C   UNL     1       0.970 -18.602  -1.650  1.00  0.00     0.134 A 
ATOM     70  F   UNL     1      -2.329 -19.250  -0.295  1.00  0.00    -0.206 F 
ATOM     71  C   UNL     1      -0.397 -20.568  -0.267  1.00  0.00     0.040 A 
ATOM     72  C   UNL     1       1.622 -19.786  -1.293  1.00  0.00     0.040 A 
ATOM     73  F   UNL     1       1.675 -17.741  -2.397  1.00  0.00    -0.206 F 
ATOM     74  C   UNL     1       0.933 -20.781  -0.613  1.00  0.00     0.006 A 
ENDBRANCH  46  67
BRANCH  58  75
ATOM     75  C   UNL     1      -5.385 -14.574  -1.816  1.00  0.00     0.057 A 
ATOM     76  C   UNL     1      -4.360 -13.929  -1.110  1.00  0.00     0.134 A 
ATOM     77  C   UNL     1      -6.696 -14.349  -1.379  1.00  0.00     0.134 A 
ATOM     78  F   UNL     1      -3.084 -14.005  -1.513  1.00  0.00    -0.206 F 
ATOM     79  C   UNL     1      -4.625 -13.152   0.021  1.00  0.00     0.040 A 
ATOM     80  C   UNL     1      -6.978 -13.543  -0.275  1.00  0.00     0.040 A 
ATOM     81  F   UNL     1      -7.733 -14.891  -2.039  1.00  0.00    -0.206 F 
ATOM     82  C   UNL     1      -5.938 -12.956   0.441  1.00  0.00     0.006 A 
ENDBRANCH  58  75
ENDBRANCH  32  33
ENDBRANCH  25  27
ENDBRANCH  24  25
ENDBRANCH  23  24
ENDBRANCH   1  23
TORSDOF 15
