REMARK SMILES COc1ccc(CCc2nnc(NC(=O)[C@@H]3[C@@H](C(=O)OCCOC(=O)c4ccc(-c5c6nc(c(-c7c(F)cccc7F)c7ccc([nH]7)c(-c7c(F)cccc7F)c7nc(c(-c8c(F)cccc8F)c8ccc5[nH]8)C=C7)C=C6)cc4)C3(C)C)s2)cc1
REMARK SMILES IDX 18 1 19 2 17 3 16 4 80 5 81 6 82 7 14 8 13 9 15 11 12 12
REMARK SMILES IDX 9 13 10 14 83 15 11 16 8 17 7 18 6 19 3 20 4 21 85 22 5 23
REMARK SMILES IDX 84 24 2 25 1 26 20 27 21 28 22 29 23 30 24 31 25 32 26 33
REMARK SMILES IDX 27 34 79 35 28 36 78 37 29 38 30 39 31 40 72 41 32 42 77 43
REMARK SMILES IDX 71 44 73 45 33 46 76 47 70 48 69 49 34 51 60 52 43 53 59 54
REMARK SMILES IDX 44 55 47 56 58 57 74 58 45 59 46 60 57 62 75 63 48 64 35 65
REMARK SMILES IDX 36 66 41 67 37 68 38 69 40 70 42 71 39 72 61 73 62 74 67 75
REMARK SMILES IDX 63 76 64 77 66 78 68 79 65 80 49 81 50 82 55 83 51 84 52 85
REMARK SMILES IDX 54 86 56 87 53 88
REMARK H PARENT 13 10 73 50 47 61
REMARK Flexibility Score: inf
ROOT
ATOM      1  C   UNL     1      -6.028   4.942   6.689  1.00  0.00     0.310 C 
ATOM      2  O   UNL     1      -5.930   5.100   7.898  1.00  0.00    -0.252 OA
ENDROOT
BRANCH   1   3
ATOM      3  C   UNL     1      -5.469   3.735   6.038  1.00  0.00     0.118 C 
ATOM      4  C   UNL     1      -3.987   3.608   5.898  1.00  0.00     0.100 C 
ATOM      5  C   UNL     1      -4.865   3.666   4.642  1.00  0.00    -0.009 C 
ATOM      6  C   UNL     1      -4.789   4.897   3.777  1.00  0.00     0.013 C 
ATOM      7  C   UNL     1      -5.191   2.427   3.850  1.00  0.00     0.013 C 
BRANCH   4   8
ATOM      8  C   UNL     1      -3.061   2.487   6.229  1.00  0.00     0.230 C 
ATOM      9  N   UNL     1      -3.313   1.144   6.313  1.00  0.00    -0.300 N 
ATOM     10  H   UNL     1      -2.502   0.586   6.308  1.00  0.00     0.172 HD
ATOM     11  O   UNL     1      -1.872   2.799   6.350  1.00  0.00    -0.274 OA
BRANCH   9  12
ATOM     12  C   UNL     1      -4.467   0.436   6.403  1.00  0.00     0.212 A 
ATOM     13  C   UNL     1      -6.031  -1.327   6.108  1.00  0.00     0.119 A 
ATOM     14  N   UNL     1      -6.592  -0.210   6.519  1.00  0.00    -0.142 NA
ATOM     15  S   UNL     1      -4.309  -1.239   6.062  1.00  0.00    -0.080 S 
ATOM     16  N   UNL     1      -5.682   0.806   6.699  1.00  0.00    -0.120 NA
BRANCH  13  17
ATOM     17  C   UNL     1      -6.794  -2.532   5.646  1.00  0.00     0.074 C 
BRANCH  17  18
ATOM     18  C   UNL     1      -7.939  -2.177   4.670  1.00  0.00     0.043 C 
BRANCH  18  19
ATOM     19  C   UNL     1      -7.510  -1.840   3.254  1.00  0.00    -0.047 A 
ATOM     20  C   UNL     1      -6.700  -1.189   0.631  1.00  0.00     0.118 A 
ATOM     21  C   UNL     1      -6.218  -0.465   1.712  1.00  0.00     0.046 A 
ATOM     22  C   UNL     1      -7.594  -2.236   0.849  1.00  0.00     0.046 A 
ATOM     23  C   UNL     1      -6.643  -0.772   3.003  1.00  0.00     0.007 A 
ATOM     24  C   UNL     1      -7.998  -2.558   2.155  1.00  0.00     0.007 A 
BRANCH  20  25
ATOM     25  O   UNL     1      -6.188  -0.846  -0.588  1.00  0.00    -0.497 OA
ATOM     26  C   UNL     1      -7.168  -0.726  -1.612  1.00  0.00     0.278 C 
ENDBRANCH  20  25
ENDBRANCH  18  19
ENDBRANCH  17  18
ENDBRANCH  13  17
ENDBRANCH   9  12
ENDBRANCH   4   8
ENDBRANCH   1   3
BRANCH   1  27
ATOM     27  O   UNL     1      -6.725   5.728   5.833  1.00  0.00    -0.462 OA
BRANCH  27  28
ATOM     28  C   UNL     1      -7.531   6.765   6.419  1.00  0.00     0.274 C 
BRANCH  28  29
ATOM     29  C   UNL     1      -9.006   6.489   6.129  1.00  0.00     0.275 C 
BRANCH  29  30
ATOM     30  O   UNL     1      -9.449   5.303   6.820  1.00  0.00    -0.458 OA
BRANCH  30  31
ATOM     31  C   UNL     1      -9.406   4.170   6.083  1.00  0.00     0.338 C 
ATOM     32  O   UNL     1      -9.072   4.053   4.916  1.00  0.00    -0.246 OA
BRANCH  31  33
ATOM     33  C   UNL     1      -9.771   3.014   6.911  1.00  0.00     0.060 A 
ATOM     34  C   UNL     1      -8.748   2.256   7.464  1.00  0.00     0.016 A 
ATOM     35  C   UNL     1     -11.089   2.561   6.965  1.00  0.00     0.016 A 
ATOM     36  C   UNL     1      -9.018   0.985   7.959  1.00  0.00     0.010 A 
ATOM     37  C   UNL     1     -11.364   1.308   7.533  1.00  0.00     0.010 A 
ATOM     38  C   UNL     1     -10.321   0.473   7.973  1.00  0.00    -0.014 A 
BRANCH  38  39
ATOM     39  C   UNL     1     -10.548  -0.958   8.339  1.00  0.00     0.031 A 
ATOM     40  C   UNL     1     -11.187  -1.905   7.349  1.00  0.00     0.074 A 
ATOM     41  C   UNL     1     -10.115  -1.448   9.519  1.00  0.00     0.049 A 
ATOM     42  N   UNL     1     -11.557  -3.152   7.511  1.00  0.00    -0.248 NA
ATOM     43  C   UNL     1     -11.445  -1.382   5.998  1.00  0.00     0.031 C 
ATOM     44  C   UNL     1      -9.414  -0.682  10.550  1.00  0.00     0.029 A 
ATOM     45  N   UNL     1     -10.183  -2.718  10.043  1.00  0.00    -0.354 N 
ATOM     46  C   UNL     1     -12.145  -3.538   6.312  1.00  0.00     0.074 A 
ATOM     47  C   UNL     1     -12.080  -2.395   5.426  1.00  0.00     0.031 C 
ATOM     48  C   UNL     1      -9.078  -1.500  11.558  1.00  0.00     0.029 A 
ATOM     49  C   UNL     1      -9.618  -2.829  11.292  1.00  0.00     0.049 A 
ATOM     50  H   UNL     1     -10.597  -3.475   9.570  1.00  0.00     0.167 HD
ATOM     51  C   UNL     1     -12.689  -4.733   5.976  1.00  0.00     0.037 A 
ATOM     52  C   UNL     1      -9.570  -3.866  12.149  1.00  0.00     0.037 A 
ATOM     53  C   UNL     1     -12.711  -5.890   6.833  1.00  0.00     0.049 A 
ATOM     54  C   UNL     1     -10.218  -5.168  11.770  1.00  0.00     0.074 A 
ATOM     55  C   UNL     1     -13.239  -7.145   6.575  1.00  0.00     0.029 A 
ATOM     56  N   UNL     1     -12.173  -5.940   8.109  1.00  0.00    -0.354 N 
ATOM     57  N   UNL     1     -10.818  -5.499  10.654  1.00  0.00    -0.248 NA
ATOM     58  C   UNL     1     -10.195  -6.236  12.780  1.00  0.00     0.031 C 
ATOM     59  C   UNL     1     -13.050  -7.943   7.708  1.00  0.00     0.029 A 
ATOM     60  C   UNL     1     -12.363  -7.201   8.653  1.00  0.00     0.049 A 
ATOM     61  H   UNL     1     -11.722  -5.191   8.562  1.00  0.00     0.167 HD
ATOM     62  C   UNL     1     -11.229  -6.816  10.820  1.00  0.00     0.074 A 
ATOM     63  C   UNL     1     -10.790  -7.229  12.136  1.00  0.00     0.031 C 
ATOM     64  C   UNL     1     -11.913  -7.607   9.959  1.00  0.00     0.037 A 
BRANCH  51  65
ATOM     65  C   UNL     1     -13.345  -4.843   4.629  1.00  0.00     0.057 A 
ATOM     66  C   UNL     1     -12.609  -4.896   3.439  1.00  0.00     0.134 A 
ATOM     67  C   UNL     1     -14.741  -4.938   4.530  1.00  0.00     0.134 A 
ATOM     68  F   UNL     1     -11.271  -4.794   3.461  1.00  0.00    -0.206 F 
ATOM     69  C   UNL     1     -13.239  -5.020   2.198  1.00  0.00     0.040 A 
ATOM     70  C   UNL     1     -15.379  -5.088   3.298  1.00  0.00     0.040 A 
ATOM     71  F   UNL     1     -15.505  -4.901   5.632  1.00  0.00    -0.206 F 
ATOM     72  C   UNL     1     -14.627  -5.124   2.126  1.00  0.00     0.006 A 
ENDBRANCH  51  65
BRANCH  52  73
ATOM     73  C   UNL     1      -8.922  -3.704  13.476  1.00  0.00     0.057 A 
ATOM     74  C   UNL     1      -7.745  -4.388  13.799  1.00  0.00     0.134 A 
ATOM     75  C   UNL     1      -9.474  -2.871  14.458  1.00  0.00     0.134 A 
ATOM     76  F   UNL     1      -7.183  -5.222  12.912  1.00  0.00    -0.206 F 
ATOM     77  C   UNL     1      -7.146  -4.259  15.054  1.00  0.00     0.040 A 
ATOM     78  C   UNL     1      -8.870  -2.709  15.705  1.00  0.00     0.040 A 
ATOM     79  F   UNL     1     -10.603  -2.190  14.212  1.00  0.00    -0.206 F 
ATOM     80  C   UNL     1      -7.705  -3.411  16.008  1.00  0.00     0.006 A 
ENDBRANCH  52  73
BRANCH  64  81
ATOM     81  C   UNL     1     -12.189  -9.016  10.397  1.00  0.00     0.057 A 
ATOM     82  C   UNL     1     -13.136  -9.313  11.385  1.00  0.00     0.134 A 
ATOM     83  C   UNL     1     -11.509 -10.090   9.809  1.00  0.00     0.134 A 
ATOM     84  F   UNL     1     -13.811  -8.329  11.998  1.00  0.00    -0.206 F 
ATOM     85  C   UNL     1     -13.378 -10.627  11.791  1.00  0.00     0.040 A 
ATOM     86  C   UNL     1     -11.760 -11.409  10.188  1.00  0.00     0.040 A 
ATOM     87  F   UNL     1     -10.594  -9.874   8.851  1.00  0.00    -0.206 F 
ATOM     88  C   UNL     1     -12.692 -11.679  11.188  1.00  0.00     0.006 A 
ENDBRANCH  64  81
ENDBRANCH  38  39
ENDBRANCH  31  33
ENDBRANCH  30  31
ENDBRANCH  29  30
ENDBRANCH  28  29
ENDBRANCH  27  28
ENDBRANCH   1  27
TORSDOF 17
