REMARK SMILES O=C(CC1(C[S@@](=O)C[C@H]2Cc3ccccc3S2)CC1)OCCOC(=O)c1ccc(-c2c3nc(c(-c4c(F)cccc4F)c4ccc([nH]4)c(-c4c(F)cccc4F)c4nc(c(-c5c(F)cccc5F)c5ccc2[nH]5)C=C4)C=C3)cc1
REMARK SMILES IDX 20 1 2 2 1 3 3 4 4 5 18 6 19 7 5 8 6 9 7 10 8 11 9 12 10 13
REMARK SMILES IDX 17 14 11 15 16 16 12 17 15 18 13 19 14 20 21 21 22 22 23 23
REMARK SMILES IDX 24 24 25 25 26 26 27 27 79 28 28 29 78 30 29 31 30 32 31 33
REMARK SMILES IDX 72 34 32 35 77 36 71 37 73 38 33 39 76 40 70 41 69 42 34 44
REMARK SMILES IDX 60 45 43 46 59 47 44 48 47 49 58 50 74 51 45 52 46 53 57 55
REMARK SMILES IDX 75 56 48 57 35 58 36 59 41 60 37 61 38 62 40 63 42 64 39 65
REMARK SMILES IDX 61 66 62 67 67 68 63 69 64 70 66 71 68 72 65 73 49 74 50 75
REMARK SMILES IDX 55 76 51 77 52 78 54 79 56 80 53 81
REMARK H PARENT 73 43 47 54
REMARK Flexibility Score: inf
ROOT
ATOM      1  O   UNL     1       5.204   0.019   0.385  1.00  0.00    -0.462 OA
ENDROOT
BRANCH   1   2
ATOM      2  C   UNL     1       6.476  -0.385   0.504  1.00  0.00     0.306 C 
ATOM      3  O   UNL     1       6.815  -1.554   0.633  1.00  0.00    -0.252 OA
BRANCH   2   4
ATOM      4  C   UNL     1       7.402   0.774   0.769  1.00  0.00     0.130 C 
BRANCH   4   5
ATOM      5  C   UNL     1       7.452   2.112   0.011  1.00  0.00    -0.008 C 
ATOM      6  C   UNL     1       8.479   3.022   0.718  1.00  0.00     0.009 C 
ATOM      7  C   UNL     1       8.758   2.549  -0.658  1.00  0.00     0.009 C 
BRANCH   5   8
ATOM      8  C   UNL     1       6.164   2.847  -0.371  1.00  0.00     0.112 C 
BRANCH   8   9
ATOM      9  S   UNL     1       4.795   2.013  -1.160  1.00  0.00     0.023 S 
ATOM     10  O   UNL     1       3.500   2.668  -0.794  1.00  0.00    -0.260 OA
BRANCH   9  11
ATOM     11  C   UNL     1       5.001   1.939  -2.927  1.00  0.00     0.120 C 
BRANCH  11  12
ATOM     12  C   UNL     1       5.852   0.799  -3.512  1.00  0.00     0.068 C 
ATOM     13  C   UNL     1       7.368   0.996  -3.376  1.00  0.00     0.052 C 
ATOM     14  S   UNL     1       5.443  -0.905  -2.966  1.00  0.00    -0.121 SA
ATOM     15  C   UNL     1       7.991  -0.240  -2.801  1.00  0.00    -0.033 A 
ATOM     16  C   UNL     1       7.124  -1.310  -2.596  1.00  0.00     0.011 A 
ATOM     17  C   UNL     1       9.342  -0.366  -2.479  1.00  0.00     0.005 A 
ATOM     18  C   UNL     1       7.588  -2.515  -2.081  1.00  0.00     0.015 A 
ATOM     19  C   UNL     1       9.808  -1.556  -1.918  1.00  0.00     0.000 A 
ATOM     20  C   UNL     1       8.936  -2.631  -1.727  1.00  0.00     0.001 A 
ENDBRANCH  11  12
ENDBRANCH   9  11
ENDBRANCH   8   9
ENDBRANCH   5   8
ENDBRANCH   4   5
ENDBRANCH   2   4
ENDBRANCH   1   2
BRANCH   1  21
ATOM     21  C   UNL     1       4.110  -0.892   0.578  1.00  0.00     0.274 C 
BRANCH  21  22
ATOM     22  C   UNL     1       3.478  -0.500   1.913  1.00  0.00     0.275 C 
BRANCH  22  23
ATOM     23  O   UNL     1       4.496  -0.223   2.898  1.00  0.00    -0.458 OA
BRANCH  23  24
ATOM     24  C   UNL     1       5.213  -1.302   3.313  1.00  0.00     0.338 C 
ATOM     25  O   UNL     1       4.916  -2.459   3.159  1.00  0.00    -0.246 OA
BRANCH  24  26
ATOM     26  C   UNL     1       6.524  -0.813   3.837  1.00  0.00     0.060 A 
ATOM     27  C   UNL     1       6.666   0.457   4.408  1.00  0.00     0.016 A 
ATOM     28  C   UNL     1       7.649  -1.634   3.685  1.00  0.00     0.016 A 
ATOM     29  C   UNL     1       7.918   0.884   4.857  1.00  0.00     0.010 A 
ATOM     30  C   UNL     1       8.900  -1.215   4.152  1.00  0.00     0.010 A 
ATOM     31  C   UNL     1       9.036   0.035   4.770  1.00  0.00    -0.014 A 
BRANCH  31  32
ATOM     32  C   UNL     1      10.260   0.368   5.542  1.00  0.00     0.031 A 
ATOM     33  C   UNL     1      11.517   0.877   4.906  1.00  0.00     0.074 A 
ATOM     34  C   UNL     1      10.208   0.184   6.875  1.00  0.00     0.049 A 
ATOM     35  N   UNL     1      12.611   1.305   5.486  1.00  0.00    -0.248 NA
ATOM     36  C   UNL     1      11.561   0.904   3.438  1.00  0.00     0.031 C 
ATOM     37  C   UNL     1       9.056  -0.360   7.600  1.00  0.00     0.029 A 
ATOM     38  N   UNL     1      11.132   0.433   7.855  1.00  0.00    -0.354 N 
ATOM     39  C   UNL     1      13.466   1.685   4.461  1.00  0.00     0.074 A 
ATOM     40  C   UNL     1      12.780   1.386   3.218  1.00  0.00     0.031 C 
ATOM     41  C   UNL     1       9.334  -0.383   8.911  1.00  0.00     0.029 A 
ATOM     42  C   UNL     1      10.686   0.123   9.116  1.00  0.00     0.049 A 
ATOM     43  H   UNL     1      12.027   0.799   7.673  1.00  0.00     0.167 HD
ATOM     44  C   UNL     1      14.699   2.244   4.553  1.00  0.00     0.037 A 
ATOM     45  C   UNL     1      11.295   0.235  10.309  1.00  0.00     0.037 A 
ATOM     46  C   UNL     1      15.396   2.493   5.793  1.00  0.00     0.049 A 
ATOM     47  C   UNL     1      12.674   0.818  10.376  1.00  0.00     0.074 A 
ATOM     48  C   UNL     1      16.634   3.085   5.987  1.00  0.00     0.029 A 
ATOM     49  N   UNL     1      14.928   2.142   7.052  1.00  0.00    -0.354 N 
ATOM     50  N   UNL     1      13.430   1.268   9.404  1.00  0.00    -0.248 NA
ATOM     51  C   UNL     1      13.280   0.919  11.710  1.00  0.00     0.031 C 
ATOM     52  C   UNL     1      16.934   3.049   7.355  1.00  0.00     0.029 A 
ATOM     53  C   UNL     1      15.863   2.478   8.021  1.00  0.00     0.049 A 
ATOM     54  H   UNL     1      14.058   1.717   7.231  1.00  0.00     0.167 HD
ATOM     55  C   UNL     1      14.594   1.720  10.009  1.00  0.00     0.074 A 
ATOM     56  C   UNL     1      14.430   1.516  11.435  1.00  0.00     0.031 C 
ATOM     57  C   UNL     1      15.700   2.252   9.435  1.00  0.00     0.037 A 
BRANCH  44  58
ATOM     58  C   UNL     1      15.378   2.636   3.271  1.00  0.00     0.057 A 
ATOM     59  C   UNL     1      16.519   1.962   2.817  1.00  0.00     0.134 A 
ATOM     60  C   UNL     1      14.934   3.730   2.516  1.00  0.00     0.134 A 
ATOM     61  F   UNL     1      17.008   0.915   3.498  1.00  0.00    -0.206 F 
ATOM     62  C   UNL     1      17.192   2.362   1.660  1.00  0.00     0.040 A 
ATOM     63  C   UNL     1      15.585   4.126   1.346  1.00  0.00     0.040 A 
ATOM     64  F   UNL     1      13.845   4.419   2.892  1.00  0.00    -0.206 F 
ATOM     65  C   UNL     1      16.722   3.444   0.918  1.00  0.00     0.006 A 
ENDBRANCH  44  58
BRANCH  45  66
ATOM     66  C   UNL     1      10.590  -0.196  11.539  1.00  0.00     0.057 A 
ATOM     67  C   UNL     1      10.355  -1.550  11.805  1.00  0.00     0.134 A 
ATOM     68  C   UNL     1      10.141   0.737  12.479  1.00  0.00     0.134 A 
ATOM     69  F   UNL     1      10.752  -2.490  10.935  1.00  0.00    -0.206 F 
ATOM     70  C   UNL     1       9.696  -1.961  12.963  1.00  0.00     0.040 A 
ATOM     71  C   UNL     1       9.504   0.339  13.654  1.00  0.00     0.040 A 
ATOM     72  F   UNL     1      10.351   2.047  12.283  1.00  0.00    -0.206 F 
ATOM     73  C   UNL     1       9.277  -1.015  13.897  1.00  0.00     0.006 A 
ENDBRANCH  45  66
BRANCH  57  74
ATOM     74  C   UNL     1      16.811   2.651  10.364  1.00  0.00     0.057 A 
ATOM     75  C   UNL     1      17.092   4.000  10.610  1.00  0.00     0.134 A 
ATOM     76  C   UNL     1      17.589   1.696  11.034  1.00  0.00     0.134 A 
ATOM     77  F   UNL     1      16.388   4.965   9.999  1.00  0.00    -0.206 F 
ATOM     78  C   UNL     1      18.100   4.386  11.495  1.00  0.00     0.040 A 
ATOM     79  C   UNL     1      18.581   2.070  11.943  1.00  0.00     0.040 A 
ATOM     80  F   UNL     1      17.358   0.386  10.859  1.00  0.00    -0.206 F 
ATOM     81  C   UNL     1      18.840   3.420  12.172  1.00  0.00     0.006 A 
ENDBRANCH  57  74
ENDBRANCH  31  32
ENDBRANCH  24  26
ENDBRANCH  23  24
ENDBRANCH  22  23
ENDBRANCH  21  22
ENDBRANCH   1  21
TORSDOF 16
