REMARK SMILES O=C(NNS(=O)(=O)c1cccc(C(=O)OCCOC(=O)c2ccc(-c3c4nc(c(-c5c(F)cccc5F)c5ccc([nH]5)c(-c5c(F)cccc5F)c5nc(c(-c6c(F)cccc6F)c6ccc3[nH]6)C=C5)C=C4)cc2)c1)c1ccc2c(c1)OCO2
REMARK SMILES IDX 16 1 15 2 13 3 14 4 12 5 8 6 9 7 75 8 10 9 11 10 5 11 6 12
REMARK SMILES IDX 7 13 4 14 3 16 1 17 2 18 76 20 77 21 81 22 78 23 80 24 79 25
REMARK SMILES IDX 82 26 84 27 83 28 17 29 18 30 19 31 20 32 21 33 22 34 74 35
REMARK SMILES IDX 23 36 73 37 24 38 25 39 26 40 67 41 27 42 72 43 66 44 68 45
REMARK SMILES IDX 28 46 71 47 65 48 64 49 29 51 55 52 38 53 54 54 39 55 42 56
REMARK SMILES IDX 53 57 69 58 40 59 41 60 52 62 70 63 43 64 30 65 31 66 36 67
REMARK SMILES IDX 32 68 33 69 35 70 37 71 34 72 56 73 57 74 62 75 58 76 59 77
REMARK SMILES IDX 61 78 63 79 60 80 44 81 45 82 50 83 46 84 47 85 49 86 51 87
REMARK SMILES IDX 48 88
REMARK H PARENT 4 15 3 19 68 50 42 61
REMARK Flexibility Score: inf
ROOT
ATOM      1  C   UNL     1       4.070  -4.004  -5.835  1.00  0.00     0.275 C 
ENDROOT
BRANCH   1   2
ATOM      2  O   UNL     1       4.196  -2.669  -5.299  1.00  0.00    -0.458 OA
BRANCH   2   3
ATOM      3  C   UNL     1       4.661  -1.720  -6.150  1.00  0.00     0.338 C 
ATOM      4  O   UNL     1       4.983  -1.874  -7.316  1.00  0.00    -0.246 OA
BRANCH   3   5
ATOM      5  C   UNL     1       4.606  -0.390  -5.498  1.00  0.00     0.061 A 
ATOM      6  C   UNL     1       4.856   1.054  -3.595  1.00  0.00     0.084 A 
ATOM      7  C   UNL     1       4.382   2.146  -4.332  1.00  0.00     0.022 A 
ATOM      8  C   UNL     1       4.946  -0.223  -4.157  1.00  0.00     0.037 A 
ATOM      9  C   UNL     1       4.063   1.977  -5.673  1.00  0.00     0.002 A 
ATOM     10  C   UNL     1       4.215   0.723  -6.261  1.00  0.00     0.016 A 
BRANCH   6  11
ATOM     11  S   UNL     1       5.356   1.307  -1.920  1.00  0.00     0.257 S 
ATOM     12  O   UNL     1       4.928   2.624  -1.503  1.00  0.00    -0.205 OA
ATOM     13  O   UNL     1       6.729   0.872  -1.802  1.00  0.00    -0.205 OA
BRANCH  11  14
ATOM     14  N   UNL     1       4.408   0.193  -1.077  1.00  0.00    -0.123 NA
ATOM     15  H   UNL     1       4.624  -0.728  -1.457  1.00  0.00     0.167 HD
BRANCH  14  16
ATOM     16  N   UNL     1       2.972   0.328  -1.094  1.00  0.00    -0.273 N 
ATOM     17  O   UNL     1       0.951  -0.157  -0.174  1.00  0.00    -0.268 OA
ATOM     18  C   UNL     1       2.162  -0.017  -0.039  1.00  0.00     0.266 C 
ATOM     19  H   UNL     1       2.549   0.688  -1.907  1.00  0.00     0.186 HD
BRANCH  18  20
ATOM     20  C   UNL     1       2.769  -0.129   1.305  1.00  0.00     0.045 A 
ATOM     21  C   UNL     1       3.623   0.893   1.786  1.00  0.00     0.018 A 
ATOM     22  C   UNL     1       2.383  -1.190   2.129  1.00  0.00     0.064 A 
ATOM     23  C   UNL     1       4.111   0.852   3.093  1.00  0.00     0.051 A 
ATOM     24  C   UNL     1       2.860  -1.184   3.421  1.00  0.00     0.166 A 
ATOM     25  C   UNL     1       3.695  -0.193   3.889  1.00  0.00     0.165 A 
ATOM     26  O   UNL     1       2.551  -2.094   4.384  1.00  0.00    -0.454 OA
ATOM     27  O   UNL     1       4.003  -0.358   5.204  1.00  0.00    -0.454 OA
ATOM     28  C   UNL     1       3.133  -1.458   5.541  1.00  0.00     0.468 C 
ENDBRANCH  18  20
ENDBRANCH  14  16
ENDBRANCH  11  14
ENDBRANCH   6  11
ENDBRANCH   3   5
ENDBRANCH   2   3
ENDBRANCH   1   2
BRANCH   1  29
ATOM     29  C   UNL     1       2.603  -4.362  -6.077  1.00  0.00     0.275 C 
BRANCH  29  30
ATOM     30  O   UNL     1       2.074  -3.541  -7.132  1.00  0.00    -0.458 OA
BRANCH  30  31
ATOM     31  C   UNL     1       1.058  -2.715  -6.794  1.00  0.00     0.338 C 
ATOM     32  O   UNL     1       0.483  -2.630  -5.724  1.00  0.00    -0.246 OA
BRANCH  31  33
ATOM     33  C   UNL     1       0.775  -1.829  -7.933  1.00  0.00     0.060 A 
ATOM     34  C   UNL     1       1.745  -0.902  -8.297  1.00  0.00     0.016 A 
ATOM     35  C   UNL     1      -0.460  -1.836  -8.574  1.00  0.00     0.016 A 
ATOM     36  C   UNL     1       1.474   0.070  -9.252  1.00  0.00     0.010 A 
ATOM     37  C   UNL     1      -0.694  -0.926  -9.614  1.00  0.00     0.010 A 
ATOM     38  C   UNL     1       0.265   0.047  -9.955  1.00  0.00    -0.014 A 
BRANCH  38  39
ATOM     39  C   UNL     1       0.016   1.026 -11.051  1.00  0.00     0.031 A 
ATOM     40  C   UNL     1      -1.175   1.942 -10.997  1.00  0.00     0.074 A 
ATOM     41  C   UNL     1       0.859   1.095 -12.102  1.00  0.00     0.049 A 
ATOM     42  N   UNL     1      -1.675   2.705 -11.936  1.00  0.00    -0.248 NA
ATOM     43  C   UNL     1      -1.904   2.004  -9.721  1.00  0.00     0.031 C 
ATOM     44  C   UNL     1       2.088   0.312 -12.260  1.00  0.00     0.029 A 
ATOM     45  N   UNL     1       0.811   1.860 -13.242  1.00  0.00    -0.354 N 
ATOM     46  C   UNL     1      -2.805   3.295 -11.383  1.00  0.00     0.074 A 
ATOM     47  C   UNL     1      -2.917   2.803 -10.027  1.00  0.00     0.031 C 
ATOM     48  C   UNL     1       2.689   0.658 -13.406  1.00  0.00     0.029 A 
ATOM     49  C   UNL     1       1.840   1.605 -14.117  1.00  0.00     0.049 A 
ATOM     50  H   UNL     1       0.108   2.527 -13.415  1.00  0.00     0.167 HD
ATOM     51  C   UNL     1      -3.671   4.163 -11.961  1.00  0.00     0.037 A 
ATOM     52  C   UNL     1       2.050   2.030 -15.377  1.00  0.00     0.037 A 
ATOM     53  C   UNL     1      -3.529   4.680 -13.298  1.00  0.00     0.049 A 
ATOM     54  C   UNL     1       1.034   2.922 -16.026  1.00  0.00     0.074 A 
ATOM     55  C   UNL     1      -4.339   5.582 -13.965  1.00  0.00     0.029 A 
ATOM     56  N   UNL     1      -2.505   4.343 -14.170  1.00  0.00    -0.354 N 
ATOM     57  N   UNL     1      -0.059   3.434 -15.514  1.00  0.00    -0.248 NA
ATOM     58  C   UNL     1       1.260   3.269 -17.436  1.00  0.00     0.031 C 
ATOM     59  C   UNL     1      -3.830   5.757 -15.256  1.00  0.00     0.029 A 
ATOM     60  C   UNL     1      -2.679   4.996 -15.379  1.00  0.00     0.049 A 
ATOM     61  H   UNL     1      -1.763   3.730 -13.961  1.00  0.00     0.167 HD
ATOM     62  C   UNL     1      -0.649   4.165 -16.536  1.00  0.00     0.074 A 
ATOM     63  C   UNL     1       0.219   4.048 -17.690  1.00  0.00     0.031 C 
ATOM     64  C   UNL     1      -1.810   4.863 -16.520  1.00  0.00     0.037 A 
BRANCH  51  65
ATOM     65  C   UNL     1      -4.873   4.579 -11.165  1.00  0.00     0.057 A 
ATOM     66  C   UNL     1      -4.785   5.461 -10.082  1.00  0.00     0.134 A 
ATOM     67  C   UNL     1      -6.148   4.113 -11.516  1.00  0.00     0.134 A 
ATOM     68  F   UNL     1      -3.594   5.934  -9.686  1.00  0.00    -0.206 F 
ATOM     69  C   UNL     1      -5.918   5.848  -9.362  1.00  0.00     0.040 A 
ATOM     70  C   UNL     1      -7.290   4.512 -10.821  1.00  0.00     0.040 A 
ATOM     71  F   UNL     1      -6.304   3.271 -12.549  1.00  0.00    -0.206 F 
ATOM     72  C   UNL     1      -7.176   5.378  -9.736  1.00  0.00     0.006 A 
ENDBRANCH  51  65
BRANCH  52  73
ATOM     73  C   UNL     1       3.239   1.552 -16.129  1.00  0.00     0.057 A 
ATOM     74  C   UNL     1       4.279   2.424 -16.467  1.00  0.00     0.134 A 
ATOM     75  C   UNL     1       3.369   0.211 -16.515  1.00  0.00     0.134 A 
ATOM     76  F   UNL     1       4.201   3.724 -16.149  1.00  0.00    -0.206 F 
ATOM     77  C   UNL     1       5.407   1.980 -17.161  1.00  0.00     0.040 A 
ATOM     78  C   UNL     1       4.503  -0.252 -17.184  1.00  0.00     0.040 A 
ATOM     79  F   UNL     1       2.406  -0.674 -16.223  1.00  0.00    -0.206 F 
ATOM     80  C   UNL     1       5.524   0.636 -17.513  1.00  0.00     0.006 A 
ENDBRANCH  52  73
BRANCH  64  81
ATOM     81  C   UNL     1      -2.201   5.564 -17.786  1.00  0.00     0.057 A 
ATOM     82  C   UNL     1      -2.711   4.861 -18.884  1.00  0.00     0.134 A 
ATOM     83  C   UNL     1      -2.106   6.957 -17.892  1.00  0.00     0.134 A 
ATOM     84  F   UNL     1      -2.810   3.523 -18.849  1.00  0.00    -0.206 F 
ATOM     85  C   UNL     1      -3.102   5.519 -20.051  1.00  0.00     0.040 A 
ATOM     86  C   UNL     1      -2.514   7.628 -19.045  1.00  0.00     0.040 A 
ATOM     87  F   UNL     1      -1.629   7.687 -16.872  1.00  0.00    -0.206 F 
ATOM     88  C   UNL     1      -3.011   6.908 -20.130  1.00  0.00     0.006 A 
ENDBRANCH  64  81
ENDBRANCH  38  39
ENDBRANCH  31  33
ENDBRANCH  30  31
ENDBRANCH  29  30
ENDBRANCH   1  29
TORSDOF 15
