REMARK SMILES CC(C)N(CCCC(=O)OCCOC(=O)c1ccc(-c2c3nc(c(-c4c(F)cccc4F)c4ccc([nH]4)c(-c4c(F)cccc4F)c4nc(c(-c5c(F)cccc5F)c5ccc2[nH]5)C=C4)C=C3)cc1)C(=O)[C@H]1CCCCC[C@H]1[NH3+]
REMARK SMILES IDX 7 1 6 2 5 3 4 4 2 5 1 6 3 7 70 8 71 9 72 10 73 11 74 12
REMARK SMILES IDX 75 13 76 14 78 16 77 17 79 19 8 23 9 24 10 25 11 26 12 27
REMARK SMILES IDX 13 28 14 29 15 30 16 31 17 32 69 33 18 34 68 35 19 36 20 37
REMARK SMILES IDX 21 38 62 39 22 40 67 41 61 42 63 43 23 44 66 45 60 46 59 47
REMARK SMILES IDX 24 49 50 50 33 51 49 52 34 53 37 54 48 55 64 56 35 57 36 58
REMARK SMILES IDX 47 60 65 61 38 62 25 63 26 64 31 65 27 66 28 67 30 68 32 69
REMARK SMILES IDX 29 70 51 71 52 72 57 73 53 74 54 75 56 76 58 77 55 78 39 79
REMARK SMILES IDX 40 80 45 81 41 82 42 83 44 84 46 85 43 86
REMARK H PARENT 79 20 79 21 79 22 63 48 37 59
REMARK Flexibility Score: 90.00
ROOT
ATOM      1  C   UNL     1      -2.368  -3.308  -1.386  1.00  0.00     0.124 C 
ENDROOT
BRANCH   1   2
ATOM      2  C   UNL     1      -2.803  -3.234   0.078  1.00  0.00     0.033 C 
BRANCH   2   3
ATOM      3  C   UNL     1      -2.623  -1.892   0.802  1.00  0.00     0.120 C 
BRANCH   3   4
ATOM      4  N   UNL     1      -3.875  -1.236   1.214  1.00  0.00    -0.340 N 
BRANCH   4   5
ATOM      5  C   UNL     1      -4.383  -1.633   2.543  1.00  0.00     0.078 C 
ATOM      6  C   UNL     1      -3.779  -0.775   3.656  1.00  0.00     0.031 C 
ATOM      7  C   UNL     1      -5.910  -1.685   2.628  1.00  0.00     0.031 C 
ENDBRANCH   4   5
BRANCH   4   8
ATOM      8  C   UNL     1      -4.366  -0.065   0.609  1.00  0.00     0.231 C 
ATOM      9  O   UNL     1      -5.061   0.747   1.224  1.00  0.00    -0.274 OA
BRANCH   8  10
ATOM     10  C   UNL     1      -4.094   0.136  -0.892  1.00  0.00     0.136 C 
BRANCH  10  11
ATOM     11  C   UNL     1      -4.884  -0.914  -1.697  1.00  0.00     0.020 C 
BRANCH  11  12
ATOM     12  C   UNL     1      -6.401  -0.820  -1.589  1.00  0.00     0.001 C 
BRANCH  12  13
ATOM     13  C   UNL     1      -7.033   0.054  -2.658  1.00  0.00     0.000 C 
BRANCH  13  14
ATOM     14  C   UNL     1      -6.346   1.391  -2.913  1.00  0.00     0.006 CG0
ATOM     15  G   UNL     1      -5.718   2.052  -1.683  1.00  0.00     0.000 G0
ENDBRANCH  13  14
ENDBRANCH  12  13
ENDBRANCH  11  12
ENDBRANCH  10  11
BRANCH  10  16
ATOM     16  C   UNL     1      -4.274   1.581  -1.420  1.00  0.00     0.193 C 
BRANCH  16  17
ATOM     17  C   UNL     1      -5.718   2.052  -1.683  1.00  0.00     0.066 CG0
ATOM     18  G   UNL     1      -6.346   1.391  -2.913  1.00  0.00     0.000 G0
ENDBRANCH  16  17
BRANCH  16  19
ATOM     19  N   UNL     1      -3.576   2.547  -0.553  1.00  0.00    -0.354 N 
ATOM     20  H   UNL     1      -4.019   2.562   0.366  1.00  0.00     0.344 HD
ATOM     21  H   UNL     1      -3.627   3.477  -0.969  1.00  0.00     0.344 HD
ATOM     22  H   UNL     1      -2.599   2.272  -0.455  1.00  0.00     0.344 HD
ENDBRANCH  16  19
ENDBRANCH  10  16
ENDBRANCH   8  10
ENDBRANCH   4   8
ENDBRANCH   3   4
ENDBRANCH   2   3
ENDBRANCH   1   2
BRANCH   1  23
ATOM     23  C   UNL     1      -1.534  -2.160  -1.887  1.00  0.00     0.305 C 
ATOM     24  O   UNL     1      -1.944  -1.333  -2.690  1.00  0.00    -0.252 OA
BRANCH  23  25
ATOM     25  O   UNL     1      -0.282  -2.182  -1.366  1.00  0.00    -0.462 OA
BRANCH  25  26
ATOM     26  C   UNL     1       0.616  -1.221  -1.948  1.00  0.00     0.274 C 
BRANCH  26  27
ATOM     27  C   UNL     1       1.363  -1.836  -3.134  1.00  0.00     0.275 C 
BRANCH  27  28
ATOM     28  O   UNL     1       0.474  -2.141  -4.228  1.00  0.00    -0.458 OA
BRANCH  28  29
ATOM     29  C   UNL     1      -0.002  -3.404  -4.264  1.00  0.00     0.338 C 
ATOM     30  O   UNL     1       0.254  -4.323  -3.491  1.00  0.00    -0.246 OA
BRANCH  29  31
ATOM     31  C   UNL     1      -0.945  -3.554  -5.376  1.00  0.00     0.060 A 
ATOM     32  C   UNL     1      -2.292  -3.213  -5.211  1.00  0.00     0.016 A 
ATOM     33  C   UNL     1      -0.506  -4.147  -6.558  1.00  0.00     0.016 A 
ATOM     34  C   UNL     1      -3.209  -3.466  -6.224  1.00  0.00     0.010 A 
ATOM     35  C   UNL     1      -1.420  -4.370  -7.587  1.00  0.00     0.010 A 
ATOM     36  C   UNL     1      -2.777  -4.038  -7.421  1.00  0.00    -0.014 A 
BRANCH  36  37
ATOM     37  C   UNL     1      -3.737  -4.333  -8.505  1.00  0.00     0.031 A 
ATOM     38  C   UNL     1      -4.043  -5.759  -8.843  1.00  0.00     0.074 A 
ATOM     39  C   UNL     1      -4.292  -3.325  -9.200  1.00  0.00     0.049 A 
ATOM     40  N   UNL     1      -4.628  -6.251  -9.901  1.00  0.00    -0.248 NA
ATOM     41  C   UNL     1      -3.621  -6.767  -7.857  1.00  0.00     0.031 C 
ATOM     42  C   UNL     1      -4.127  -1.900  -8.906  1.00  0.00     0.029 A 
ATOM     43  N   UNL     1      -5.087  -3.348 -10.317  1.00  0.00    -0.354 N 
ATOM     44  C   UNL     1      -4.606  -7.629  -9.734  1.00  0.00     0.074 A 
ATOM     45  C   UNL     1      -3.954  -7.895  -8.469  1.00  0.00     0.031 C 
ATOM     46  C   UNL     1      -4.784  -1.185  -9.833  1.00  0.00     0.029 A 
ATOM     47  C   UNL     1      -5.349  -2.098 -10.820  1.00  0.00     0.049 A 
ATOM     48  H   UNL     1      -5.434  -4.178 -10.717  1.00  0.00     0.167 HD
ATOM     49  C   UNL     1      -5.080  -8.579 -10.573  1.00  0.00     0.037 A 
ATOM     50  C   UNL     1      -5.926  -1.735 -11.981  1.00  0.00     0.037 A 
ATOM     51  C   UNL     1      -5.740  -8.289 -11.818  1.00  0.00     0.049 A 
ATOM     52  C   UNL     1      -6.376  -2.807 -12.932  1.00  0.00     0.074 A 
ATOM     53  C   UNL     1      -6.259  -9.170 -12.749  1.00  0.00     0.029 A 
ATOM     54  N   UNL     1      -5.975  -7.009 -12.302  1.00  0.00    -0.354 N 
ATOM     55  N   UNL     1      -6.309  -4.111 -12.799  1.00  0.00    -0.248 NA
ATOM     56  C   UNL     1      -6.962  -2.361 -14.203  1.00  0.00     0.031 C 
ATOM     57  C   UNL     1      -6.776  -8.423 -13.814  1.00  0.00     0.029 A 
ATOM     58  C   UNL     1      -6.616  -7.077 -13.527  1.00  0.00     0.049 A 
ATOM     59  H   UNL     1      -5.722  -6.176 -11.842  1.00  0.00     0.167 HD
ATOM     60  C   UNL     1      -6.860  -4.640 -13.958  1.00  0.00     0.074 A 
ATOM     61  C   UNL     1      -7.267  -3.516 -14.777  1.00  0.00     0.031 C 
ATOM     62  C   UNL     1      -7.014  -5.939 -14.316  1.00  0.00     0.037 A 
BRANCH  49  63
ATOM     63  C   UNL     1      -4.856 -10.011 -10.191  1.00  0.00     0.057 A 
ATOM     64  C   UNL     1      -5.568 -10.626  -9.153  1.00  0.00     0.134 A 
ATOM     65  C   UNL     1      -3.920 -10.791 -10.882  1.00  0.00     0.134 A 
ATOM     66  F   UNL     1      -6.466  -9.930  -8.439  1.00  0.00    -0.206 F 
ATOM     67  C   UNL     1      -5.342 -11.959  -8.803  1.00  0.00     0.040 A 
ATOM     68  C   UNL     1      -3.701 -12.130 -10.556  1.00  0.00     0.040 A 
ATOM     69  F   UNL     1      -3.203 -10.264 -11.886  1.00  0.00    -0.206 F 
ATOM     70  C   UNL     1      -4.410 -12.716  -9.510  1.00  0.00     0.006 A 
ENDBRANCH  49  63
BRANCH  50  71
ATOM     71  C   UNL     1      -6.057  -0.298 -12.326  1.00  0.00     0.057 A 
ATOM     72  C   UNL     1      -7.309   0.324 -12.364  1.00  0.00     0.134 A 
ATOM     73  C   UNL     1      -4.936   0.489 -12.622  1.00  0.00     0.134 A 
ATOM     74  F   UNL     1      -8.421  -0.383 -12.111  1.00  0.00    -0.206 F 
ATOM     75  C   UNL     1      -7.445   1.674 -12.691  1.00  0.00     0.040 A 
ATOM     76  C   UNL     1      -5.055   1.846 -12.927  1.00  0.00     0.040 A 
ATOM     77  F   UNL     1      -3.707  -0.047 -12.601  1.00  0.00    -0.206 F 
ATOM     78  C   UNL     1      -6.314   2.440 -12.967  1.00  0.00     0.006 A 
ENDBRANCH  50  71
BRANCH  62  79
ATOM     79  C   UNL     1      -7.680  -6.205 -15.631  1.00  0.00     0.057 A 
ATOM     80  C   UNL     1      -7.012  -6.017 -16.847  1.00  0.00     0.134 A 
ATOM     81  C   UNL     1      -8.992  -6.694 -15.677  1.00  0.00     0.134 A 
ATOM     82  F   UNL     1      -5.760  -5.536 -16.867  1.00  0.00    -0.206 F 
ATOM     83  C   UNL     1      -7.633  -6.291 -18.066  1.00  0.00     0.040 A 
ATOM     84  C   UNL     1      -9.614  -6.993 -16.889  1.00  0.00     0.040 A 
ATOM     85  F   UNL     1      -9.682  -6.902 -14.546  1.00  0.00    -0.206 F 
ATOM     86  C   UNL     1      -8.935  -6.787 -18.088  1.00  0.00     0.006 A 
ENDBRANCH  62  79
ENDBRANCH  36  37
ENDBRANCH  29  31
ENDBRANCH  28  29
ENDBRANCH  27  28
ENDBRANCH  26  27
ENDBRANCH  25  26
ENDBRANCH  23  25
ENDBRANCH   1  23
TORSDOF 18
