REMARK SMILES C=CC[NH+](CC=C)[C@@H](C(=O)OCCOC(=O)c1ccc(-c2c3nc(c(-c4c(F)cccc4F)c4ccc([nH]4)c(-c4c(F)cccc4F)c4nc(c(-c5c(F)cccc5F)c5ccc2[nH]5)C=C4)C=C3)cc1)c1ccc(F)c(C)c1
REMARK SMILES IDX 12 1 11 2 9 3 10 4 8 5 4 6 3 8 2 9 1 10 5 11 6 12 7 13 71 14
REMARK SMILES IDX 72 15 78 16 73 17 76 18 74 19 77 20 75 21 13 22 14 23 15 24
REMARK SMILES IDX 16 25 17 26 18 27 70 28 19 29 69 30 20 31 21 32 22 33 63 34
REMARK SMILES IDX 23 35 68 36 62 37 64 38 24 39 67 40 61 41 60 42 25 44 51 45
REMARK SMILES IDX 34 46 50 47 35 48 38 49 49 50 65 51 36 52 37 53 48 55 66 56
REMARK SMILES IDX 39 57 26 58 27 59 32 60 28 61 29 62 31 63 33 64 30 65 52 66
REMARK SMILES IDX 53 67 58 68 54 69 55 70 57 71 59 72 56 73 40 74 41 75 46 76
REMARK SMILES IDX 42 77 43 78 45 79 47 80 44 81
REMARK H PARENT 4 7 64 43 38 54
REMARK Flexibility Score: inf
ROOT
ATOM      1  C   UNL     1      -3.195   3.192   0.614  1.00  0.00     0.274 C 
ENDROOT
BRANCH   1   2
ATOM      2  O   UNL     1      -2.622   2.252  -0.320  1.00  0.00    -0.457 OA
BRANCH   2   3
ATOM      3  C   UNL     1      -1.990   2.757  -1.411  1.00  0.00     0.370 C 
ATOM      4  O   UNL     1      -1.891   3.966  -1.613  1.00  0.00    -0.245 OA
BRANCH   3   5
ATOM      5  C   UNL     1      -1.440   1.686  -2.401  1.00  0.00     0.326 C 
BRANCH   5   6
ATOM      6  N   UNL     1      -1.917   0.280  -2.188  1.00  0.00    -0.313 N 
ATOM      7  H   UNL     1      -1.288  -0.207  -2.826  1.00  0.00     0.349 HD
BRANCH   6   8
ATOM      8  C   UNL     1      -1.577  -0.426  -0.950  1.00  0.00     0.291 C 
BRANCH   8   9
ATOM      9  C   UNL     1      -0.268  -1.159  -0.996  1.00  0.00     0.025 C 
ATOM     10  C   UNL     1       0.587  -1.257   0.030  1.00  0.00     0.010 C 
ENDBRANCH   8   9
ENDBRANCH   6   8
BRANCH   6  11
ATOM     11  C   UNL     1      -3.293   0.050  -2.645  1.00  0.00     0.291 C 
BRANCH  11  12
ATOM     12  C   UNL     1      -4.390   0.373  -1.669  1.00  0.00     0.025 C 
ATOM     13  C   UNL     1      -5.372   1.262  -1.873  1.00  0.00     0.010 C 
ENDBRANCH  11  12
ENDBRANCH   6  11
ENDBRANCH   5   6
BRANCH   5  14
ATOM     14  C   UNL     1       0.066   1.808  -2.753  1.00  0.00     0.021 A 
ATOM     15  C   UNL     1       0.745   0.734  -3.361  1.00  0.00     0.013 A 
ATOM     16  C   UNL     1       0.785   3.017  -2.633  1.00  0.00     0.017 A 
ATOM     17  C   UNL     1       2.100   0.811  -3.696  1.00  0.00     0.040 A 
ATOM     18  C   UNL     1       2.136   3.127  -3.017  1.00  0.00    -0.015 A 
ATOM     19  C   UNL     1       2.787   1.999  -3.510  1.00  0.00     0.126 A 
ATOM     20  C   UNL     1       2.870   4.424  -2.856  1.00  0.00     0.047 C 
ATOM     21  F   UNL     1       4.086   2.056  -3.834  1.00  0.00    -0.207 F 
ENDBRANCH   5  14
ENDBRANCH   3   5
ENDBRANCH   2   3
ENDBRANCH   1   2
BRANCH   1  22
ATOM     22  C   UNL     1      -2.767   2.795   2.020  1.00  0.00     0.275 C 
BRANCH  22  23
ATOM     23  O   UNL     1      -1.331   2.829   2.058  1.00  0.00    -0.458 OA
BRANCH  23  24
ATOM     24  C   UNL     1      -0.726   1.733   2.562  1.00  0.00     0.338 C 
ATOM     25  O   UNL     1      -1.244   0.796   3.150  1.00  0.00    -0.246 OA
BRANCH  24  26
ATOM     26  C   UNL     1       0.714   1.811   2.267  1.00  0.00     0.060 A 
ATOM     27  C   UNL     1       1.144   2.085   0.966  1.00  0.00     0.016 A 
ATOM     28  C   UNL     1       1.640   1.504   3.264  1.00  0.00     0.016 A 
ATOM     29  C   UNL     1       2.499   2.026   0.654  1.00  0.00     0.010 A 
ATOM     30  C   UNL     1       3.005   1.509   2.965  1.00  0.00     0.010 A 
ATOM     31  C   UNL     1       3.446   1.760   1.654  1.00  0.00    -0.014 A 
BRANCH  31  32
ATOM     32  C   UNL     1       4.892   1.723   1.325  1.00  0.00     0.031 A 
ATOM     33  C   UNL     1       5.658   0.437   1.431  1.00  0.00     0.074 A 
ATOM     34  C   UNL     1       5.521   2.842   0.918  1.00  0.00     0.049 A 
ATOM     35  N   UNL     1       6.950   0.237   1.375  1.00  0.00    -0.248 NA
ATOM     36  C   UNL     1       4.866  -0.786   1.635  1.00  0.00     0.031 C 
ATOM     37  C   UNL     1       4.883   4.142   0.703  1.00  0.00     0.029 A 
ATOM     38  N   UNL     1       6.838   3.062   0.601  1.00  0.00    -0.354 N 
ATOM     39  C   UNL     1       7.131  -1.123   1.586  1.00  0.00     0.074 A 
ATOM     40  C   UNL     1       5.816  -1.704   1.756  1.00  0.00     0.031 C 
ATOM     41  C   UNL     1       5.800   5.010   0.247  1.00  0.00     0.029 A 
ATOM     42  C   UNL     1       7.103   4.354   0.218  1.00  0.00     0.049 A 
ATOM     43  H   UNL     1       7.527   2.361   0.645  1.00  0.00     0.167 HD
ATOM     44  C   UNL     1       8.292  -1.817   1.648  1.00  0.00     0.037 A 
ATOM     45  C   UNL     1       8.269   4.953  -0.086  1.00  0.00     0.037 A 
ATOM     46  C   UNL     1       9.596  -1.241   1.445  1.00  0.00     0.049 A 
ATOM     47  C   UNL     1       9.547   4.171   0.030  1.00  0.00     0.074 A 
ATOM     48  C   UNL     1      10.835  -1.855   1.522  1.00  0.00     0.029 A 
ATOM     49  N   UNL     1       9.827   0.083   1.106  1.00  0.00    -0.354 N 
ATOM     50  N   UNL     1       9.718   2.908   0.332  1.00  0.00    -0.248 NA
ATOM     51  C   UNL     1      10.797   4.911  -0.199  1.00  0.00     0.031 C 
ATOM     52  C   UNL     1      11.817  -0.894   1.255  1.00  0.00     0.029 A 
ATOM     53  C   UNL     1      11.188   0.309   0.981  1.00  0.00     0.049 A 
ATOM     54  H   UNL     1       9.127   0.763   0.974  1.00  0.00     0.167 HD
ATOM     55  C   UNL     1      11.091   2.702   0.339  1.00  0.00     0.074 A 
ATOM     56  C   UNL     1      11.706   3.963  -0.021  1.00  0.00     0.031 C 
ATOM     57  C   UNL     1      11.780   1.573   0.633  1.00  0.00     0.037 A 
BRANCH  44  58
ATOM     58  C   UNL     1       8.207  -3.270   2.002  1.00  0.00     0.057 A 
ATOM     59  C   UNL     1       7.812  -4.240   1.074  1.00  0.00     0.134 A 
ATOM     60  C   UNL     1       8.555  -3.704   3.288  1.00  0.00     0.134 A 
ATOM     61  F   UNL     1       7.450  -3.886  -0.168  1.00  0.00    -0.206 F 
ATOM     62  C   UNL     1       7.755  -5.593   1.418  1.00  0.00     0.040 A 
ATOM     63  C   UNL     1       8.518  -5.054   3.637  1.00  0.00     0.040 A 
ATOM     64  F   UNL     1       8.942  -2.822   4.222  1.00  0.00    -0.206 F 
ATOM     65  C   UNL     1       8.114  -6.003   2.701  1.00  0.00     0.006 A 
ENDBRANCH  44  58
BRANCH  45  66
ATOM     66  C   UNL     1       8.290   6.381  -0.486  1.00  0.00     0.057 A 
ATOM     67  C   UNL     1       8.600   6.754  -1.798  1.00  0.00     0.134 A 
ATOM     68  C   UNL     1       8.004   7.404   0.427  1.00  0.00     0.134 A 
ATOM     69  F   UNL     1       8.910   5.821  -2.710  1.00  0.00    -0.206 F 
ATOM     70  C   UNL     1       8.627   8.094  -2.189  1.00  0.00     0.040 A 
ATOM     71  C   UNL     1       8.004   8.745   0.044  1.00  0.00     0.040 A 
ATOM     72  F   UNL     1       7.702   7.111   1.700  1.00  0.00    -0.206 F 
ATOM     73  C   UNL     1       8.321   9.094  -1.267  1.00  0.00     0.006 A 
ENDBRANCH  45  66
BRANCH  57  74
ATOM     74  C   UNL     1      13.275   1.660   0.583  1.00  0.00     0.057 A 
ATOM     75  C   UNL     1      14.003   2.278   1.607  1.00  0.00     0.134 A 
ATOM     76  C   UNL     1      13.992   1.101  -0.481  1.00  0.00     0.134 A 
ATOM     77  F   UNL     1      13.370   2.845   2.645  1.00  0.00    -0.206 F 
ATOM     78  C   UNL     1      15.396   2.351   1.567  1.00  0.00     0.040 A 
ATOM     79  C   UNL     1      15.386   1.152  -0.523  1.00  0.00     0.040 A 
ATOM     80  F   UNL     1      13.351   0.492  -1.489  1.00  0.00    -0.206 F 
ATOM     81  C   UNL     1      16.091   1.782   0.501  1.00  0.00     0.006 A 
ENDBRANCH  57  74
ENDBRANCH  31  32
ENDBRANCH  24  26
ENDBRANCH  23  24
ENDBRANCH  22  23
ENDBRANCH   1  22
TORSDOF 17
