REMARK SMILES C#CCN(CC(=O)OCCOC(=O)c1ccc(-c2c3nc(c(-c4c(F)cccc4F)c4ccc([nH]4)c(-c4c(F)cccc4F)c4nc(c(-c5c(F)cccc5F)c5ccc2[nH]5)C=C4)C=C3)cc1)C(=O)N1CCO[C@@H](C#N)C1
REMARK SMILES IDX 9 1 8 2 6 3 7 4 5 5 4 6 3 7 2 8 1 9 68 10 69 11 70 12 71 13
REMARK SMILES IDX 77 14 72 15 74 16 73 17 75 18 76 19 10 20 11 21 12 22 13 23
REMARK SMILES IDX 14 24 15 25 67 26 16 27 66 28 17 29 18 30 19 31 60 32 20 33
REMARK SMILES IDX 65 34 59 35 61 36 21 37 64 38 58 39 57 40 22 42 48 43 31 44
REMARK SMILES IDX 47 45 32 46 35 47 46 48 62 49 33 50 34 51 45 53 63 54 36 55
REMARK SMILES IDX 23 56 24 57 29 58 25 59 26 60 28 61 30 62 27 63 49 64 50 65
REMARK SMILES IDX 55 66 51 67 52 68 54 69 56 70 53 71 37 72 38 73 43 74 39 75
REMARK SMILES IDX 40 76 42 77 44 78 41 79
REMARK H PARENT 61 41 35 52
REMARK Flexibility Score: inf
ROOT
ATOM      1  C   UNL     1      -6.731   1.346  -2.041  1.00  0.00     0.274 C 
ENDROOT
BRANCH   1   2
ATOM      2  O   UNL     1      -5.380   1.029  -1.652  1.00  0.00    -0.461 OA
BRANCH   2   3
ATOM      3  C   UNL     1      -5.032  -0.269  -1.804  1.00  0.00     0.325 C 
ATOM      4  O   UNL     1      -5.801  -1.174  -2.115  1.00  0.00    -0.250 OA
BRANCH   3   5
ATOM      5  C   UNL     1      -3.532  -0.525  -1.708  1.00  0.00     0.245 C 
BRANCH   5   6
ATOM      6  N   UNL     1      -2.517   0.456  -1.227  1.00  0.00    -0.302 N 
BRANCH   6   7
ATOM      7  C   UNL     1      -1.821  -0.037  -0.093  1.00  0.00     0.211 C 
BRANCH   7   8
ATOM      8  C   UNL     1      -0.301  -0.037  -0.093  1.00  0.00    -0.085 C 
ATOM      9  C   UNL     1       1.003  -0.037  -0.093  1.00  0.00     0.006 C 
ENDBRANCH   7   8
ENDBRANCH   6   7
BRANCH   6  10
ATOM     10  C   UNL     1      -2.013   1.679  -1.645  1.00  0.00     0.321 C 
ATOM     11  O   UNL     1      -1.381   2.411  -0.876  1.00  0.00    -0.248 OA
BRANCH  10  12
ATOM     12  N   UNL     1      -2.079   2.036  -2.954  1.00  0.00    -0.319 N 
ATOM     13  C   UNL     1      -1.021   2.860  -3.574  1.00  0.00     0.150 C 
ATOM     14  C   UNL     1      -2.913   1.424  -3.926  1.00  0.00     0.169 C 
ATOM     15  C   UNL     1      -0.314   2.101  -4.736  1.00  0.00     0.183 C 
ATOM     16  C   UNL     1      -2.048   0.511  -4.765  1.00  0.00     0.240 C 
ATOM     17  O   UNL     1      -1.204   1.342  -5.571  1.00  0.00    -0.360 OA
BRANCH  16  18
ATOM     18  C   UNL     1      -1.325  -0.598  -4.108  1.00  0.00     0.096 C 
ATOM     19  N   UNL     1      -0.818  -1.515  -3.624  1.00  0.00    -0.195 NA
ENDBRANCH  16  18
ENDBRANCH  10  12
ENDBRANCH   6  10
ENDBRANCH   5   6
ENDBRANCH   3   5
ENDBRANCH   2   3
ENDBRANCH   1   2
BRANCH   1  20
ATOM     20  C   UNL     1      -6.708   2.479  -3.074  1.00  0.00     0.275 C 
BRANCH  20  21
ATOM     21  O   UNL     1      -5.955   2.203  -4.281  1.00  0.00    -0.458 OA
BRANCH  21  22
ATOM     22  C   UNL     1      -6.397   1.205  -5.082  1.00  0.00     0.338 C 
ATOM     23  O   UNL     1      -7.353   0.480  -4.876  1.00  0.00    -0.246 OA
BRANCH  22  24
ATOM     24  C   UNL     1      -5.400   0.960  -6.155  1.00  0.00     0.060 A 
ATOM     25  C   UNL     1      -4.918  -0.336  -6.247  1.00  0.00     0.016 A 
ATOM     26  C   UNL     1      -4.849   1.952  -6.983  1.00  0.00     0.016 A 
ATOM     27  C   UNL     1      -3.847  -0.602  -7.105  1.00  0.00     0.010 A 
ATOM     28  C   UNL     1      -3.861   1.627  -7.952  1.00  0.00     0.010 A 
ATOM     29  C   UNL     1      -3.350   0.326  -8.049  1.00  0.00    -0.014 A 
BRANCH  29  30
ATOM     30  C   UNL     1      -2.434  -0.180  -9.140  1.00  0.00     0.031 A 
ATOM     31  C   UNL     1      -1.170   0.519  -9.624  1.00  0.00     0.074 A 
ATOM     32  C   UNL     1      -2.757  -1.366  -9.714  1.00  0.00     0.049 A 
ATOM     33  N   UNL     1      -0.441   0.253 -10.688  1.00  0.00    -0.248 NA
ATOM     34  C   UNL     1      -0.639   1.634  -8.828  1.00  0.00     0.031 C 
ATOM     35  C   UNL     1      -3.904  -2.208  -9.339  1.00  0.00     0.029 A 
ATOM     36  N   UNL     1      -2.163  -2.096 -10.716  1.00  0.00    -0.354 N 
ATOM     37  C   UNL     1       0.605   1.176 -10.704  1.00  0.00     0.074 A 
ATOM     38  C   UNL     1       0.432   2.003  -9.527  1.00  0.00     0.031 C 
ATOM     39  C   UNL     1      -3.854  -3.370  -9.983  1.00  0.00     0.029 A 
ATOM     40  C   UNL     1      -2.866  -3.239 -11.028  1.00  0.00     0.049 A 
ATOM     41  H   UNL     1      -1.327  -1.831 -11.163  1.00  0.00     0.167 HD
ATOM     42  C   UNL     1       1.592   1.331 -11.628  1.00  0.00     0.037 A 
ATOM     43  C   UNL     1      -2.868  -4.034 -12.109  1.00  0.00     0.037 A 
ATOM     44  C   UNL     1       1.736   0.500 -12.806  1.00  0.00     0.049 A 
ATOM     45  C   UNL     1      -1.915  -3.727 -13.204  1.00  0.00     0.074 A 
ATOM     46  C   UNL     1       2.672   0.591 -13.825  1.00  0.00     0.029 A 
ATOM     47  N   UNL     1       0.909  -0.568 -13.129  1.00  0.00    -0.354 N 
ATOM     48  N   UNL     1      -0.997  -2.797 -13.249  1.00  0.00    -0.248 NA
ATOM     49  C   UNL     1      -2.009  -4.561 -14.403  1.00  0.00     0.031 C 
ATOM     50  C   UNL     1       2.359  -0.362 -14.800  1.00  0.00     0.029 A 
ATOM     51  C   UNL     1       1.279  -1.105 -14.354  1.00  0.00     0.049 A 
ATOM     52  H   UNL     1       0.168  -0.896 -12.570  1.00  0.00     0.167 HD
ATOM     53  C   UNL     1      -0.379  -2.946 -14.477  1.00  0.00     0.074 A 
ATOM     54  C   UNL     1      -1.021  -4.068 -15.135  1.00  0.00     0.031 C 
ATOM     55  C   UNL     1       0.631  -2.216 -15.004  1.00  0.00     0.037 A 
BRANCH  42  56
ATOM     56  C   UNL     1       2.558   2.485 -11.478  1.00  0.00     0.057 A 
ATOM     57  C   UNL     1       3.565   2.516 -10.505  1.00  0.00     0.134 A 
ATOM     58  C   UNL     1       2.529   3.553 -12.391  1.00  0.00     0.134 A 
ATOM     59  F   UNL     1       3.668   1.530  -9.601  1.00  0.00    -0.206 F 
ATOM     60  C   UNL     1       4.486   3.569 -10.431  1.00  0.00     0.040 A 
ATOM     61  C   UNL     1       3.458   4.597 -12.344  1.00  0.00     0.040 A 
ATOM     62  F   UNL     1       1.611   3.585 -13.370  1.00  0.00    -0.206 F 
ATOM     63  C   UNL     1       4.437   4.611 -11.355  1.00  0.00     0.006 A 
ENDBRANCH  42  56
BRANCH  43  64
ATOM     64  C   UNL     1      -3.911  -5.088 -12.232  1.00  0.00     0.057 A 
ATOM     65  C   UNL     1      -3.575  -6.441 -12.198  1.00  0.00     0.134 A 
ATOM     66  C   UNL     1      -5.276  -4.761 -12.307  1.00  0.00     0.134 A 
ATOM     67  F   UNL     1      -2.289  -6.816 -12.136  1.00  0.00    -0.206 F 
ATOM     68  C   UNL     1      -4.556  -7.434 -12.233  1.00  0.00     0.040 A 
ATOM     69  C   UNL     1      -6.267  -5.741 -12.297  1.00  0.00     0.040 A 
ATOM     70  F   UNL     1      -5.669  -3.477 -12.320  1.00  0.00    -0.206 F 
ATOM     71  C   UNL     1      -5.906  -7.084 -12.268  1.00  0.00     0.006 A 
ENDBRANCH  43  64
BRANCH  55  72
ATOM     72  C   UNL     1       1.131  -2.651 -16.347  1.00  0.00     0.057 A 
ATOM     73  C   UNL     1       0.372  -2.479 -17.511  1.00  0.00     0.134 A 
ATOM     74  C   UNL     1       2.387  -3.257 -16.471  1.00  0.00     0.134 A 
ATOM     75  F   UNL     1      -0.853  -1.934 -17.452  1.00  0.00    -0.206 F 
ATOM     76  C   UNL     1       0.836  -2.918 -18.751  1.00  0.00     0.040 A 
ATOM     77  C   UNL     1       2.876  -3.668 -17.710  1.00  0.00     0.040 A 
ATOM     78  F   UNL     1       3.159  -3.454 -15.392  1.00  0.00    -0.206 F 
ATOM     79  C   UNL     1       2.095  -3.506 -18.853  1.00  0.00     0.006 A 
ENDBRANCH  55  72
ENDBRANCH  29  30
ENDBRANCH  22  24
ENDBRANCH  21  22
ENDBRANCH  20  21
ENDBRANCH   1  20
TORSDOF 17
