REMARK SMILES Cc1ccc([C@@]23C[C@@H]4C[C@@H](C[C@@](C(=O)N5CCC(C(=O)OCCOC(=O)c6ccc(-c7c8nc(c(-c9c(F)cccc9F)c9ccc([nH]9)c(-c9c(F)cccc9F)c9nc(c(-c%10c(F)cccc%10F)c%10ccc7[nH]%10)C=C9)C=C8)cc6)CC5)(C4)C2)C3)cc1
REMARK SMILES IDX 22 1 21 2 19 3 20 4 18 5 13 6 14 7 15 8 16 9 82 10 17 11
REMARK SMILES IDX 81 12 12 13 6 14 7 15 84 16 85 17 8 18 10 19 9 20 83 21
REMARK SMILES IDX 11 22 5 23 1 24 2 25 3 26 87 27 4 28 86 29 23 30 24 31 25 32
REMARK SMILES IDX 26 33 27 34 28 35 80 36 29 37 79 38 30 39 31 40 32 41 73 42
REMARK SMILES IDX 33 43 78 44 72 45 74 46 34 47 77 48 71 49 70 50 35 52 61 53
REMARK SMILES IDX 44 54 60 55 45 56 48 57 59 58 75 59 46 60 47 61 58 63 76 64
REMARK SMILES IDX 49 65 36 66 37 67 42 68 38 69 39 70 41 71 43 72 40 73 62 74
REMARK SMILES IDX 63 75 68 76 64 77 65 78 67 79 69 80 66 81 50 82 51 83 56 84
REMARK SMILES IDX 52 85 53 86 55 87 57 88 54 89
REMARK H PARENT 74 51 48 62
REMARK Flexibility Score: inf
ROOT
ATOM      1  C   UNL     1      -9.046  -2.668  -5.923  1.00  0.00     0.274 C 
ENDROOT
BRANCH   1   2
ATOM      2  O   UNL     1      -7.832  -2.818  -5.195  1.00  0.00    -0.462 OA
BRANCH   2   3
ATOM      3  C   UNL     1      -8.012  -3.103  -3.877  1.00  0.00     0.309 C 
ATOM      4  O   UNL     1      -9.086  -3.024  -3.296  1.00  0.00    -0.252 OA
BRANCH   3   5
ATOM      5  C   UNL     1      -6.690  -3.495  -3.257  1.00  0.00     0.103 C 
ATOM      6  C   UNL     1      -5.706  -1.997   0.009  1.00  0.00     0.228 C 
ATOM      7  O   UNL     1      -6.510  -2.448   0.831  1.00  0.00    -0.274 OA
ATOM      8  N   UNL     1      -5.181  -2.811  -1.002  1.00  0.00    -0.342 N 
ATOM      9  C   UNL     1      -5.633  -4.187  -1.045  1.00  0.00     0.120 C 
ATOM     10  C   UNL     1      -4.659  -2.373  -2.293  1.00  0.00     0.120 C 
ATOM     11  C   UNL     1      -6.883  -4.218  -1.906  1.00  0.00     0.037 C 
ATOM     12  C   UNL     1      -5.833  -2.235  -3.240  1.00  0.00     0.037 C 
BRANCH   6  13
ATOM     13  C   UNL     1      -5.220  -0.545   0.132  1.00  0.00     0.051 C 
ATOM     14  C   UNL     1      -3.026   0.763   0.318  1.00  0.00    -0.003 C 
ATOM     15  C   UNL     1      -3.523   1.589  -0.908  1.00  0.00     0.015 C 
ATOM     16  C   UNL     1      -3.697  -0.617   0.260  1.00  0.00     0.028 C 
ATOM     17  C   UNL     1      -3.550   1.444   1.609  1.00  0.00     0.015 C 
ATOM     18  C   UNL     1      -5.056   1.752  -0.900  1.00  0.00    -0.009 C 
ATOM     19  C   UNL     1      -5.095   1.532   1.593  1.00  0.00    -0.009 C 
ATOM     20  C   UNL     1      -5.525   2.401   0.403  1.00  0.00     0.007 C 
ATOM     21  C   UNL     1      -5.691   0.368  -1.016  1.00  0.00     0.020 C 
ATOM     22  C   UNL     1      -5.718   0.124   1.444  1.00  0.00     0.020 C 
BRANCH  14  23
ATOM     23  C   UNL     1      -1.496   0.603   0.296  1.00  0.00    -0.042 A 
ATOM     24  C   UNL     1       2.808   0.139  -0.034  1.00  0.00     0.044 C 
ATOM     25  C   UNL     1       1.327   0.318   0.094  1.00  0.00    -0.051 A 
ATOM     26  C   UNL     1       0.513  -0.806   0.196  1.00  0.00     0.004 A 
ATOM     27  C   UNL     1       0.732   1.583   0.110  1.00  0.00     0.004 A 
ATOM     28  C   UNL     1      -0.869  -0.662   0.306  1.00  0.00     0.004 A 
ATOM     29  C   UNL     1      -0.659   1.724   0.213  1.00  0.00     0.004 A 
ENDBRANCH  14  23
ENDBRANCH   6  13
ENDBRANCH   3   5
ENDBRANCH   2   3
ENDBRANCH   1   2
BRANCH   1  30
ATOM     30  C   UNL     1      -8.789  -2.693  -7.433  1.00  0.00     0.275 C 
BRANCH  30  31
ATOM     31  O   UNL     1      -7.496  -3.164  -7.927  1.00  0.00    -0.458 OA
BRANCH  31  32
ATOM     32  C   UNL     1      -6.724  -4.230  -7.596  1.00  0.00     0.338 C 
ATOM     33  O   UNL     1      -5.563  -4.324  -7.978  1.00  0.00    -0.246 OA
BRANCH  32  34
ATOM     34  C   UNL     1      -7.270  -5.259  -6.693  1.00  0.00     0.060 A 
ATOM     35  C   UNL     1      -6.439  -5.824  -5.711  1.00  0.00     0.016 A 
ATOM     36  C   UNL     1      -8.616  -5.585  -6.742  1.00  0.00     0.016 A 
ATOM     37  C   UNL     1      -6.999  -6.562  -4.665  1.00  0.00     0.010 A 
ATOM     38  C   UNL     1      -9.186  -6.212  -5.655  1.00  0.00     0.010 A 
ATOM     39  C   UNL     1      -8.387  -6.687  -4.604  1.00  0.00    -0.014 A 
BRANCH  39  40
ATOM     40  C   UNL     1      -9.086  -7.569  -3.679  1.00  0.00     0.031 A 
ATOM     41  C   UNL     1      -9.495  -7.226  -2.303  1.00  0.00     0.074 A 
ATOM     42  C   UNL     1      -9.432  -8.732  -4.261  1.00  0.00     0.049 A 
ATOM     43  N   UNL     1      -9.539  -8.077  -1.330  1.00  0.00    -0.248 NA
ATOM     44  C   UNL     1      -9.870  -5.880  -1.888  1.00  0.00     0.031 C 
ATOM     45  C   UNL     1     -10.365  -9.748  -3.830  1.00  0.00     0.029 A 
ATOM     46  N   UNL     1      -8.822  -9.269  -5.398  1.00  0.00    -0.354 N 
ATOM     47  C   UNL     1     -10.203  -7.463  -0.283  1.00  0.00     0.074 A 
ATOM     48  C   UNL     1     -10.230  -6.060  -0.611  1.00  0.00     0.031 C 
ATOM     49  C   UNL     1     -10.101 -10.878  -4.514  1.00  0.00     0.029 A 
ATOM     50  C   UNL     1      -8.873 -10.653  -5.271  1.00  0.00     0.049 A 
ATOM     51  H   UNL     1      -8.432  -8.764  -6.147  1.00  0.00     0.167 HD
ATOM     52  C   UNL     1     -10.885  -8.204   0.639  1.00  0.00     0.037 A 
ATOM     53  C   UNL     1      -7.703 -11.339  -5.110  1.00  0.00     0.037 A 
ATOM     54  C   UNL     1     -10.891  -9.600   0.241  1.00  0.00     0.049 A 
ATOM     55  C   UNL     1      -7.690 -12.070  -3.796  1.00  0.00     0.074 A 
ATOM     56  C   UNL     1     -11.797 -10.300  -0.539  1.00  0.00     0.029 A 
ATOM     57  N   UNL     1      -9.734 -10.360   0.301  1.00  0.00    -0.354 N 
ATOM     58  N   UNL     1      -8.238 -11.617  -2.701  1.00  0.00    -0.248 NA
ATOM     59  C   UNL     1      -7.137 -13.411  -3.648  1.00  0.00     0.031 C 
ATOM     60  C   UNL     1     -11.160 -11.470  -1.001  1.00  0.00     0.029 A 
ATOM     61  C   UNL     1      -9.877 -11.488  -0.482  1.00  0.00     0.049 A 
ATOM     62  H   UNL     1      -8.932 -10.130   0.823  1.00  0.00     0.167 HD
ATOM     63  C   UNL     1      -8.209 -12.608  -1.753  1.00  0.00     0.074 A 
ATOM     64  C   UNL     1      -7.483 -13.696  -2.381  1.00  0.00     0.031 C 
ATOM     65  C   UNL     1      -8.836 -12.492  -0.546  1.00  0.00     0.037 A 
BRANCH  52  66
ATOM     66  C   UNL     1     -11.859  -7.630   1.643  1.00  0.00     0.057 A 
ATOM     67  C   UNL     1     -13.053  -8.303   1.978  1.00  0.00     0.134 A 
ATOM     68  C   UNL     1     -11.667  -6.412   2.317  1.00  0.00     0.134 A 
ATOM     69  F   UNL     1     -13.344  -9.515   1.489  1.00  0.00    -0.206 F 
ATOM     70  C   UNL     1     -14.024  -7.764   2.833  1.00  0.00     0.040 A 
ATOM     71  C   UNL     1     -12.643  -5.848   3.157  1.00  0.00     0.040 A 
ATOM     72  F   UNL     1     -10.516  -5.734   2.203  1.00  0.00    -0.206 F 
ATOM     73  C   UNL     1     -13.834  -6.519   3.406  1.00  0.00     0.006 A 
ENDBRANCH  52  66
BRANCH  53  74
ATOM     74  C   UNL     1      -6.513 -10.692  -5.752  1.00  0.00     0.057 A 
ATOM     75  C   UNL     1      -6.547 -10.424  -7.137  1.00  0.00     0.134 A 
ATOM     76  C   UNL     1      -5.495 -10.068  -5.025  1.00  0.00     0.134 A 
ATOM     77  F   UNL     1      -7.496 -10.980  -7.907  1.00  0.00    -0.206 F 
ATOM     78  C   UNL     1      -5.681  -9.510  -7.747  1.00  0.00     0.040 A 
ATOM     79  C   UNL     1      -4.607  -9.162  -5.630  1.00  0.00     0.040 A 
ATOM     80  F   UNL     1      -5.382 -10.255  -3.703  1.00  0.00    -0.206 F 
ATOM     81  C   UNL     1      -4.719  -8.857  -6.986  1.00  0.00     0.006 A 
ENDBRANCH  53  74
BRANCH  65  82
ATOM     82  C   UNL     1      -8.652 -13.388   0.651  1.00  0.00     0.057 A 
ATOM     83  C   UNL     1      -7.479 -14.107   0.908  1.00  0.00     0.134 A 
ATOM     84  C   UNL     1      -9.608 -13.404   1.696  1.00  0.00     0.134 A 
ATOM     85  F   UNL     1      -6.446 -14.095   0.055  1.00  0.00    -0.206 F 
ATOM     86  C   UNL     1      -7.287 -14.827   2.093  1.00  0.00     0.040 A 
ATOM     87  C   UNL     1      -9.401 -14.069   2.905  1.00  0.00     0.040 A 
ATOM     88  F   UNL     1     -10.774 -12.748   1.607  1.00  0.00    -0.206 F 
ATOM     89  C   UNL     1      -8.241 -14.796   3.103  1.00  0.00     0.006 A 
ENDBRANCH  65  82
ENDBRANCH  39  40
ENDBRANCH  32  34
ENDBRANCH  31  32
ENDBRANCH  30  31
ENDBRANCH   1  30
TORSDOF 13
