REMARK SMILES COc1ccc([C@H]2CC(c3ccc(S(C)(=O)=O)cc3)=NN2c2ccc(C(=O)OCCOC(=O)c3ccc(-c4c5nc(c(-c6c(F)cccc6F)c6ccc([nH]6)c(-c6c(F)cccc6F)c6nc(c(-c7c(F)cccc7F)c7ccc4[nH]7)C=C6)C=C5)cc3)cc2)cc1OC
REMARK SMILES IDX 29 1 28 2 26 3 27 4 25 5 22 6 23 7 89 8 24 9 88 10 21 11
REMARK SMILES IDX 7 12 8 13 9 14 20 15 6 16 3 17 4 18 91 19 5 20 90 21 2 22
REMARK SMILES IDX 1 23 92 24 93 25 10 26 11 27 19 28 12 29 18 30 13 31 14 32
REMARK SMILES IDX 15 33 16 34 17 35 30 36 31 37 32 38 33 39 34 40 35 41 87 42
REMARK SMILES IDX 36 43 86 44 37 45 38 46 39 47 80 48 40 49 85 50 79 51 81 52
REMARK SMILES IDX 41 53 84 54 78 55 77 56 42 58 68 59 51 60 67 61 52 62 55 63
REMARK SMILES IDX 66 64 82 65 53 66 54 67 65 69 83 70 56 71 43 72 44 73 49 74
REMARK SMILES IDX 45 75 46 76 48 77 50 78 47 79 69 80 70 81 75 82 71 83 72 84
REMARK SMILES IDX 74 85 76 86 73 87 57 88 58 89 63 90 59 91 60 92 62 93 64 94
REMARK SMILES IDX 61 95
REMARK H PARENT 81 57 55 68
REMARK Flexibility Score: inf
ROOT
ATOM      1  C   UNL     1       1.726 -10.126  -4.887  1.00  0.00     0.275 C 
ENDROOT
BRANCH   1   2
ATOM      2  O   UNL     1       1.795  -8.799  -5.450  1.00  0.00    -0.458 OA
BRANCH   2   3
ATOM      3  C   UNL     1       2.197  -7.830  -4.588  1.00  0.00     0.338 C 
ATOM      4  O   UNL     1       2.498  -7.976  -3.420  1.00  0.00    -0.246 OA
BRANCH   3   5
ATOM      5  C   UNL     1       2.303  -6.525  -5.277  1.00  0.00     0.060 A 
ATOM      6  C   UNL     1       2.507  -3.921  -6.328  1.00  0.00     0.060 A 
ATOM      7  C   UNL     1       3.573  -4.498  -5.635  1.00  0.00     0.029 A 
ATOM      8  C   UNL     1       1.347  -4.687  -6.520  1.00  0.00     0.029 A 
ATOM      9  C   UNL     1       3.457  -5.766  -5.080  1.00  0.00     0.018 A 
ATOM     10  C   UNL     1       1.248  -5.995  -6.019  1.00  0.00     0.018 A 
BRANCH   6  11
ATOM     11  N   UNL     1       2.609  -2.608  -6.770  1.00  0.00    -0.257 N 
ATOM     12  C   UNL     1       1.704  -1.541  -6.334  1.00  0.00     0.144 C 
ATOM     13  C   UNL     1       2.392  -0.279  -6.874  1.00  0.00     0.091 C 
ATOM     14  C   UNL     1       3.683  -0.868  -7.367  1.00  0.00     0.071 C 
ATOM     15  N   UNL     1       3.782  -2.157  -7.297  1.00  0.00    -0.176 NA
BRANCH  12  16
ATOM     16  C   UNL     1       1.506  -1.488  -4.822  1.00  0.00    -0.019 A 
ATOM     17  C   UNL     1       1.095  -1.315  -2.032  1.00  0.00     0.160 A 
ATOM     18  C   UNL     1       0.026  -1.591  -2.895  1.00  0.00     0.051 A 
ATOM     19  C   UNL     1       2.386  -1.164  -2.548  1.00  0.00     0.161 A 
ATOM     20  C   UNL     1       0.228  -1.667  -4.276  1.00  0.00     0.010 A 
ATOM     21  C   UNL     1       2.576  -1.263  -3.936  1.00  0.00     0.056 A 
BRANCH  17  22
ATOM     22  O   UNL     1       0.862  -1.295  -0.682  1.00  0.00    -0.493 OA
ATOM     23  C   UNL     1       0.022  -0.206  -0.298  1.00  0.00     0.278 C 
ENDBRANCH  17  22
BRANCH  19  24
ATOM     24  O   UNL     1       3.550  -0.926  -1.865  1.00  0.00    -0.493 OA
ATOM     25  C   UNL     1       3.459  -0.477  -0.521  1.00  0.00     0.278 C 
ENDBRANCH  19  24
ENDBRANCH  12  16
BRANCH  14  26
ATOM     26  C   UNL     1       4.719  -0.021  -7.973  1.00  0.00    -0.002 A 
ATOM     27  C   UNL     1       5.163  -0.339  -9.261  1.00  0.00     0.011 A 
ATOM     28  C   UNL     1       5.217   1.097  -7.300  1.00  0.00     0.011 A 
ATOM     29  C   UNL     1       6.079   0.494  -9.904  1.00  0.00     0.021 A 
ATOM     30  C   UNL     1       6.154   1.918  -7.931  1.00  0.00     0.021 A 
ATOM     31  C   UNL     1       6.570   1.619  -9.234  1.00  0.00     0.067 A 
BRANCH  31  32
ATOM     32  S   UNL     1       7.674   2.720 -10.091  1.00  0.00     0.175 S 
ATOM     33  C   UNL     1       9.111   1.740 -10.428  1.00  0.00     0.163 C 
ATOM     34  O   UNL     1       7.036   3.047 -11.351  1.00  0.00    -0.224 OA
ATOM     35  O   UNL     1       8.062   3.764  -9.160  1.00  0.00    -0.224 OA
ENDBRANCH  31  32
ENDBRANCH  14  26
ENDBRANCH   6  11
ENDBRANCH   3   5
ENDBRANCH   2   3
ENDBRANCH   1   2
BRANCH   1  36
ATOM     36  C   UNL     1       2.984 -10.937  -5.197  1.00  0.00     0.275 C 
BRANCH  36  37
ATOM     37  O   UNL     1       4.126 -10.364  -4.533  1.00  0.00    -0.458 OA
BRANCH  37  38
ATOM     38  C   UNL     1       5.140  -9.982  -5.341  1.00  0.00     0.338 C 
ATOM     39  O   UNL     1       5.215 -10.114  -6.553  1.00  0.00    -0.246 OA
BRANCH  38  40
ATOM     40  C   UNL     1       6.208  -9.336  -4.559  1.00  0.00     0.060 A 
ATOM     41  C   UNL     1       5.929  -8.175  -3.848  1.00  0.00     0.016 A 
ATOM     42  C   UNL     1       7.525  -9.772  -4.683  1.00  0.00     0.016 A 
ATOM     43  C   UNL     1       6.968  -7.359  -3.403  1.00  0.00     0.010 A 
ATOM     44  C   UNL     1       8.559  -9.023  -4.108  1.00  0.00     0.010 A 
ATOM     45  C   UNL     1       8.303  -7.774  -3.513  1.00  0.00    -0.014 A 
BRANCH  45  46
ATOM     46  C   UNL     1       9.424  -6.896  -3.054  1.00  0.00     0.031 A 
ATOM     47  C   UNL     1      10.553  -6.545  -3.996  1.00  0.00     0.074 A 
ATOM     48  C   UNL     1       9.444  -6.395  -1.802  1.00  0.00     0.049 A 
ATOM     49  N   UNL     1      11.708  -5.984  -3.736  1.00  0.00    -0.248 NA
ATOM     50  C   UNL     1      10.366  -6.887  -5.415  1.00  0.00     0.031 C 
ATOM     51  C   UNL     1       8.411  -6.599  -0.785  1.00  0.00     0.029 A 
ATOM     52  N   UNL     1      10.372  -5.601  -1.169  1.00  0.00    -0.354 N 
ATOM     53  C   UNL     1      12.409  -5.974  -4.937  1.00  0.00     0.074 A 
ATOM     54  C   UNL     1      11.549  -6.584  -5.929  1.00  0.00     0.031 C 
ATOM     55  C   UNL     1       8.733  -5.911   0.320  1.00  0.00     0.029 A 
ATOM     56  C   UNL     1      10.044  -5.301   0.132  1.00  0.00     0.049 A 
ATOM     57  H   UNL     1      11.192  -5.277  -1.606  1.00  0.00     0.167 HD
ATOM     58  C   UNL     1      13.654  -5.502  -5.191  1.00  0.00     0.037 A 
ATOM     59  C   UNL     1      10.734  -4.653   1.090  1.00  0.00     0.037 A 
ATOM     60  C   UNL     1      14.481  -4.825  -4.224  1.00  0.00     0.049 A 
ATOM     61  C   UNL     1      12.115  -4.149   0.790  1.00  0.00     0.074 A 
ATOM     62  C   UNL     1      15.749  -4.295  -4.393  1.00  0.00     0.029 A 
ATOM     63  N   UNL     1      14.110  -4.562  -2.914  1.00  0.00    -0.354 N 
ATOM     64  N   UNL     1      12.793  -4.212  -0.329  1.00  0.00    -0.248 NA
ATOM     65  C   UNL     1      12.837  -3.503   1.896  1.00  0.00     0.031 C 
ATOM     66  C   UNL     1      16.157  -3.736  -3.177  1.00  0.00     0.029 A 
ATOM     67  C   UNL     1      15.128  -3.883  -2.263  1.00  0.00     0.049 A 
ATOM     68  H   UNL     1      13.252  -4.820  -2.507  1.00  0.00     0.167 HD
ATOM     69  C   UNL     1      14.014  -3.606  -0.068  1.00  0.00     0.074 A 
ATOM     70  C   UNL     1      13.977  -3.163   1.311  1.00  0.00     0.031 C 
ATOM     71  C   UNL     1      15.074  -3.440  -0.894  1.00  0.00     0.037 A 
BRANCH  58  72
ATOM     72  C   UNL     1      14.219  -5.725  -6.564  1.00  0.00     0.057 A 
ATOM     73  C   UNL     1      13.780  -5.006  -7.682  1.00  0.00     0.134 A 
ATOM     74  C   UNL     1      15.255  -6.649  -6.759  1.00  0.00     0.134 A 
ATOM     75  F   UNL     1      12.785  -4.113  -7.568  1.00  0.00    -0.206 F 
ATOM     76  C   UNL     1      14.334  -5.213  -8.947  1.00  0.00     0.040 A 
ATOM     77  C   UNL     1      15.834  -6.847  -8.014  1.00  0.00     0.040 A 
ATOM     78  F   UNL     1      15.731  -7.366  -5.729  1.00  0.00    -0.206 F 
ATOM     79  C   UNL     1      15.369  -6.131  -9.114  1.00  0.00     0.006 A 
ENDBRANCH  58  72
BRANCH  59  80
ATOM     80  C   UNL     1      10.142  -4.486   2.442  1.00  0.00     0.057 A 
ATOM     81  C   UNL     1       9.755  -3.226   2.912  1.00  0.00     0.134 A 
ATOM     82  C   UNL     1       9.945  -5.581   3.293  1.00  0.00     0.134 A 
ATOM     83  F   UNL     1       9.943  -2.136   2.154  1.00  0.00    -0.206 F 
ATOM     84  C   UNL     1       9.199  -3.060   4.181  1.00  0.00     0.040 A 
ATOM     85  C   UNL     1       9.364  -5.433   4.553  1.00  0.00     0.040 A 
ATOM     86  F   UNL     1      10.296  -6.815   2.902  1.00  0.00    -0.206 F 
ATOM     87  C   UNL     1       8.994  -4.168   5.002  1.00  0.00     0.006 A 
ENDBRANCH  59  80
BRANCH  71  88
ATOM     88  C   UNL     1      16.263  -2.715  -0.340  1.00  0.00     0.057 A 
ATOM     89  C   UNL     1      17.137  -3.321   0.572  1.00  0.00     0.134 A 
ATOM     90  C   UNL     1      16.548  -1.404  -0.739  1.00  0.00     0.134 A 
ATOM     91  F   UNL     1      16.910  -4.570   1.004  1.00  0.00    -0.206 F 
ATOM     92  C   UNL     1      18.242  -2.639   1.084  1.00  0.00     0.040 A 
ATOM     93  C   UNL     1      17.661  -0.719  -0.251  1.00  0.00     0.040 A 
ATOM     94  F   UNL     1      15.752  -0.770  -1.613  1.00  0.00    -0.206 F 
ATOM     95  C   UNL     1      18.509  -1.335   0.668  1.00  0.00     0.006 A 
ENDBRANCH  71  88
ENDBRANCH  45  46
ENDBRANCH  38  40
ENDBRANCH  37  38
ENDBRANCH  36  37
ENDBRANCH   1  36
TORSDOF 17
