REMARK SMILES CN1N[C@H](C(=O)N[C@@H](CC2=c3ccccc3=NC2)C(=O)OCCOC(=O)c2ccc(-c3c4nc(c(-c5c(F)cccc5F)c5ccc([nH]5)c(-c5c(F)cccc5F)c5nc(c(-c6c(F)cccc6F)c6ccc3[nH]6)C=C5)C=C4)cc2)c2ccccc2C1=O
REMARK SMILES IDX 22 1 21 2 19 3 20 4 8 5 7 6 5 7 6 8 4 10 1 11 2 12 3 13
REMARK SMILES IDX 87 14 86 16 88 17 81 18 85 19 82 20 84 21 83 22 9 23 10 24
REMARK SMILES IDX 11 25 18 26 12 27 16 28 17 29 13 30 15 31 14 32 23 33 24 34
REMARK SMILES IDX 25 35 26 36 27 37 28 38 80 39 29 40 79 41 30 42 31 43 32 44
REMARK SMILES IDX 73 45 33 46 78 47 72 48 74 49 34 50 77 51 71 52 70 53 35 55
REMARK SMILES IDX 61 56 44 57 60 58 45 59 48 60 59 61 75 62 46 63 47 64 58 66
REMARK SMILES IDX 76 67 49 68 36 69 37 70 42 71 38 72 39 73 41 74 43 75 40 76
REMARK SMILES IDX 62 77 63 78 68 79 64 80 65 81 67 82 69 83 66 84 50 85 51 86
REMARK SMILES IDX 56 87 52 88 53 89 55 90 57 91 54 92
REMARK H PARENT 7 9 3 15 74 54 48 65
REMARK Flexibility Score: inf
ROOT
ATOM      1  C   UNL     1      -3.833   7.593   2.099  1.00  0.00     0.274 C 
ENDROOT
BRANCH   1   2
ATOM      2  O   UNL     1      -2.574   6.896   2.193  1.00  0.00    -0.461 OA
BRANCH   2   3
ATOM      3  C   UNL     1      -2.671   5.545   2.296  1.00  0.00     0.329 C 
ATOM      4  O   UNL     1      -3.732   4.926   2.280  1.00  0.00    -0.250 OA
BRANCH   3   5
ATOM      5  C   UNL     1      -1.327   4.841   2.516  1.00  0.00     0.196 C 
BRANCH   5   6
ATOM      6  N   UNL     1      -0.101   5.630   2.328  1.00  0.00    -0.341 N 
ATOM      7  C   UNL     1       1.133   5.298   1.853  1.00  0.00     0.244 C 
ATOM      8  O   UNL     1       2.061   6.072   2.122  1.00  0.00    -0.273 OA
ATOM      9  H   UNL     1      -0.188   6.574   2.595  1.00  0.00     0.164 HD
BRANCH   7  10
ATOM     10  C   UNL     1       1.379   4.105   0.900  1.00  0.00     0.195 C 
ATOM     11  C   UNL     1       1.242   0.436   1.085  1.00  0.00     0.169 C 
ATOM     12  N   UNL     1       0.894   1.758   0.589  1.00  0.00    -0.276 N 
ATOM     13  N   UNL     1       0.893   2.849   1.509  1.00  0.00    -0.215 NA
ATOM     14  C   UNL     1       0.401   1.906  -0.710  1.00  0.00     0.268 C 
ATOM     15  H   UNL     1       1.496   2.613   2.297  1.00  0.00     0.149 HD
ATOM     16  C   UNL     1       0.353   3.290  -1.246  1.00  0.00     0.046 A 
ATOM     17  O   UNL     1       0.062   0.965  -1.422  1.00  0.00    -0.268 OA
ATOM     18  C   UNL     1       0.819   4.362  -0.480  1.00  0.00    -0.007 A 
ATOM     19  C   UNL     1      -0.089   3.499  -2.559  1.00  0.00     0.014 A 
ATOM     20  C   UNL     1       0.859   5.640  -1.065  1.00  0.00     0.007 A 
ATOM     21  C   UNL     1      -0.090   4.780  -3.108  1.00  0.00     0.001 A 
ATOM     22  C   UNL     1       0.392   5.848  -2.363  1.00  0.00     0.000 A 
ENDBRANCH   7  10
ENDBRANCH   5   6
BRANCH   5  23
ATOM     23  C   UNL     1      -1.405   4.191   3.930  1.00  0.00     0.070 C 
BRANCH  23  24
ATOM     24  C   UNL     1      -0.833   4.918   5.123  1.00  0.00    -0.037 C 
ATOM     25  C   UNL     1      -0.500   6.194   5.330  1.00  0.00     0.001 A 
ATOM     26  C   UNL     1      -0.271   4.094   6.251  1.00  0.00     0.174 C 
ATOM     27  C   UNL     1      -0.811   7.481   4.796  1.00  0.00     0.010 A 
ATOM     28  C   UNL     1       0.744   5.986   6.108  1.00  0.00     0.065 A 
ATOM     29  N   UNL     1       0.920   4.840   6.693  1.00  0.00    -0.280 NA
ATOM     30  C   UNL     1       0.112   8.455   4.851  1.00  0.00     0.001 A 
ATOM     31  C   UNL     1       1.763   7.053   5.997  1.00  0.00     0.028 A 
ATOM     32  C   UNL     1       1.447   8.190   5.354  1.00  0.00     0.002 A 
ENDBRANCH  23  24
ENDBRANCH   5  23
ENDBRANCH   3   5
ENDBRANCH   2   3
ENDBRANCH   1   2
BRANCH   1  33
ATOM     33  C   UNL     1      -4.176   7.968   0.658  1.00  0.00     0.275 C 
BRANCH  33  34
ATOM     34  O   UNL     1      -4.388   6.806  -0.166  1.00  0.00    -0.458 OA
BRANCH  34  35
ATOM     35  C   UNL     1      -3.283   6.386  -0.827  1.00  0.00     0.338 C 
ATOM     36  O   UNL     1      -2.176   6.890  -0.787  1.00  0.00    -0.246 OA
BRANCH  35  37
ATOM     37  C   UNL     1      -3.575   5.158  -1.580  1.00  0.00     0.060 A 
ATOM     38  C   UNL     1      -4.078   5.228  -2.881  1.00  0.00     0.016 A 
ATOM     39  C   UNL     1      -3.185   3.935  -1.038  1.00  0.00     0.016 A 
ATOM     40  C   UNL     1      -4.181   4.059  -3.648  1.00  0.00     0.010 A 
ATOM     41  C   UNL     1      -3.251   2.781  -1.817  1.00  0.00     0.010 A 
ATOM     42  C   UNL     1      -3.746   2.828  -3.132  1.00  0.00    -0.014 A 
BRANCH  42  43
ATOM     43  C   UNL     1      -3.782   1.570  -3.928  1.00  0.00     0.031 A 
ATOM     44  C   UNL     1      -4.639   0.421  -3.466  1.00  0.00     0.074 A 
ATOM     45  C   UNL     1      -2.959   1.397  -4.982  1.00  0.00     0.049 A 
ATOM     46  N   UNL     1      -4.755  -0.783  -3.966  1.00  0.00    -0.248 NA
ATOM     47  C   UNL     1      -5.458   0.656  -2.267  1.00  0.00     0.031 C 
ATOM     48  C   UNL     1      -2.024   2.392  -5.504  1.00  0.00     0.029 A 
ATOM     49  N   UNL     1      -2.740   0.296  -5.774  1.00  0.00    -0.354 N 
ATOM     50  C   UNL     1      -5.651  -1.448  -3.139  1.00  0.00     0.074 A 
ATOM     51  C   UNL     1      -5.984  -0.541  -2.062  1.00  0.00     0.031 C 
ATOM     52  C   UNL     1      -1.290   1.842  -6.486  1.00  0.00     0.029 A 
ATOM     53  C   UNL     1      -1.724   0.464  -6.685  1.00  0.00     0.049 A 
ATOM     54  H   UNL     1      -3.261  -0.535  -5.696  1.00  0.00     0.167 HD
ATOM     55  C   UNL     1      -6.190  -2.682  -3.285  1.00  0.00     0.037 A 
ATOM     56  C   UNL     1      -1.209  -0.392  -7.587  1.00  0.00     0.037 A 
ATOM     57  C   UNL     1      -5.880  -3.577  -4.366  1.00  0.00     0.049 A 
ATOM     58  C   UNL     1      -1.828  -1.751  -7.751  1.00  0.00     0.074 A 
ATOM     59  C   UNL     1      -6.438  -4.808  -4.662  1.00  0.00     0.029 A 
ATOM     60  N   UNL     1      -4.914  -3.332  -5.330  1.00  0.00    -0.354 N 
ATOM     61  N   UNL     1      -2.785  -2.312  -7.055  1.00  0.00    -0.248 NA
ATOM     62  C   UNL     1      -1.330  -2.576  -8.862  1.00  0.00     0.031 C 
ATOM     63  C   UNL     1      -5.800  -5.314  -5.801  1.00  0.00     0.029 A 
ATOM     64  C   UNL     1      -4.862  -4.387  -6.226  1.00  0.00     0.049 A 
ATOM     65  H   UNL     1      -4.348  -2.527  -5.372  1.00  0.00     0.167 HD
ATOM     66  C   UNL     1      -3.049  -3.523  -7.679  1.00  0.00     0.074 A 
ATOM     67  C   UNL     1      -2.138  -3.626  -8.800  1.00  0.00     0.031 C 
ATOM     68  C   UNL     1      -3.979  -4.456  -7.361  1.00  0.00     0.037 A 
BRANCH  55  69
ATOM     69  C   UNL     1      -7.203  -3.096  -2.260  1.00  0.00     0.057 A 
ATOM     70  C   UNL     1      -6.916  -4.083  -1.311  1.00  0.00     0.134 A 
ATOM     71  C   UNL     1      -8.462  -2.479  -2.192  1.00  0.00     0.134 A 
ATOM     72  F   UNL     1      -5.736  -4.721  -1.325  1.00  0.00    -0.206 F 
ATOM     73  C   UNL     1      -7.833  -4.422  -0.314  1.00  0.00     0.040 A 
ATOM     74  C   UNL     1      -9.375  -2.789  -1.184  1.00  0.00     0.040 A 
ATOM     75  F   UNL     1      -8.795  -1.518  -3.067  1.00  0.00    -0.206 F 
ATOM     76  C   UNL     1      -9.060  -3.764  -0.240  1.00  0.00     0.006 A 
ENDBRANCH  55  69
BRANCH  56  77
ATOM     77  C   UNL     1      -0.104   0.040  -8.478  1.00  0.00     0.057 A 
ATOM     78  C   UNL     1       1.222   0.082  -8.036  1.00  0.00     0.134 A 
ATOM     79  C   UNL     1      -0.357   0.400  -9.807  1.00  0.00     0.134 A 
ATOM     80  F   UNL     1       1.527  -0.248  -6.773  1.00  0.00    -0.206 F 
ATOM     81  C   UNL     1       2.262   0.458  -8.889  1.00  0.00     0.040 A 
ATOM     82  C   UNL     1       0.674   0.764 -10.674  1.00  0.00     0.040 A 
ATOM     83  F   UNL     1      -1.608   0.363 -10.288  1.00  0.00    -0.206 F 
ATOM     84  C   UNL     1       1.989   0.793 -10.215  1.00  0.00     0.006 A 
ENDBRANCH  56  77
BRANCH  68  85
ATOM     85  C   UNL     1      -4.121  -5.627  -8.283  1.00  0.00     0.057 A 
ATOM     86  C   UNL     1      -5.223  -5.715  -9.144  1.00  0.00     0.134 A 
ATOM     87  C   UNL     1      -3.204  -6.684  -8.290  1.00  0.00     0.134 A 
ATOM     88  F   UNL     1      -6.137  -4.734  -9.183  1.00  0.00    -0.206 F 
ATOM     89  C   UNL     1      -5.412  -6.820  -9.974  1.00  0.00     0.040 A 
ATOM     90  C   UNL     1      -3.373  -7.786  -9.131  1.00  0.00     0.040 A 
ATOM     91  F   UNL     1      -2.120  -6.649  -7.501  1.00  0.00    -0.206 F 
ATOM     92  C   UNL     1      -4.484  -7.859  -9.970  1.00  0.00     0.006 A 
ENDBRANCH  68  85
ENDBRANCH  42  43
ENDBRANCH  35  37
ENDBRANCH  34  35
ENDBRANCH  33  34
ENDBRANCH   1  33
TORSDOF 15
