REMARK SMILES Cn1c(C[NH+]2CCC3(CC2)NC(=O)C[C@@H]3C(=O)OCCOC(=O)c2ccc(-c3c4nc(c(-c5c(F)cccc5F)c5ccc([nH]5)c(-c5c(F)cccc5F)c5nc(c(-c6c(F)cccc6F)c6ccc3[nH]6)C=C5)C=C4)cc2)nc2ccccc21
REMARK SMILES IDX 19 1 18 2 16 3 17 4 15 5 5 6 6 7 10 8 7 10 9 11 8 12 11 13
REMARK SMILES IDX 12 14 14 16 13 17 4 18 3 19 1 20 2 21 84 22 78 23 79 24
REMARK SMILES IDX 83 25 80 26 82 27 81 28 20 29 21 30 22 31 23 32 24 33 25 34
REMARK SMILES IDX 77 35 26 36 76 37 27 38 28 39 29 40 70 41 30 42 75 43 69 44
REMARK SMILES IDX 71 45 31 46 74 47 68 48 67 49 32 51 58 52 41 53 57 54 42 55
REMARK SMILES IDX 45 56 56 57 72 58 43 59 44 60 55 62 73 63 46 64 33 65 34 66
REMARK SMILES IDX 39 67 35 68 36 69 38 70 40 71 37 72 59 73 60 74 65 75 61 76
REMARK SMILES IDX 62 77 64 78 66 79 63 80 47 81 48 82 53 83 49 84 50 85 52 86
REMARK SMILES IDX 54 87 51 88
REMARK H PARENT 5 9 11 15 71 50 45 61
REMARK Flexibility Score: inf
ROOT
ATOM      1  C   UNL     1      -4.571  -3.169  -4.900  1.00  0.00     0.274 C 
ENDROOT
BRANCH   1   2
ATOM      2  O   UNL     1      -3.426  -3.272  -4.025  1.00  0.00    -0.462 OA
BRANCH   2   3
ATOM      3  C   UNL     1      -2.291  -3.729  -4.593  1.00  0.00     0.311 C 
ATOM      4  O   UNL     1      -2.229  -4.178  -5.733  1.00  0.00    -0.252 OA
BRANCH   3   5
ATOM      5  C   UNL     1      -1.072  -3.685  -3.693  1.00  0.00     0.134 C 
ATOM      6  N   UNL     1      -3.258  -2.315  -0.427  1.00  0.00    -0.328 N 
ATOM      7  C   UNL     1      -3.162  -1.522  -1.635  1.00  0.00     0.265 C 
ATOM      8  C   UNL     1      -2.691  -3.647  -0.587  1.00  0.00     0.265 C 
ATOM      9  H   UNL     1      -4.255  -2.485  -0.294  1.00  0.00     0.348 HD
ATOM     10  C   UNL     1      -1.806  -1.529  -2.345  1.00  0.00     0.091 C 
ATOM     11  C   UNL     1      -1.265  -3.705  -1.121  1.00  0.00     0.091 C 
ATOM     12  C   UNL     1      -1.012  -2.848  -2.375  1.00  0.00     0.064 C 
ATOM     13  N   UNL     1       0.407  -2.467  -2.371  1.00  0.00    -0.349 N 
ATOM     14  C   UNL     1       1.032  -2.528  -3.585  1.00  0.00     0.221 C 
ATOM     15  H   UNL     1       0.874  -2.187  -1.551  1.00  0.00     0.164 HD
ATOM     16  C   UNL     1       0.102  -3.172  -4.557  1.00  0.00     0.117 C 
ATOM     17  O   UNL     1       2.144  -2.097  -3.831  1.00  0.00    -0.275 OA
BRANCH   6  18
ATOM     18  C   UNL     1      -2.978  -1.613   0.832  1.00  0.00     0.339 C 
BRANCH  18  19
ATOM     19  C   UNL     1      -1.640  -0.944   0.914  1.00  0.00     0.165 A 
ATOM     20  C   UNL     1      -2.348   1.442   0.396  1.00  0.00     0.152 C 
ATOM     21  N   UNL     1      -1.394   0.394   0.671  1.00  0.00    -0.326 N 
ATOM     22  C   UNL     1      -0.028   0.561   0.585  1.00  0.00     0.068 A 
ATOM     23  N   UNL     1      -0.510  -1.579   1.159  1.00  0.00    -0.227 NA
ATOM     24  C   UNL     1       0.490  -0.691   0.886  1.00  0.00     0.089 A 
ATOM     25  C   UNL     1       0.786   1.647   0.246  1.00  0.00     0.028 A 
ATOM     26  C   UNL     1       1.872  -0.910   0.824  1.00  0.00     0.030 A 
ATOM     27  C   UNL     1       2.162   1.407   0.159  1.00  0.00     0.002 A 
ATOM     28  C   UNL     1       2.698   0.148   0.435  1.00  0.00     0.002 A 
ENDBRANCH  18  19
ENDBRANCH   6  18
ENDBRANCH   3   5
ENDBRANCH   2   3
ENDBRANCH   1   2
BRANCH   1  29
ATOM     29  C   UNL     1      -5.377  -1.897  -4.589  1.00  0.00     0.275 C 
BRANCH  29  30
ATOM     30  O   UNL     1      -4.575  -0.707  -4.428  1.00  0.00    -0.458 OA
BRANCH  30  31
ATOM     31  C   UNL     1      -3.825  -0.338  -5.492  1.00  0.00     0.338 C 
ATOM     32  O   UNL     1      -3.800  -0.855  -6.587  1.00  0.00    -0.246 OA
BRANCH  31  33
ATOM     33  C   UNL     1      -2.883   0.714  -5.059  1.00  0.00     0.060 A 
ATOM     34  C   UNL     1      -1.518   0.438  -5.162  1.00  0.00     0.016 A 
ATOM     35  C   UNL     1      -3.317   1.956  -4.596  1.00  0.00     0.016 A 
ATOM     36  C   UNL     1      -0.580   1.394  -4.787  1.00  0.00     0.010 A 
ATOM     37  C   UNL     1      -2.373   2.963  -4.357  1.00  0.00     0.010 A 
ATOM     38  C   UNL     1      -0.998   2.702  -4.498  1.00  0.00    -0.014 A 
BRANCH  38  39
ATOM     39  C   UNL     1      -0.010   3.812  -4.606  1.00  0.00     0.031 A 
ATOM     40  C   UNL     1       0.307   4.729  -3.465  1.00  0.00     0.074 A 
ATOM     41  C   UNL     1       0.585   4.003  -5.803  1.00  0.00     0.049 A 
ATOM     42  N   UNL     1       1.094   5.776  -3.442  1.00  0.00    -0.248 NA
ATOM     43  C   UNL     1      -0.346   4.442  -2.182  1.00  0.00     0.031 C 
ATOM     44  C   UNL     1       0.354   3.186  -6.998  1.00  0.00     0.029 A 
ATOM     45  N   UNL     1       1.511   4.927  -6.216  1.00  0.00    -0.354 N 
ATOM     46  C   UNL     1       1.027   6.280  -2.151  1.00  0.00     0.074 A 
ATOM     47  C   UNL     1       0.106   5.431  -1.421  1.00  0.00     0.031 C 
ATOM     48  C   UNL     1       1.162   3.597  -7.982  1.00  0.00     0.029 A 
ATOM     49  C   UNL     1       1.891   4.771  -7.528  1.00  0.00     0.049 A 
ATOM     50  H   UNL     1       1.869   5.633  -5.631  1.00  0.00     0.167 HD
ATOM     51  C   UNL     1       1.671   7.353  -1.629  1.00  0.00     0.037 A 
ATOM     52  C   UNL     1       2.704   5.507  -8.305  1.00  0.00     0.037 A 
ATOM     53  C   UNL     1       2.568   8.205  -2.372  1.00  0.00     0.049 A 
ATOM     54  C   UNL     1       3.341   6.731  -7.725  1.00  0.00     0.074 A 
ATOM     55  C   UNL     1       3.268   9.316  -1.933  1.00  0.00     0.029 A 
ATOM     56  N   UNL     1       2.879   8.049  -3.717  1.00  0.00    -0.354 N 
ATOM     57  N   UNL     1       3.266   7.195  -6.502  1.00  0.00    -0.248 NA
ATOM     58  C   UNL     1       4.153   7.545  -8.636  1.00  0.00     0.031 C 
ATOM     59  C   UNL     1       3.960   9.861  -3.022  1.00  0.00     0.029 A 
ATOM     60  C   UNL     1       3.732   9.061  -4.130  1.00  0.00     0.049 A 
ATOM     61  H   UNL     1       2.542   7.325  -4.293  1.00  0.00     0.167 HD
ATOM     62  C   UNL     1       4.028   8.353  -6.491  1.00  0.00     0.074 A 
ATOM     63  C   UNL     1       4.572   8.508  -7.826  1.00  0.00     0.031 C 
ATOM     64  C   UNL     1       4.253   9.211  -5.466  1.00  0.00     0.037 A 
BRANCH  51  65
ATOM     65  C   UNL     1       1.390   7.692  -0.192  1.00  0.00     0.057 A 
ATOM     66  C   UNL     1       1.869   6.907   0.865  1.00  0.00     0.134 A 
ATOM     67  C   UNL     1       0.644   8.831   0.139  1.00  0.00     0.134 A 
ATOM     68  F   UNL     1       2.576   5.794   0.618  1.00  0.00    -0.206 F 
ATOM     69  C   UNL     1       1.591   7.226   2.197  1.00  0.00     0.040 A 
ATOM     70  C   UNL     1       0.379   9.173   1.467  1.00  0.00     0.040 A 
ATOM     71  F   UNL     1       0.159   9.631  -0.822  1.00  0.00    -0.206 F 
ATOM     72  C   UNL     1       0.847   8.364   2.500  1.00  0.00     0.006 A 
ENDBRANCH  51  65
BRANCH  52  73
ATOM     73  C   UNL     1       2.925   5.110  -9.717  1.00  0.00     0.057 A 
ATOM     74  C   UNL     1       4.159   4.607 -10.141  1.00  0.00     0.134 A 
ATOM     75  C   UNL     1       1.894   5.174 -10.664  1.00  0.00     0.134 A 
ATOM     76  F   UNL     1       5.190   4.540  -9.286  1.00  0.00    -0.206 F 
ATOM     77  C   UNL     1       4.360   4.179 -11.454  1.00  0.00     0.040 A 
ATOM     78  C   UNL     1       2.072   4.723 -11.972  1.00  0.00     0.040 A 
ATOM     79  F   UNL     1       0.684   5.639 -10.317  1.00  0.00    -0.206 F 
ATOM     80  C   UNL     1       3.310   4.226 -12.370  1.00  0.00     0.006 A 
ENDBRANCH  52  73
BRANCH  64  81
ATOM     81  C   UNL     1       5.142  10.383  -5.756  1.00  0.00     0.057 A 
ATOM     82  C   UNL     1       4.706  11.464  -6.533  1.00  0.00     0.134 A 
ATOM     83  C   UNL     1       6.445  10.433  -5.247  1.00  0.00     0.134 A 
ATOM     84  F   UNL     1       3.475  11.466  -7.066  1.00  0.00    -0.206 F 
ATOM     85  C   UNL     1       5.544  12.545  -6.811  1.00  0.00     0.040 A 
ATOM     86  C   UNL     1       7.284  11.520  -5.498  1.00  0.00     0.040 A 
ATOM     87  F   UNL     1       6.922   9.430  -4.495  1.00  0.00    -0.206 F 
ATOM     88  C   UNL     1       6.835  12.577  -6.288  1.00  0.00     0.006 A 
ENDBRANCH  64  81
ENDBRANCH  38  39
ENDBRANCH  31  33
ENDBRANCH  30  31
ENDBRANCH  29  30
ENDBRANCH   1  29
TORSDOF 13
