REMARK SMILES C[NH+]1CCN(c2nc3c(cc2F)c(=O)c(C(=O)OCCOC(=O)c2ccc(-c4c5nc(c(-c6c(F)cccc6F)c6ccc([nH]6)c(-c6c(F)cccc6F)c6nc(c(-c7c(F)cccc7F)c7ccc4[nH]7)C=C6)C=C5)cc2)cn3-c2ccc(F)cc2F)CC1
REMARK SMILES IDX 20 1 19 2 18 3 16 4 17 5 15 6 6 7 7 8 11 9 8 10 10 11 12 12
REMARK SMILES IDX 9 13 79 14 13 15 78 16 14 17 5 18 1 19 2 20 3 21 89 22 4 24
REMARK SMILES IDX 88 25 80 26 81 27 86 28 82 29 85 30 87 31 83 32 84 33 21 34
REMARK SMILES IDX 22 35 23 36 24 37 25 38 77 39 26 40 76 41 27 42 28 43 29 44
REMARK SMILES IDX 70 45 30 46 75 47 69 48 71 49 31 50 74 51 68 52 67 53 32 55
REMARK SMILES IDX 58 56 41 57 57 58 42 59 45 60 56 61 72 62 43 63 44 64 55 66
REMARK SMILES IDX 73 67 46 68 33 69 34 70 39 71 35 72 36 73 38 74 40 75 37 76
REMARK SMILES IDX 59 77 60 78 65 79 61 80 62 81 64 82 66 83 63 84 47 85 48 86
REMARK SMILES IDX 53 87 49 88 50 89 52 90 54 91 51 92
REMARK H PARENT 2 23 71 54 45 65
REMARK Flexibility Score: inf
ROOT
ATOM      1  C   UNL     1     -11.246   1.159   4.559  1.00  0.00     0.275 C 
ENDROOT
BRANCH   1   2
ATOM      2  C   UNL     1     -10.668  -0.225   4.278  1.00  0.00     0.275 C 
BRANCH   2   3
ATOM      3  O   UNL     1      -9.329  -0.107   3.762  1.00  0.00    -0.458 OA
BRANCH   3   4
ATOM      4  C   UNL     1      -9.160  -0.344   2.442  1.00  0.00     0.343 C 
ATOM      5  O   UNL     1     -10.038  -0.644   1.645  1.00  0.00    -0.246 OA
BRANCH   4   6
ATOM      6  C   UNL     1      -7.766  -0.104   2.038  1.00  0.00     0.124 A 
ATOM      7  C   UNL     1      -2.816  -0.161   0.990  1.00  0.00     0.167 A 
ATOM      8  N   UNL     1      -3.889   0.412   0.395  1.00  0.00    -0.209 NA
ATOM      9  C   UNL     1      -2.935  -0.829   2.215  1.00  0.00     0.166 A 
ATOM     10  C   UNL     1      -5.115   0.273   0.969  1.00  0.00     0.151 A 
ATOM     11  C   UNL     1      -4.159  -0.918   2.846  1.00  0.00     0.059 A 
ATOM     12  F   UNL     1      -1.863  -1.378   2.808  1.00  0.00    -0.203 F 
ATOM     13  C   UNL     1      -5.266  -0.372   2.207  1.00  0.00     0.069 A 
ATOM     14  N   UNL     1      -6.284   0.760   0.298  1.00  0.00    -0.297 N 
ATOM     15  C   UNL     1      -6.597  -0.534   2.825  1.00  0.00     0.205 A 
ATOM     16  C   UNL     1      -7.525   0.489   0.859  1.00  0.00     0.113 A 
ATOM     17  O   UNL     1      -6.703  -1.075   3.919  1.00  0.00    -0.288 OA
BRANCH   7  18
ATOM     18  N   UNL     1      -1.594  -0.087   0.371  1.00  0.00    -0.343 N 
ATOM     19  C   UNL     1       2.579   0.171  -0.022  1.00  0.00     0.332 C 
ATOM     20  N   UNL     1       1.175   0.046  -0.415  1.00  0.00    -0.334 N 
ATOM     21  C   UNL     1       0.410   1.250   0.005  1.00  0.00     0.283 C 
ATOM     22  C   UNL     1       0.592  -1.171   0.200  1.00  0.00     0.283 C 
ATOM     23  H   UNL     1       1.122  -0.031  -1.431  1.00  0.00     0.347 HD
ATOM     24  C   UNL     1      -1.119   1.141  -0.251  1.00  0.00     0.179 C 
ATOM     25  C   UNL     1      -0.921  -1.310  -0.056  1.00  0.00     0.179 C 
ENDBRANCH   7  18
BRANCH  14  26
ATOM     26  C   UNL     1      -6.223   1.443  -0.955  1.00  0.00     0.083 A 
ATOM     27  C   UNL     1      -5.759   0.786  -2.106  1.00  0.00     0.033 A 
ATOM     28  C   UNL     1      -6.660   2.776  -1.083  1.00  0.00     0.150 A 
ATOM     29  C   UNL     1      -5.743   1.443  -3.340  1.00  0.00     0.041 A 
ATOM     30  C   UNL     1      -6.629   3.442  -2.304  1.00  0.00     0.080 A 
ATOM     31  F   UNL     1      -7.115   3.438  -0.007  1.00  0.00    -0.205 F 
ATOM     32  C   UNL     1      -6.173   2.763  -3.425  1.00  0.00     0.126 A 
ATOM     33  F   UNL     1      -6.145   3.387  -4.609  1.00  0.00    -0.207 F 
ENDBRANCH  14  26
ENDBRANCH   4   6
ENDBRANCH   3   4
ENDBRANCH   2   3
ENDBRANCH   1   2
BRANCH   1  34
ATOM     34  O   UNL     1     -11.469   1.851   3.316  1.00  0.00    -0.458 OA
BRANCH  34  35
ATOM     35  C   UNL     1     -10.609   2.858   3.047  1.00  0.00     0.338 C 
ATOM     36  O   UNL     1      -9.707   3.283   3.747  1.00  0.00    -0.246 OA
BRANCH  35  37
ATOM     37  C   UNL     1     -10.883   3.381   1.701  1.00  0.00     0.060 A 
ATOM     38  C   UNL     1     -10.573   2.595   0.593  1.00  0.00     0.016 A 
ATOM     39  C   UNL     1     -11.311   4.696   1.537  1.00  0.00     0.016 A 
ATOM     40  C   UNL     1     -10.582   3.150  -0.682  1.00  0.00     0.010 A 
ATOM     41  C   UNL     1     -11.414   5.224   0.247  1.00  0.00     0.010 A 
ATOM     42  C   UNL     1     -11.005   4.471  -0.870  1.00  0.00    -0.014 A 
BRANCH  42  43
ATOM     43  C   UNL     1     -10.966   5.089  -2.220  1.00  0.00     0.031 A 
ATOM     44  C   UNL     1     -10.082   6.280  -2.470  1.00  0.00     0.074 A 
ATOM     45  C   UNL     1     -11.706   4.584  -3.225  1.00  0.00     0.049 A 
ATOM     46  N   UNL     1     -10.034   7.073  -3.510  1.00  0.00    -0.248 NA
ATOM     47  C   UNL     1      -9.131   6.631  -1.403  1.00  0.00     0.031 C 
ATOM     48  C   UNL     1     -12.562   3.400  -3.139  1.00  0.00     0.029 A 
ATOM     49  N   UNL     1     -11.859   5.011  -4.521  1.00  0.00    -0.354 N 
ATOM     50  C   UNL     1      -9.090   8.044  -3.202  1.00  0.00     0.074 A 
ATOM     51  C   UNL     1      -8.589   7.743  -1.878  1.00  0.00     0.031 C 
ATOM     52  C   UNL     1     -13.135   3.184  -4.333  1.00  0.00     0.029 A 
ATOM     53  C   UNL     1     -12.748   4.255  -5.245  1.00  0.00     0.049 A 
ATOM     54  H   UNL     1     -11.377   5.783  -4.895  1.00  0.00     0.167 HD
ATOM     55  C   UNL     1      -8.679   9.092  -3.956  1.00  0.00     0.037 A 
ATOM     56  C   UNL     1     -13.235   4.431  -6.487  1.00  0.00     0.037 A 
ATOM     57  C   UNL     1      -9.145   9.365  -5.290  1.00  0.00     0.049 A 
ATOM     58  C   UNL     1     -12.807   5.630  -7.282  1.00  0.00     0.074 A 
ATOM     59  C   UNL     1      -8.771  10.387  -6.145  1.00  0.00     0.029 A 
ATOM     60  N   UNL     1     -10.083   8.601  -5.967  1.00  0.00    -0.354 N 
ATOM     61  N   UNL     1     -11.953   6.571  -6.962  1.00  0.00    -0.248 NA
ATOM     62  C   UNL     1     -13.434   5.806  -8.599  1.00  0.00     0.031 C 
ATOM     63  C   UNL     1      -9.507  10.259  -7.329  1.00  0.00     0.029 A 
ATOM     64  C   UNL     1     -10.316   9.139  -7.222  1.00  0.00     0.049 A 
ATOM     65  H   UNL     1     -10.519   7.794  -5.609  1.00  0.00     0.167 HD
ATOM     66  C   UNL     1     -11.939   7.451  -8.036  1.00  0.00     0.074 A 
ATOM     67  C   UNL     1     -12.852   6.918  -9.027  1.00  0.00     0.031 C 
ATOM     68  C   UNL     1     -11.240   8.602  -8.186  1.00  0.00     0.037 A 
BRANCH  55  69
ATOM     69  C   UNL     1      -7.699  10.041  -3.334  1.00  0.00     0.057 A 
ATOM     70  C   UNL     1      -8.114  11.309  -2.908  1.00  0.00     0.134 A 
ATOM     71  C   UNL     1      -6.349   9.711  -3.164  1.00  0.00     0.134 A 
ATOM     72  F   UNL     1      -9.394  11.688  -3.044  1.00  0.00    -0.206 F 
ATOM     73  C   UNL     1      -7.222  12.215  -2.333  1.00  0.00     0.040 A 
ATOM     74  C   UNL     1      -5.451  10.601  -2.571  1.00  0.00     0.040 A 
ATOM     75  F   UNL     1      -5.893   8.505  -3.533  1.00  0.00    -0.206 F 
ATOM     76  C   UNL     1      -5.887  11.859  -2.157  1.00  0.00     0.006 A 
ENDBRANCH  55  69
BRANCH  56  77
ATOM     77  C   UNL     1     -14.229   3.476  -7.034  1.00  0.00     0.057 A 
ATOM     78  C   UNL     1     -15.538   3.425  -6.540  1.00  0.00     0.134 A 
ATOM     79  C   UNL     1     -13.893   2.597  -8.069  1.00  0.00     0.134 A 
ATOM     80  F   UNL     1     -15.921   4.243  -5.549  1.00  0.00    -0.206 F 
ATOM     81  C   UNL     1     -16.475   2.522  -7.045  1.00  0.00     0.040 A 
ATOM     82  C   UNL     1     -14.826   1.705  -8.600  1.00  0.00     0.040 A 
ATOM     83  F   UNL     1     -12.662   2.619  -8.600  1.00  0.00    -0.206 F 
ATOM     84  C   UNL     1     -16.120   1.662  -8.082  1.00  0.00     0.006 A 
ENDBRANCH  56  77
BRANCH  68  85
ATOM     85  C   UNL     1     -11.442   9.351  -9.467  1.00  0.00     0.057 A 
ATOM     86  C   UNL     1     -10.469   9.329 -10.473  1.00  0.00     0.134 A 
ATOM     87  C   UNL     1     -12.600  10.104  -9.698  1.00  0.00     0.134 A 
ATOM     88  F   UNL     1      -9.337   8.627 -10.310  1.00  0.00    -0.206 F 
ATOM     89  C   UNL     1     -10.641  10.030 -11.667  1.00  0.00     0.040 A 
ATOM     90  C   UNL     1     -12.791  10.794 -10.895  1.00  0.00     0.040 A 
ATOM     91  F   UNL     1     -13.575  10.150  -8.778  1.00  0.00    -0.206 F 
ATOM     92  C   UNL     1     -11.808  10.761 -11.882  1.00  0.00     0.006 A 
ENDBRANCH  68  85
ENDBRANCH  42  43
ENDBRANCH  35  37
ENDBRANCH  34  35
ENDBRANCH   1  34
TORSDOF 13
