REMARK SMILES CC(=O)c1ccc(N2/C(=[NH+]/C(=O)CCC(=O)OCCOC(=O)c3ccc(-c4c5nc(c(-c6c(F)cccc6F)c6ccc([nH]6)c(-c6c(F)cccc6F)c6nc(c(-c7c(F)cccc7F)c7ccc4[nH]7)C=C6)C=C5)cc3)S[C@H]3CS(=O)(=O)C[C@@H]32)cc1
REMARK SMILES IDX 18 1 17 2 15 3 16 4 14 5 13 6 11 7 8 8 9 9 84 10 10 11 77 12
REMARK SMILES IDX 78 13 83 14 79 16 80 17 12 18 81 19 82 20 7 21 4 22 5 23
REMARK SMILES IDX 86 24 6 25 85 26 2 27 1 28 3 29 19 30 20 31 21 32 22 33
REMARK SMILES IDX 23 34 24 35 76 36 25 37 75 38 26 39 27 40 28 41 69 42 29 43
REMARK SMILES IDX 74 44 68 45 70 46 30 47 73 48 67 49 66 50 31 52 57 53 40 54
REMARK SMILES IDX 56 55 41 56 44 57 55 58 71 59 42 60 43 61 54 63 72 64 45 65
REMARK SMILES IDX 32 66 33 67 38 68 34 69 35 70 37 71 39 72 36 73 58 74 59 75
REMARK SMILES IDX 64 76 60 77 61 78 63 79 65 80 62 81 46 82 47 83 52 84 48 85
REMARK SMILES IDX 49 86 51 87 53 88 50 89
REMARK H PARENT 10 15 70 51 44 62
REMARK Flexibility Score: inf
ROOT
ATOM      1  C   UNL     1       4.831  -4.084  -2.158  1.00  0.00     0.274 C 
ENDROOT
BRANCH   1   2
ATOM      2  O   UNL     1       5.155  -4.734  -3.398  1.00  0.00    -0.462 OA
BRANCH   2   3
ATOM      3  C   UNL     1       6.297  -5.458  -3.445  1.00  0.00     0.306 C 
ATOM      4  O   UNL     1       7.157  -5.486  -2.575  1.00  0.00    -0.252 OA
BRANCH   3   5
ATOM      5  C   UNL     1       6.380  -6.246  -4.727  1.00  0.00     0.135 C 
BRANCH   5   6
ATOM      6  C   UNL     1       5.242  -7.245  -4.841  1.00  0.00     0.139 C 
BRANCH   6   7
ATOM      7  C   UNL     1       4.127  -6.799  -5.766  1.00  0.00     0.308 C 
ATOM      8  N   UNL     1       1.765  -3.997  -5.711  1.00  0.00    -0.217 N 
ATOM      9  C   UNL     1       2.660  -5.009  -6.073  1.00  0.00     0.319 C 
ATOM     10  C   UNL     1       0.901  -3.561  -6.803  1.00  0.00     0.212 C 
ATOM     11  N   UNL     1       3.349  -5.769  -5.288  1.00  0.00    -0.204 N 
ATOM     12  S   UNL     1       2.721  -5.062  -7.877  1.00  0.00    -0.029 SA
ATOM     13  C   UNL     1       1.843  -3.500  -8.004  1.00  0.00     0.120 C 
ATOM     14  C   UNL     1       0.265  -2.188  -6.769  1.00  0.00     0.188 C 
ATOM     15  H   UNL     1       3.317  -5.606  -4.318  1.00  0.00     0.316 HD
ATOM     16  C   UNL     1       0.966  -3.189  -9.188  1.00  0.00     0.156 C 
ATOM     17  S   UNL     1      -0.096  -1.903  -8.509  1.00  0.00     0.155 S 
ATOM     18  O   UNL     1       3.931  -7.439  -6.798  1.00  0.00    -0.247 OA
ATOM     19  O   UNL     1       0.448  -0.613  -8.875  1.00  0.00    -0.229 OA
ATOM     20  O   UNL     1      -1.474  -2.266  -8.757  1.00  0.00    -0.229 OA
BRANCH   8  21
ATOM     21  C   UNL     1       1.492  -3.518  -4.429  1.00  0.00     0.128 A 
ATOM     22  C   UNL     1       0.781  -2.250  -1.996  1.00  0.00     0.018 A 
ATOM     23  C   UNL     1       0.030  -3.324  -2.491  1.00  0.00     0.016 A 
ATOM     24  C   UNL     1       1.893  -1.815  -2.719  1.00  0.00     0.016 A 
ATOM     25  C   UNL     1       0.379  -3.946  -3.699  1.00  0.00     0.052 A 
ATOM     26  C   UNL     1       2.244  -2.450  -3.919  1.00  0.00     0.052 A 
BRANCH  22  27
ATOM     27  C   UNL     1       0.363  -1.609  -0.711  1.00  0.00     0.159 C 
ATOM     28  C   UNL     1       1.029  -0.328  -0.278  1.00  0.00     0.093 C 
ATOM     29  O   UNL     1      -0.518  -2.129  -0.031  1.00  0.00    -0.295 OA
ENDBRANCH  22  27
ENDBRANCH   8  21
ENDBRANCH   6   7
ENDBRANCH   5   6
ENDBRANCH   3   5
ENDBRANCH   2   3
ENDBRANCH   1   2
BRANCH   1  30
ATOM     30  C   UNL     1       3.750  -4.880  -1.425  1.00  0.00     0.275 C 
BRANCH  30  31
ATOM     31  O   UNL     1       4.397  -5.901  -0.646  1.00  0.00    -0.458 OA
BRANCH  31  32
ATOM     32  C   UNL     1       4.229  -7.175  -1.059  1.00  0.00     0.338 C 
ATOM     33  O   UNL     1       3.471  -7.604  -1.906  1.00  0.00    -0.246 OA
BRANCH  32  34
ATOM     34  C   UNL     1       5.271  -7.975  -0.403  1.00  0.00     0.060 A 
ATOM     35  C   UNL     1       6.349  -8.427  -1.169  1.00  0.00     0.016 A 
ATOM     36  C   UNL     1       5.188  -8.255   0.961  1.00  0.00     0.016 A 
ATOM     37  C   UNL     1       7.360  -9.166  -0.567  1.00  0.00     0.010 A 
ATOM     38  C   UNL     1       6.205  -8.993   1.564  1.00  0.00     0.010 A 
ATOM     39  C   UNL     1       7.291  -9.457   0.802  1.00  0.00    -0.014 A 
BRANCH  39  40
ATOM     40  C   UNL     1       8.339 -10.293   1.426  1.00  0.00     0.031 A 
ATOM     41  C   UNL     1       8.043 -11.726   1.752  1.00  0.00     0.074 A 
ATOM     42  C   UNL     1       9.549  -9.764   1.681  1.00  0.00     0.049 A 
ATOM     43  N   UNL     1       8.805 -12.617   2.329  1.00  0.00    -0.248 NA
ATOM     44  C   UNL     1       6.707 -12.220   1.383  1.00  0.00     0.031 C 
ATOM     45  C   UNL     1       9.949  -8.389   1.382  1.00  0.00     0.029 A 
ATOM     46  N   UNL     1      10.664 -10.323   2.250  1.00  0.00    -0.354 N 
ATOM     47  C   UNL     1       8.042 -13.775   2.400  1.00  0.00     0.074 A 
ATOM     48  C   UNL     1       6.746 -13.464   1.835  1.00  0.00     0.031 C 
ATOM     49  C   UNL     1      11.224  -8.212   1.767  1.00  0.00     0.029 A 
ATOM     50  C   UNL     1      11.716  -9.448   2.368  1.00  0.00     0.049 A 
ATOM     51  H   UNL     1      10.706 -11.261   2.546  1.00  0.00     0.167 HD
ATOM     52  C   UNL     1       8.396 -14.988   2.885  1.00  0.00     0.037 A 
ATOM     53  C   UNL     1      12.933  -9.626   2.914  1.00  0.00     0.037 A 
ATOM     54  C   UNL     1       9.688 -15.286   3.445  1.00  0.00     0.049 A 
ATOM     55  C   UNL     1      13.283 -10.970   3.491  1.00  0.00     0.074 A 
ATOM     56  C   UNL     1      10.155 -16.485   3.954  1.00  0.00     0.029 A 
ATOM     57  N   UNL     1      10.721 -14.368   3.574  1.00  0.00    -0.354 N 
ATOM     58  N   UNL     1      12.561 -12.064   3.538  1.00  0.00    -0.248 NA
ATOM     59  C   UNL     1      14.618 -11.104   4.090  1.00  0.00     0.031 C 
ATOM     60  C   UNL     1      11.456 -16.282   4.428  1.00  0.00     0.029 A 
ATOM     61  C   UNL     1      11.816 -14.968   4.173  1.00  0.00     0.049 A 
ATOM     62  H   UNL     1      10.682 -13.429   3.281  1.00  0.00     0.167 HD
ATOM     63  C   UNL     1      13.357 -13.020   4.154  1.00  0.00     0.074 A 
ATOM     64  C   UNL     1      14.626 -12.382   4.443  1.00  0.00     0.031 C 
ATOM     65  C   UNL     1      13.066 -14.310   4.457  1.00  0.00     0.037 A 
BRANCH  52  66
ATOM     66  C   UNL     1       7.359 -16.072   2.852  1.00  0.00     0.057 A 
ATOM     67  C   UNL     1       6.964 -16.681   1.654  1.00  0.00     0.134 A 
ATOM     68  C   UNL     1       6.759 -16.522   4.034  1.00  0.00     0.134 A 
ATOM     69  F   UNL     1       7.487 -16.284   0.484  1.00  0.00    -0.206 F 
ATOM     70  C   UNL     1       5.993 -17.684   1.631  1.00  0.00     0.040 A 
ATOM     71  C   UNL     1       5.805 -17.541   4.027  1.00  0.00     0.040 A 
ATOM     72  F   UNL     1       7.093 -15.982   5.216  1.00  0.00    -0.206 F 
ATOM     73  C   UNL     1       5.414 -18.120   2.821  1.00  0.00     0.006 A 
ENDBRANCH  52  66
BRANCH  53  74
ATOM     74  C   UNL     1      13.905  -8.505   2.945  1.00  0.00     0.057 A 
ATOM     75  C   UNL     1      15.064  -8.530   2.161  1.00  0.00     0.134 A 
ATOM     76  C   UNL     1      13.703  -7.386   3.762  1.00  0.00     0.134 A 
ATOM     77  F   UNL     1      15.324  -9.584   1.375  1.00  0.00    -0.206 F 
ATOM     78  C   UNL     1      15.993  -7.489   2.198  1.00  0.00     0.040 A 
ATOM     79  C   UNL     1      14.611  -6.327   3.790  1.00  0.00     0.040 A 
ATOM     80  F   UNL     1      12.611  -7.301   4.537  1.00  0.00    -0.206 F 
ATOM     81  C   UNL     1      15.765  -6.380   3.010  1.00  0.00     0.006 A 
ENDBRANCH  53  74
BRANCH  65  82
ATOM     82  C   UNL     1      14.149 -15.111   5.118  1.00  0.00     0.057 A 
ATOM     83  C   UNL     1      14.512 -14.897   6.453  1.00  0.00     0.134 A 
ATOM     84  C   UNL     1      14.821 -16.119   4.416  1.00  0.00     0.134 A 
ATOM     85  F   UNL     1      13.915 -13.936   7.175  1.00  0.00    -0.206 F 
ATOM     86  C   UNL     1      15.527 -15.639   7.060  1.00  0.00     0.040 A 
ATOM     87  C   UNL     1      15.819 -16.885   5.019  1.00  0.00     0.040 A 
ATOM     88  F   UNL     1      14.514 -16.380   3.136  1.00  0.00    -0.206 F 
ATOM     89  C   UNL     1      16.180 -16.640   6.343  1.00  0.00     0.006 A 
ENDBRANCH  65  82
ENDBRANCH  39  40
ENDBRANCH  32  34
ENDBRANCH  31  32
ENDBRANCH  30  31
ENDBRANCH   1  30
TORSDOF 15
