REMARK SMILES COc1ccc(-c2ccc(CCC(=O)OCCOC(=O)c3ccc(-c4c5nc(c(-c6c(F)cccc6F)c6ccc([nH]6)c(-c6c(F)cccc6F)c6nc(c(-c7c(F)cccc7F)c7ccc4[nH]7)C=C6)C=C5)cc3)n2-c2ccc(C(C)=O)cc2)cc1
REMARK SMILES IDX 16 1 15 2 13 3 14 4 12 5 11 6 10 7 7 8 8 9 75 10 9 11 6 12
REMARK SMILES IDX 3 13 4 14 86 15 5 16 85 17 2 18 1 19 76 20 77 21 84 22 78 23
REMARK SMILES IDX 83 24 79 25 80 26 81 27 82 28 17 29 18 30 19 31 20 32 21 33
REMARK SMILES IDX 22 34 74 35 23 36 73 37 24 38 25 39 26 40 67 41 27 42 72 43
REMARK SMILES IDX 66 44 68 45 28 46 71 47 65 48 64 49 29 51 55 52 38 53 54 54
REMARK SMILES IDX 39 55 42 56 53 57 69 58 40 59 41 60 52 62 70 63 43 64 30 65
REMARK SMILES IDX 31 66 36 67 32 68 33 69 35 70 37 71 34 72 56 73 57 74 62 75
REMARK SMILES IDX 58 76 59 77 61 78 63 79 60 80 44 81 45 82 50 83 46 84 47 85
REMARK SMILES IDX 49 86 51 87 48 88
REMARK H PARENT 68 50 42 61
REMARK Flexibility Score: inf
ROOT
ATOM      1  C   UNL     1       6.780   7.931  -4.935  1.00  0.00     0.274 C 
ENDROOT
BRANCH   1   2
ATOM      2  O   UNL     1       5.609   7.926  -4.095  1.00  0.00    -0.462 OA
BRANCH   2   3
ATOM      3  C   UNL     1       5.227   9.113  -3.557  1.00  0.00     0.306 C 
ATOM      4  O   UNL     1       5.822  10.173  -3.714  1.00  0.00    -0.252 OA
BRANCH   3   5
ATOM      5  C   UNL     1       4.002   8.979  -2.680  1.00  0.00     0.129 C 
BRANCH   5   6
ATOM      6  C   UNL     1       2.687   8.693  -3.406  1.00  0.00     0.066 C 
BRANCH   6   7
ATOM      7  C   UNL     1       2.492   7.235  -3.736  1.00  0.00     0.024 A 
ATOM      8  C   UNL     1       2.101   5.055  -3.331  1.00  0.00     0.053 A 
ATOM      9  C   UNL     1       2.817   5.141  -4.508  1.00  0.00     0.029 A 
ATOM     10  N   UNL     1       1.757   6.349  -2.954  1.00  0.00    -0.314 N 
ATOM     11  C   UNL     1       3.017   6.497  -4.781  1.00  0.00     0.024 A 
BRANCH   8  12
ATOM     12  C   UNL     1       1.652   3.822  -2.712  1.00  0.00    -0.001 A 
ATOM     13  C   UNL     1       0.856   1.388  -1.620  1.00  0.00     0.118 A 
ATOM     14  C   UNL     1      -0.069   2.185  -2.294  1.00  0.00     0.047 A 
ATOM     15  C   UNL     1       2.191   1.784  -1.527  1.00  0.00     0.047 A 
ATOM     16  C   UNL     1       0.325   3.406  -2.836  1.00  0.00     0.014 A 
ATOM     17  C   UNL     1       2.588   3.002  -2.074  1.00  0.00     0.014 A 
BRANCH  13  18
ATOM     18  O   UNL     1       0.381   0.204  -1.126  1.00  0.00    -0.497 OA
ATOM     19  C   UNL     1       0.880  -0.107   0.171  1.00  0.00     0.278 C 
ENDBRANCH  13  18
ENDBRANCH   8  12
BRANCH  10  20
ATOM     20  C   UNL     1       0.796   6.725  -1.982  1.00  0.00     0.046 A 
ATOM     21  C   UNL     1      -0.204   7.637  -2.344  1.00  0.00     0.027 A 
ATOM     22  C   UNL     1       0.835   6.196  -0.695  1.00  0.00     0.027 A 
ATOM     23  C   UNL     1      -1.159   8.041  -1.408  1.00  0.00     0.014 A 
ATOM     24  C   UNL     1      -0.112   6.619   0.243  1.00  0.00     0.014 A 
ATOM     25  C   UNL     1      -1.114   7.545  -0.101  1.00  0.00     0.017 A 
BRANCH  25  26
ATOM     26  C   UNL     1      -2.077   7.957   0.967  1.00  0.00     0.159 C 
ATOM     27  C   UNL     1      -3.250   8.854   0.659  1.00  0.00     0.093 C 
ATOM     28  O   UNL     1      -1.912   7.541   2.115  1.00  0.00    -0.295 OA
ENDBRANCH  25  26
ENDBRANCH  10  20
ENDBRANCH   6   7
ENDBRANCH   5   6
ENDBRANCH   3   5
ENDBRANCH   2   3
ENDBRANCH   1   2
BRANCH   1  29
ATOM     29  C   UNL     1       6.484   8.176  -6.420  1.00  0.00     0.275 C 
BRANCH  29  30
ATOM     30  O   UNL     1       6.083   9.522  -6.725  1.00  0.00    -0.458 OA
BRANCH  30  31
ATOM     31  C   UNL     1       4.757   9.697  -6.581  1.00  0.00     0.338 C 
ATOM     32  O   UNL     1       3.959   8.901  -6.127  1.00  0.00    -0.246 OA
BRANCH  31  33
ATOM     33  C   UNL     1       4.212  10.885  -7.202  1.00  0.00     0.060 A 
ATOM     34  C   UNL     1       3.150  11.508  -6.529  1.00  0.00     0.016 A 
ATOM     35  C   UNL     1       4.441  11.053  -8.567  1.00  0.00     0.016 A 
ATOM     36  C   UNL     1       2.257  12.268  -7.252  1.00  0.00     0.010 A 
ATOM     37  C   UNL     1       3.538  11.804  -9.294  1.00  0.00     0.010 A 
ATOM     38  C   UNL     1       2.449  12.395  -8.632  1.00  0.00    -0.014 A 
BRANCH  38  39
ATOM     39  C   UNL     1       1.591  13.344  -9.353  1.00  0.00     0.031 A 
ATOM     40  C   UNL     1       2.156  14.766  -9.265  1.00  0.00     0.074 A 
ATOM     41  C   UNL     1       0.479  12.821  -9.945  1.00  0.00     0.049 A 
ATOM     42  N   UNL     1       1.595  15.907  -9.520  1.00  0.00    -0.248 NA
ATOM     43  C   UNL     1       3.554  14.954  -8.775  1.00  0.00     0.031 C 
ATOM     44  C   UNL     1       0.098  11.393  -9.902  1.00  0.00     0.029 A 
ATOM     45  N   UNL     1      -0.551  13.359 -10.687  1.00  0.00    -0.354 N 
ATOM     46  C   UNL     1       2.604  16.887  -9.447  1.00  0.00     0.074 A 
ATOM     47  C   UNL     1       3.756  16.265  -8.878  1.00  0.00     0.031 C 
ATOM     48  C   UNL     1      -1.090  11.196 -10.510  1.00  0.00     0.029 A 
ATOM     49  C   UNL     1      -1.587  12.454 -11.034  1.00  0.00     0.049 A 
ATOM     50  H   UNL     1      -0.567  14.306 -10.956  1.00  0.00     0.167 HD
ATOM     51  C   UNL     1       2.481  18.133  -9.982  1.00  0.00     0.037 A 
ATOM     52  C   UNL     1      -2.774  12.709 -11.670  1.00  0.00     0.037 A 
ATOM     53  C   UNL     1       1.167  18.340 -10.481  1.00  0.00     0.049 A 
ATOM     54  C   UNL     1      -2.684  14.114 -12.102  1.00  0.00     0.074 A 
ATOM     55  C   UNL     1      -0.028  18.561  -9.850  1.00  0.00     0.029 A 
ATOM     56  N   UNL     1       0.926  17.982 -11.784  1.00  0.00    -0.354 N 
ATOM     57  N   UNL     1      -1.944  14.539 -13.082  1.00  0.00    -0.248 NA
ATOM     58  C   UNL     1      -3.398  15.139 -11.332  1.00  0.00     0.031 C 
ATOM     59  C   UNL     1      -0.979  17.933 -10.681  1.00  0.00     0.029 A 
ATOM     60  C   UNL     1      -0.351  17.473 -11.843  1.00  0.00     0.049 A 
ATOM     61  H   UNL     1       1.552  18.073 -12.538  1.00  0.00     0.167 HD
ATOM     62  C   UNL     1      -1.851  15.886 -12.823  1.00  0.00     0.074 A 
ATOM     63  C   UNL     1      -2.974  16.221 -11.978  1.00  0.00     0.031 C 
ATOM     64  C   UNL     1      -0.644  16.503 -12.874  1.00  0.00     0.037 A 
BRANCH  51  65
ATOM     65  C   UNL     1       3.526  19.162 -10.274  1.00  0.00     0.057 A 
ATOM     66  C   UNL     1       3.135  20.513 -10.382  1.00  0.00     0.134 A 
ATOM     67  C   UNL     1       4.804  18.852 -10.755  1.00  0.00     0.134 A 
ATOM     68  F   UNL     1       1.942  20.925  -9.925  1.00  0.00    -0.206 F 
ATOM     69  C   UNL     1       3.924  21.473 -11.019  1.00  0.00     0.040 A 
ATOM     70  C   UNL     1       5.621  19.816 -11.358  1.00  0.00     0.040 A 
ATOM     71  F   UNL     1       5.270  17.595 -10.740  1.00  0.00    -0.206 F 
ATOM     72  C   UNL     1       5.168  21.121 -11.524  1.00  0.00     0.006 A 
ENDBRANCH  51  65
BRANCH  52  73
ATOM     73  C   UNL     1      -4.076  11.995 -11.963  1.00  0.00     0.057 A 
ATOM     74  C   UNL     1      -4.351  10.643 -11.734  1.00  0.00     0.134 A 
ATOM     75  C   UNL     1      -5.197  12.724 -12.452  1.00  0.00     0.134 A 
ATOM     76  F   UNL     1      -3.393   9.779 -11.389  1.00  0.00    -0.206 F 
ATOM     77  C   UNL     1      -5.645  10.096 -11.868  1.00  0.00     0.040 A 
ATOM     78  C   UNL     1      -6.492  12.205 -12.556  1.00  0.00     0.040 A 
ATOM     79  F   UNL     1      -5.095  13.998 -12.855  1.00  0.00    -0.206 F 
ATOM     80  C   UNL     1      -6.727  10.883 -12.243  1.00  0.00     0.006 A 
ENDBRANCH  52  73
BRANCH  64  81
ATOM     81  C   UNL     1       0.371  15.788 -13.743  1.00  0.00     0.057 A 
ATOM     82  C   UNL     1       0.169  15.692 -15.125  1.00  0.00     0.134 A 
ATOM     83  C   UNL     1       1.475  15.082 -13.242  1.00  0.00     0.134 A 
ATOM     84  F   UNL     1      -0.856  16.337 -15.702  1.00  0.00    -0.206 F 
ATOM     85  C   UNL     1       1.006  14.928 -15.951  1.00  0.00     0.040 A 
ATOM     86  C   UNL     1       2.327  14.321 -14.051  1.00  0.00     0.040 A 
ATOM     87  F   UNL     1       1.763  15.098 -11.943  1.00  0.00    -0.206 F 
ATOM     88  C   UNL     1       2.088  14.235 -15.415  1.00  0.00     0.006 A 
ENDBRANCH  64  81
ENDBRANCH  38  39
ENDBRANCH  31  33
ENDBRANCH  30  31
ENDBRANCH  29  30
ENDBRANCH   1  29
TORSDOF 17
