REMARK SMILES NNS(=O)(=O)c1ccc(O)c(C(=O)OCCOC(=O)c2ccc(-c3c4nc(c(-c5c(F)cccc5F)c5ccc([nH]5)c(-c5c(F)cccc5F)c5nc(c(-c6c(F)cccc6F)c6ccc3[nH]6)C=C5)C=C4)cc2)c1
REMARK SMILES IDX 15 1 14 2 12 3 13 4 11 5 6 6 7 7 74 8 8 9 9 10 3 11 4 12
REMARK SMILES IDX 5 13 2 14 1 16 10 19 16 21 17 22 18 23 19 24 20 25 21 26
REMARK SMILES IDX 73 27 22 28 72 29 23 30 24 31 25 32 66 33 26 34 71 35 65 36
REMARK SMILES IDX 67 37 27 38 70 39 64 40 63 41 28 43 54 44 37 45 53 46 38 47
REMARK SMILES IDX 41 48 52 49 68 50 39 51 40 52 51 54 69 55 42 56 29 57 30 58
REMARK SMILES IDX 35 59 31 60 32 61 34 62 36 63 33 64 55 65 56 66 61 67 57 68
REMARK SMILES IDX 58 69 60 70 62 71 59 72 43 73 44 74 49 75 45 76 46 77 48 78
REMARK SMILES IDX 50 79 47 80
REMARK H PARENT 2 15 1 17 1 18 10 20 67 42 41 53
REMARK Flexibility Score: inf
ROOT
ATOM      1  C   UNL     1      -4.065   1.522  -5.431  1.00  0.00     0.275 C 
ENDROOT
BRANCH   1   2
ATOM      2  O   UNL     1      -3.336   2.072  -4.314  1.00  0.00    -0.458 OA
BRANCH   2   3
ATOM      3  C   UNL     1      -3.815   1.792  -3.077  1.00  0.00     0.342 C 
ATOM      4  O   UNL     1      -4.741   1.040  -2.814  1.00  0.00    -0.246 OA
BRANCH   3   5
ATOM      5  C   UNL     1      -2.964   2.394  -2.020  1.00  0.00     0.103 A 
ATOM      6  C   UNL     1      -1.814   2.082   0.098  1.00  0.00     0.084 A 
ATOM      7  C   UNL     1      -1.333   3.388   0.046  1.00  0.00     0.025 A 
ATOM      8  C   UNL     1      -2.664   1.602  -0.901  1.00  0.00     0.041 A 
ATOM      9  C   UNL     1      -1.681   4.204  -1.034  1.00  0.00     0.048 A 
ATOM     10  C   UNL     1      -2.483   3.705  -2.070  1.00  0.00     0.130 A 
BRANCH   6  11
ATOM     11  S   UNL     1      -1.362   1.011   1.444  1.00  0.00     0.253 S 
ATOM     12  O   UNL     1      -2.042  -0.251   1.281  1.00  0.00    -0.206 OA
ATOM     13  O   UNL     1      -1.488   1.786   2.664  1.00  0.00    -0.206 OA
BRANCH  11  14
ATOM     14  N   UNL     1       0.340   0.778   1.177  1.00  0.00    -0.150 NA
ATOM     15  H   UNL     1       0.777   1.687   1.020  1.00  0.00     0.160 HD
BRANCH  14  16
ATOM     16  N   UNL     1       0.591  -0.049   0.055  1.00  0.00    -0.257 NA
ATOM     17  H   UNL     1       1.597  -0.160  -0.068  1.00  0.00     0.138 HD
ATOM     18  H   UNL     1       0.192   0.381  -0.780  1.00  0.00     0.138 HD
ENDBRANCH  14  16
ENDBRANCH  11  14
ENDBRANCH   6  11
BRANCH  10  19
ATOM     19  O   UNL     1      -2.832   4.529  -3.102  1.00  0.00    -0.507 OA
ATOM     20  H   UNL     1      -2.507   5.407  -3.131  1.00  0.00     0.293 HD
ENDBRANCH  10  19
ENDBRANCH   3   5
ENDBRANCH   2   3
ENDBRANCH   1   2
BRANCH   1  21
ATOM     21  C   UNL     1      -3.234   0.478  -6.177  1.00  0.00     0.275 C 
BRANCH  21  22
ATOM     22  O   UNL     1      -3.078  -0.709  -5.376  1.00  0.00    -0.458 OA
BRANCH  22  23
ATOM     23  C   UNL     1      -1.880  -0.832  -4.766  1.00  0.00     0.338 C 
ATOM     24  O   UNL     1      -0.908  -0.101  -4.865  1.00  0.00    -0.246 OA
BRANCH  23  25
ATOM     25  C   UNL     1      -1.920  -1.935  -3.798  1.00  0.00     0.060 A 
ATOM     26  C   UNL     1      -2.371  -1.627  -2.523  1.00  0.00     0.016 A 
ATOM     27  C   UNL     1      -1.328  -3.168  -4.052  1.00  0.00     0.016 A 
ATOM     28  C   UNL     1      -2.111  -2.484  -1.462  1.00  0.00     0.010 A 
ATOM     29  C   UNL     1      -1.177  -4.085  -3.000  1.00  0.00     0.010 A 
ATOM     30  C   UNL     1      -1.514  -3.733  -1.678  1.00  0.00    -0.014 A 
BRANCH  30  31
ATOM     31  C   UNL     1      -1.205  -4.612  -0.507  1.00  0.00     0.031 A 
ATOM     32  C   UNL     1       0.207  -5.081  -0.246  1.00  0.00     0.074 A 
ATOM     33  C   UNL     1      -2.175  -4.943   0.371  1.00  0.00     0.049 A 
ATOM     34  N   UNL     1       0.652  -5.913   0.666  1.00  0.00    -0.248 NA
ATOM     35  C   UNL     1       1.258  -4.562  -1.135  1.00  0.00     0.031 C 
ATOM     36  C   UNL     1      -3.578  -4.531   0.280  1.00  0.00     0.029 A 
ATOM     37  N   UNL     1      -2.126  -5.678   1.532  1.00  0.00    -0.354 N 
ATOM     38  C   UNL     1       2.014  -6.057   0.424  1.00  0.00     0.074 A 
ATOM     39  C   UNL     1       2.321  -5.242  -0.731  1.00  0.00     0.031 C 
ATOM     40  C   UNL     1      -4.235  -4.954   1.369  1.00  0.00     0.029 A 
ATOM     41  C   UNL     1      -3.333  -5.753   2.187  1.00  0.00     0.049 A 
ATOM     42  H   UNL     1      -1.305  -6.109   1.863  1.00  0.00     0.167 HD
ATOM     43  C   UNL     1       2.925  -6.796   1.104  1.00  0.00     0.037 A 
ATOM     44  C   UNL     1      -3.691  -6.415   3.304  1.00  0.00     0.037 A 
ATOM     45  C   UNL     1       2.632  -7.565   2.288  1.00  0.00     0.049 A 
ATOM     46  C   UNL     1      -2.667  -7.244   4.024  1.00  0.00     0.074 A 
ATOM     47  C   UNL     1       3.492  -8.337   3.051  1.00  0.00     0.029 A 
ATOM     48  N   UNL     1       1.385  -7.649   2.891  1.00  0.00    -0.354 N 
ATOM     49  N   UNL     1      -1.396  -7.410   3.754  1.00  0.00    -0.248 NA
ATOM     50  C   UNL     1      -3.134  -7.989   5.201  1.00  0.00     0.031 C 
ATOM     51  C   UNL     1       2.757  -8.924   4.088  1.00  0.00     0.029 A 
ATOM     52  C   UNL     1       1.452  -8.470   4.007  1.00  0.00     0.049 A 
ATOM     53  H   UNL     1       0.572  -7.193   2.573  1.00  0.00     0.167 HD
ATOM     54  C   UNL     1      -0.906  -8.260   4.736  1.00  0.00     0.074 A 
ATOM     55  C   UNL     1      -2.013  -8.554   5.623  1.00  0.00     0.031 C 
ATOM     56  C   UNL     1       0.346  -8.757   4.885  1.00  0.00     0.037 A 
BRANCH  43  57
ATOM     57  C   UNL     1       4.329  -6.840   0.563  1.00  0.00     0.057 A 
ATOM     58  C   UNL     1       5.191  -5.737   0.616  1.00  0.00     0.134 A 
ATOM     59  C   UNL     1       4.835  -8.024   0.008  1.00  0.00     0.134 A 
ATOM     60  F   UNL     1       4.769  -4.567   1.121  1.00  0.00    -0.206 F 
ATOM     61  C   UNL     1       6.492  -5.801   0.112  1.00  0.00     0.040 A 
ATOM     62  C   UNL     1       6.144  -8.109  -0.471  1.00  0.00     0.040 A 
ATOM     63  F   UNL     1       4.069  -9.123  -0.068  1.00  0.00    -0.206 F 
ATOM     64  C   UNL     1       6.974  -6.992  -0.427  1.00  0.00     0.006 A 
ENDBRANCH  43  57
BRANCH  44  65
ATOM     65  C   UNL     1      -5.096  -6.353   3.789  1.00  0.00     0.057 A 
ATOM     66  C   UNL     1      -5.420  -5.743   5.006  1.00  0.00     0.134 A 
ATOM     67  C   UNL     1      -6.147  -6.912   3.051  1.00  0.00     0.134 A 
ATOM     68  F   UNL     1      -4.457  -5.215   5.776  1.00  0.00    -0.206 F 
ATOM     69  C   UNL     1      -6.733  -5.706   5.479  1.00  0.00     0.040 A 
ATOM     70  C   UNL     1      -7.468  -6.851   3.494  1.00  0.00     0.040 A 
ATOM     71  F   UNL     1      -5.906  -7.513   1.876  1.00  0.00    -0.206 F 
ATOM     72  C   UNL     1      -7.763  -6.253   4.717  1.00  0.00     0.006 A 
ENDBRANCH  44  65
BRANCH  56  73
ATOM     73  C   UNL     1       0.589  -9.633   6.081  1.00  0.00     0.057 A 
ATOM     74  C   UNL     1       0.034 -10.915   6.193  1.00  0.00     0.134 A 
ATOM     75  C   UNL     1       1.382  -9.180   7.144  1.00  0.00     0.134 A 
ATOM     76  F   UNL     1      -0.747 -11.405   5.218  1.00  0.00    -0.206 F 
ATOM     77  C   UNL     1       0.221 -11.694   7.336  1.00  0.00     0.040 A 
ATOM     78  C   UNL     1       1.603  -9.963   8.277  1.00  0.00     0.040 A 
ATOM     79  F   UNL     1       1.955  -7.967   7.099  1.00  0.00    -0.206 F 
ATOM     80  C   UNL     1       1.010 -11.219   8.381  1.00  0.00     0.006 A 
ENDBRANCH  56  73
ENDBRANCH  30  31
ENDBRANCH  23  25
ENDBRANCH  22  23
ENDBRANCH  21  22
ENDBRANCH   1  21
TORSDOF 15
