REMARK SMILES CCOC(=O)c1cc(CC)sc1NC(=O)[C@H]1[C@@H]2CC[C@@H](C2)[C@@H]1C(=O)OCCOC(=O)c1ccc(-c2c3nc(c(-c4c(F)cccc4F)c4ccc([nH]4)c(-c4c(F)cccc4F)c4nc(c(-c5c(F)cccc5F)c5ccc2[nH]5)C=C4)C=C3)cc1
REMARK SMILES IDX 25 1 23 2 24 3 22 4 16 5 17 6 18 7 21 8 20 9 19 10 14 11
REMARK SMILES IDX 13 12 15 14 12 15 6 16 7 17 8 18 11 19 4 20 5 21 3 22 2 23
REMARK SMILES IDX 1 24 9 25 10 26 26 27 27 28 28 29 29 30 30 31 31 32 32 33
REMARK SMILES IDX 84 34 33 35 83 36 34 37 35 38 36 39 77 40 37 41 82 42 76 43
REMARK SMILES IDX 78 44 38 45 81 46 75 47 74 48 39 50 65 51 48 52 64 53 49 54
REMARK SMILES IDX 52 55 63 56 79 57 50 58 51 59 62 61 80 62 53 63 40 64 41 65
REMARK SMILES IDX 46 66 42 67 43 68 45 69 47 70 44 71 66 72 67 73 72 74 68 75
REMARK SMILES IDX 69 76 71 77 73 78 70 79 54 80 55 81 60 82 56 83 57 84 59 85
REMARK SMILES IDX 61 86 58 87
REMARK H PARENT 13 13 78 49 52 60
REMARK Flexibility Score: inf
ROOT
ATOM      1  O   UNL     1       2.977   5.323   5.145  1.00  0.00    -0.462 OA
ENDROOT
BRANCH   1   2
ATOM      2  C   UNL     1       4.255   5.247   5.620  1.00  0.00     0.310 C 
ATOM      3  O   UNL     1       4.549   5.514   6.779  1.00  0.00    -0.252 OA
BRANCH   2   4
ATOM      4  C   UNL     1       5.248   4.820   4.541  1.00  0.00     0.115 C 
ATOM      5  C   UNL     1       5.723   3.321   4.463  1.00  0.00     0.096 C 
ATOM      6  C   UNL     1       7.295   3.530   4.376  1.00  0.00     0.003 C 
ATOM      7  C   UNL     1       7.925   3.920   5.728  1.00  0.00     0.005 C 
ATOM      8  C   UNL     1       7.452   4.892   3.672  1.00  0.00     0.009 C 
ATOM      9  C   UNL     1       6.582   5.622   4.691  1.00  0.00     0.004 C 
ATOM     10  C   UNL     1       7.362   5.316   5.990  1.00  0.00     0.005 C 
BRANCH   5  11
ATOM     11  C   UNL     1       5.226   2.578   3.204  1.00  0.00     0.229 C 
ATOM     12  N   UNL     1       4.345   1.543   3.070  1.00  0.00    -0.317 N 
ATOM     13  H   UNL     1       4.226   1.356   2.111  1.00  0.00     0.170 HD
ATOM     14  O   UNL     1       5.645   2.993   2.107  1.00  0.00    -0.274 OA
BRANCH  12  15
ATOM     15  C   UNL     1       3.552   0.654   3.796  1.00  0.00     0.110 A 
ATOM     16  C   UNL     1       2.512  -0.109   3.271  1.00  0.00     0.095 A 
ATOM     17  C   UNL     1       1.753  -0.778   4.289  1.00  0.00     0.033 A 
ATOM     18  C   UNL     1       2.256  -0.601   5.553  1.00  0.00     0.007 A 
ATOM     19  S   UNL     1       3.755   0.218   5.417  1.00  0.00    -0.122 S 
BRANCH  16  20
ATOM     20  C   UNL     1       2.166  -0.192   1.863  1.00  0.00     0.341 C 
ATOM     21  O   UNL     1       2.974  -0.067   0.970  1.00  0.00    -0.246 OA
BRANCH  20  22
ATOM     22  O   UNL     1       0.840  -0.486   1.721  1.00  0.00    -0.462 OA
BRANCH  22  23
ATOM     23  C   UNL     1       0.378  -0.902   0.436  1.00  0.00     0.230 C 
ATOM     24  C   UNL     1       0.490   0.185  -0.612  1.00  0.00     0.049 C 
ENDBRANCH  22  23
ENDBRANCH  20  22
ENDBRANCH  16  20
BRANCH  18  25
ATOM     25  C   UNL     1       1.502  -0.990   6.809  1.00  0.00     0.043 C 
ATOM     26  C   UNL     1       2.164  -1.854   7.864  1.00  0.00     0.010 C 
ENDBRANCH  18  25
ENDBRANCH  12  15
ENDBRANCH   5  11
ENDBRANCH   2   4
ENDBRANCH   1   2
BRANCH   1  27
ATOM     27  C   UNL     1       1.963   5.673   6.121  1.00  0.00     0.274 C 
BRANCH  27  28
ATOM     28  C   UNL     1       1.304   4.457   6.810  1.00  0.00     0.275 C 
BRANCH  28  29
ATOM     29  O   UNL     1       2.144   3.806   7.805  1.00  0.00    -0.458 OA
BRANCH  29  30
ATOM     30  C   UNL     1       3.038   2.987   7.214  1.00  0.00     0.338 C 
ATOM     31  O   UNL     1       3.098   2.853   5.998  1.00  0.00    -0.246 OA
BRANCH  30  32
ATOM     32  C   UNL     1       4.021   2.260   8.061  1.00  0.00     0.060 A 
ATOM     33  C   UNL     1       5.347   2.389   7.655  1.00  0.00     0.016 A 
ATOM     34  C   UNL     1       3.662   1.096   8.730  1.00  0.00     0.016 A 
ATOM     35  C   UNL     1       6.201   1.280   7.594  1.00  0.00     0.010 A 
ATOM     36  C   UNL     1       4.590   0.029   8.826  1.00  0.00     0.010 A 
ATOM     37  C   UNL     1       5.823   0.063   8.157  1.00  0.00    -0.014 A 
BRANCH  37  38
ATOM     38  C   UNL     1       6.845  -0.998   8.349  1.00  0.00     0.031 A 
ATOM     39  C   UNL     1       6.931  -2.305   7.593  1.00  0.00     0.074 A 
ATOM     40  C   UNL     1       7.709  -0.728   9.342  1.00  0.00     0.049 A 
ATOM     41  N   UNL     1       7.673  -3.358   7.856  1.00  0.00    -0.248 NA
ATOM     42  C   UNL     1       6.107  -2.467   6.392  1.00  0.00     0.031 C 
ATOM     43  C   UNL     1       7.739   0.531  10.097  1.00  0.00     0.029 A 
ATOM     44  N   UNL     1       8.677  -1.493   9.923  1.00  0.00    -0.354 N 
ATOM     45  C   UNL     1       7.382  -4.307   6.874  1.00  0.00     0.074 A 
ATOM     46  C   UNL     1       6.395  -3.707   6.005  1.00  0.00     0.031 C 
ATOM     47  C   UNL     1       8.629   0.428  11.085  1.00  0.00     0.029 A 
ATOM     48  C   UNL     1       9.180  -0.915  11.060  1.00  0.00     0.049 A 
ATOM     49  H   UNL     1       8.980  -2.359   9.568  1.00  0.00     0.167 HD
ATOM     50  C   UNL     1       7.894  -5.558   6.724  1.00  0.00     0.037 A 
ATOM     51  C   UNL     1       9.947  -1.428  12.031  1.00  0.00     0.037 A 
ATOM     52  C   UNL     1       8.895  -6.122   7.601  1.00  0.00     0.049 A 
ATOM     53  C   UNL     1      10.444  -2.823  11.881  1.00  0.00     0.074 A 
ATOM     54  C   UNL     1       9.529  -7.352   7.519  1.00  0.00     0.029 A 
ATOM     55  N   UNL     1       9.399  -5.493   8.731  1.00  0.00    -0.354 N 
ATOM     56  N   UNL     1      10.180  -3.695  10.939  1.00  0.00    -0.248 NA
ATOM     57  C   UNL     1      11.368  -3.295  12.913  1.00  0.00     0.031 C 
ATOM     58  C   UNL     1      10.361  -7.492   8.635  1.00  0.00     0.029 A 
ATOM     59  C   UNL     1      10.301  -6.324   9.377  1.00  0.00     0.049 A 
ATOM     60  H   UNL     1       9.152  -4.588   9.030  1.00  0.00     0.167 HD
ATOM     61  C   UNL     1      10.934  -4.815  11.245  1.00  0.00     0.074 A 
ATOM     62  C   UNL     1      11.674  -4.499  12.453  1.00  0.00     0.031 C 
ATOM     63  C   UNL     1      11.015  -5.994  10.584  1.00  0.00     0.037 A 
BRANCH  50  64
ATOM     64  C   UNL     1       7.382  -6.439   5.607  1.00  0.00     0.057 A 
ATOM     65  C   UNL     1       7.697  -6.211   4.261  1.00  0.00     0.134 A 
ATOM     66  C   UNL     1       6.659  -7.608   5.898  1.00  0.00     0.134 A 
ATOM     67  F   UNL     1       8.395  -5.124   3.901  1.00  0.00    -0.206 F 
ATOM     68  C   UNL     1       7.301  -7.097   3.251  1.00  0.00     0.040 A 
ATOM     69  C   UNL     1       6.280  -8.514   4.902  1.00  0.00     0.040 A 
ATOM     70  F   UNL     1       6.338  -7.912   7.165  1.00  0.00    -0.206 F 
ATOM     71  C   UNL     1       6.598  -8.258   3.571  1.00  0.00     0.006 A 
ENDBRANCH  50  64
BRANCH  51  72
ATOM     72  C   UNL     1      10.268  -0.582  13.199  1.00  0.00     0.057 A 
ATOM     73  C   UNL     1      11.544  -0.038  13.351  1.00  0.00     0.134 A 
ATOM     74  C   UNL     1       9.283  -0.212  14.125  1.00  0.00     0.134 A 
ATOM     75  F   UNL     1      12.517  -0.348  12.482  1.00  0.00    -0.206 F 
ATOM     76  C   UNL     1      11.840   0.831  14.399  1.00  0.00     0.040 A 
ATOM     77  C   UNL     1       9.557   0.680  15.159  1.00  0.00     0.040 A 
ATOM     78  F   UNL     1       8.027  -0.668  14.000  1.00  0.00    -0.206 F 
ATOM     79  C   UNL     1      10.843   1.198  15.302  1.00  0.00     0.006 A 
ENDBRANCH  51  72
BRANCH  63  80
ATOM     80  C   UNL     1      11.961  -7.008  11.151  1.00  0.00     0.057 A 
ATOM     81  C   UNL     1      11.698  -7.669  12.357  1.00  0.00     0.134 A 
ATOM     82  C   UNL     1      13.155  -7.315  10.488  1.00  0.00     0.134 A 
ATOM     83  F   UNL     1      10.581  -7.400  13.051  1.00  0.00    -0.206 F 
ATOM     84  C   UNL     1      12.608  -8.573  12.904  1.00  0.00     0.040 A 
ATOM     85  C   UNL     1      14.057  -8.242  11.007  1.00  0.00     0.040 A 
ATOM     86  F   UNL     1      13.463  -6.719   9.326  1.00  0.00    -0.206 F 
ATOM     87  C   UNL     1      13.790  -8.866  12.224  1.00  0.00     0.006 A 
ENDBRANCH  63  80
ENDBRANCH  37  38
ENDBRANCH  30  32
ENDBRANCH  29  30
ENDBRANCH  28  29
ENDBRANCH  27  28
ENDBRANCH   1  27
TORSDOF 17
