REMARK SMILES COCCCNC(=O)/C(C#N)=C/c1ccc(C(=O)OCCOC(=O)c2ccc(-c3c4nc(c(-c5c(F)cccc5F)c5ccc([nH]5)c(-c5c(F)cccc5F)c5nc(c(-c6c(F)cccc6F)c6ccc3[nH]6)C=C5)C=C4)cc2)cc1
REMARK SMILES IDX 17 1 18 2 16 3 13 4 14 5 80 6 15 7 79 8 12 9 9 10 7 11 6 12
REMARK SMILES IDX 8 14 5 15 4 16 3 17 2 18 1 19 10 20 11 21 19 22 20 23 21 24
REMARK SMILES IDX 22 25 23 26 24 27 25 28 26 29 78 30 27 31 77 32 28 33 29 34
REMARK SMILES IDX 30 35 71 36 31 37 76 38 70 39 72 40 32 41 75 42 69 43 68 44
REMARK SMILES IDX 33 46 59 47 42 48 58 49 43 50 46 51 57 52 73 53 44 54 45 55
REMARK SMILES IDX 56 57 74 58 47 59 34 60 35 61 40 62 36 63 37 64 39 65 41 66
REMARK SMILES IDX 38 67 60 68 61 69 66 70 62 71 63 72 65 73 67 74 64 75 48 76
REMARK SMILES IDX 49 77 54 78 50 79 51 80 53 81 55 82 52 83
REMARK H PARENT 6 13 72 45 46 56
REMARK Flexibility Score: inf
ROOT
ATOM      1  C   UNL     1      -0.115   3.031  10.172  1.00  0.00     0.338 C 
ATOM      2  O   UNL     1      -0.272   4.221  10.396  1.00  0.00    -0.246 OA
ENDROOT
BRANCH   1   3
ATOM      3  C   UNL     1       0.807   2.526   9.125  1.00  0.00     0.060 A 
ATOM      4  C   UNL     1       2.460   1.776   6.999  1.00  0.00    -0.024 A 
ATOM      5  C   UNL     1       2.715   2.965   7.678  1.00  0.00     0.009 A 
ATOM      6  C   UNL     1       1.446   0.914   7.447  1.00  0.00     0.009 A 
ATOM      7  C   UNL     1       1.861   3.352   8.704  1.00  0.00     0.016 A 
ATOM      8  C   UNL     1       0.618   1.289   8.508  1.00  0.00     0.016 A 
BRANCH   4   9
ATOM      9  C   UNL     1       3.042   1.631   5.659  1.00  0.00     0.033 C 
ATOM     10  C   UNL     1       2.278   1.850   4.564  1.00  0.00     0.117 C 
BRANCH  10  11
ATOM     11  C   UNL     1       2.961   1.833   3.235  1.00  0.00     0.261 C 
ATOM     12  N   UNL     1       2.288   1.933   2.052  1.00  0.00    -0.351 N 
ATOM     13  H   UNL     1       2.873   2.004   1.264  1.00  0.00     0.163 HD
ATOM     14  O   UNL     1       4.188   1.726   3.164  1.00  0.00    -0.268 OA
BRANCH  12  15
ATOM     15  C   UNL     1       0.867   1.956   1.739  1.00  0.00     0.118 C 
BRANCH  15  16
ATOM     16  C   UNL     1       0.514   2.698   0.459  1.00  0.00     0.050 C 
BRANCH  16  17
ATOM     17  C   UNL     1       1.111   2.159  -0.832  1.00  0.00     0.161 C 
BRANCH  17  18
ATOM     18  O   UNL     1       0.497   0.958  -1.282  1.00  0.00    -0.385 OA
ATOM     19  C   UNL     1       0.989  -0.227  -0.678  1.00  0.00     0.194 C 
ENDBRANCH  17  18
ENDBRANCH  16  17
ENDBRANCH  15  16
ENDBRANCH  12  15
ENDBRANCH  10  11
BRANCH  10  20
ATOM     20  C   UNL     1       0.889   2.133   4.713  1.00  0.00     0.105 C 
ATOM     21  N   UNL     1      -0.243   2.333   4.876  1.00  0.00    -0.192 NA
ENDBRANCH  10  20
ENDBRANCH   4   9
ENDBRANCH   1   3
BRANCH   1  22
ATOM     22  O   UNL     1      -0.657   2.006  10.872  1.00  0.00    -0.458 OA
BRANCH  22  23
ATOM     23  C   UNL     1      -1.413   2.374  12.042  1.00  0.00     0.275 C 
BRANCH  23  24
ATOM     24  C   UNL     1      -0.575   2.209  13.312  1.00  0.00     0.275 C 
BRANCH  24  25
ATOM     25  O   UNL     1       0.450   3.220  13.406  1.00  0.00    -0.458 OA
BRANCH  25  26
ATOM     26  C   UNL     1       1.669   2.818  12.986  1.00  0.00     0.338 C 
ATOM     27  O   UNL     1       1.979   1.716  12.562  1.00  0.00    -0.246 OA
BRANCH  26  28
ATOM     28  C   UNL     1       2.635   3.925  12.984  1.00  0.00     0.060 A 
ATOM     29  C   UNL     1       2.765   4.636  11.802  1.00  0.00     0.016 A 
ATOM     30  C   UNL     1       3.603   4.045  13.974  1.00  0.00     0.016 A 
ATOM     31  C   UNL     1       3.953   5.291  11.505  1.00  0.00     0.010 A 
ATOM     32  C   UNL     1       4.725   4.855  13.740  1.00  0.00     0.010 A 
ATOM     33  C   UNL     1       4.956   5.425  12.472  1.00  0.00    -0.014 A 
BRANCH  33  34
ATOM     34  C   UNL     1       6.244   6.108  12.132  1.00  0.00     0.031 A 
ATOM     35  C   UNL     1       7.569   5.425  12.392  1.00  0.00     0.074 A 
ATOM     36  C   UNL     1       6.240   7.331  11.559  1.00  0.00     0.049 A 
ATOM     37  N   UNL     1       8.784   5.910  12.306  1.00  0.00    -0.248 NA
ATOM     38  C   UNL     1       7.523   4.020  12.826  1.00  0.00     0.031 C 
ATOM     39  C   UNL     1       5.047   8.101  11.201  1.00  0.00     0.029 A 
ATOM     40  N   UNL     1       7.278   8.142  11.165  1.00  0.00    -0.354 N 
ATOM     41  C   UNL     1       9.634   4.897  12.741  1.00  0.00     0.074 A 
ATOM     42  C   UNL     1       8.795   3.777  13.107  1.00  0.00     0.031 C 
ATOM     43  C   UNL     1       5.414   9.235  10.590  1.00  0.00     0.029 A 
ATOM     44  C   UNL     1       6.866   9.335  10.618  1.00  0.00     0.049 A 
ATOM     45  H   UNL     1       8.225   7.893  11.264  1.00  0.00     0.167 HD
ATOM     46  C   UNL     1      10.988   4.897  12.824  1.00  0.00     0.037 A 
ATOM     47  C   UNL     1       7.566  10.416  10.226  1.00  0.00     0.037 A 
ATOM     48  C   UNL     1      11.824   5.996  12.407  1.00  0.00     0.049 A 
ATOM     49  C   UNL     1       9.059  10.413  10.381  1.00  0.00     0.074 A 
ATOM     50  C   UNL     1      13.206   6.080  12.420  1.00  0.00     0.029 A 
ATOM     51  N   UNL     1      11.357   7.199  11.899  1.00  0.00    -0.354 N 
ATOM     52  N   UNL     1       9.844   9.460  10.819  1.00  0.00    -0.248 NA
ATOM     53  C   UNL     1       9.761  11.644   9.996  1.00  0.00     0.031 C 
ATOM     54  C   UNL     1      13.571   7.358  11.985  1.00  0.00     0.029 A 
ATOM     55  C   UNL     1      12.422   8.043  11.624  1.00  0.00     0.049 A 
ATOM     56  H   UNL     1      10.409   7.421  11.754  1.00  0.00     0.167 HD
ATOM     57  C   UNL     1      11.136   9.961  10.727  1.00  0.00     0.074 A 
ATOM     58  C   UNL     1      11.027  11.296  10.177  1.00  0.00     0.031 C 
ATOM     59  C   UNL     1      12.306   9.367  11.066  1.00  0.00     0.037 A 
BRANCH  46  60
ATOM     60  C   UNL     1      11.653   3.691  13.434  1.00  0.00     0.057 A 
ATOM     61  C   UNL     1      11.669   2.438  12.808  1.00  0.00     0.134 A 
ATOM     62  C   UNL     1      12.316   3.800  14.665  1.00  0.00     0.134 A 
ATOM     63  F   UNL     1      11.050   2.256  11.632  1.00  0.00    -0.206 F 
ATOM     64  C   UNL     1      12.284   1.331  13.401  1.00  0.00     0.040 A 
ATOM     65  C   UNL     1      12.965   2.711  15.250  1.00  0.00     0.040 A 
ATOM     66  F   UNL     1      12.355   4.971  15.318  1.00  0.00    -0.206 F 
ATOM     67  C   UNL     1      12.940   1.468  14.622  1.00  0.00     0.006 A 
ENDBRANCH  46  60
BRANCH  47  68
ATOM     68  C   UNL     1       6.861  11.608   9.682  1.00  0.00     0.057 A 
ATOM     69  C   UNL     1       7.040  12.008   8.352  1.00  0.00     0.134 A 
ATOM     70  C   UNL     1       6.006  12.384  10.476  1.00  0.00     0.134 A 
ATOM     71  F   UNL     1       7.862  11.320   7.545  1.00  0.00    -0.206 F 
ATOM     72  C   UNL     1       6.413  13.145   7.839  1.00  0.00     0.040 A 
ATOM     73  C   UNL     1       5.344  13.501   9.965  1.00  0.00     0.040 A 
ATOM     74  F   UNL     1       5.785  12.054  11.757  1.00  0.00    -0.206 F 
ATOM     75  C   UNL     1       5.556  13.891   8.645  1.00  0.00     0.006 A 
ENDBRANCH  47  68
BRANCH  59  76
ATOM     76  C   UNL     1      13.568  10.133  10.785  1.00  0.00     0.057 A 
ATOM     77  C   UNL     1      13.912  11.297  11.485  1.00  0.00     0.134 A 
ATOM     78  C   UNL     1      14.456   9.690   9.795  1.00  0.00     0.134 A 
ATOM     79  F   UNL     1      13.101  11.784  12.436  1.00  0.00    -0.206 F 
ATOM     80  C   UNL     1      15.071  12.015  11.182  1.00  0.00     0.040 A 
ATOM     81  C   UNL     1      15.636  10.378   9.510  1.00  0.00     0.040 A 
ATOM     82  F   UNL     1      14.195   8.578   9.092  1.00  0.00    -0.206 F 
ATOM     83  C   UNL     1      15.940  11.551  10.195  1.00  0.00     0.006 A 
ENDBRANCH  59  76
ENDBRANCH  33  34
ENDBRANCH  26  28
ENDBRANCH  25  26
ENDBRANCH  24  25
ENDBRANCH  23  24
ENDBRANCH  22  23
ENDBRANCH   1  22
TORSDOF 18
