REMARK SMILES CC[C@@H](C)[C@H](NC(=O)C1CCN(C(=O)OC(C)(C)C)CC1)C(=O)OCCOC(=O)c1ccc(-c2c3nc(c(-c4c(F)cccc4F)c4ccc([nH]4)c(-c4c(F)cccc4F)c4nc(c(-c5c(F)cccc5F)c5ccc2[nH]5)C=C4)C=C3)cc1
REMARK SMILES IDX 25 1 24 2 22 3 23 4 5 5 3 6 4 7 2 8 1 9 6 10 7 11 8 13 9 14
REMARK SMILES IDX 10 15 21 16 11 17 20 18 12 19 13 20 14 21 15 22 16 23 17 24
REMARK SMILES IDX 18 25 19 26 26 27 27 28 28 29 29 30 30 31 31 32 83 33 32 34
REMARK SMILES IDX 82 35 33 36 34 37 35 38 76 39 36 40 81 41 75 42 77 43 37 44
REMARK SMILES IDX 80 45 74 46 73 47 38 49 64 50 47 51 63 52 48 53 51 54 62 55
REMARK SMILES IDX 78 56 49 57 50 58 61 60 79 61 52 62 39 63 40 64 45 65 41 66
REMARK SMILES IDX 42 67 44 68 46 69 43 70 65 71 66 72 71 73 67 74 68 75 70 76
REMARK SMILES IDX 72 77 69 78 53 79 54 80 59 81 55 82 56 83 58 84 60 85 57 86
REMARK H PARENT 6 12 77 48 51 59
REMARK Flexibility Score: inf
ROOT
ATOM      1  C   UNL     1       2.644   5.887  -2.039  1.00  0.00     0.274 C 
ENDROOT
BRANCH   1   2
ATOM      2  O   UNL     1       2.260   4.733  -1.266  1.00  0.00    -0.461 OA
BRANCH   2   3
ATOM      3  C   UNL     1       1.210   4.903  -0.415  1.00  0.00     0.329 C 
ATOM      4  O   UNL     1       0.647   5.973  -0.209  1.00  0.00    -0.250 OA
BRANCH   3   5
ATOM      5  C   UNL     1       0.830   3.602   0.329  1.00  0.00     0.195 C 
BRANCH   5   6
ATOM      6  C   UNL     1       1.204   3.801   1.825  1.00  0.00     0.019 C 
ATOM      7  C   UNL     1       2.658   3.416   2.121  1.00  0.00     0.010 C 
BRANCH   6   8
ATOM      8  C   UNL     1       0.209   3.083   2.755  1.00  0.00     0.002 C 
ATOM      9  C   UNL     1       0.366   3.485   4.217  1.00  0.00     0.004 C 
ENDBRANCH   6   8
ENDBRANCH   5   6
BRANCH   5  10
ATOM     10  N   UNL     1       1.444   2.424  -0.286  1.00  0.00    -0.342 N 
ATOM     11  C   UNL     1       0.949   1.202  -0.618  1.00  0.00     0.223 C 
ATOM     12  H   UNL     1       2.398   2.538  -0.501  1.00  0.00     0.164 HD
ATOM     13  O   UNL     1       1.713   0.424  -1.190  1.00  0.00    -0.275 OA
BRANCH  11  14
ATOM     14  C   UNL     1      -0.491   0.816  -0.276  1.00  0.00     0.082 C 
ATOM     15  C   UNL     1      -0.626  -0.701  -0.066  1.00  0.00     0.035 C 
ATOM     16  C   UNL     1      -1.497   1.298  -1.328  1.00  0.00     0.035 C 
ATOM     17  C   UNL     1      -0.636  -1.491  -1.374  1.00  0.00     0.124 C 
ATOM     18  C   UNL     1      -1.528   0.452  -2.603  1.00  0.00     0.124 C 
ATOM     19  N   UNL     1      -1.630  -0.970  -2.298  1.00  0.00    -0.308 N 
ATOM     20  C   UNL     1      -2.458  -1.861  -2.963  1.00  0.00     0.410 C 
ATOM     21  O   UNL     1      -2.443  -3.070  -2.761  1.00  0.00    -0.224 OA
BRANCH  20  22
ATOM     22  O   UNL     1      -3.288  -1.257  -3.854  1.00  0.00    -0.444 OA
BRANCH  22  23
ATOM     23  C   UNL     1      -4.237  -2.049  -4.619  1.00  0.00     0.106 C 
ATOM     24  C   UNL     1      -3.532  -3.020  -5.571  1.00  0.00     0.056 C 
ATOM     25  C   UNL     1      -5.247  -2.761  -3.708  1.00  0.00     0.056 C 
ATOM     26  C   UNL     1      -5.005  -1.028  -5.464  1.00  0.00     0.056 C 
ENDBRANCH  22  23
ENDBRANCH  20  22
ENDBRANCH  11  14
ENDBRANCH   5  10
ENDBRANCH   3   5
ENDBRANCH   2   3
ENDBRANCH   1   2
BRANCH   1  27
ATOM     27  C   UNL     1       2.083   5.816  -3.462  1.00  0.00     0.275 C 
BRANCH  27  28
ATOM     28  O   UNL     1       0.647   5.941  -3.474  1.00  0.00    -0.458 OA
BRANCH  28  29
ATOM     29  C   UNL     1      -0.023   4.771  -3.404  1.00  0.00     0.338 C 
ATOM     30  O   UNL     1       0.443   3.645  -3.347  1.00  0.00    -0.246 OA
BRANCH  29  31
ATOM     31  C   UNL     1      -1.462   5.018  -3.269  1.00  0.00     0.060 A 
ATOM     32  C   UNL     1      -2.043   4.827  -2.016  1.00  0.00     0.016 A 
ATOM     33  C   UNL     1      -2.255   5.254  -4.389  1.00  0.00     0.016 A 
ATOM     34  C   UNL     1      -3.423   4.780  -1.884  1.00  0.00     0.010 A 
ATOM     35  C   UNL     1      -3.646   5.283  -4.242  1.00  0.00     0.010 A 
ATOM     36  C   UNL     1      -4.240   5.012  -2.995  1.00  0.00    -0.014 A 
BRANCH  36  37
ATOM     37  C   UNL     1      -5.714   4.951  -2.843  1.00  0.00     0.031 A 
ATOM     38  C   UNL     1      -6.512   3.898  -3.560  1.00  0.00     0.074 A 
ATOM     39  C   UNL     1      -6.337   5.843  -2.050  1.00  0.00     0.049 A 
ATOM     40  N   UNL     1      -7.811   3.744  -3.614  1.00  0.00    -0.248 NA
ATOM     41  C   UNL     1      -5.755   2.900  -4.332  1.00  0.00     0.031 C 
ATOM     42  C   UNL     1      -5.676   6.901  -1.282  1.00  0.00     0.029 A 
ATOM     43  N   UNL     1      -7.668   6.008  -1.766  1.00  0.00    -0.354 N 
ATOM     44  C   UNL     1      -8.026   2.644  -4.432  1.00  0.00     0.074 A 
ATOM     45  C   UNL     1      -6.732   2.210  -4.903  1.00  0.00     0.031 C 
ATOM     46  C   UNL     1      -6.604   7.601  -0.612  1.00  0.00     0.029 A 
ATOM     47  C   UNL     1      -7.925   7.082  -0.951  1.00  0.00     0.049 A 
ATOM     48  H   UNL     1      -8.372   5.413  -2.113  1.00  0.00     0.167 HD
ATOM     49  C   UNL     1      -9.191   2.034  -4.749  1.00  0.00     0.037 A 
ATOM     50  C   UNL     1      -9.094   7.616  -0.553  1.00  0.00     0.037 A 
ATOM     51  C   UNL     1     -10.483   2.471  -4.298  1.00  0.00     0.049 A 
ATOM     52  C   UNL     1     -10.380   6.992  -1.012  1.00  0.00     0.074 A 
ATOM     53  C   UNL     1     -11.722   1.913  -4.559  1.00  0.00     0.029 A 
ATOM     54  N   UNL     1     -10.700   3.583  -3.503  1.00  0.00    -0.354 N 
ATOM     55  N   UNL     1     -10.563   5.925  -1.751  1.00  0.00    -0.248 NA
ATOM     56  C   UNL     1     -11.622   7.655  -0.592  1.00  0.00     0.031 C 
ATOM     57  C   UNL     1     -12.695   2.718  -3.959  1.00  0.00     0.029 A 
ATOM     58  C   UNL     1     -12.057   3.752  -3.292  1.00  0.00     0.049 A 
ATOM     59  H   UNL     1      -9.994   4.168  -3.142  1.00  0.00     0.167 HD
ATOM     60  C   UNL     1     -11.939   5.774  -1.863  1.00  0.00     0.074 A 
ATOM     61  C   UNL     1     -12.542   6.853  -1.109  1.00  0.00     0.031 C 
ATOM     62  C   UNL     1     -12.639   4.825  -2.531  1.00  0.00     0.037 A 
BRANCH  49  63
ATOM     63  C   UNL     1      -9.127   0.826  -5.632  1.00  0.00     0.057 A 
ATOM     64  C   UNL     1      -8.772  -0.431  -5.129  1.00  0.00     0.134 A 
ATOM     65  C   UNL     1      -9.479   0.909  -6.984  1.00  0.00     0.134 A 
ATOM     66  F   UNL     1      -8.405  -0.572  -3.846  1.00  0.00    -0.206 F 
ATOM     67  C   UNL     1      -8.767  -1.566  -5.942  1.00  0.00     0.040 A 
ATOM     68  C   UNL     1      -9.486  -0.219  -7.805  1.00  0.00     0.040 A 
ATOM     69  F   UNL     1      -9.829   2.086  -7.524  1.00  0.00    -0.206 F 
ATOM     70  C   UNL     1      -9.129  -1.462  -7.284  1.00  0.00     0.006 A 
ENDBRANCH  49  63
BRANCH  50  71
ATOM     71  C   UNL     1      -9.097   8.829   0.300  1.00  0.00     0.057 A 
ATOM     72  C   UNL     1      -9.514   8.774   1.634  1.00  0.00     0.134 A 
ATOM     73  C   UNL     1      -8.685  10.071  -0.199  1.00  0.00     0.134 A 
ATOM     74  F   UNL     1      -9.938   7.617   2.161  1.00  0.00    -0.206 F 
ATOM     75  C   UNL     1      -9.532   9.914   2.439  1.00  0.00     0.040 A 
ATOM     76  C   UNL     1      -8.674  11.213   0.602  1.00  0.00     0.040 A 
ATOM     77  F   UNL     1      -8.270  10.187  -1.469  1.00  0.00    -0.206 F 
ATOM     78  C   UNL     1      -9.105  11.137   1.924  1.00  0.00     0.006 A 
ENDBRANCH  50  71
BRANCH  62  79
ATOM     79  C   UNL     1     -14.133   4.892  -2.449  1.00  0.00     0.057 A 
ATOM     80  C   UNL     1     -14.867   5.851  -3.157  1.00  0.00     0.134 A 
ATOM     81  C   UNL     1     -14.847   3.956  -1.690  1.00  0.00     0.134 A 
ATOM     82  F   UNL     1     -14.239   6.782  -3.892  1.00  0.00    -0.206 F 
ATOM     83  C   UNL     1     -16.260   5.889  -3.098  1.00  0.00     0.040 A 
ATOM     84  C   UNL     1     -16.241   3.969  -1.643  1.00  0.00     0.040 A 
ATOM     85  F   UNL     1     -14.201   3.006  -0.997  1.00  0.00    -0.206 F 
ATOM     86  C   UNL     1     -16.951   4.941  -2.345  1.00  0.00     0.006 A 
ENDBRANCH  62  79
ENDBRANCH  36  37
ENDBRANCH  29  31
ENDBRANCH  28  29
ENDBRANCH  27  28
ENDBRANCH   1  27
TORSDOF 17
