REMARK SMILES O=C(OCCOC(=O)[C@H]1C=C[C@@H](NS(=O)(=O)c2ccc(Br)cc2)C1)c1ccc(-c2c3nc(c(-c4c(F)cccc4F)c4ccc([nH]4)c(-c4c(F)cccc4F)c4nc(c(-c5c(F)cccc5F)c5ccc2[nH]5)C=C4)C=C3)cc1
REMARK SMILES IDX 5 1 4 2 3 3 2 4 1 5 25 6 26 7 78 8 27 9 77 10 28 11 29 12
REMARK SMILES IDX 30 13 71 14 31 15 76 16 70 17 72 18 32 19 75 20 69 21 68 22
REMARK SMILES IDX 33 24 59 25 42 26 58 27 43 28 46 29 57 30 73 31 44 32 45 33
REMARK SMILES IDX 56 35 74 36 47 37 34 38 35 39 40 40 36 41 37 42 39 43 41 44
REMARK SMILES IDX 38 45 60 46 61 47 66 48 62 49 63 50 65 51 67 52 64 53 48 54
REMARK SMILES IDX 49 55 54 56 50 57 51 58 53 59 55 60 52 61 6 62 7 63 8 64
REMARK SMILES IDX 9 65 10 66 24 67 11 68 12 69 13 70 14 72 15 73 16 74 17 75
REMARK SMILES IDX 18 76 23 77 19 78 22 79 20 80 21 81
REMARK H PARENT 72 23 46 34 13 71
REMARK Flexibility Score: inf
ROOT
ATOM      1  C   UNL     1       3.928  -1.295  -1.853  1.00  0.00     0.274 C 
ENDROOT
BRANCH   1   2
ATOM      2  C   UNL     1       4.282  -1.676  -0.406  1.00  0.00     0.275 C 
BRANCH   2   3
ATOM      3  O   UNL     1       3.384  -1.164   0.578  1.00  0.00    -0.458 OA
BRANCH   3   4
ATOM      4  C   UNL     1       3.316   0.085   1.085  1.00  0.00     0.338 C 
ATOM      5  O   UNL     1       2.437   0.318   1.915  1.00  0.00    -0.246 OA
BRANCH   4   6
ATOM      6  C   UNL     1       4.176   1.232   0.627  1.00  0.00     0.060 A 
ATOM      7  C   UNL     1       5.316   1.202  -0.195  1.00  0.00     0.016 A 
ATOM      8  C   UNL     1       3.720   2.489   1.022  1.00  0.00     0.016 A 
ATOM      9  C   UNL     1       5.873   2.369  -0.747  1.00  0.00     0.010 A 
ATOM     10  C   UNL     1       4.291   3.643   0.495  1.00  0.00     0.010 A 
ATOM     11  C   UNL     1       5.324   3.607  -0.453  1.00  0.00    -0.014 A 
BRANCH  11  12
ATOM     12  C   UNL     1       5.817   4.881  -1.044  1.00  0.00     0.031 A 
ATOM     13  C   UNL     1       6.273   5.955  -0.098  1.00  0.00     0.074 A 
ATOM     14  C   UNL     1       5.742   5.148  -2.368  1.00  0.00     0.049 A 
ATOM     15  N   UNL     1       6.589   7.198  -0.344  1.00  0.00    -0.248 NA
ATOM     16  C   UNL     1       6.305   5.592   1.330  1.00  0.00     0.031 C 
ATOM     17  C   UNL     1       5.268   4.236  -3.411  1.00  0.00     0.029 A 
ATOM     18  N   UNL     1       6.041   6.298  -3.064  1.00  0.00    -0.354 N 
ATOM     19  C   UNL     1       6.840   7.749   0.903  1.00  0.00     0.074 A 
ATOM     20  C   UNL     1       6.445   6.776   1.893  1.00  0.00     0.031 C 
ATOM     21  C   UNL     1       5.288   4.864  -4.601  1.00  0.00     0.029 A 
ATOM     22  C   UNL     1       5.793   6.221  -4.418  1.00  0.00     0.049 A 
ATOM     23  H   UNL     1       6.402   7.106  -2.632  1.00  0.00     0.167 HD
ATOM     24  C   UNL     1       7.461   8.908   1.214  1.00  0.00     0.037 A 
ATOM     25  C   UNL     1       5.978   7.135  -5.394  1.00  0.00     0.037 A 
ATOM     26  C   UNL     1       7.910   9.850   0.237  1.00  0.00     0.049 A 
ATOM     27  C   UNL     1       6.613   8.460  -5.042  1.00  0.00     0.074 A 
ATOM     28  C   UNL     1       8.610  11.024   0.423  1.00  0.00     0.029 A 
ATOM     29  N   UNL     1       7.694   9.713  -1.126  1.00  0.00    -0.354 N 
ATOM     30  N   UNL     1       6.988   8.909  -3.868  1.00  0.00    -0.248 NA
ATOM     31  C   UNL     1       6.890   9.385  -6.151  1.00  0.00     0.031 C 
ATOM     32  C   UNL     1       8.780  11.624  -0.829  1.00  0.00     0.029 A 
ATOM     33  C   UNL     1       8.230  10.795  -1.796  1.00  0.00     0.049 A 
ATOM     34  H   UNL     1       7.228   8.958  -1.552  1.00  0.00     0.167 HD
ATOM     35  C   UNL     1       7.606  10.132  -4.106  1.00  0.00     0.074 A 
ATOM     36  C   UNL     1       7.541  10.362  -5.534  1.00  0.00     0.031 C 
ATOM     37  C   UNL     1       8.191  10.980  -3.224  1.00  0.00     0.037 A 
BRANCH  24  38
ATOM     38  C   UNL     1       7.722   9.139   2.672  1.00  0.00     0.057 A 
ATOM     39  C   UNL     1       8.591   8.306   3.397  1.00  0.00     0.134 A 
ATOM     40  C   UNL     1       7.019  10.116   3.381  1.00  0.00     0.134 A 
ATOM     41  F   UNL     1       9.275   7.331   2.776  1.00  0.00    -0.206 F 
ATOM     42  C   UNL     1       8.689   8.384   4.785  1.00  0.00     0.040 A 
ATOM     43  C   UNL     1       7.141  10.230   4.767  1.00  0.00     0.040 A 
ATOM     44  F   UNL     1       6.178  10.947   2.748  1.00  0.00    -0.206 F 
ATOM     45  C   UNL     1       7.959   9.349   5.474  1.00  0.00     0.006 A 
ENDBRANCH  24  38
BRANCH  25  46
ATOM     46  C   UNL     1       5.644   6.828  -6.814  1.00  0.00     0.057 A 
ATOM     47  C   UNL     1       6.653   6.636  -7.768  1.00  0.00     0.134 A 
ATOM     48  C   UNL     1       4.321   6.789  -7.269  1.00  0.00     0.134 A 
ATOM     49  F   UNL     1       7.943   6.683  -7.402  1.00  0.00    -0.206 F 
ATOM     50  C   UNL     1       6.364   6.455  -9.123  1.00  0.00     0.040 A 
ATOM     51  C   UNL     1       4.015   6.589  -8.620  1.00  0.00     0.040 A 
ATOM     52  F   UNL     1       3.305   6.957  -6.411  1.00  0.00    -0.206 F 
ATOM     53  C   UNL     1       5.039   6.433  -9.553  1.00  0.00     0.006 A 
ENDBRANCH  25  46
BRANCH  37  54
ATOM     54  C   UNL     1       8.879  12.197  -3.766  1.00  0.00     0.057 A 
ATOM     55  C   UNL     1       8.168  13.295  -4.263  1.00  0.00     0.134 A 
ATOM     56  C   UNL     1      10.274  12.309  -3.682  1.00  0.00     0.134 A 
ATOM     57  F   UNL     1       6.833  13.245  -4.378  1.00  0.00    -0.206 F 
ATOM     58  C   UNL     1       8.822  14.463  -4.660  1.00  0.00     0.040 A 
ATOM     59  C   UNL     1      10.935  13.481  -4.047  1.00  0.00     0.040 A 
ATOM     60  F   UNL     1      11.011  11.294  -3.206  1.00  0.00    -0.206 F 
ATOM     61  C   UNL     1      10.207  14.562  -4.538  1.00  0.00     0.006 A 
ENDBRANCH  37  54
ENDBRANCH  11  12
ENDBRANCH   4   6
ENDBRANCH   3   4
ENDBRANCH   2   3
ENDBRANCH   1   2
BRANCH   1  62
ATOM     62  O   UNL     1       3.372   0.034  -2.041  1.00  0.00    -0.462 OA
BRANCH  62  63
ATOM     63  C   UNL     1       2.012   0.079  -2.115  1.00  0.00     0.312 C 
ATOM     64  O   UNL     1       1.308  -0.925  -2.027  1.00  0.00    -0.252 OA
BRANCH  63  65
ATOM     65  C   UNL     1       1.399   1.456  -2.420  1.00  0.00     0.123 C 
ATOM     66  C   UNL     1       0.295   1.700  -1.436  1.00  0.00    -0.015 C 
ATOM     67  C   UNL     1       2.191   2.766  -2.303  1.00  0.00     0.043 C 
ATOM     68  C   UNL     1       0.221   2.975  -1.046  1.00  0.00    -0.011 C 
ATOM     69  C   UNL     1       1.224   3.840  -1.716  1.00  0.00     0.093 C 
BRANCH  69  70
ATOM     70  N   UNL     1       1.928   4.732  -0.793  1.00  0.00    -0.204 NA
ATOM     71  H   UNL     1       2.543   5.297  -1.378  1.00  0.00     0.142 HD
BRANCH  70  72
ATOM     72  S   UNL     1       1.184   5.825   0.264  1.00  0.00     0.241 S 
ATOM     73  O   UNL     1      -0.036   5.288   0.801  1.00  0.00    -0.207 OA
ATOM     74  O   UNL     1       2.243   6.297   1.140  1.00  0.00    -0.207 OA
BRANCH  72  75
ATOM     75  C   UNL     1       0.754   7.187  -0.785  1.00  0.00     0.082 A 
ATOM     76  C   UNL     1      -0.188   6.994  -1.796  1.00  0.00     0.023 A 
ATOM     77  C   UNL     1       1.353   8.437  -0.591  1.00  0.00     0.023 A 
ATOM     78  C   UNL     1      -0.468   8.036  -2.678  1.00  0.00     0.017 A 
ATOM     79  C   UNL     1       1.050   9.485  -1.460  1.00  0.00     0.017 A 
ATOM     80  C   UNL     1       0.160   9.272  -2.514  1.00  0.00     0.018 A 
ATOM     81  Br  UNL     1      -0.196  10.666  -3.738  1.00  0.00    -0.051 Br
ENDBRANCH  72  75
ENDBRANCH  70  72
ENDBRANCH  69  70
ENDBRANCH  63  65
ENDBRANCH  62  63
ENDBRANCH   1  62
TORSDOF 14
