REMARK SMILES Cc1ccc(C)c(-c2cc(C(=O)OCCOC(=O)c3ccc(-c4c5nc(c(-c6c(F)cccc6F)c6ccc([nH]6)c(-c6c(F)cccc6F)c6nc(c(-c7c(F)cccc7F)c7ccc4[nH]7)C=C6)C=C5)cc3)c3cc(C)ccc3n2)c1
REMARK SMILES IDX 15 1 14 2 13 3 11 4 12 5 10 6 8 7 9 8 80 9 79 10 73 11 78 12
REMARK SMILES IDX 74 13 77 14 75 15 76 16 7 17 1 18 2 19 3 20 81 21 4 22 5 23
REMARK SMILES IDX 6 24 16 25 17 26 18 27 19 28 20 29 72 30 21 31 71 32 22 33
REMARK SMILES IDX 23 34 24 35 65 36 25 37 70 38 64 39 66 40 26 41 69 42 63 43
REMARK SMILES IDX 62 44 27 46 53 47 36 48 52 49 37 50 40 51 51 52 67 53 38 54
REMARK SMILES IDX 39 55 50 57 68 58 41 59 28 60 29 61 34 62 30 63 31 64 33 65
REMARK SMILES IDX 35 66 32 67 54 68 55 69 60 70 56 71 57 72 59 73 61 74 58 75
REMARK SMILES IDX 42 76 43 77 48 78 44 79 45 80 47 81 49 82 46 83
REMARK H PARENT 66 45 40 56
REMARK Flexibility Score: inf
ROOT
ATOM      1  C   UNL     1       0.404   8.604  -3.319  1.00  0.00     0.275 C 
ENDROOT
BRANCH   1   2
ATOM      2  C   UNL     1      -0.829   8.599  -4.221  1.00  0.00     0.275 C 
BRANCH   2   3
ATOM      3  O   UNL     1      -1.851   7.854  -3.544  1.00  0.00    -0.458 OA
BRANCH   3   4
ATOM      4  C   UNL     1      -1.750   6.351  -3.564  1.00  0.00     0.339 C 
ATOM      5  O   UNL     1      -1.193   6.212  -4.686  1.00  0.00    -0.246 OA
BRANCH   4   6
ATOM      6  C   UNL     1      -2.395   4.984  -2.006  1.00  0.00     0.071 A 
ATOM      7  C   UNL     1      -1.919   2.696  -0.666  1.00  0.00     0.072 A 
ATOM      8  C   UNL     1      -1.978   3.486  -1.837  1.00  0.00     0.045 A 
ATOM      9  N   UNL     1      -2.476   3.106   0.458  1.00  0.00    -0.248 NA
ATOM     10  C   UNL     1      -3.155   4.229   0.482  1.00  0.00     0.072 A 
ATOM     11  C   UNL     1      -3.237   5.228  -0.570  1.00  0.00     0.015 A 
ATOM     12  C   UNL     1      -3.764   4.301   1.736  1.00  0.00     0.029 A 
ATOM     13  C   UNL     1      -4.109   6.298   0.008  1.00  0.00     0.014 A 
ATOM     14  C   UNL     1      -4.562   5.348   2.151  1.00  0.00     0.005 A 
ATOM     15  C   UNL     1      -4.750   6.375   1.271  1.00  0.00    -0.050 A 
ATOM     16  C   UNL     1      -5.577   7.574   1.629  1.00  0.00     0.044 C 
BRANCH   7  17
ATOM     17  C   UNL     1      -1.142   1.427  -0.503  1.00  0.00     0.003 A 
ATOM     18  C   UNL     1       2.563   0.387  -0.064  1.00  0.00     0.044 C 
ATOM     19  C   UNL     1       1.065   0.328  -0.183  1.00  0.00    -0.050 A 
ATOM     20  C   UNL     1       0.438  -0.908  -0.047  1.00  0.00     0.004 A 
ATOM     21  C   UNL     1       0.277   1.476  -0.421  1.00  0.00     0.014 A 
ATOM     22  C   UNL     1      -0.949  -0.986  -0.081  1.00  0.00     0.004 A 
ATOM     23  C   UNL     1      -1.746   0.167  -0.268  1.00  0.00    -0.042 A 
ATOM     24  C   UNL     1      -3.233  -0.042  -0.171  1.00  0.00     0.045 C 
ENDBRANCH   7  17
ENDBRANCH   4   6
ENDBRANCH   3   4
ENDBRANCH   2   3
ENDBRANCH   1   2
BRANCH   1  25
ATOM     25  O   UNL     1       1.093   7.324  -3.245  1.00  0.00    -0.458 OA
BRANCH  25  26
ATOM     26  C   UNL     1       0.949   6.512  -2.157  1.00  0.00     0.338 C 
ATOM     27  O   UNL     1       1.856   6.151  -1.429  1.00  0.00    -0.246 OA
BRANCH  26  28
ATOM     28  C   UNL     1      -0.382   5.872  -2.117  1.00  0.00     0.060 A 
ATOM     29  C   UNL     1      -0.695   4.615  -3.390  1.00  0.00     0.016 A 
ATOM     30  C   UNL     1      -1.713   6.960  -1.579  1.00  0.00     0.016 A 
ATOM     31  C   UNL     1      -2.376   4.477  -4.160  1.00  0.00     0.010 A 
ATOM     32  C   UNL     1      -3.349   6.869  -2.432  1.00  0.00     0.010 A 
ATOM     33  C   UNL     1      -3.662   5.669  -3.739  1.00  0.00    -0.014 A 
BRANCH  33  34
ATOM     34  C   UNL     1      -4.719   6.173  -4.690  1.00  0.00     0.031 A 
ATOM     35  C   UNL     1      -6.059   6.027  -4.072  1.00  0.00     0.074 A 
ATOM     36  C   UNL     1      -4.646   7.012  -5.772  1.00  0.00     0.049 A 
ATOM     37  N   UNL     1      -6.869   5.035  -4.235  1.00  0.00    -0.248 NA
ATOM     38  C   UNL     1      -6.455   6.949  -2.994  1.00  0.00     0.031 C 
ATOM     39  C   UNL     1      -3.494   7.649  -6.420  1.00  0.00     0.029 A 
ATOM     40  N   UNL     1      -5.686   7.550  -6.518  1.00  0.00    -0.354 N 
ATOM     41  C   UNL     1      -7.955   5.333  -3.428  1.00  0.00     0.074 A 
ATOM     42  C   UNL     1      -7.485   6.288  -2.465  1.00  0.00     0.031 C 
ATOM     43  C   UNL     1      -3.894   8.612  -7.294  1.00  0.00     0.029 A 
ATOM     44  C   UNL     1      -5.340   8.583  -7.411  1.00  0.00     0.049 A 
ATOM     45  H   UNL     1      -6.612   7.228  -6.428  1.00  0.00     0.167 HD
ATOM     46  C   UNL     1      -9.232   5.062  -3.810  1.00  0.00     0.037 A 
ATOM     47  C   UNL     1      -6.166   9.323  -8.218  1.00  0.00     0.037 A 
ATOM     48  C   UNL     1      -9.259   4.242  -4.997  1.00  0.00     0.049 A 
ATOM     49  C   UNL     1      -7.423   8.557  -8.364  1.00  0.00     0.074 A 
ATOM     50  C   UNL     1      -8.707   3.026  -5.352  1.00  0.00     0.029 A 
ATOM     51  N   UNL     1      -9.589   4.854  -6.184  1.00  0.00    -0.354 N 
ATOM     52  N   UNL     1      -7.518   7.436  -9.015  1.00  0.00    -0.248 NA
ATOM     53  C   UNL     1      -8.479   8.827  -7.404  1.00  0.00     0.031 C 
ATOM     54  C   UNL     1      -8.276   3.192  -6.701  1.00  0.00     0.029 A 
ATOM     55  C   UNL     1      -8.667   4.462  -7.122  1.00  0.00     0.049 A 
ATOM     56  H   UNL     1     -10.348   5.462  -6.334  1.00  0.00     0.167 HD
ATOM     57  C   UNL     1      -8.344   6.658  -8.225  1.00  0.00     0.074 A 
ATOM     58  C   UNL     1      -8.966   7.590  -7.285  1.00  0.00     0.031 C 
ATOM     59  C   UNL     1      -8.215   5.301  -8.207  1.00  0.00     0.037 A 
BRANCH  46  60
ATOM     60  C   UNL     1     -10.437   5.834  -3.336  1.00  0.00     0.057 A 
ATOM     61  C   UNL     1     -11.711   5.281  -3.535  1.00  0.00     0.134 A 
ATOM     62  C   UNL     1     -10.430   7.177  -2.899  1.00  0.00     0.134 A 
ATOM     63  F   UNL     1     -11.850   4.022  -3.977  1.00  0.00    -0.206 F 
ATOM     64  C   UNL     1     -12.886   6.020  -3.353  1.00  0.00     0.040 A 
ATOM     65  C   UNL     1     -11.596   7.903  -2.651  1.00  0.00     0.040 A 
ATOM     66  F   UNL     1      -9.307   7.896  -2.784  1.00  0.00    -0.206 F 
ATOM     67  C   UNL     1     -12.831   7.334  -2.906  1.00  0.00     0.006 A 
ENDBRANCH  46  60
BRANCH  47  68
ATOM     68  C   UNL     1      -6.115  10.726  -8.743  1.00  0.00     0.057 A 
ATOM     69  C   UNL     1      -6.943  11.166  -9.800  1.00  0.00     0.134 A 
ATOM     70  C   UNL     1      -5.511  11.749  -7.997  1.00  0.00     0.134 A 
ATOM     71  F   UNL     1      -7.616  10.284 -10.554  1.00  0.00    -0.206 F 
ATOM     72  C   UNL     1      -7.175  12.528 -10.075  1.00  0.00     0.040 A 
ATOM     73  C   UNL     1      -5.736  13.113  -8.259  1.00  0.00     0.040 A 
ATOM     74  F   UNL     1      -4.763  11.457  -6.924  1.00  0.00    -0.206 F 
ATOM     75  C   UNL     1      -6.580  13.508  -9.291  1.00  0.00     0.006 A 
ENDBRANCH  47  68
BRANCH  59  76
ATOM     76  C   UNL     1      -7.336   4.657  -9.250  1.00  0.00     0.057 A 
ATOM     77  C   UNL     1      -5.951   4.865  -9.363  1.00  0.00     0.134 A 
ATOM     78  C   UNL     1      -7.887   3.664 -10.067  1.00  0.00     0.134 A 
ATOM     79  F   UNL     1      -5.313   5.736  -8.573  1.00  0.00    -0.206 F 
ATOM     80  C   UNL     1      -5.160   4.135 -10.257  1.00  0.00     0.040 A 
ATOM     81  C   UNL     1      -7.104   2.906 -10.942  1.00  0.00     0.040 A 
ATOM     82  F   UNL     1      -9.196   3.378  -9.990  1.00  0.00    -0.206 F 
ATOM     83  C   UNL     1      -5.736   3.143 -11.043  1.00  0.00     0.006 A 
ENDBRANCH  59  76
ENDBRANCH  33  34
ENDBRANCH  26  28
ENDBRANCH  25  26
ENDBRANCH   1  25
TORSDOF 12
