REMARK SMILES O=C(NCc1ccc(C(=O)OCCOC(=O)c2ccc(-c3c4nc(c(-c5c(F)cccc5F)c5ccc([nH]5)c(-c5c(F)cccc5F)c5nc(c(-c6c(F)cccc6F)c6ccc3[nH]6)C=C5)C=C4)cc2)o1)Nc1ccc(F)c(Cl)c1
REMARK SMILES IDX 12 1 11 2 9 3 10 4 8 5 5 6 6 7 71 8 7 9 4 10 3 11 1 12 2 13
REMARK SMILES IDX 72 14 73 17 74 18 80 19 75 20 78 21 76 22 79 23 77 24 13 25
REMARK SMILES IDX 14 26 15 27 16 28 17 29 18 30 70 31 19 32 69 33 20 34 21 35
REMARK SMILES IDX 22 36 63 37 23 38 68 39 62 40 64 41 24 42 67 43 61 44 60 45
REMARK SMILES IDX 25 47 51 48 34 49 50 50 35 51 38 52 49 53 65 54 36 55 37 56
REMARK SMILES IDX 48 58 66 59 39 60 26 61 27 62 32 63 28 64 29 65 31 66 33 67
REMARK SMILES IDX 30 68 52 69 53 70 58 71 54 72 55 73 57 74 59 75 56 76 40 77
REMARK SMILES IDX 41 78 46 79 42 80 43 81 45 82 47 83 44 84
REMARK H PARENT 3 15 72 16 64 46 38 57
REMARK Flexibility Score: inf
ROOT
ATOM      1  C   UNL     1       7.200  -1.434   7.395  1.00  0.00     0.275 C 
ENDROOT
BRANCH   1   2
ATOM      2  O   UNL     1       6.751  -0.608   6.305  1.00  0.00    -0.456 OA
BRANCH   2   3
ATOM      3  C   UNL     1       6.979  -1.099   5.051  1.00  0.00     0.374 C 
ATOM      4  O   UNL     1       7.650  -2.092   4.807  1.00  0.00    -0.242 OA
BRANCH   3   5
ATOM      5  C   UNL     1       6.229  -0.334   4.080  1.00  0.00     0.211 A 
ATOM      6  C   UNL     1       5.194  -0.084   2.146  1.00  0.00     0.124 A 
ATOM      7  C   UNL     1       4.891   1.033   2.896  1.00  0.00     0.048 A 
ATOM      8  O   UNL     1       6.050  -0.885   2.837  1.00  0.00    -0.452 OA
ATOM      9  C   UNL     1       5.546   0.867   4.141  1.00  0.00     0.058 A 
BRANCH   6  10
ATOM     10  C   UNL     1       4.749  -0.583   0.820  1.00  0.00     0.193 C 
BRANCH  10  11
ATOM     11  N   UNL     1       3.300  -0.611   0.819  1.00  0.00    -0.331 N 
ATOM     12  O   UNL     1       1.246   0.159   0.486  1.00  0.00    -0.248 OA
ATOM     13  C   UNL     1       2.413   0.132   0.107  1.00  0.00     0.319 C 
ATOM     14  N   UNL     1       2.913   0.778  -0.988  1.00  0.00    -0.308 N 
ATOM     15  H   UNL     1       2.896  -1.272   1.427  1.00  0.00     0.165 HD
ATOM     16  H   UNL     1       3.814   0.513  -1.282  1.00  0.00     0.171 HD
BRANCH  14  17
ATOM     17  C   UNL     1       2.276   1.785  -1.741  1.00  0.00     0.044 A 
ATOM     18  C   UNL     1       2.848   2.123  -2.975  1.00  0.00     0.029 A 
ATOM     19  C   UNL     1       1.137   2.471  -1.303  1.00  0.00     0.049 A 
ATOM     20  C   UNL     1       2.276   3.117  -3.773  1.00  0.00     0.043 A 
ATOM     21  C   UNL     1       0.572   3.471  -2.098  1.00  0.00     0.078 A 
ATOM     22  C   UNL     1       1.141   3.786  -3.330  1.00  0.00     0.141 A 
ATOM     23  Cl  UNL     1      -0.820   4.317  -1.538  1.00  0.00    -0.081 Cl
ATOM     24  F   UNL     1       0.612   4.741  -4.108  1.00  0.00    -0.205 F 
ENDBRANCH  14  17
ENDBRANCH  10  11
ENDBRANCH   6  10
ENDBRANCH   3   5
ENDBRANCH   2   3
ENDBRANCH   1   2
BRANCH   1  25
ATOM     25  C   UNL     1       6.069  -2.323   7.926  1.00  0.00     0.275 C 
BRANCH  25  26
ATOM     26  O   UNL     1       5.787  -3.424   7.041  1.00  0.00    -0.458 OA
BRANCH  26  27
ATOM     27  C   UNL     1       4.829  -3.199   6.110  1.00  0.00     0.338 C 
ATOM     28  O   UNL     1       4.177  -2.179   5.959  1.00  0.00    -0.246 OA
BRANCH  27  29
ATOM     29  C   UNL     1       4.760  -4.344   5.186  1.00  0.00     0.060 A 
ATOM     30  C   UNL     1       4.900  -4.097   3.817  1.00  0.00     0.016 A 
ATOM     31  C   UNL     1       4.512  -5.638   5.649  1.00  0.00     0.016 A 
ATOM     32  C   UNL     1       4.801  -5.142   2.901  1.00  0.00     0.010 A 
ATOM     33  C   UNL     1       4.404  -6.686   4.730  1.00  0.00     0.010 A 
ATOM     34  C   UNL     1       4.543  -6.442   3.352  1.00  0.00    -0.014 A 
BRANCH  34  35
ATOM     35  C   UNL     1       4.381  -7.547   2.380  1.00  0.00     0.031 A 
ATOM     36  C   UNL     1       3.007  -8.035   2.030  1.00  0.00     0.074 A 
ATOM     37  C   UNL     1       5.465  -8.111   1.817  1.00  0.00     0.049 A 
ATOM     38  N   UNL     1       2.655  -9.055   1.291  1.00  0.00    -0.248 NA
ATOM     39  C   UNL     1       1.879  -7.271   2.585  1.00  0.00     0.031 C 
ATOM     40  C   UNL     1       6.847  -7.692   2.043  1.00  0.00     0.029 A 
ATOM     41  N   UNL     1       5.569  -9.167   0.948  1.00  0.00    -0.354 N 
ATOM     42  C   UNL     1       1.267  -9.069   1.305  1.00  0.00     0.074 A 
ATOM     43  C   UNL     1       0.840  -7.959   2.131  1.00  0.00     0.031 C 
ATOM     44  C   UNL     1       7.665  -8.492   1.339  1.00  0.00     0.029 A 
ATOM     45  C   UNL     1       6.866  -9.501   0.648  1.00  0.00     0.049 A 
ATOM     46  H   UNL     1       4.790  -9.639   0.576  1.00  0.00     0.167 HD
ATOM     47  C   UNL     1       0.427  -9.931   0.684  1.00  0.00     0.037 A 
ATOM     48  C   UNL     1       7.354 -10.525  -0.078  1.00  0.00     0.037 A 
ATOM     49  C   UNL     1       0.854 -11.028  -0.142  1.00  0.00     0.049 A 
ATOM     50  C   UNL     1       6.403 -11.503  -0.708  1.00  0.00     0.074 A 
ATOM     51  C   UNL     1       0.077 -11.957  -0.813  1.00  0.00     0.029 A 
ATOM     52  N   UNL     1       2.177 -11.344  -0.410  1.00  0.00    -0.354 N 
ATOM     53  N   UNL     1       5.093 -11.515  -0.680  1.00  0.00    -0.248 NA
ATOM     54  C   UNL     1       6.998 -12.615  -1.465  1.00  0.00     0.031 C 
ATOM     55  C   UNL     1       0.932 -12.853  -1.465  1.00  0.00     0.029 A 
ATOM     56  C   UNL     1       2.239 -12.461  -1.226  1.00  0.00     0.049 A 
ATOM     57  H   UNL     1       2.956 -10.848  -0.070  1.00  0.00     0.167 HD
ATOM     58  C   UNL     1       4.706 -12.617  -1.430  1.00  0.00     0.074 A 
ATOM     59  C   UNL     1       5.920 -13.249  -1.906  1.00  0.00     0.031 C 
ATOM     60  C   UNL     1       3.457 -13.065  -1.701  1.00  0.00     0.037 A 
BRANCH  47  61
ATOM     61  C   UNL     1      -1.041  -9.733   0.900  1.00  0.00     0.057 A 
ATOM     62  C   UNL     1      -1.750  -8.712   0.256  1.00  0.00     0.134 A 
ATOM     63  C   UNL     1      -1.759 -10.593   1.740  1.00  0.00     0.134 A 
ATOM     64  F   UNL     1      -1.115  -7.848  -0.550  1.00  0.00    -0.206 F 
ATOM     65  C   UNL     1      -3.122  -8.543   0.453  1.00  0.00     0.040 A 
ATOM     66  C   UNL     1      -3.134 -10.445   1.930  1.00  0.00     0.040 A 
ATOM     67  F   UNL     1      -1.137 -11.592   2.384  1.00  0.00    -0.206 F 
ATOM     68  C   UNL     1      -3.818  -9.415   1.288  1.00  0.00     0.006 A 
ENDBRANCH  47  61
BRANCH  48  69
ATOM     69  C   UNL     1       8.820 -10.691  -0.227  1.00  0.00     0.057 A 
ATOM     70  C   UNL     1       9.457 -10.431  -1.444  1.00  0.00     0.134 A 
ATOM     71  C   UNL     1       9.616 -11.113   0.845  1.00  0.00     0.134 A 
ATOM     72  F   UNL     1       8.742 -10.045  -2.511  1.00  0.00    -0.206 F 
ATOM     73  C   UNL     1      10.835 -10.593  -1.595  1.00  0.00     0.040 A 
ATOM     74  C   UNL     1      10.998 -11.260   0.714  1.00  0.00     0.040 A 
ATOM     75  F   UNL     1       9.062 -11.379   2.037  1.00  0.00    -0.206 F 
ATOM     76  C   UNL     1      11.610 -11.004  -0.511  1.00  0.00     0.006 A 
ENDBRANCH  48  69
BRANCH  60  77
ATOM     77  C   UNL     1       3.336 -14.271  -2.582  1.00  0.00     0.057 A 
ATOM     78  C   UNL     1       3.567 -15.563  -2.095  1.00  0.00     0.134 A 
ATOM     79  C   UNL     1       2.932 -14.139  -3.916  1.00  0.00     0.134 A 
ATOM     80  F   UNL     1       3.968 -15.751  -0.829  1.00  0.00    -0.206 F 
ATOM     81  C   UNL     1       3.409 -16.684  -2.911  1.00  0.00     0.040 A 
ATOM     82  C   UNL     1       2.754 -15.254  -4.736  1.00  0.00     0.040 A 
ATOM     83  F   UNL     1       2.690 -12.927  -4.438  1.00  0.00    -0.206 F 
ATOM     84  C   UNL     1       2.994 -16.532  -4.233  1.00  0.00     0.006 A 
ENDBRANCH  60  77
ENDBRANCH  34  35
ENDBRANCH  27  29
ENDBRANCH  26  27
ENDBRANCH  25  26
ENDBRANCH   1  25
TORSDOF 14
