REMARK SMILES CC(=O)N1CCC(C(=O)Nc2sccc2C(=O)OCCOC(=O)c2ccc(-c3c4nc(c(-c5c(F)cccc5F)c5ccc([nH]5)c(-c5c(F)cccc5F)c5nc(c(-c6c(F)cccc6F)c6ccc3[nH]6)C=C5)C=C4)cc2)CC1
REMARK SMILES IDX 19 1 18 2 16 3 17 4 15 5 11 6 12 7 13 8 14 9 10 10 8 11 9 12
REMARK SMILES IDX 7 14 1 15 2 16 3 17 4 18 5 19 79 20 6 21 78 22 20 23 21 24
REMARK SMILES IDX 22 25 23 26 24 27 25 28 77 29 26 30 76 31 27 32 28 33 29 34
REMARK SMILES IDX 70 35 30 36 75 37 69 38 71 39 31 40 74 41 68 42 67 43 32 45
REMARK SMILES IDX 58 46 41 47 57 48 42 49 45 50 56 51 72 52 43 53 44 54 55 56
REMARK SMILES IDX 73 57 46 58 33 59 34 60 39 61 35 62 36 63 38 64 40 65 37 66
REMARK SMILES IDX 59 67 60 68 65 69 61 70 62 71 64 72 66 73 63 74 47 75 48 76
REMARK SMILES IDX 53 77 49 78 50 79 52 80 54 81 51 82
REMARK H PARENT 10 13 71 44 45 55
REMARK Flexibility Score: inf
ROOT
ATOM      1  C   UNL     1      -2.246  -4.273   4.675  1.00  0.00     0.275 C 
ENDROOT
BRANCH   1   2
ATOM      2  O   UNL     1      -1.122  -3.633   5.321  1.00  0.00    -0.458 OA
BRANCH   2   3
ATOM      3  C   UNL     1      -0.555  -2.578   4.668  1.00  0.00     0.341 C 
ATOM      4  O   UNL     1      -1.044  -2.040   3.678  1.00  0.00    -0.246 OA
BRANCH   3   5
ATOM      5  C   UNL     1       0.695  -2.123   5.257  1.00  0.00     0.094 A 
ATOM      6  C   UNL     1       1.717  -2.923   5.727  1.00  0.00     0.110 A 
ATOM      7  S   UNL     1       2.803  -2.071   6.733  1.00  0.00    -0.126 S 
ATOM      8  C   UNL     1       2.186  -0.570   6.204  1.00  0.00     0.068 A 
ATOM      9  C   UNL     1       1.075  -0.741   5.408  1.00  0.00     0.029 A 
BRANCH   6  10
ATOM     10  N   UNL     1       2.057  -4.243   5.597  1.00  0.00    -0.317 N 
ATOM     11  C   UNL     1       2.212  -5.000   4.474  1.00  0.00     0.228 C 
ATOM     12  O   UNL     1       2.432  -6.207   4.651  1.00  0.00    -0.274 OA
ATOM     13  H   UNL     1       2.213  -4.718   6.445  1.00  0.00     0.170 HD
BRANCH  11  14
ATOM     14  C   UNL     1       2.195  -4.473   3.029  1.00  0.00     0.082 C 
ATOM     15  C   UNL     1       1.687  -0.194   0.085  1.00  0.00     0.114 C 
ATOM     16  C   UNL     1       0.780  -1.264   0.642  1.00  0.00     0.219 C 
ATOM     17  O   UNL     1      -0.439  -1.104   0.550  1.00  0.00    -0.275 OA
ATOM     18  N   UNL     1       1.349  -2.436   1.129  1.00  0.00    -0.343 N 
ATOM     19  C   UNL     1       0.497  -3.612   1.247  1.00  0.00     0.120 C 
ATOM     20  C   UNL     1       2.769  -2.672   1.357  1.00  0.00     0.120 C 
ATOM     21  C   UNL     1       0.792  -4.529   2.432  1.00  0.00     0.035 C 
ATOM     22  C   UNL     1       2.978  -3.183   2.777  1.00  0.00     0.035 C 
ENDBRANCH  11  14
ENDBRANCH   6  10
ENDBRANCH   3   5
ENDBRANCH   2   3
ENDBRANCH   1   2
BRANCH   1  23
ATOM     23  C   UNL     1      -3.616  -3.755   5.122  1.00  0.00     0.275 C 
BRANCH  23  24
ATOM     24  O   UNL     1      -3.898  -2.465   4.555  1.00  0.00    -0.458 OA
BRANCH  24  25
ATOM     25  C   UNL     1      -3.687  -1.419   5.385  1.00  0.00     0.338 C 
ATOM     26  O   UNL     1      -3.385  -1.463   6.566  1.00  0.00    -0.246 OA
BRANCH  25  27
ATOM     27  C   UNL     1      -3.658  -0.172   4.606  1.00  0.00     0.060 A 
ATOM     28  C   UNL     1      -2.436   0.500   4.572  1.00  0.00     0.016 A 
ATOM     29  C   UNL     1      -4.782   0.371   3.987  1.00  0.00     0.016 A 
ATOM     30  C   UNL     1      -2.304   1.704   3.901  1.00  0.00     0.010 A 
ATOM     31  C   UNL     1      -4.667   1.613   3.349  1.00  0.00     0.010 A 
ATOM     32  C   UNL     1      -3.429   2.285   3.315  1.00  0.00    -0.014 A 
BRANCH  32  33
ATOM     33  C   UNL     1      -3.326   3.676   2.829  1.00  0.00     0.031 A 
ATOM     34  C   UNL     1      -3.755   4.784   3.744  1.00  0.00     0.074 A 
ATOM     35  C   UNL     1      -2.772   3.950   1.637  1.00  0.00     0.049 A 
ATOM     36  N   UNL     1      -3.860   6.065   3.507  1.00  0.00    -0.248 NA
ATOM     37  C   UNL     1      -4.097   4.393   5.122  1.00  0.00     0.031 C 
ATOM     38  C   UNL     1      -2.195   2.965   0.724  1.00  0.00     0.029 A 
ATOM     39  N   UNL     1      -2.602   5.150   0.995  1.00  0.00    -0.354 N 
ATOM     40  C   UNL     1      -4.307   6.628   4.695  1.00  0.00     0.074 A 
ATOM     41  C   UNL     1      -4.447   5.554   5.653  1.00  0.00     0.031 C 
ATOM     42  C   UNL     1      -1.746   3.601  -0.372  1.00  0.00     0.029 A 
ATOM     43  C   UNL     1      -2.055   5.025  -0.257  1.00  0.00     0.049 A 
ATOM     44  H   UNL     1      -2.848   6.016   1.394  1.00  0.00     0.167 HD
ATOM     45  C   UNL     1      -4.584   7.927   4.955  1.00  0.00     0.037 A 
ATOM     46  C   UNL     1      -1.873   5.954  -1.215  1.00  0.00     0.037 A 
ATOM     47  C   UNL     1      -4.440   8.986   3.993  1.00  0.00     0.049 A 
ATOM     48  C   UNL     1      -2.309   7.370  -0.950  1.00  0.00     0.074 A 
ATOM     49  C   UNL     1      -4.722  10.332   4.136  1.00  0.00     0.029 A 
ATOM     50  N   UNL     1      -3.970   8.808   2.699  1.00  0.00    -0.354 N 
ATOM     51  N   UNL     1      -2.799   7.894   0.148  1.00  0.00    -0.248 NA
ATOM     52  C   UNL     1      -2.192   8.318  -2.067  1.00  0.00     0.031 C 
ATOM     53  C   UNL     1      -4.460  10.963   2.914  1.00  0.00     0.029 A 
ATOM     54  C   UNL     1      -3.978  10.016   2.024  1.00  0.00     0.049 A 
ATOM     55  H   UNL     1      -3.674   7.950   2.319  1.00  0.00     0.167 HD
ATOM     56  C   UNL     1      -3.042   9.230  -0.141  1.00  0.00     0.074 A 
ATOM     57  C   UNL     1      -2.627   9.442  -1.513  1.00  0.00     0.031 C 
ATOM     58  C   UNL     1      -3.565  10.196   0.655  1.00  0.00     0.037 A 
BRANCH  45  59
ATOM     59  C   UNL     1      -5.135   8.245   6.311  1.00  0.00     0.057 A 
ATOM     60  C   UNL     1      -4.336   8.239   7.461  1.00  0.00     0.134 A 
ATOM     61  C   UNL     1      -6.496   8.536   6.470  1.00  0.00     0.134 A 
ATOM     62  F   UNL     1      -3.030   7.943   7.380  1.00  0.00    -0.206 F 
ATOM     63  C   UNL     1      -4.877   8.486   8.725  1.00  0.00     0.040 A 
ATOM     64  C   UNL     1      -7.044   8.805   7.724  1.00  0.00     0.040 A 
ATOM     65  F   UNL     1      -7.317   8.553   5.409  1.00  0.00    -0.206 F 
ATOM     66  C   UNL     1      -6.234   8.772   8.858  1.00  0.00     0.006 A 
ENDBRANCH  45  59
BRANCH  46  67
ATOM     67  C   UNL     1      -1.314   5.562  -2.532  1.00  0.00     0.057 A 
ATOM     68  C   UNL     1      -0.046   5.990  -2.940  1.00  0.00     0.134 A 
ATOM     69  C   UNL     1      -2.039   4.757  -3.420  1.00  0.00     0.134 A 
ATOM     70  F   UNL     1       0.685   6.786  -2.147  1.00  0.00    -0.206 F 
ATOM     71  C   UNL     1       0.479   5.635  -4.185  1.00  0.00     0.040 A 
ATOM     72  C   UNL     1      -1.518   4.375  -4.656  1.00  0.00     0.040 A 
ATOM     73  F   UNL     1      -3.266   4.323  -3.093  1.00  0.00    -0.206 F 
ATOM     74  C   UNL     1      -0.255   4.819  -5.043  1.00  0.00     0.006 A 
ENDBRANCH  46  67
BRANCH  58  75
ATOM     75  C   UNL     1      -3.706  11.565   0.061  1.00  0.00     0.057 A 
ATOM     76  C   UNL     1      -4.720  11.865  -0.857  1.00  0.00     0.134 A 
ATOM     77  C   UNL     1      -2.847  12.602   0.444  1.00  0.00     0.134 A 
ATOM     78  F   UNL     1      -5.566  10.910  -1.272  1.00  0.00    -0.206 F 
ATOM     79  C   UNL     1      -4.865  13.149  -1.385  1.00  0.00     0.040 A 
ATOM     80  C   UNL     1      -2.996  13.894  -0.061  1.00  0.00     0.040 A 
ATOM     81  F   UNL     1      -1.860  12.379   1.325  1.00  0.00    -0.206 F 
ATOM     82  C   UNL     1      -4.005  14.169  -0.982  1.00  0.00     0.006 A 
ENDBRANCH  58  75
ENDBRANCH  32  33
ENDBRANCH  25  27
ENDBRANCH  24  25
ENDBRANCH  23  24
ENDBRANCH   1  23
TORSDOF 13
