REMARK SMILES COc1ccc([C@H]2[C@H](C(=O)OCCOC(=O)c3ccc(-c4c5nc(c(-c6c(F)cccc6F)c6ccc([nH]6)c(-c6c(F)cccc6F)c6nc(c(-c7c(F)cccc7F)c7ccc4[nH]7)C=C6)C=C5)cc3)CCN2c2ccc(F)cc2)cc1
REMARK SMILES IDX 12 1 11 2 9 3 10 4 8 5 7 6 73 7 71 8 72 9 6 10 3 11 4 12
REMARK SMILES IDX 82 13 5 14 81 15 2 16 1 17 74 18 75 19 80 20 76 21 79 22
REMARK SMILES IDX 77 23 78 24 13 25 14 26 15 27 16 28 17 29 18 30 70 31 19 32
REMARK SMILES IDX 69 33 20 34 21 35 22 36 63 37 23 38 68 39 62 40 64 41 24 42
REMARK SMILES IDX 67 43 61 44 60 45 25 47 51 48 34 49 50 50 35 51 38 52 49 53
REMARK SMILES IDX 65 54 36 55 37 56 48 58 66 59 39 60 26 61 27 62 32 63 28 64
REMARK SMILES IDX 29 65 31 66 33 67 30 68 52 69 53 70 58 71 54 72 55 73 57 74
REMARK SMILES IDX 59 75 56 76 40 77 41 78 46 79 42 80 43 81 45 82 47 83 44 84
REMARK H PARENT 64 46 38 57
REMARK Flexibility Score: inf
ROOT
ATOM      1  C   UNL     1       5.736   3.478  -2.488  1.00  0.00     0.274 C 
ENDROOT
BRANCH   1   2
ATOM      2  O   UNL     1       4.717   4.479  -2.683  1.00  0.00    -0.462 OA
BRANCH   2   3
ATOM      3  C   UNL     1       4.596   5.012  -3.922  1.00  0.00     0.311 C 
ATOM      4  O   UNL     1       5.310   4.712  -4.874  1.00  0.00    -0.252 OA
BRANCH   3   5
ATOM      5  C   UNL     1       3.511   6.062  -4.048  1.00  0.00     0.128 C 
ATOM      6  C   UNL     1       2.387   5.970  -3.002  1.00  0.00     0.127 C 
ATOM      7  N   UNL     1       2.905   6.802  -1.903  1.00  0.00    -0.364 N 
ATOM      8  C   UNL     1       4.087   7.459  -3.845  1.00  0.00     0.039 C 
ATOM      9  C   UNL     1       3.988   7.682  -2.339  1.00  0.00     0.118 C 
BRANCH   6  10
ATOM     10  C   UNL     1       1.073   6.541  -3.558  1.00  0.00    -0.024 A 
ATOM     11  C   UNL     1      -1.245   7.650  -4.745  1.00  0.00     0.118 A 
ATOM     12  C   UNL     1      -0.731   6.437  -5.200  1.00  0.00     0.047 A 
ATOM     13  C   UNL     1      -0.650   8.274  -3.654  1.00  0.00     0.047 A 
ATOM     14  C   UNL     1       0.413   5.886  -4.611  1.00  0.00     0.010 A 
ATOM     15  C   UNL     1       0.496   7.725  -3.070  1.00  0.00     0.010 A 
BRANCH  11  16
ATOM     16  O   UNL     1      -2.343   8.121  -5.411  1.00  0.00    -0.497 OA
ATOM     17  C   UNL     1      -2.467   9.540  -5.432  1.00  0.00     0.278 C 
ENDBRANCH  11  16
ENDBRANCH   6  10
BRANCH   7  18
ATOM     18  C   UNL     1       2.741   6.531  -0.563  1.00  0.00     0.037 A 
ATOM     19  C   UNL     1       2.656   7.585   0.362  1.00  0.00     0.029 A 
ATOM     20  C   UNL     1       2.670   5.224  -0.058  1.00  0.00     0.029 A 
ATOM     21  C   UNL     1       2.500   7.349   1.730  1.00  0.00     0.041 A 
ATOM     22  C   UNL     1       2.539   4.978   1.312  1.00  0.00     0.041 A 
ATOM     23  C   UNL     1       2.452   6.044   2.193  1.00  0.00     0.123 A 
ATOM     24  F   UNL     1       2.322   5.812   3.506  1.00  0.00    -0.207 F 
ENDBRANCH   7  18
ENDBRANCH   3   5
ENDBRANCH   2   3
ENDBRANCH   1   2
BRANCH   1  25
ATOM     25  C   UNL     1       5.128   2.076  -2.396  1.00  0.00     0.275 C 
BRANCH  25  26
ATOM     26  O   UNL     1       4.582   1.658  -3.660  1.00  0.00    -0.458 OA
BRANCH  26  27
ATOM     27  C   UNL     1       3.274   1.951  -3.839  1.00  0.00     0.338 C 
ATOM     28  O   UNL     1       2.512   2.477  -3.048  1.00  0.00    -0.246 OA
BRANCH  27  29
ATOM     29  C   UNL     1       2.899   1.673  -5.230  1.00  0.00     0.060 A 
ATOM     30  C   UNL     1       2.610   2.761  -6.058  1.00  0.00     0.016 A 
ATOM     31  C   UNL     1       2.743   0.366  -5.688  1.00  0.00     0.016 A 
ATOM     32  C   UNL     1       2.138   2.550  -7.347  1.00  0.00     0.010 A 
ATOM     33  C   UNL     1       2.285   0.154  -6.990  1.00  0.00     0.010 A 
ATOM     34  C   UNL     1       1.967   1.244  -7.820  1.00  0.00    -0.014 A 
BRANCH  34  35
ATOM     35  C   UNL     1       1.417   1.017  -9.175  1.00  0.00     0.031 A 
ATOM     36  C   UNL     1       0.011   0.522  -9.333  1.00  0.00     0.074 A 
ATOM     37  C   UNL     1       2.181   1.260 -10.255  1.00  0.00     0.049 A 
ATOM     38  N   UNL     1      -0.612   0.135 -10.416  1.00  0.00    -0.248 NA
ATOM     39  C   UNL     1      -0.802   0.451  -8.109  1.00  0.00     0.031 C 
ATOM     40  C   UNL     1       3.543   1.794 -10.223  1.00  0.00     0.029 A 
ATOM     41  N   UNL     1       1.922   1.076 -11.588  1.00  0.00    -0.354 N 
ATOM     42  C   UNL     1      -1.879  -0.253 -10.003  1.00  0.00     0.074 A 
ATOM     43  C   UNL     1      -1.936  -0.059  -8.569  1.00  0.00     0.031 C 
ATOM     44  C   UNL     1       4.003   1.888 -11.481  1.00  0.00     0.029 A 
ATOM     45  C   UNL     1       2.990   1.373 -12.397  1.00  0.00     0.049 A 
ATOM     46  H   UNL     1       1.054   0.763 -11.932  1.00  0.00     0.167 HD
ATOM     47  C   UNL     1      -2.899  -0.729 -10.755  1.00  0.00     0.037 A 
ATOM     48  C   UNL     1       3.146   1.211 -13.724  1.00  0.00     0.037 A 
ATOM     49  C   UNL     1      -2.840  -0.899 -12.182  1.00  0.00     0.049 A 
ATOM     50  C   UNL     1       2.021   0.626 -14.529  1.00  0.00     0.074 A 
ATOM     51  C   UNL     1      -3.824  -1.362 -13.038  1.00  0.00     0.029 A 
ATOM     52  N   UNL     1      -1.732  -0.609 -12.964  1.00  0.00    -0.354 N 
ATOM     53  N   UNL     1       0.833   0.242 -14.128  1.00  0.00    -0.248 NA
ATOM     54  C   UNL     1       2.260   0.439 -15.967  1.00  0.00     0.031 C 
ATOM     55  C   UNL     1      -3.299  -1.384 -14.335  1.00  0.00     0.029 A 
ATOM     56  C   UNL     1      -2.001  -0.900 -14.291  1.00  0.00     0.049 A 
ATOM     57  H   UNL     1      -0.880  -0.250 -12.626  1.00  0.00     0.167 HD
ATOM     58  C   UNL     1       0.178  -0.215 -15.263  1.00  0.00     0.074 A 
ATOM     59  C   UNL     1       1.097  -0.052 -16.371  1.00  0.00     0.031 C 
ATOM     60  C   UNL     1      -1.073  -0.725 -15.378  1.00  0.00     0.037 A 
BRANCH  47  61
ATOM     61  C   UNL     1      -4.154  -1.129 -10.040  1.00  0.00     0.057 A 
ATOM     62  C   UNL     1      -5.054  -0.183  -9.536  1.00  0.00     0.134 A 
ATOM     63  C   UNL     1      -4.476  -2.483  -9.877  1.00  0.00     0.134 A 
ATOM     64  F   UNL     1      -4.795   1.128  -9.646  1.00  0.00    -0.206 F 
ATOM     65  C   UNL     1      -6.223  -0.570  -8.878  1.00  0.00     0.040 A 
ATOM     66  C   UNL     1      -5.651  -2.881  -9.239  1.00  0.00     0.040 A 
ATOM     67  F   UNL     1      -3.655  -3.438 -10.339  1.00  0.00    -0.206 F 
ATOM     68  C   UNL     1      -6.527  -1.923  -8.733  1.00  0.00     0.006 A 
ENDBRANCH  47  61
BRANCH  48  69
ATOM     69  C   UNL     1       4.433   1.577 -14.364  1.00  0.00     0.057 A 
ATOM     70  C   UNL     1       4.532   2.692 -15.202  1.00  0.00     0.134 A 
ATOM     71  C   UNL     1       5.594   0.826 -14.145  1.00  0.00     0.134 A 
ATOM     72  F   UNL     1       3.449   3.437 -15.466  1.00  0.00    -0.206 F 
ATOM     73  C   UNL     1       5.740   3.045 -15.806  1.00  0.00     0.040 A 
ATOM     74  C   UNL     1       6.813   1.180 -14.724  1.00  0.00     0.040 A 
ATOM     75  F   UNL     1       5.562  -0.254 -13.351  1.00  0.00    -0.206 F 
ATOM     76  C   UNL     1       6.887   2.291 -15.561  1.00  0.00     0.006 A 
ENDBRANCH  48  69
BRANCH  60  77
ATOM     77  C   UNL     1      -1.528  -1.115 -16.750  1.00  0.00     0.057 A 
ATOM     78  C   UNL     1      -1.093  -2.298 -17.359  1.00  0.00     0.134 A 
ATOM     79  C   UNL     1      -2.449  -0.324 -17.447  1.00  0.00     0.134 A 
ATOM     80  F   UNL     1      -0.200  -3.090 -16.746  1.00  0.00    -0.206 F 
ATOM     81  C   UNL     1      -1.551  -2.675 -18.622  1.00  0.00     0.040 A 
ATOM     82  C   UNL     1      -2.929  -0.701 -18.702  1.00  0.00     0.040 A 
ATOM     83  F   UNL     1      -2.908   0.818 -16.913  1.00  0.00    -0.206 F 
ATOM     84  C   UNL     1      -2.477  -1.879 -19.294  1.00  0.00     0.006 A 
ENDBRANCH  60  77
ENDBRANCH  34  35
ENDBRANCH  27  29
ENDBRANCH  26  27
ENDBRANCH  25  26
ENDBRANCH   1  25
TORSDOF 14
