REMARK SMILES C[C@@H]1[C@@H](C(=O)OCCOC(=O)c2ccc(-c3c4nc(c(-c5c(F)cccc5F)c5ccc([nH]5)c(-c5c(F)cccc5F)c5nc(c(-c6c(F)cccc6F)c6ccc3[nH]6)C=C5)C=C4)cc2)CCN1C(=O)N1CCC[C@H]2CCC[C@@H]21
REMARK SMILES IDX 7 1 6 2 4 3 5 4 3 5 1 6 2 7 68 8 66 9 67 10 69 11 70 12
REMARK SMILES IDX 71 13 72 14 79 15 73 16 75 17 78 18 74 19 76 20 77 21 8 22
REMARK SMILES IDX 9 23 10 24 11 25 12 26 13 27 65 28 14 29 64 30 15 31 16 32
REMARK SMILES IDX 17 33 58 34 18 35 63 36 57 37 59 38 19 39 62 40 56 41 55 42
REMARK SMILES IDX 20 44 46 45 29 46 45 47 30 48 33 49 44 50 60 51 31 52 32 53
REMARK SMILES IDX 43 55 61 56 34 57 21 58 22 59 27 60 23 61 24 62 26 63 28 64
REMARK SMILES IDX 25 65 47 66 48 67 53 68 49 69 50 70 52 71 54 72 51 73 35 74
REMARK SMILES IDX 36 75 41 76 37 77 38 78 40 79 42 80 39 81
REMARK H PARENT 59 43 33 54
REMARK Flexibility Score: inf
ROOT
ATOM      1  C   UNL     1      -2.063   1.980  -3.484  1.00  0.00     0.274 C 
ENDROOT
BRANCH   1   2
ATOM      2  O   UNL     1      -1.681   1.817  -2.105  1.00  0.00    -0.462 OA
BRANCH   2   3
ATOM      3  C   UNL     1      -0.845   0.773  -1.833  1.00  0.00     0.311 C 
ATOM      4  O   UNL     1      -0.423  -0.010  -2.673  1.00  0.00    -0.252 OA
BRANCH   3   5
ATOM      5  C   UNL     1      -0.429   0.799  -0.372  1.00  0.00     0.123 C 
ATOM      6  C   UNL     1       1.464   0.068   1.105  1.00  0.00     0.032 C 
ATOM      7  C   UNL     1       0.536  -0.352  -0.041  1.00  0.00     0.098 C 
ATOM      8  N   UNL     1      -0.354  -1.460   0.330  1.00  0.00    -0.321 N 
ATOM      9  C   UNL     1      -1.592   0.550   0.587  1.00  0.00     0.039 C 
ATOM     10  C   UNL     1      -1.679  -0.969   0.668  1.00  0.00     0.122 C 
BRANCH   8  11
ATOM     11  C   UNL     1      -0.233  -2.787  -0.060  1.00  0.00     0.320 C 
ATOM     12  O   UNL     1      -1.183  -3.569  -0.028  1.00  0.00    -0.248 OA
BRANCH  11  13
ATOM     13  N   UNL     1       0.970  -3.134  -0.622  1.00  0.00    -0.321 N 
ATOM     14  C   UNL     1       2.187  -3.231   0.171  1.00  0.00     0.121 C 
ATOM     15  C   UNL     1       1.050  -3.819  -1.895  1.00  0.00     0.090 C 
ATOM     16  C   UNL     1       3.380  -2.648  -0.588  1.00  0.00     0.022 C 
ATOM     17  C   UNL     1       2.106  -3.084  -2.723  1.00  0.00     0.012 C 
ATOM     18  C   UNL     1      -0.146  -3.821  -2.840  1.00  0.00     0.025 C 
ATOM     19  C   UNL     1       3.467  -3.170  -2.032  1.00  0.00     0.007 C 
ATOM     20  C   UNL     1       1.961  -3.715  -4.099  1.00  0.00     0.006 C 
ATOM     21  C   UNL     1       0.471  -4.054  -4.222  1.00  0.00     0.002 C 
ENDBRANCH  11  13
ENDBRANCH   8  11
ENDBRANCH   3   5
ENDBRANCH   2   3
ENDBRANCH   1   2
BRANCH   1  22
ATOM     22  C   UNL     1      -1.184   3.004  -4.212  1.00  0.00     0.275 C 
BRANCH  22  23
ATOM     23  O   UNL     1       0.145   2.506  -4.466  1.00  0.00    -0.458 OA
BRANCH  23  24
ATOM     24  C   UNL     1       1.057   2.777  -3.502  1.00  0.00     0.338 C 
ATOM     25  O   UNL     1       0.874   3.419  -2.481  1.00  0.00    -0.246 OA
BRANCH  24  26
ATOM     26  C   UNL     1       2.314   2.046  -3.761  1.00  0.00     0.060 A 
ATOM     27  C   UNL     1       2.856   1.323  -2.696  1.00  0.00     0.016 A 
ATOM     28  C   UNL     1       2.986   2.099  -4.987  1.00  0.00     0.016 A 
ATOM     29  C   UNL     1       4.055   0.635  -2.855  1.00  0.00     0.010 A 
ATOM     30  C   UNL     1       4.208   1.425  -5.138  1.00  0.00     0.010 A 
ATOM     31  C   UNL     1       4.747   0.689  -4.073  1.00  0.00    -0.014 A 
BRANCH  31  32
ATOM     32  C   UNL     1       6.060   0.001  -4.157  1.00  0.00     0.031 A 
ATOM     33  C   UNL     1       7.291   0.698  -3.668  1.00  0.00     0.074 A 
ATOM     34  C   UNL     1       6.125  -1.288  -4.538  1.00  0.00     0.049 A 
ATOM     35  N   UNL     1       8.509   0.236  -3.559  1.00  0.00    -0.248 NA
ATOM     36  C   UNL     1       7.135   2.103  -3.266  1.00  0.00     0.031 C 
ATOM     37  C   UNL     1       4.990  -2.065  -5.017  1.00  0.00     0.029 A 
ATOM     38  N   UNL     1       7.158  -2.192  -4.503  1.00  0.00    -0.354 N 
ATOM     39  C   UNL     1       9.280   1.310  -3.140  1.00  0.00     0.074 A 
ATOM     40  C   UNL     1       8.382   2.432  -2.961  1.00  0.00     0.031 C 
ATOM     41  C   UNL     1       5.347  -3.358  -5.093  1.00  0.00     0.029 A 
ATOM     42  C   UNL     1       6.753  -3.489  -4.732  1.00  0.00     0.049 A 
ATOM     43  H   UNL     1       8.093  -1.939  -4.330  1.00  0.00     0.167 HD
ATOM     44  C   UNL     1      10.622   1.360  -2.975  1.00  0.00     0.037 A 
ATOM     45  C   UNL     1       7.439  -4.646  -4.636  1.00  0.00     0.037 A 
ATOM     46  C   UNL     1      11.505   0.239  -3.171  1.00  0.00     0.049 A 
ATOM     47  C   UNL     1       8.920  -4.578  -4.374  1.00  0.00     0.074 A 
ATOM     48  C   UNL     1      12.887   0.207  -3.124  1.00  0.00     0.029 A 
ATOM     49  N   UNL     1      11.085  -1.054  -3.444  1.00  0.00    -0.354 N 
ATOM     50  N   UNL     1       9.656  -3.541  -4.057  1.00  0.00    -0.248 NA
ATOM     51  C   UNL     1       9.676  -5.831  -4.523  1.00  0.00     0.031 C 
ATOM     52  C   UNL     1      13.305  -1.100  -3.401  1.00  0.00     0.029 A 
ATOM     53  C   UNL     1      12.181  -1.891  -3.574  1.00  0.00     0.049 A 
ATOM     54  H   UNL     1      10.146  -1.336  -3.532  1.00  0.00     0.167 HD
ATOM     55  C   UNL     1      10.964  -4.006  -4.011  1.00  0.00     0.074 A 
ATOM     56  C   UNL     1      10.911  -5.433  -4.256  1.00  0.00     0.031 C 
ATOM     57  C   UNL     1      12.110  -3.306  -3.830  1.00  0.00     0.037 A 
BRANCH  44  58
ATOM     58  C   UNL     1      11.217   2.700  -2.670  1.00  0.00     0.057 A 
ATOM     59  C   UNL     1      11.119   3.295  -1.407  1.00  0.00     0.134 A 
ATOM     60  C   UNL     1      11.894   3.410  -3.671  1.00  0.00     0.134 A 
ATOM     61  F   UNL     1      10.460   2.678  -0.415  1.00  0.00    -0.206 F 
ATOM     62  C   UNL     1      11.658   4.558  -1.156  1.00  0.00     0.040 A 
ATOM     63  C   UNL     1      12.456   4.662  -3.426  1.00  0.00     0.040 A 
ATOM     64  F   UNL     1      12.017   2.896  -4.905  1.00  0.00    -0.206 F 
ATOM     65  C   UNL     1      12.333   5.243  -2.166  1.00  0.00     0.006 A 
ENDBRANCH  44  58
BRANCH  45  66
ATOM     66  C   UNL     1       6.768  -5.968  -4.792  1.00  0.00     0.057 A 
ATOM     67  C   UNL     1       6.758  -6.891  -3.735  1.00  0.00     0.134 A 
ATOM     68  C   UNL     1       6.168  -6.369  -5.991  1.00  0.00     0.134 A 
ATOM     69  F   UNL     1       7.340  -6.585  -2.566  1.00  0.00    -0.206 F 
ATOM     70  C   UNL     1       6.195  -8.162  -3.872  1.00  0.00     0.040 A 
ATOM     71  C   UNL     1       5.570  -7.623  -6.130  1.00  0.00     0.040 A 
ATOM     72  F   UNL     1       6.152  -5.546  -7.049  1.00  0.00    -0.206 F 
ATOM     73  C   UNL     1       5.592  -8.529  -5.072  1.00  0.00     0.006 A 
ENDBRANCH  45  66
BRANCH  57  74
ATOM     74  C   UNL     1      13.396  -4.071  -3.925  1.00  0.00     0.057 A 
ATOM     75  C   UNL     1      13.882  -4.528  -5.158  1.00  0.00     0.134 A 
ATOM     76  C   UNL     1      14.174  -4.318  -2.789  1.00  0.00     0.134 A 
ATOM     77  F   UNL     1      13.177  -4.331  -6.282  1.00  0.00    -0.206 F 
ATOM     78  C   UNL     1      15.088  -5.223  -5.254  1.00  0.00     0.040 A 
ATOM     79  C   UNL     1      15.393  -4.993  -2.875  1.00  0.00     0.040 A 
ATOM     80  F   UNL     1      13.768  -3.901  -1.581  1.00  0.00    -0.206 F 
ATOM     81  C   UNL     1      15.850  -5.452  -4.110  1.00  0.00     0.006 A 
ENDBRANCH  57  74
ENDBRANCH  31  32
ENDBRANCH  24  26
ENDBRANCH  23  24
ENDBRANCH  22  23
ENDBRANCH   1  22
TORSDOF 13
