REMARK SMILES O=C(OCCOC(=O)c1sccc1S(=O)(=O)Nc1ccccc1N1CCCCC1)c1ccc(-c2c3nc(c(-c4c(F)cccc4F)c4ccc([nH]4)c(-c4c(F)cccc4F)c4nc(c(-c5c(F)cccc5F)c5ccc2[nH]5)C=C4)C=C3)cc1
REMARK SMILES IDX 5 1 4 2 3 3 2 4 1 5 30 6 31 7 83 8 32 9 82 10 33 11 34 12
REMARK SMILES IDX 35 13 76 14 36 15 81 16 75 17 77 18 37 19 80 20 74 21 73 22
REMARK SMILES IDX 38 24 64 25 47 26 63 27 48 28 51 29 62 30 78 31 49 32 50 33
REMARK SMILES IDX 61 35 79 36 52 37 39 38 40 39 45 40 41 41 42 42 44 43 46 44
REMARK SMILES IDX 43 45 65 46 66 47 71 48 67 49 68 50 70 51 72 52 69 53 53 54
REMARK SMILES IDX 54 55 59 56 55 57 56 58 58 59 60 60 57 61 6 62 7 63 8 64
REMARK SMILES IDX 9 65 10 66 13 67 11 68 12 69 14 70 15 71 16 72 17 73 18 75
REMARK SMILES IDX 19 76 23 77 20 78 22 79 21 80 24 81 25 82 29 83 26 84 28 85
REMARK SMILES IDX 27 86
REMARK H PARENT 77 23 51 34 17 74
REMARK Flexibility Score: inf
ROOT
ATOM      1  C   UNL     1       4.587   0.701   0.680  1.00  0.00     0.275 C 
ENDROOT
BRANCH   1   2
ATOM      2  C   UNL     1       4.787   1.359  -0.684  1.00  0.00     0.275 C 
BRANCH   2   3
ATOM      3  O   UNL     1       3.723   1.115  -1.614  1.00  0.00    -0.458 OA
BRANCH   3   4
ATOM      4  C   UNL     1       3.851   0.276  -2.671  1.00  0.00     0.338 C 
ATOM      5  O   UNL     1       3.349   0.523  -3.761  1.00  0.00    -0.246 OA
BRANCH   4   6
ATOM      6  C   UNL     1       4.359  -1.088  -2.396  1.00  0.00     0.060 A 
ATOM      7  C   UNL     1       5.647  -1.352  -1.921  1.00  0.00     0.016 A 
ATOM      8  C   UNL     1       3.499  -2.155  -2.685  1.00  0.00     0.016 A 
ATOM      9  C   UNL     1       6.043  -2.658  -1.644  1.00  0.00     0.010 A 
ATOM     10  C   UNL     1       3.905  -3.469  -2.444  1.00  0.00     0.010 A 
ATOM     11  C   UNL     1       5.183  -3.721  -1.928  1.00  0.00    -0.014 A 
BRANCH  11  12
ATOM     12  C   UNL     1       5.753  -5.080  -2.003  1.00  0.00     0.031 A 
ATOM     13  C   UNL     1       6.327  -5.486  -3.321  1.00  0.00     0.074 A 
ATOM     14  C   UNL     1       5.838  -5.888  -0.933  1.00  0.00     0.049 A 
ATOM     15  N   UNL     1       7.014  -6.551  -3.625  1.00  0.00    -0.248 NA
ATOM     16  C   UNL     1       6.151  -4.534  -4.434  1.00  0.00     0.031 C 
ATOM     17  C   UNL     1       5.418  -5.533   0.412  1.00  0.00     0.029 A 
ATOM     18  N   UNL     1       6.301  -7.170  -0.806  1.00  0.00    -0.354 N 
ATOM     19  C   UNL     1       7.424  -6.354  -4.932  1.00  0.00     0.074 A 
ATOM     20  C   UNL     1       6.841  -5.118  -5.397  1.00  0.00     0.031 C 
ATOM     21  C   UNL     1       5.550  -6.598   1.221  1.00  0.00     0.029 A 
ATOM     22  C   UNL     1       6.115  -7.698   0.450  1.00  0.00     0.049 A 
ATOM     23  H   UNL     1       6.725  -7.666  -1.543  1.00  0.00     0.167 HD
ATOM     24  C   UNL     1       8.256  -7.122  -5.667  1.00  0.00     0.037 A 
ATOM     25  C   UNL     1       6.390  -8.931   0.913  1.00  0.00     0.037 A 
ATOM     26  C   UNL     1       8.756  -8.387  -5.223  1.00  0.00     0.049 A 
ATOM     27  C   UNL     1       7.135  -9.868   0.002  1.00  0.00     0.074 A 
ATOM     28  C   UNL     1       9.537  -9.300  -5.902  1.00  0.00     0.029 A 
ATOM     29  N   UNL     1       8.482  -8.931  -3.974  1.00  0.00    -0.354 N 
ATOM     30  N   UNL     1       7.574  -9.651  -1.216  1.00  0.00    -0.248 NA
ATOM     31  C   UNL     1       7.463 -11.196   0.533  1.00  0.00     0.031 C 
ATOM     32  C   UNL     1       9.699 -10.420  -5.077  1.00  0.00     0.029 A 
ATOM     33  C   UNL     1       9.049 -10.187  -3.872  1.00  0.00     0.049 A 
ATOM     34  H   UNL     1       7.962  -8.488  -3.266  1.00  0.00     0.167 HD
ATOM     35  C   UNL     1       8.279 -10.789  -1.576  1.00  0.00     0.074 A 
ATOM     36  C   UNL     1       8.195 -11.701  -0.451  1.00  0.00     0.031 C 
ATOM     37  C   UNL     1       8.952 -11.052  -2.724  1.00  0.00     0.037 A 
BRANCH  24  38
ATOM     38  C   UNL     1       8.610  -6.579  -7.013  1.00  0.00     0.057 A 
ATOM     39  C   UNL     1       9.509  -5.509  -7.146  1.00  0.00     0.134 A 
ATOM     40  C   UNL     1       7.946  -7.020  -8.160  1.00  0.00     0.134 A 
ATOM     41  F   UNL     1      10.138  -5.012  -6.070  1.00  0.00    -0.206 F 
ATOM     42  C   UNL     1       9.710  -4.878  -8.373  1.00  0.00     0.040 A 
ATOM     43  C   UNL     1       8.150  -6.404  -9.396  1.00  0.00     0.040 A 
ATOM     44  F   UNL     1       7.051  -8.016  -8.088  1.00  0.00    -0.206 F 
ATOM     45  C   UNL     1       9.026  -5.323  -9.502  1.00  0.00     0.006 A 
ENDBRANCH  24  38
BRANCH  25  46
ATOM     46  C   UNL     1       5.995  -9.336   2.287  1.00  0.00     0.057 A 
ATOM     47  C   UNL     1       6.943  -9.563   3.291  1.00  0.00     0.134 A 
ATOM     48  C   UNL     1       4.650  -9.549   2.618  1.00  0.00     0.134 A 
ATOM     49  F   UNL     1       8.249  -9.395   3.035  1.00  0.00    -0.206 F 
ATOM     50  C   UNL     1       6.574 -10.013   4.562  1.00  0.00     0.040 A 
ATOM     51  C   UNL     1       4.265  -9.982   3.889  1.00  0.00     0.040 A 
ATOM     52  F   UNL     1       3.687  -9.349   1.705  1.00  0.00    -0.206 F 
ATOM     53  C   UNL     1       5.230 -10.224   4.864  1.00  0.00     0.006 A 
ENDBRANCH  25  46
BRANCH  37  54
ATOM     54  C   UNL     1       9.677 -12.357  -2.794  1.00  0.00     0.057 A 
ATOM     55  C   UNL     1       9.001 -13.561  -3.016  1.00  0.00     0.134 A 
ATOM     56  C   UNL     1      11.073 -12.395  -2.699  1.00  0.00     0.134 A 
ATOM     57  F   UNL     1       7.662 -13.584  -3.099  1.00  0.00    -0.206 F 
ATOM     58  C   UNL     1       9.691 -14.766  -3.133  1.00  0.00     0.040 A 
ATOM     59  C   UNL     1      11.776 -13.590  -2.836  1.00  0.00     0.040 A 
ATOM     60  F   UNL     1      11.774 -11.269  -2.492  1.00  0.00    -0.206 F 
ATOM     61  C   UNL     1      11.084 -14.781  -3.052  1.00  0.00     0.006 A 
ENDBRANCH  37  54
ENDBRANCH  11  12
ENDBRANCH   4   6
ENDBRANCH   3   4
ENDBRANCH   2   3
ENDBRANCH   1   2
BRANCH   1  62
ATOM     62  O   UNL     1       4.212  -0.684   0.664  1.00  0.00    -0.458 OA
BRANCH  62  63
ATOM     63  C   UNL     1       2.873  -0.933   0.683  1.00  0.00     0.349 C 
ATOM     64  O   UNL     1       2.017  -0.079   0.492  1.00  0.00    -0.245 OA
BRANCH  63  65
ATOM     65  C   UNL     1       2.602  -2.343   0.885  1.00  0.00     0.133 A 
ATOM     66  S   UNL     1       1.423  -3.050  -0.169  1.00  0.00    -0.136 S 
ATOM     67  C   UNL     1       3.041  -3.268   1.822  1.00  0.00     0.113 A 
ATOM     68  C   UNL     1       1.599  -4.592   0.528  1.00  0.00     0.067 A 
ATOM     69  C   UNL     1       2.444  -4.563   1.612  1.00  0.00     0.035 A 
BRANCH  67  70
ATOM     70  S   UNL     1       4.169  -2.994   3.119  1.00  0.00     0.263 S 
ATOM     71  O   UNL     1       4.467  -4.325   3.612  1.00  0.00    -0.201 OA
ATOM     72  O   UNL     1       5.234  -2.187   2.568  1.00  0.00    -0.201 OA
BRANCH  70  73
ATOM     73  N   UNL     1       3.490  -2.188   4.434  1.00  0.00    -0.277 N 
ATOM     74  H   UNL     1       3.475  -2.594   5.330  1.00  0.00     0.180 HD
BRANCH  73  75
ATOM     75  C   UNL     1       2.936  -0.889   4.195  1.00  0.00     0.072 A 
ATOM     76  C   UNL     1       3.817   0.203   4.182  1.00  0.00     0.029 A 
ATOM     77  C   UNL     1       1.562  -0.739   3.887  1.00  0.00     0.061 A 
ATOM     78  C   UNL     1       3.351   1.472   3.854  1.00  0.00     0.002 A 
ATOM     79  C   UNL     1       1.142   0.549   3.513  1.00  0.00     0.028 A 
ATOM     80  C   UNL     1       2.019   1.640   3.495  1.00  0.00     0.002 A 
BRANCH  77  81
ATOM     81  N   UNL     1       0.616  -1.757   3.988  1.00  0.00    -0.370 N 
ATOM     82  C   UNL     1      -0.235  -2.066   2.837  1.00  0.00     0.116 C 
ATOM     83  C   UNL     1       0.749  -2.801   5.005  1.00  0.00     0.116 C 
ATOM     84  C   UNL     1      -1.613  -2.542   3.274  1.00  0.00     0.021 C 
ATOM     85  C   UNL     1      -0.634  -3.269   5.456  1.00  0.00     0.021 C 
ATOM     86  C   UNL     1      -1.493  -3.692   4.269  1.00  0.00     0.004 C 
ENDBRANCH  77  81
ENDBRANCH  73  75
ENDBRANCH  70  73
ENDBRANCH  67  70
ENDBRANCH  63  65
ENDBRANCH  62  63
ENDBRANCH   1  62
TORSDOF 15
