REMARK SMILES CS(=O)(=O)Nc1ccc(-c2cc(Cl)cc3c2O[C@H](C(F)(F)F)C(C(=O)OCCOC(=O)c2ccc(-c4c5nc(c(-c6c(F)cccc6F)c6ccc([nH]6)c(-c6c(F)cccc6F)c6nc(c(-c7c(F)cccc7F)c7ccc4[nH]7)C=C6)C=C5)cc2)=C3)cc1
REMARK SMILES IDX 27 1 26 2 24 3 25 4 23 5 10 6 11 7 16 8 12 9 15 10 17 11
REMARK SMILES IDX 13 12 14 13 86 14 18 15 9 16 6 17 7 18 88 19 8 20 87 21 5 22
REMARK SMILES IDX 2 24 1 25 3 26 4 27 19 28 20 29 21 30 22 31 28 32 29 33
REMARK SMILES IDX 30 34 31 35 32 36 33 37 85 38 34 39 84 40 35 41 36 42 37 43
REMARK SMILES IDX 78 44 38 45 83 46 77 47 79 48 39 49 82 50 76 51 75 52 40 54
REMARK SMILES IDX 66 55 49 56 65 57 50 58 53 59 64 60 80 61 51 62 52 63 63 65
REMARK SMILES IDX 81 66 54 67 41 68 42 69 47 70 43 71 44 72 46 73 48 74 45 75
REMARK SMILES IDX 67 76 68 77 73 78 69 79 70 80 72 81 74 82 71 83 55 84 56 85
REMARK SMILES IDX 61 86 57 87 58 88 60 89 62 90 59 91
REMARK H PARENT 5 23 79 53 53 64
REMARK Flexibility Score: inf
ROOT
ATOM      1  C   UNL     1       8.877   7.385   7.102  1.00  0.00     0.275 C 
ENDROOT
BRANCH   1   2
ATOM      2  O   UNL     1       9.030   6.618   5.878  1.00  0.00    -0.459 OA
BRANCH   2   3
ATOM      3  C   UNL     1       9.043   5.274   6.071  1.00  0.00     0.338 C 
ATOM      4  O   UNL     1       8.868   4.734   7.159  1.00  0.00    -0.246 OA
BRANCH   3   5
ATOM      5  C   UNL     1       9.303   4.471   4.842  1.00  0.00     0.087 C 
ATOM      6  C   UNL     1       6.016   3.528   2.682  1.00  0.00     0.026 A 
ATOM      7  C   UNL     1       5.050   3.622   3.719  1.00  0.00     0.033 A 
ATOM      8  C   UNL     1       7.338   3.544   3.148  1.00  0.00     0.135 A 
ATOM      9  C   UNL     1       5.363   3.531   5.081  1.00  0.00     0.042 A 
ATOM     10  C   UNL     1       7.602   3.161   4.489  1.00  0.00     0.019 A 
ATOM     11  O   UNL     1       8.399   4.164   2.487  1.00  0.00    -0.475 OA
ATOM     12  Cl  UNL     1       4.314   3.964   6.365  1.00  0.00    -0.084 Cl
ATOM     13  C   UNL     1       6.616   3.136   5.455  1.00  0.00     0.032 A 
ATOM     14  C   UNL     1       8.993   3.169   4.973  1.00  0.00     0.027 C 
ATOM     15  C   UNL     1       9.262   5.005   3.422  1.00  0.00     0.316 C 
BRANCH   6  16
ATOM     16  C   UNL     1       5.439   3.177   1.331  1.00  0.00    -0.014 A 
ATOM     17  C   UNL     1       3.247   2.427  -0.400  1.00  0.00     0.048 A 
ATOM     18  C   UNL     1       3.700   3.745  -0.326  1.00  0.00     0.027 A 
ATOM     19  C   UNL     1       3.987   1.463   0.273  1.00  0.00     0.027 A 
ATOM     20  C   UNL     1       4.819   4.100   0.474  1.00  0.00     0.011 A 
ATOM     21  C   UNL     1       5.055   1.834   1.126  1.00  0.00     0.011 A 
BRANCH  17  22
ATOM     22  N   UNL     1       1.972   2.174  -0.994  1.00  0.00    -0.284 N 
ATOM     23  H   UNL     1       1.292   2.881  -0.905  1.00  0.00     0.180 HD
BRANCH  22  24
ATOM     24  S   UNL     1       1.523   0.797  -1.822  1.00  0.00     0.229 S 
ATOM     25  C   UNL     1       1.167  -0.363  -0.528  1.00  0.00     0.183 C 
ATOM     26  O   UNL     1       2.648   0.296  -2.589  1.00  0.00    -0.207 OA
ATOM     27  O   UNL     1       0.264   1.100  -2.459  1.00  0.00    -0.207 OA
ENDBRANCH  22  24
ENDBRANCH  17  22
ENDBRANCH   6  16
BRANCH  15  28
ATOM     28  C   UNL     1      10.728   5.017   2.962  1.00  0.00     0.430 C 
ATOM     29  F   UNL     1      11.225   3.761   2.844  1.00  0.00    -0.167 F 
ATOM     30  F   UNL     1      10.893   5.638   1.777  1.00  0.00    -0.167 F 
ATOM     31  F   UNL     1      11.515   5.664   3.862  1.00  0.00    -0.167 F 
ENDBRANCH  15  28
ENDBRANCH   3   5
ENDBRANCH   2   3
ENDBRANCH   1   2
BRANCH   1  32
ATOM     32  C   UNL     1       7.876   8.541   6.994  1.00  0.00     0.275 C 
BRANCH  32  33
ATOM     33  O   UNL     1       6.606   8.121   6.464  1.00  0.00    -0.458 OA
BRANCH  33  34
ATOM     34  C   UNL     1       6.493   8.282   5.123  1.00  0.00     0.338 C 
ATOM     35  O   UNL     1       7.352   8.736   4.381  1.00  0.00    -0.246 OA
BRANCH  34  36
ATOM     36  C   UNL     1       5.228   7.703   4.606  1.00  0.00     0.060 A 
ATOM     37  C   UNL     1       5.279   7.181   3.321  1.00  0.00     0.016 A 
ATOM     38  C   UNL     1       4.008   7.668   5.299  1.00  0.00     0.016 A 
ATOM     39  C   UNL     1       4.142   6.588   2.772  1.00  0.00     0.010 A 
ATOM     40  C   UNL     1       2.865   7.047   4.729  1.00  0.00     0.010 A 
ATOM     41  C   UNL     1       2.924   6.457   3.462  1.00  0.00    -0.014 A 
BRANCH  41  42
ATOM     42  C   UNL     1       1.789   5.755   2.745  1.00  0.00     0.031 A 
ATOM     43  C   UNL     1       1.296   6.337   1.451  1.00  0.00     0.074 A 
ATOM     44  C   UNL     1       1.326   4.523   3.075  1.00  0.00     0.049 A 
ATOM     45  N   UNL     1       0.477   5.817   0.573  1.00  0.00    -0.248 NA
ATOM     46  C   UNL     1       1.806   7.669   1.092  1.00  0.00     0.031 C 
ATOM     47  C   UNL     1       1.734   3.787   4.252  1.00  0.00     0.029 A 
ATOM     48  N   UNL     1       0.489   3.625   2.437  1.00  0.00    -0.354 N 
ATOM     49  C   UNL     1       0.368   6.760  -0.435  1.00  0.00     0.074 A 
ATOM     50  C   UNL     1       1.240   7.861  -0.088  1.00  0.00     0.031 C 
ATOM     51  C   UNL     1       1.330   2.511   4.176  1.00  0.00     0.029 A 
ATOM     52  C   UNL     1       0.425   2.379   3.043  1.00  0.00     0.049 A 
ATOM     53  H   UNL     1      -0.018   3.851   1.623  1.00  0.00     0.167 HD
ATOM     54  C   UNL     1      -0.424   6.738  -1.530  1.00  0.00     0.037 A 
ATOM     55  C   UNL     1      -0.316   1.276   2.778  1.00  0.00     0.037 A 
ATOM     56  C   UNL     1      -1.379   5.709  -1.832  1.00  0.00     0.049 A 
ATOM     57  C   UNL     1      -1.311   1.360   1.647  1.00  0.00     0.074 A 
ATOM     58  C   UNL     1      -2.282   5.664  -2.879  1.00  0.00     0.029 A 
ATOM     59  N   UNL     1      -1.586   4.566  -1.076  1.00  0.00    -0.354 N 
ATOM     60  N   UNL     1      -1.437   2.290   0.732  1.00  0.00    -0.248 NA
ATOM     61  C   UNL     1      -2.284   0.264   1.523  1.00  0.00     0.031 C 
ATOM     62  C   UNL     1      -3.067   4.518  -2.729  1.00  0.00     0.029 A 
ATOM     63  C   UNL     1      -2.602   3.808  -1.635  1.00  0.00     0.049 A 
ATOM     64  H   UNL     1      -1.086   4.329  -0.262  1.00  0.00     0.167 HD
ATOM     65  C   UNL     1      -2.496   1.890  -0.076  1.00  0.00     0.074 A 
ATOM     66  C   UNL     1      -2.947   0.611   0.429  1.00  0.00     0.031 C 
ATOM     67  C   UNL     1      -3.050   2.533  -1.133  1.00  0.00     0.037 A 
BRANCH  54  68
ATOM     68  C   UNL     1      -0.347   7.934  -2.422  1.00  0.00     0.057 A 
ATOM     69  C   UNL     1       0.746   8.152  -3.269  1.00  0.00     0.134 A 
ATOM     70  C   UNL     1      -1.364   8.897  -2.403  1.00  0.00     0.134 A 
ATOM     71  F   UNL     1       1.767   7.282  -3.297  1.00  0.00    -0.206 F 
ATOM     72  C   UNL     1       0.834   9.300  -4.056  1.00  0.00     0.040 A 
ATOM     73  C   UNL     1      -1.297  10.037  -3.201  1.00  0.00     0.040 A 
ATOM     74  F   UNL     1      -2.426   8.748  -1.598  1.00  0.00    -0.206 F 
ATOM     75  C   UNL     1      -0.193  10.244  -4.025  1.00  0.00     0.006 A 
ENDBRANCH  54  68
BRANCH  55  76
ATOM     76  C   UNL     1      -0.242   0.033   3.626  1.00  0.00     0.057 A 
ATOM     77  C   UNL     1       0.020  -1.239   3.086  1.00  0.00     0.134 A 
ATOM     78  C   UNL     1      -0.499   0.064   5.004  1.00  0.00     0.134 A 
ATOM     79  F   UNL     1       0.204  -1.398   1.771  1.00  0.00    -0.206 F 
ATOM     80  C   UNL     1       0.038  -2.402   3.863  1.00  0.00     0.040 A 
ATOM     81  C   UNL     1      -0.448  -1.085   5.802  1.00  0.00     0.040 A 
ATOM     82  F   UNL     1      -0.811   1.219   5.609  1.00  0.00    -0.206 F 
ATOM     83  C   UNL     1      -0.185  -2.325   5.231  1.00  0.00     0.006 A 
ENDBRANCH  55  76
BRANCH  67  84
ATOM     84  C   UNL     1      -4.179   1.851  -1.855  1.00  0.00     0.057 A 
ATOM     85  C   UNL     1      -5.447   1.693  -1.282  1.00  0.00     0.134 A 
ATOM     86  C   UNL     1      -4.008   1.393  -3.169  1.00  0.00     0.134 A 
ATOM     87  F   UNL     1      -5.682   2.100  -0.025  1.00  0.00    -0.206 F 
ATOM     88  C   UNL     1      -6.495   1.086  -1.980  1.00  0.00     0.040 A 
ATOM     89  C   UNL     1      -5.054   0.812  -3.887  1.00  0.00     0.040 A 
ATOM     90  F   UNL     1      -2.828   1.529  -3.791  1.00  0.00    -0.206 F 
ATOM     91  C   UNL     1      -6.301   0.651  -3.289  1.00  0.00     0.006 A 
ENDBRANCH  67  84
ENDBRANCH  41  42
ENDBRANCH  34  36
ENDBRANCH  33  34
ENDBRANCH  32  33
ENDBRANCH   1  32
TORSDOF 15
