REMARK SMILES COCCCN1C(=O)CC[C@@H](C(=O)OCCOC(=O)c2ccc(-c3c4nc(c(-c5c(F)cccc5F)c5ccc([nH]5)c(-c5c(F)cccc5F)c5nc(c(-c6c(F)cccc6F)c6ccc3[nH]6)C=C5)C=C4)cc2)[C@@H]1c1ccc(F)cc1
REMARK SMILES IDX 15 1 14 2 12 3 13 4 11 5 6 6 7 7 74 8 8 9 9 10 10 11 5 12
REMARK SMILES IDX 4 13 3 14 2 15 1 16 75 17 76 18 81 19 77 20 80 21 78 22
REMARK SMILES IDX 79 23 16 24 17 25 18 26 19 27 20 28 21 29 73 30 22 31 72 32
REMARK SMILES IDX 23 33 24 34 25 35 66 36 26 37 71 38 65 39 67 40 27 41 70 42
REMARK SMILES IDX 64 43 63 44 28 46 54 47 37 48 53 49 38 50 41 51 52 52 68 53
REMARK SMILES IDX 39 54 40 55 51 57 69 58 42 59 29 60 30 61 35 62 31 63 32 64
REMARK SMILES IDX 34 65 36 66 33 67 55 68 56 69 61 70 57 71 58 72 60 73 62 74
REMARK SMILES IDX 59 75 43 76 44 77 49 78 45 79 46 80 48 81 50 82 47 83
REMARK H PARENT 67 45 41 56
REMARK Flexibility Score: inf
ROOT
ATOM      1  C   UNL     1       4.321   4.003  -3.162  1.00  0.00     0.274 C 
ENDROOT
BRANCH   1   2
ATOM      2  O   UNL     1       4.320   4.286  -1.741  1.00  0.00    -0.462 OA
BRANCH   2   3
ATOM      3  C   UNL     1       4.047   3.229  -0.926  1.00  0.00     0.311 C 
ATOM      4  O   UNL     1       3.841   2.090  -1.320  1.00  0.00    -0.252 OA
BRANCH   3   5
ATOM      5  C   UNL     1       4.020   3.647   0.536  1.00  0.00     0.127 C 
ATOM      6  N   UNL     1       1.861   2.526   1.002  1.00  0.00    -0.335 N 
ATOM      7  C   UNL     1       2.461   1.356   1.451  1.00  0.00     0.223 C 
ATOM      8  C   UNL     1       2.568   3.820   1.011  1.00  0.00     0.129 C 
ATOM      9  O   UNL     1       1.823   0.334   1.703  1.00  0.00    -0.275 OA
ATOM     10  C   UNL     1       3.975   1.322   1.560  1.00  0.00     0.101 C 
ATOM     11  C   UNL     1       4.712   2.648   1.466  1.00  0.00     0.028 C 
BRANCH   6  12
ATOM     12  C   UNL     1       0.429   2.515   0.671  1.00  0.00     0.122 C 
BRANCH  12  13
ATOM     13  C   UNL     1       0.147   2.625  -0.831  1.00  0.00     0.050 C 
BRANCH  13  14
ATOM     14  C   UNL     1       0.594   1.428  -1.668  1.00  0.00     0.161 C 
BRANCH  14  15
ATOM     15  O   UNL     1      -0.312   0.331  -1.568  1.00  0.00    -0.385 OA
ATOM     16  C   UNL     1       0.171  -0.725  -0.745  1.00  0.00     0.194 C 
ENDBRANCH  14  15
ENDBRANCH  13  14
ENDBRANCH  12  13
ENDBRANCH   6  12
BRANCH   8  17
ATOM     17  C   UNL     1       2.538   4.490   2.401  1.00  0.00    -0.024 A 
ATOM     18  C   UNL     1       2.010   3.848   3.539  1.00  0.00     0.009 A 
ATOM     19  C   UNL     1       3.146   5.749   2.579  1.00  0.00     0.009 A 
ATOM     20  C   UNL     1       2.143   4.408   4.811  1.00  0.00     0.039 A 
ATOM     21  C   UNL     1       3.285   6.304   3.854  1.00  0.00     0.039 A 
ATOM     22  C   UNL     1       2.793   5.623   4.959  1.00  0.00     0.123 A 
ATOM     23  F   UNL     1       2.953   6.143   6.182  1.00  0.00    -0.207 F 
ENDBRANCH   8  17
ENDBRANCH   3   5
ENDBRANCH   2   3
ENDBRANCH   1   2
BRANCH   1  24
ATOM     24  C   UNL     1       5.721   3.645  -3.666  1.00  0.00     0.275 C 
BRANCH  24  25
ATOM     25  O   UNL     1       6.091   2.361  -3.142  1.00  0.00    -0.458 OA
BRANCH  25  26
ATOM     26  C   UNL     1       7.397   2.183  -2.838  1.00  0.00     0.338 C 
ATOM     27  O   UNL     1       8.322   2.946  -3.045  1.00  0.00    -0.246 OA
BRANCH  26  28
ATOM     28  C   UNL     1       7.524   0.903  -2.118  1.00  0.00     0.060 A 
ATOM     29  C   UNL     1       6.838   0.756  -0.915  1.00  0.00     0.016 A 
ATOM     30  C   UNL     1       8.362  -0.112  -2.570  1.00  0.00     0.016 A 
ATOM     31  C   UNL     1       6.987  -0.387  -0.139  1.00  0.00     0.010 A 
ATOM     32  C   UNL     1       8.486  -1.285  -1.812  1.00  0.00     0.010 A 
ATOM     33  C   UNL     1       7.811  -1.422  -0.584  1.00  0.00    -0.014 A 
BRANCH  33  34
ATOM     34  C   UNL     1       8.038  -2.594   0.295  1.00  0.00     0.031 A 
ATOM     35  C   UNL     1       9.354  -2.734   1.003  1.00  0.00     0.074 A 
ATOM     36  C   UNL     1       7.056  -3.484   0.527  1.00  0.00     0.049 A 
ATOM     37  N   UNL     1       9.813  -3.734   1.709  1.00  0.00    -0.248 NA
ATOM     38  C   UNL     1      10.268  -1.585   0.914  1.00  0.00     0.031 C 
ATOM     39  C   UNL     1       5.691  -3.399   0.007  1.00  0.00     0.029 A 
ATOM     40  N   UNL     1       7.057  -4.635   1.277  1.00  0.00    -0.354 N 
ATOM     41  C   UNL     1      11.081  -3.350   2.123  1.00  0.00     0.074 A 
ATOM     42  C   UNL     1      11.318  -2.023   1.594  1.00  0.00     0.031 C 
ATOM     43  C   UNL     1       4.986  -4.451   0.457  1.00  0.00     0.029 A 
ATOM     44  C   UNL     1       5.864  -5.315   1.241  1.00  0.00     0.049 A 
ATOM     45  H   UNL     1       7.838  -4.943   1.791  1.00  0.00     0.167 HD
ATOM     46  C   UNL     1      11.969  -4.045   2.870  1.00  0.00     0.037 A 
ATOM     47  C   UNL     1       5.533  -6.518   1.747  1.00  0.00     0.037 A 
ATOM     48  C   UNL     1      11.728  -5.356   3.408  1.00  0.00     0.049 A 
ATOM     49  C   UNL     1       6.573  -7.321   2.480  1.00  0.00     0.074 A 
ATOM     50  C   UNL     1      12.584  -6.163   4.137  1.00  0.00     0.029 A 
ATOM     51  N   UNL     1      10.534  -6.048   3.282  1.00  0.00    -0.354 N 
ATOM     52  N   UNL     1       7.804  -6.993   2.790  1.00  0.00    -0.248 NA
ATOM     53  C   UNL     1       6.186  -8.672   2.910  1.00  0.00     0.031 C 
ATOM     54  C   UNL     1      11.916  -7.358   4.427  1.00  0.00     0.029 A 
ATOM     55  C   UNL     1      10.634  -7.280   3.907  1.00  0.00     0.049 A 
ATOM     56  H   UNL     1       9.733  -5.714   2.817  1.00  0.00     0.167 HD
ATOM     57  C   UNL     1       8.334  -8.089   3.458  1.00  0.00     0.074 A 
ATOM     58  C   UNL     1       7.286  -9.086   3.524  1.00  0.00     0.031 C 
ATOM     59  C   UNL     1       9.579  -8.257   3.966  1.00  0.00     0.037 A 
BRANCH  46  60
ATOM     60  C   UNL     1      13.306  -3.413   3.098  1.00  0.00     0.057 A 
ATOM     61  C   UNL     1      13.492  -2.384   4.029  1.00  0.00     0.134 A 
ATOM     62  C   UNL     1      14.424  -3.846   2.375  1.00  0.00     0.134 A 
ATOM     63  F   UNL     1      12.454  -1.911   4.735  1.00  0.00    -0.206 F 
ATOM     64  C   UNL     1      14.743  -1.796   4.221  1.00  0.00     0.040 A 
ATOM     65  C   UNL     1      15.683  -3.279   2.571  1.00  0.00     0.040 A 
ATOM     66  F   UNL     1      14.309  -4.826   1.466  1.00  0.00    -0.206 F 
ATOM     67  C   UNL     1      15.844  -2.247   3.494  1.00  0.00     0.006 A 
ENDBRANCH  46  60
BRANCH  47  68
ATOM     68  C   UNL     1       4.175  -7.073   1.525  1.00  0.00     0.057 A 
ATOM     69  C   UNL     1       3.274  -7.236   2.584  1.00  0.00     0.134 A 
ATOM     70  C   UNL     1       3.757  -7.485   0.254  1.00  0.00     0.134 A 
ATOM     71  F   UNL     1       3.628  -6.890   3.830  1.00  0.00    -0.206 F 
ATOM     72  C   UNL     1       2.010  -7.796   2.388  1.00  0.00     0.040 A 
ATOM     73  C   UNL     1       2.489  -8.025   0.039  1.00  0.00     0.040 A 
ATOM     74  F   UNL     1       4.578  -7.365  -0.800  1.00  0.00    -0.206 F 
ATOM     75  C   UNL     1       1.613  -8.187   1.110  1.00  0.00     0.006 A 
ENDBRANCH  47  68
BRANCH  59  76
ATOM     76  C   UNL     1       9.867  -9.557   4.653  1.00  0.00     0.057 A 
ATOM     77  C   UNL     1      10.098 -10.733   3.929  1.00  0.00     0.134 A 
ATOM     78  C   UNL     1       9.956  -9.623   6.048  1.00  0.00     0.134 A 
ATOM     79  F   UNL     1      10.014 -10.735   2.590  1.00  0.00    -0.206 F 
ATOM     80  C   UNL     1      10.394 -11.935   4.572  1.00  0.00     0.040 A 
ATOM     81  C   UNL     1      10.270 -10.815   6.702  1.00  0.00     0.040 A 
ATOM     82  F   UNL     1       9.751  -8.529   6.797  1.00  0.00    -0.206 F 
ATOM     83  C   UNL     1      10.487 -11.977   5.963  1.00  0.00     0.006 A 
ENDBRANCH  59  76
ENDBRANCH  33  34
ENDBRANCH  26  28
ENDBRANCH  25  26
ENDBRANCH  24  25
ENDBRANCH   1  24
TORSDOF 16
