REMARK SMILES O=C(OCCOC(=O)[C@H]1COCCN1C(=O)c1ccc(Br)nc1)c1ccc(-c2c3nc(c(-c4c(F)cccc4F)c4ccc([nH]4)c(-c4c(F)cccc4F)c4nc(c(-c5c(F)cccc5F)c5ccc2[nH]5)C=C4)C=C3)cc1
REMARK SMILES IDX 4 1 3 2 2 3 1 4 24 5 25 6 77 7 26 8 76 9 27 10 28 11 29 12
REMARK SMILES IDX 70 13 30 14 75 15 69 16 71 17 31 18 74 19 68 20 67 21 32 23
REMARK SMILES IDX 58 24 41 25 57 26 42 27 45 28 56 29 72 30 43 31 44 32 55 34
REMARK SMILES IDX 73 35 46 36 33 37 34 38 39 39 35 40 36 41 38 42 40 43 37 44
REMARK SMILES IDX 59 45 60 46 65 47 61 48 62 49 64 50 66 51 63 52 47 53 48 54
REMARK SMILES IDX 53 55 49 56 50 57 52 58 54 59 51 60 5 61 6 62 7 63 8 64 9 65
REMARK SMILES IDX 10 66 14 67 11 68 13 69 12 70 15 71 16 72 17 73 18 74 23 75
REMARK SMILES IDX 19 76 22 77 20 78 21 79
REMARK H PARENT 71 22 45 33
REMARK Flexibility Score: inf
ROOT
ATOM      1  C   UNL     1      -1.841  -0.328  -3.064  1.00  0.00     0.275 C 
ENDROOT
BRANCH   1   2
ATOM      2  O   UNL     1      -1.641   0.346  -1.819  1.00  0.00    -0.458 OA
BRANCH   2   3
ATOM      3  C   UNL     1      -0.663   0.174  -0.908  1.00  0.00     0.338 C 
ATOM      4  O   UNL     1      -0.636   0.945   0.052  1.00  0.00    -0.246 OA
BRANCH   3   5
ATOM      5  C   UNL     1       0.466  -0.818  -1.030  1.00  0.00     0.060 A 
ATOM      6  C   UNL     1       0.716  -1.762  -2.041  1.00  0.00     0.016 A 
ATOM      7  C   UNL     1       1.445  -0.687  -0.046  1.00  0.00     0.016 A 
ATOM      8  C   UNL     1       1.955  -2.419  -2.166  1.00  0.00     0.010 A 
ATOM      9  C   UNL     1       2.665  -1.342  -0.166  1.00  0.00     0.010 A 
ATOM     10  C   UNL     1       2.962  -2.180  -1.245  1.00  0.00    -0.014 A 
BRANCH  10  11
ATOM     11  C   UNL     1       4.264  -2.895  -1.240  1.00  0.00     0.031 A 
ATOM     12  C   UNL     1       4.559  -3.753  -0.045  1.00  0.00     0.074 A 
ATOM     13  C   UNL     1       5.216  -2.688  -2.172  1.00  0.00     0.049 A 
ATOM     14  N   UNL     1       5.691  -4.262   0.355  1.00  0.00    -0.248 NA
ATOM     15  C   UNL     1       3.429  -3.984   0.871  1.00  0.00     0.031 C 
ATOM     16  C   UNL     1       5.076  -1.861  -3.367  1.00  0.00     0.029 A 
ATOM     17  N   UNL     1       6.512  -3.141  -2.240  1.00  0.00    -0.354 N 
ATOM     18  C   UNL     1       5.411  -4.817   1.596  1.00  0.00     0.074 A 
ATOM     19  C   UNL     1       4.053  -4.461   1.931  1.00  0.00     0.031 C 
ATOM     20  C   UNL     1       6.241  -1.848  -4.040  1.00  0.00     0.029 A 
ATOM     21  C   UNL     1       7.216  -2.666  -3.323  1.00  0.00     0.049 A 
ATOM     22  H   UNL     1       6.902  -3.751  -1.573  1.00  0.00     0.167 HD
ATOM     23  C   UNL     1       6.188  -5.614   2.363  1.00  0.00     0.037 A 
ATOM     24  C   UNL     1       8.496  -2.880  -3.692  1.00  0.00     0.037 A 
ATOM     25  C   UNL     1       7.502  -6.034   1.977  1.00  0.00     0.049 A 
ATOM     26  C   UNL     1       9.349  -3.802  -2.855  1.00  0.00     0.074 A 
ATOM     27  C   UNL     1       8.354  -6.910   2.621  1.00  0.00     0.029 A 
ATOM     28  N   UNL     1       8.148  -5.609   0.825  1.00  0.00    -0.354 N 
ATOM     29  N   UNL     1       9.050  -4.396  -1.724  1.00  0.00    -0.248 NA
ATOM     30  C   UNL     1      10.699  -4.106  -3.352  1.00  0.00     0.031 C 
ATOM     31  C   UNL     1       9.533  -6.988   1.873  1.00  0.00     0.029 A 
ATOM     32  C   UNL     1       9.393  -6.199   0.739  1.00  0.00     0.049 A 
ATOM     33  H   UNL     1       7.774  -4.980   0.166  1.00  0.00     0.167 HD
ATOM     34  C   UNL     1      10.151  -5.182  -1.401  1.00  0.00     0.074 A 
ATOM     35  C   UNL     1      11.129  -4.979  -2.450  1.00  0.00     0.031 C 
ATOM     36  C   UNL     1      10.330  -6.007  -0.340  1.00  0.00     0.037 A 
BRANCH  23  37
ATOM     37  C   UNL     1       5.597  -6.067   3.665  1.00  0.00     0.057 A 
ATOM     38  C   UNL     1       4.460  -6.889   3.719  1.00  0.00     0.134 A 
ATOM     39  C   UNL     1       6.106  -5.590   4.877  1.00  0.00     0.134 A 
ATOM     40  F   UNL     1       3.909  -7.364   2.590  1.00  0.00    -0.206 F 
ATOM     41  C   UNL     1       3.801  -7.146   4.921  1.00  0.00     0.040 A 
ATOM     42  C   UNL     1       5.481  -5.879   6.091  1.00  0.00     0.040 A 
ATOM     43  F   UNL     1       7.197  -4.811   4.900  1.00  0.00    -0.206 F 
ATOM     44  C   UNL     1       4.311  -6.638   6.112  1.00  0.00     0.006 A 
ENDBRANCH  23  37
BRANCH  24  45
ATOM     45  C   UNL     1       9.034  -2.269  -4.939  1.00  0.00     0.057 A 
ATOM     46  C   UNL     1       9.279  -3.047  -6.078  1.00  0.00     0.134 A 
ATOM     47  C   UNL     1       9.322  -0.902  -5.024  1.00  0.00     0.134 A 
ATOM     48  F   UNL     1       9.040  -4.367  -6.056  1.00  0.00    -0.206 F 
ATOM     49  C   UNL     1       9.806  -2.494  -7.248  1.00  0.00     0.040 A 
ATOM     50  C   UNL     1       9.832  -0.331  -6.195  1.00  0.00     0.040 A 
ATOM     51  F   UNL     1       9.103  -0.098  -3.974  1.00  0.00    -0.206 F 
ATOM     52  C   UNL     1      10.080  -1.130  -7.310  1.00  0.00     0.006 A 
ENDBRANCH  24  45
BRANCH  36  53
ATOM     53  C   UNL     1      11.593  -6.813  -0.277  1.00  0.00     0.057 A 
ATOM     54  C   UNL     1      12.816  -6.246   0.093  1.00  0.00     0.134 A 
ATOM     55  C   UNL     1      11.544  -8.203  -0.453  1.00  0.00     0.134 A 
ATOM     56  F   UNL     1      12.927  -4.921   0.268  1.00  0.00    -0.206 F 
ATOM     57  C   UNL     1      13.950  -7.036   0.293  1.00  0.00     0.040 A 
ATOM     58  C   UNL     1      12.663  -9.005  -0.232  1.00  0.00     0.040 A 
ATOM     59  F   UNL     1      10.396  -8.806  -0.797  1.00  0.00    -0.206 F 
ATOM     60  C   UNL     1      13.870  -8.421   0.146  1.00  0.00     0.006 A 
ENDBRANCH  36  53
ENDBRANCH  10  11
ENDBRANCH   3   5
ENDBRANCH   2   3
ENDBRANCH   1   2
BRANCH   1  61
ATOM     61  C   UNL     1      -0.952   0.207  -4.197  1.00  0.00     0.274 C 
BRANCH  61  62
ATOM     62  O   UNL     1       0.449   0.326  -3.851  1.00  0.00    -0.460 OA
BRANCH  62  63
ATOM     63  C   UNL     1       0.880   1.557  -3.417  1.00  0.00     0.331 C 
ATOM     64  O   UNL     1       0.147   2.528  -3.334  1.00  0.00    -0.250 OA
BRANCH  63  65
ATOM     65  C   UNL     1       2.394   1.522  -3.026  1.00  0.00     0.221 C 
ATOM     66  C   UNL     1       3.208   1.208  -4.292  1.00  0.00     0.197 C 
ATOM     67  N   UNL     1       2.904   2.796  -2.447  1.00  0.00    -0.320 N 
ATOM     68  O   UNL     1       3.171   2.291  -5.236  1.00  0.00    -0.377 OA
ATOM     69  C   UNL     1       2.906   3.907  -3.405  1.00  0.00     0.149 C 
ATOM     70  C   UNL     1       3.685   3.504  -4.659  1.00  0.00     0.181 C 
BRANCH  67  71
ATOM     71  C   UNL     1       3.373   3.065  -1.166  1.00  0.00     0.256 C 
ATOM     72  O   UNL     1       3.587   4.213  -0.772  1.00  0.00    -0.269 OA
BRANCH  71  73
ATOM     73  C   UNL     1       3.755   2.021  -0.202  1.00  0.00     0.058 A 
ATOM     74  C   UNL     1       4.883   1.215  -0.384  1.00  0.00     0.018 A 
ATOM     75  C   UNL     1       3.195   2.069   1.070  1.00  0.00     0.126 A 
ATOM     76  C   UNL     1       5.382   0.481   0.703  1.00  0.00     0.037 A 
ATOM     77  N   UNL     1       3.627   1.327   2.125  1.00  0.00    -0.249 NA
ATOM     78  C   UNL     1       4.728   0.568   1.928  1.00  0.00     0.106 A 
ATOM     79  Br  UNL     1       5.322  -0.506   3.375  1.00  0.00    -0.029 Br
ENDBRANCH  71  73
ENDBRANCH  67  71
ENDBRANCH  63  65
ENDBRANCH  62  63
ENDBRANCH  61  62
ENDBRANCH   1  61
TORSDOF 13
