REMARK SMILES C[NH2+][C@@]1(C(=O)OCCOC(=O)c2ccc(-c3c4nc(c(-c5c(F)cccc5F)c5ccc([nH]5)c(-c5c(F)cccc5F)c5nc(c(-c6c(F)cccc6F)c6ccc3[nH]6)C=C5)C=C4)cc2)CCC[C@H]1CCSc1nccc(=O)[nH]1
REMARK SMILES IDX 7 1 6 2 4 3 5 4 3 5 66 6 69 7 67 8 68 9 2 10 1 11 70 14
REMARK SMILES IDX 71 15 72 16 73 17 74 18 79 19 75 20 77 21 76 23 78 24 8 25
REMARK SMILES IDX 9 26 10 27 11 28 12 29 13 30 65 31 14 32 64 33 15 34 16 35
REMARK SMILES IDX 17 36 58 37 18 38 63 39 57 40 59 41 19 42 62 43 56 44 55 45
REMARK SMILES IDX 20 47 46 48 29 49 45 50 30 51 33 52 44 53 60 54 31 55 32 56
REMARK SMILES IDX 43 58 61 59 34 60 21 61 22 62 27 63 23 64 24 65 26 66 28 67
REMARK SMILES IDX 25 68 47 69 48 70 53 71 49 72 50 73 52 74 54 75 51 76 35 77
REMARK SMILES IDX 36 78 41 79 37 80 38 81 40 82 42 83 39 84
REMARK H PARENT 2 12 2 13 79 22 59 46 33 57
REMARK Flexibility Score: inf
ROOT
ATOM      1  C   UNL     1      -2.760   1.044   4.271  1.00  0.00     0.274 C 
ENDROOT
BRANCH   1   2
ATOM      2  O   UNL     1      -2.497   0.451   2.982  1.00  0.00    -0.457 OA
BRANCH   2   3
ATOM      3  C   UNL     1      -1.765   1.188   2.101  1.00  0.00     0.368 C 
ATOM      4  O   UNL     1      -1.390   2.336   2.332  1.00  0.00    -0.245 OA
BRANCH   3   5
ATOM      5  C   UNL     1      -1.418   0.422   0.755  1.00  0.00     0.197 C 
ATOM      6  C   UNL     1      -2.096   1.226  -0.372  1.00  0.00     0.081 C 
ATOM      7  C   UNL     1      -2.099  -0.984   0.635  1.00  0.00     0.063 C 
ATOM      8  C   UNL     1      -3.552   0.801  -0.282  1.00  0.00     0.008 C 
ATOM      9  C   UNL     1      -3.492  -0.690   0.016  1.00  0.00     0.011 C 
BRANCH   5  10
ATOM     10  N   UNL     1       0.053   0.387   0.731  1.00  0.00    -0.334 N 
ATOM     11  C   UNL     1       0.752   0.717  -0.488  1.00  0.00     0.331 C 
ATOM     12  H   UNL     1       0.378   1.040   1.445  1.00  0.00     0.347 HD
ATOM     13  H   UNL     1       0.272  -0.599   0.874  1.00  0.00     0.347 HD
ENDBRANCH   5  10
BRANCH   7  14
ATOM     14  C   UNL     1      -1.397  -2.064  -0.237  1.00  0.00     0.022 C 
BRANCH  14  15
ATOM     15  C   UNL     1      -0.206  -2.774   0.428  1.00  0.00     0.079 C 
BRANCH  15  16
ATOM     16  S   UNL     1      -0.411  -4.589   0.540  1.00  0.00    -0.088 SA
BRANCH  16  17
ATOM     17  C   UNL     1      -1.307  -4.688   2.025  1.00  0.00     0.168 A 
ATOM     18  N   UNL     1      -2.174  -3.799   2.368  1.00  0.00    -0.233 NA
ATOM     19  N   UNL     1      -0.999  -5.784   2.766  1.00  0.00    -0.301 N 
ATOM     20  C   UNL     1      -2.726  -3.936   3.613  1.00  0.00     0.120 A 
ATOM     21  C   UNL     1      -1.578  -6.008   3.978  1.00  0.00     0.251 A 
ATOM     22  H   UNL     1      -0.343  -6.430   2.419  1.00  0.00     0.172 HD
ATOM     23  C   UNL     1      -2.487  -4.951   4.447  1.00  0.00     0.091 A 
ATOM     24  O   UNL     1      -1.361  -7.007   4.653  1.00  0.00    -0.269 OA
ENDBRANCH  16  17
ENDBRANCH  15  16
ENDBRANCH  14  15
ENDBRANCH   7  14
ENDBRANCH   3   5
ENDBRANCH   2   3
ENDBRANCH   1   2
BRANCH   1  25
ATOM     25  C   UNL     1      -2.158   0.203   5.399  1.00  0.00     0.275 C 
BRANCH  25  26
ATOM     26  O   UNL     1      -0.718   0.196   5.344  1.00  0.00    -0.458 OA
BRANCH  26  27
ATOM     27  C   UNL     1      -0.214  -0.830   4.628  1.00  0.00     0.338 C 
ATOM     28  O   UNL     1      -0.831  -1.710   4.056  1.00  0.00    -0.246 OA
BRANCH  27  29
ATOM     29  C   UNL     1       1.243  -0.797   4.546  1.00  0.00     0.060 A 
ATOM     30  C   UNL     1       1.813  -0.134   3.465  1.00  0.00     0.016 A 
ATOM     31  C   UNL     1       2.003  -1.643   5.355  1.00  0.00     0.016 A 
ATOM     32  C   UNL     1       3.135  -0.391   3.128  1.00  0.00     0.010 A 
ATOM     33  C   UNL     1       3.364  -1.809   5.082  1.00  0.00     0.010 A 
ATOM     34  C   UNL     1       3.936  -1.198   3.956  1.00  0.00    -0.014 A 
BRANCH  34  35
ATOM     35  C   UNL     1       5.394  -1.271   3.694  1.00  0.00     0.031 A 
ATOM     36  C   UNL     1       6.079  -2.554   3.323  1.00  0.00     0.074 A 
ATOM     37  C   UNL     1       6.097  -0.124   3.780  1.00  0.00     0.049 A 
ATOM     38  N   UNL     1       7.354  -2.770   3.115  1.00  0.00    -0.248 NA
ATOM     39  C   UNL     1       5.235  -3.748   3.171  1.00  0.00     0.031 C 
ATOM     40  C   UNL     1       5.529   1.181   4.133  1.00  0.00     0.029 A 
ATOM     41  N   UNL     1       7.421   0.142   3.555  1.00  0.00    -0.354 N 
ATOM     42  C   UNL     1       7.473  -4.126   2.841  1.00  0.00     0.074 A 
ATOM     43  C   UNL     1       6.138  -4.685   2.905  1.00  0.00     0.031 C 
ATOM     44  C   UNL     1       6.479   2.117   4.030  1.00  0.00     0.029 A 
ATOM     45  C   UNL     1       7.740   1.470   3.696  1.00  0.00     0.049 A 
ATOM     46  H   UNL     1       8.079  -0.550   3.315  1.00  0.00     0.167 HD
ATOM     47  C   UNL     1       8.598  -4.833   2.571  1.00  0.00     0.037 A 
ATOM     48  C   UNL     1       8.923   2.101   3.599  1.00  0.00     0.037 A 
ATOM     49  C   UNL     1       9.919  -4.258   2.492  1.00  0.00     0.049 A 
ATOM     50  C   UNL     1      10.146   1.294   3.304  1.00  0.00     0.074 A 
ATOM     51  C   UNL     1      11.122  -4.888   2.220  1.00  0.00     0.029 A 
ATOM     52  N   UNL     1      10.209  -2.914   2.679  1.00  0.00    -0.354 N 
ATOM     53  N   UNL     1      10.246   0.006   3.081  1.00  0.00    -0.248 NA
ATOM     54  C   UNL     1      11.422   2.018   3.273  1.00  0.00     0.031 C 
ATOM     55  C   UNL     1      12.142  -3.931   2.273  1.00  0.00     0.029 A 
ATOM     56  C   UNL     1      11.572  -2.698   2.543  1.00  0.00     0.049 A 
ATOM     57  H   UNL     1       9.544  -2.216   2.880  1.00  0.00     0.167 HD
ATOM     58  C   UNL     1      11.597  -0.239   2.893  1.00  0.00     0.074 A 
ATOM     59  C   UNL     1      12.273   1.040   2.996  1.00  0.00     0.031 C 
ATOM     60  C   UNL     1      12.222  -1.419   2.668  1.00  0.00     0.037 A 
BRANCH  47  61
ATOM     61  C   UNL     1       8.463  -6.314   2.374  1.00  0.00     0.057 A 
ATOM     62  C   UNL     1       7.954  -6.863   1.191  1.00  0.00     0.134 A 
ATOM     63  C   UNL     1       8.907  -7.206   3.360  1.00  0.00     0.134 A 
ATOM     64  F   UNL     1       7.504  -6.066   0.210  1.00  0.00    -0.206 F 
ATOM     65  C   UNL     1       7.881  -8.245   1.000  1.00  0.00     0.040 A 
ATOM     66  C   UNL     1       8.856  -8.589   3.174  1.00  0.00     0.040 A 
ATOM     67  F   UNL     1       9.413  -6.746   4.514  1.00  0.00    -0.206 F 
ATOM     68  C   UNL     1       8.339  -9.112   1.991  1.00  0.00     0.006 A 
ENDBRANCH  47  61
BRANCH  48  69
ATOM     69  C   UNL     1       8.984   3.565   3.815  1.00  0.00     0.057 A 
ATOM     70  C   UNL     1       9.207   4.443   2.750  1.00  0.00     0.134 A 
ATOM     71  C   UNL     1       8.755   4.123   5.079  1.00  0.00     0.134 A 
ATOM     72  F   UNL     1       9.446   3.966   1.520  1.00  0.00    -0.206 F 
ATOM     73  C   UNL     1       9.197   5.826   2.934  1.00  0.00     0.040 A 
ATOM     74  C   UNL     1       8.715   5.503   5.272  1.00  0.00     0.040 A 
ATOM     75  F   UNL     1       8.522   3.331   6.137  1.00  0.00    -0.206 F 
ATOM     76  C   UNL     1       8.938   6.359   4.196  1.00  0.00     0.006 A 
ENDBRANCH  48  69
BRANCH  60  77
ATOM     77  C   UNL     1      13.711  -1.364   2.525  1.00  0.00     0.057 A 
ATOM     78  C   UNL     1      14.545  -1.206   3.638  1.00  0.00     0.134 A 
ATOM     79  C   UNL     1      14.314  -1.465   1.266  1.00  0.00     0.134 A 
ATOM     80  F   UNL     1      14.023  -1.085   4.868  1.00  0.00    -0.206 F 
ATOM     81  C   UNL     1      15.931  -1.128   3.502  1.00  0.00     0.040 A 
ATOM     82  C   UNL     1      15.700  -1.406   1.119  1.00  0.00     0.040 A 
ATOM     83  F   UNL     1      13.566  -1.617   0.163  1.00  0.00    -0.206 F 
ATOM     84  C   UNL     1      16.512  -1.230   2.238  1.00  0.00     0.006 A 
ENDBRANCH  60  77
ENDBRANCH  34  35
ENDBRANCH  27  29
ENDBRANCH  26  27
ENDBRANCH  25  26
ENDBRANCH   1  25
TORSDOF 16
