REMARK SMILES O=C(C[C@@H]([NH2+]Cc1cccnc1)C(=O)OCCOC(=O)c1ccc(-c2c3nc(c(-c4c(F)cccc4F)c4ccc([nH]4)c(-c4c(F)cccc4F)c4nc(c(-c5c(F)cccc5F)c5ccc2[nH]5)C=C4)C=C3)cc1)Nc1ccc2ccccc2c1
REMARK SMILES IDX 16 1 15 2 13 3 14 4 4 5 3 6 2 7 1 8 75 9 76 11 77 12 85 13
REMARK SMILES IDX 78 14 84 15 79 16 83 17 80 18 82 19 81 20 5 21 6 24 7 25
REMARK SMILES IDX 8 26 12 27 9 28 11 29 10 30 17 31 18 32 19 33 20 34 21 35
REMARK SMILES IDX 22 36 74 37 23 38 73 39 24 40 25 41 26 42 67 43 27 44 72 45
REMARK SMILES IDX 66 46 68 47 28 48 71 49 65 50 64 51 29 53 55 54 38 55 54 56
REMARK SMILES IDX 39 57 42 58 53 59 69 60 40 61 41 62 52 64 70 65 43 66 30 67
REMARK SMILES IDX 31 68 36 69 32 70 33 71 35 72 37 73 34 74 56 75 57 76 62 77
REMARK SMILES IDX 58 78 59 79 61 80 63 81 60 82 44 83 45 84 50 85 46 86 47 87
REMARK SMILES IDX 49 88 51 89 48 90
REMARK H PARENT 75 10 5 22 5 23 68 52 42 63
REMARK Flexibility Score: inf
ROOT
ATOM      1  C   UNL     1       5.916  -0.133  -4.209  1.00  0.00     0.274 C 
ENDROOT
BRANCH   1   2
ATOM      2  O   UNL     1       5.223  -0.220  -2.946  1.00  0.00    -0.458 OA
BRANCH   2   3
ATOM      3  C   UNL     1       4.986   0.967  -2.328  1.00  0.00     0.365 C 
ATOM      4  O   UNL     1       5.360   2.049  -2.775  1.00  0.00    -0.245 OA
BRANCH   3   5
ATOM      5  C   UNL     1       4.170   0.843  -1.024  1.00  0.00     0.303 C 
BRANCH   5   6
ATOM      6  C   UNL     1       3.597  -0.571  -0.781  1.00  0.00     0.177 C 
BRANCH   6   7
ATOM      7  C   UNL     1       2.567  -0.570   0.343  1.00  0.00     0.231 C 
ATOM      8  O   UNL     1       1.363  -0.656   0.130  1.00  0.00    -0.274 OA
ATOM      9  N   UNL     1       3.153  -0.336   1.577  1.00  0.00    -0.326 N 
ATOM     10  H   UNL     1       4.131  -0.435   1.642  1.00  0.00     0.169 HD
BRANCH   9  11
ATOM     11  C   UNL     1       2.460   0.030   2.740  1.00  0.00     0.041 A 
ATOM     12  C   UNL     1       2.927   1.145   3.441  1.00  0.00     0.027 A 
ATOM     13  C   UNL     1       1.391  -0.710   3.241  1.00  0.00     0.034 A 
ATOM     14  C   UNL     1       2.301   1.550   4.617  1.00  0.00     0.011 A 
ATOM     15  C   UNL     1       0.830  -0.381   4.492  1.00  0.00    -0.016 A 
ATOM     16  C   UNL     1       1.274   0.780   5.171  1.00  0.00    -0.018 A 
ATOM     17  C   UNL     1      -0.136  -1.193   5.110  1.00  0.00     0.009 A 
ATOM     18  C   UNL     1       0.710   1.126   6.407  1.00  0.00     0.009 A 
ATOM     19  C   UNL     1      -0.651  -0.863   6.367  1.00  0.00     0.001 A 
ATOM     20  C   UNL     1      -0.240   0.302   7.008  1.00  0.00     0.001 A 
ENDBRANCH   9  11
ENDBRANCH   6   7
ENDBRANCH   5   6
BRANCH   5  21
ATOM     21  N   UNL     1       4.926   1.323   0.179  1.00  0.00    -0.330 N 
ATOM     22  H   UNL     1       5.639   0.626   0.393  1.00  0.00     0.347 HD
ATOM     23  H   UNL     1       4.220   1.448   0.905  1.00  0.00     0.347 HD
BRANCH  21  24
ATOM     24  C   UNL     1       5.596   2.627   0.063  1.00  0.00     0.299 C 
BRANCH  24  25
ATOM     25  C   UNL     1       4.713   3.842  -0.085  1.00  0.00     0.024 A 
ATOM     26  C   UNL     1       3.379   3.923   0.332  1.00  0.00     0.013 A 
ATOM     27  C   UNL     1       5.281   5.018  -0.578  1.00  0.00     0.120 A 
ATOM     28  C   UNL     1       2.682   5.125   0.216  1.00  0.00     0.021 A 
ATOM     29  N   UNL     1       4.632   6.200  -0.693  1.00  0.00    -0.264 NA
ATOM     30  C   UNL     1       3.344   6.226  -0.297  1.00  0.00     0.111 A 
ENDBRANCH  24  25
ENDBRANCH  21  24
ENDBRANCH   5  21
ENDBRANCH   3   5
ENDBRANCH   2   3
ENDBRANCH   1   2
BRANCH   1  31
ATOM     31  C   UNL     1       4.959  -0.082  -5.409  1.00  0.00     0.275 C 
BRANCH  31  32
ATOM     32  O   UNL     1       4.201   1.141  -5.479  1.00  0.00    -0.458 OA
BRANCH  32  33
ATOM     33  C   UNL     1       3.026   1.119  -4.806  1.00  0.00     0.338 C 
ATOM     34  O   UNL     1       2.569   0.187  -4.165  1.00  0.00    -0.246 OA
BRANCH  33  35
ATOM     35  C   UNL     1       2.396   2.448  -4.808  1.00  0.00     0.060 A 
ATOM     36  C   UNL     1       2.214   3.073  -3.574  1.00  0.00     0.016 A 
ATOM     37  C   UNL     1       1.874   3.021  -5.968  1.00  0.00     0.016 A 
ATOM     38  C   UNL     1       1.491   4.253  -3.477  1.00  0.00     0.010 A 
ATOM     39  C   UNL     1       1.156   4.221  -5.874  1.00  0.00     0.010 A 
ATOM     40  C   UNL     1       0.948   4.834  -4.625  1.00  0.00    -0.014 A 
BRANCH  40  41
ATOM     41  C   UNL     1       0.118   6.053  -4.483  1.00  0.00     0.031 A 
ATOM     42  C   UNL     1      -1.371   5.968  -4.646  1.00  0.00     0.074 A 
ATOM     43  C   UNL     1       0.696   7.220  -4.144  1.00  0.00     0.049 A 
ATOM     44  N   UNL     1      -2.260   6.929  -4.638  1.00  0.00    -0.248 NA
ATOM     45  C   UNL     1      -1.937   4.624  -4.835  1.00  0.00     0.031 C 
ATOM     46  C   UNL     1       2.123   7.412  -3.879  1.00  0.00     0.029 A 
ATOM     47  N   UNL     1       0.150   8.465  -3.962  1.00  0.00    -0.354 N 
ATOM     48  C   UNL     1      -3.486   6.310  -4.846  1.00  0.00     0.074 A 
ATOM     49  C   UNL     1      -3.227   4.892  -4.985  1.00  0.00     0.031 C 
ATOM     50  C   UNL     1       2.340   8.702  -3.575  1.00  0.00     0.029 A 
ATOM     51  C   UNL     1       1.081   9.433  -3.674  1.00  0.00     0.049 A 
ATOM     52  H   UNL     1      -0.815   8.647  -4.032  1.00  0.00     0.167 HD
ATOM     53  C   UNL     1      -4.714   6.875  -4.914  1.00  0.00     0.037 A 
ATOM     54  C   UNL     1       0.938  10.764  -3.540  1.00  0.00     0.037 A 
ATOM     55  C   UNL     1      -4.970   8.283  -4.754  1.00  0.00     0.049 A 
ATOM     56  C   UNL     1      -0.426  11.377  -3.695  1.00  0.00     0.074 A 
ATOM     57  C   UNL     1      -6.181   8.952  -4.805  1.00  0.00     0.029 A 
ATOM     58  N   UNL     1      -3.996   9.238  -4.508  1.00  0.00    -0.354 N 
ATOM     59  N   UNL     1      -1.575  10.789  -3.921  1.00  0.00    -0.248 NA
ATOM     60  C   UNL     1      -0.511  12.840  -3.583  1.00  0.00     0.031 C 
ATOM     61  C   UNL     1      -5.934  10.318  -4.625  1.00  0.00     0.029 A 
ATOM     62  C   UNL     1      -4.575  10.494  -4.423  1.00  0.00     0.049 A 
ATOM     63  H   UNL     1      -3.034   9.052  -4.409  1.00  0.00     0.167 HD
ATOM     64  C   UNL     1      -2.521  11.805  -3.960  1.00  0.00     0.074 A 
ATOM     65  C   UNL     1      -1.813  13.045  -3.720  1.00  0.00     0.031 C 
ATOM     66  C   UNL     1      -3.856  11.717  -4.176  1.00  0.00     0.037 A 
BRANCH  53  67
ATOM     67  C   UNL     1      -5.874   5.972  -5.210  1.00  0.00     0.057 A 
ATOM     68  C   UNL     1      -6.399   5.099  -4.249  1.00  0.00     0.134 A 
ATOM     69  C   UNL     1      -6.491   6.000  -6.467  1.00  0.00     0.134 A 
ATOM     70  F   UNL     1      -5.844   5.016  -3.031  1.00  0.00    -0.206 F 
ATOM     71  C   UNL     1      -7.487   4.272  -4.535  1.00  0.00     0.040 A 
ATOM     72  C   UNL     1      -7.592   5.193  -6.757  1.00  0.00     0.040 A 
ATOM     73  F   UNL     1      -6.039   6.817  -7.430  1.00  0.00    -0.206 F 
ATOM     74  C   UNL     1      -8.090   4.322  -5.791  1.00  0.00     0.006 A 
ENDBRANCH  53  67
BRANCH  54  75
ATOM     75  C   UNL     1       2.127  11.612  -3.281  1.00  0.00     0.057 A 
ATOM     76  C   UNL     1       2.311  12.248  -2.049  1.00  0.00     0.134 A 
ATOM     77  C   UNL     1       3.102  11.813  -4.265  1.00  0.00     0.134 A 
ATOM     78  F   UNL     1       1.397  12.113  -1.076  1.00  0.00    -0.206 F 
ATOM     79  C   UNL     1       3.417  13.064  -1.808  1.00  0.00     0.040 A 
ATOM     80  C   UNL     1       4.226  12.605  -4.029  1.00  0.00     0.040 A 
ATOM     81  F   UNL     1       2.981  11.232  -5.468  1.00  0.00    -0.206 F 
ATOM     82  C   UNL     1       4.382  13.239  -2.799  1.00  0.00     0.006 A 
ENDBRANCH  54  75
BRANCH  66  83
ATOM     83  C   UNL     1      -4.641  12.994  -4.129  1.00  0.00     0.057 A 
ATOM     84  C   UNL     1      -4.593  13.927  -5.172  1.00  0.00     0.134 A 
ATOM     85  C   UNL     1      -5.481  13.275  -3.044  1.00  0.00     0.134 A 
ATOM     86  F   UNL     1      -3.796  13.722  -6.232  1.00  0.00    -0.206 F 
ATOM     87  C   UNL     1      -5.340  15.105  -5.128  1.00  0.00     0.040 A 
ATOM     88  C   UNL     1      -6.249  14.438  -3.000  1.00  0.00     0.040 A 
ATOM     89  F   UNL     1      -5.576  12.417  -2.017  1.00  0.00    -0.206 F 
ATOM     90  C   UNL     1      -6.176  15.360  -4.042  1.00  0.00     0.006 A 
ENDBRANCH  66  83
ENDBRANCH  40  41
ENDBRANCH  33  35
ENDBRANCH  32  33
ENDBRANCH  31  32
ENDBRANCH   1  31
TORSDOF 17
