REMARK SMILES O=C(C[C@@H](Br)C(=O)c1ccc2c(c1)CCC2)OCCOC(=O)c1ccc(-c2c3nc(c(-c4c(F)cccc4F)c4ccc([nH]4)c(-c4c(F)cccc4F)c4nc(c(-c5c(F)cccc5F)c5ccc2[nH]5)C=C4)C=C3)cc1
REMARK SMILES IDX 18 1 17 2 2 3 1 4 3 5 4 6 5 7 6 8 7 9 8 10 9 11 13 12 10 13
REMARK SMILES IDX 12 14 11 15 14 16 16 17 15 18 19 19 20 20 21 21 22 22 23 23
REMARK SMILES IDX 24 24 76 25 25 26 75 27 26 28 27 29 28 30 69 31 29 32 74 33
REMARK SMILES IDX 68 34 70 35 30 36 73 37 67 38 66 39 31 41 57 42 40 43 56 44
REMARK SMILES IDX 41 45 44 46 55 47 71 48 42 49 43 50 54 52 72 53 45 54 32 55
REMARK SMILES IDX 33 56 38 57 34 58 35 59 37 60 39 61 36 62 58 63 59 64 64 65
REMARK SMILES IDX 60 66 61 67 63 68 65 69 62 70 46 71 47 72 52 73 48 74 49 75
REMARK SMILES IDX 51 76 53 77 50 78
REMARK H PARENT 70 40 44 51
REMARK Flexibility Score: inf
ROOT
ATOM      1  C   UNL     1       4.064  -1.159  -0.668  1.00  0.00     0.274 C 
ENDROOT
BRANCH   1   2
ATOM      2  O   UNL     1       2.946  -0.940   0.223  1.00  0.00    -0.462 OA
BRANCH   2   3
ATOM      3  C   UNL     1       2.946   0.006   1.198  1.00  0.00     0.307 C 
ATOM      4  O   UNL     1       2.262  -0.124   2.208  1.00  0.00    -0.252 OA
BRANCH   3   5
ATOM      5  C   UNL     1       3.688   1.284   0.912  1.00  0.00     0.146 C 
BRANCH   5   6
ATOM      6  C   UNL     1       4.522   1.807   2.060  1.00  0.00     0.140 C 
ATOM      7  Br  UNL     1       6.046   0.626   2.404  1.00  0.00    -0.080 Br
BRANCH   6   8
ATOM      8  C   UNL     1       5.100   3.207   1.829  1.00  0.00     0.177 C 
ATOM      9  O   UNL     1       4.891   4.127   2.621  1.00  0.00    -0.293 OA
BRANCH   8  10
ATOM     10  C   UNL     1       5.977   3.493   0.654  1.00  0.00     0.019 A 
ATOM     11  C   UNL     1       5.517   3.301  -0.659  1.00  0.00     0.012 A 
ATOM     12  C   UNL     1       7.258   4.011   0.870  1.00  0.00     0.015 A 
ATOM     13  C   UNL     1       6.336   3.528  -1.766  1.00  0.00     0.005 A 
ATOM     14  C   UNL     1       8.051   4.282  -0.238  1.00  0.00    -0.044 A 
ATOM     15  C   UNL     1       7.600   4.025  -1.538  1.00  0.00    -0.045 A 
ATOM     16  C   UNL     1       9.442   4.837  -0.273  1.00  0.00     0.036 C 
ATOM     17  C   UNL     1       8.647   4.359  -2.553  1.00  0.00     0.036 C 
ATOM     18  C   UNL     1       9.540   5.300  -1.736  1.00  0.00     0.010 C 
ENDBRANCH   8  10
ENDBRANCH   6   8
ENDBRANCH   5   6
ENDBRANCH   3   5
ENDBRANCH   2   3
ENDBRANCH   1   2
BRANCH   1  19
ATOM     19  C   UNL     1       3.781  -0.701  -2.103  1.00  0.00     0.275 C 
BRANCH  19  20
ATOM     20  O   UNL     1       3.414   0.691  -2.160  1.00  0.00    -0.458 OA
BRANCH  20  21
ATOM     21  C   UNL     1       2.085   0.939  -2.308  1.00  0.00     0.338 C 
ATOM     22  O   UNL     1       1.201   0.119  -2.455  1.00  0.00    -0.246 OA
BRANCH  21  23
ATOM     23  C   UNL     1       1.833   2.385  -2.102  1.00  0.00     0.060 A 
ATOM     24  C   UNL     1       0.737   2.756  -1.317  1.00  0.00     0.016 A 
ATOM     25  C   UNL     1       2.670   3.366  -2.640  1.00  0.00     0.016 A 
ATOM     26  C   UNL     1       0.479   4.107  -1.068  1.00  0.00     0.010 A 
ATOM     27  C   UNL     1       2.436   4.716  -2.353  1.00  0.00     0.010 A 
ATOM     28  C   UNL     1       1.320   5.101  -1.590  1.00  0.00    -0.014 A 
BRANCH  28  29
ATOM     29  C   UNL     1       0.951   6.537  -1.463  1.00  0.00     0.031 A 
ATOM     30  C   UNL     1       0.446   7.272  -2.677  1.00  0.00     0.074 A 
ATOM     31  C   UNL     1       1.039   7.186  -0.286  1.00  0.00     0.049 A 
ATOM     32  N   UNL     1       0.059   8.518  -2.795  1.00  0.00    -0.248 NA
ATOM     33  C   UNL     1       0.381   6.504  -3.930  1.00  0.00     0.031 C 
ATOM     34  C   UNL     1       1.523   6.614   0.969  1.00  0.00     0.029 A 
ATOM     35  N   UNL     1       0.720   8.484   0.039  1.00  0.00    -0.354 N 
ATOM     36  C   UNL     1      -0.283   8.682  -4.130  1.00  0.00     0.074 A 
ATOM     37  C   UNL     1      -0.013   7.426  -4.794  1.00  0.00     0.031 C 
ATOM     38  C   UNL     1       1.455   7.552   1.931  1.00  0.00     0.029 A 
ATOM     39  C   UNL     1       0.941   8.795   1.359  1.00  0.00     0.049 A 
ATOM     40  H   UNL     1       0.366   9.130  -0.614  1.00  0.00     0.167 HD
ATOM     41  C   UNL     1      -0.799   9.768  -4.751  1.00  0.00     0.037 A 
ATOM     42  C   UNL     1       0.749   9.949   2.028  1.00  0.00     0.037 A 
ATOM     43  C   UNL     1      -1.103  11.014  -4.103  1.00  0.00     0.049 A 
ATOM     44  C   UNL     1       0.190  11.151   1.312  1.00  0.00     0.074 A 
ATOM     45  C   UNL     1      -1.671  12.153  -4.647  1.00  0.00     0.029 A 
ATOM     46  N   UNL     1      -0.865  11.284  -2.765  1.00  0.00    -0.354 N 
ATOM     47  N   UNL     1      -0.182  11.273   0.061  1.00  0.00    -0.248 NA
ATOM     48  C   UNL     1       0.018  12.378   2.108  1.00  0.00     0.031 C 
ATOM     49  C   UNL     1      -1.749  13.125  -3.645  1.00  0.00     0.029 A 
ATOM     50  C   UNL     1      -1.261  12.578  -2.470  1.00  0.00     0.049 A 
ATOM     51  H   UNL     1      -0.473  10.651  -2.121  1.00  0.00     0.167 HD
ATOM     52  C   UNL     1      -0.659  12.572  -0.070  1.00  0.00     0.074 A 
ATOM     53  C   UNL     1      -0.535  13.200   1.227  1.00  0.00     0.031 C 
ATOM     54  C   UNL     1      -1.155  13.188  -1.171  1.00  0.00     0.037 A 
BRANCH  41  55
ATOM     55  C   UNL     1      -1.074   9.648  -6.219  1.00  0.00     0.057 A 
ATOM     56  C   UNL     1      -2.150   8.894  -6.705  1.00  0.00     0.134 A 
ATOM     57  C   UNL     1      -0.264  10.303  -7.154  1.00  0.00     0.134 A 
ATOM     58  F   UNL     1      -2.950   8.229  -5.859  1.00  0.00    -0.206 F 
ATOM     59  C   UNL     1      -2.396   8.775  -8.073  1.00  0.00     0.040 A 
ATOM     60  C   UNL     1      -0.514  10.210  -8.524  1.00  0.00     0.040 A 
ATOM     61  F   UNL     1       0.781  11.041  -6.752  1.00  0.00    -0.206 F 
ATOM     62  C   UNL     1      -1.579   9.439  -8.986  1.00  0.00     0.006 A 
ENDBRANCH  41  55
BRANCH  42  63
ATOM     63  C   UNL     1       1.070  10.036   3.475  1.00  0.00     0.057 A 
ATOM     64  C   UNL     1       0.055  10.124   4.435  1.00  0.00     0.134 A 
ATOM     65  C   UNL     1       2.393  10.084   3.926  1.00  0.00     0.134 A 
ATOM     66  F   UNL     1      -1.233  10.115   4.059  1.00  0.00    -0.206 F 
ATOM     67  C   UNL     1       0.344  10.277   5.792  1.00  0.00     0.040 A 
ATOM     68  C   UNL     1       2.697  10.215   5.282  1.00  0.00     0.040 A 
ATOM     69  F   UNL     1       3.408  10.015   3.053  1.00  0.00    -0.206 F 
ATOM     70  C   UNL     1       1.670  10.320   6.218  1.00  0.00     0.006 A 
ENDBRANCH  42  63
BRANCH  54  71
ATOM     71  C   UNL     1      -1.644  14.598  -1.019  1.00  0.00     0.057 A 
ATOM     72  C   UNL     1      -0.760  15.678  -0.906  1.00  0.00     0.134 A 
ATOM     73  C   UNL     1      -3.015  14.882  -1.047  1.00  0.00     0.134 A 
ATOM     74  F   UNL     1       0.564  15.471  -0.863  1.00  0.00    -0.206 F 
ATOM     75  C   UNL     1      -1.224  16.991  -0.812  1.00  0.00     0.040 A 
ATOM     76  C   UNL     1      -3.490  16.192  -0.975  1.00  0.00     0.040 A 
ATOM     77  F   UNL     1      -3.914  13.893  -1.163  1.00  0.00    -0.206 F 
ATOM     78  C   UNL     1      -2.593  17.252  -0.855  1.00  0.00     0.006 A 
ENDBRANCH  54  71
ENDBRANCH  28  29
ENDBRANCH  21  23
ENDBRANCH  20  21
ENDBRANCH  19  20
ENDBRANCH   1  19
TORSDOF 14
