REMARK SMILES COc1ccc(-c2nc(C(C)C)cc3nn(CC(=O)OCCOC(=O)c4ccc(-c5c6nc(c(-c7c(F)cccc7F)c7ccc([nH]7)c(-c7c(F)cccc7F)c7nc(c(-c8c(F)cccc8F)c8ccc5[nH]8)C=C7)C=C6)cc4)c(=O)n23)cc1
REMARK SMILES IDX 21 1 20 2 18 3 19 4 17 5 16 6 7 7 8 8 82 9 9 10 14 11 80 12
REMARK SMILES IDX 13 13 15 14 81 15 6 16 3 17 4 18 84 19 5 20 83 21 2 22 1 23
REMARK SMILES IDX 10 24 11 25 12 26 22 27 23 28 24 29 25 30 26 31 27 32 79 33
REMARK SMILES IDX 28 34 78 35 29 36 30 37 31 38 72 39 32 40 77 41 71 42 73 43
REMARK SMILES IDX 33 44 76 45 70 46 69 47 34 49 60 50 43 51 59 52 44 53 47 54
REMARK SMILES IDX 58 55 74 56 45 57 46 58 57 60 75 61 48 62 35 63 36 64 41 65
REMARK SMILES IDX 37 66 38 67 40 68 42 69 39 70 61 71 62 72 67 73 63 74 64 75
REMARK SMILES IDX 66 76 68 77 65 78 49 79 50 80 55 81 51 82 52 83 54 84 56 85
REMARK SMILES IDX 53 86
REMARK H PARENT 73 48 47 59
REMARK Flexibility Score: inf
ROOT
ATOM      1  C   UNL     1      -2.980   7.316  -6.699  1.00  0.00     0.274 C 
ENDROOT
BRANCH   1   2
ATOM      2  O   UNL     1      -1.580   7.352  -6.354  1.00  0.00    -0.461 OA
BRANCH   2   3
ATOM      3  C   UNL     1      -1.249   8.060  -5.239  1.00  0.00     0.328 C 
ATOM      4  O   UNL     1      -2.035   8.784  -4.631  1.00  0.00    -0.250 OA
BRANCH   3   5
ATOM      5  C   UNL     1       0.216   7.948  -4.833  1.00  0.00     0.272 C 
BRANCH   5   6
ATOM      6  N   UNL     1       0.968   6.831  -5.357  1.00  0.00    -0.201 N 
ATOM      7  C   UNL     1       2.543   3.611  -5.469  1.00  0.00     0.150 A 
ATOM      8  N   UNL     1       3.394   3.174  -6.350  1.00  0.00    -0.234 NA
ATOM      9  N   UNL     1       2.034   4.900  -5.525  1.00  0.00    -0.226 N 
ATOM     10  C   UNL     1       3.764   4.027  -7.372  1.00  0.00     0.049 A 
ATOM     11  C   UNL     1       2.259   5.711  -6.579  1.00  0.00     0.165 A 
ATOM     12  C   UNL     1       1.301   5.668  -4.643  1.00  0.00     0.352 A 
ATOM     13  C   UNL     1       3.211   5.236  -7.577  1.00  0.00     0.073 A 
ATOM     14  N   UNL     1       1.641   6.854  -6.561  1.00  0.00    -0.149 NA
ATOM     15  O   UNL     1       1.169   5.497  -3.440  1.00  0.00    -0.245 OA
BRANCH   7  16
ATOM     16  C   UNL     1       2.068   2.709  -4.397  1.00  0.00     0.018 A 
ATOM     17  C   UNL     1       1.190   0.943  -2.426  1.00  0.00     0.118 A 
ATOM     18  C   UNL     1       0.284   1.463  -3.349  1.00  0.00     0.047 A 
ATOM     19  C   UNL     1       2.548   1.248  -2.529  1.00  0.00     0.047 A 
ATOM     20  C   UNL     1       0.715   2.361  -4.327  1.00  0.00     0.016 A 
ATOM     21  C   UNL     1       2.990   2.125  -3.524  1.00  0.00     0.016 A 
BRANCH  17  22
ATOM     22  O   UNL     1       0.688   0.085  -1.488  1.00  0.00    -0.497 OA
ATOM     23  C   UNL     1       1.076   0.426  -0.157  1.00  0.00     0.278 C 
ENDBRANCH  17  22
ENDBRANCH   7  16
BRANCH  10  24
ATOM     24  C   UNL     1       4.875   3.495  -8.266  1.00  0.00     0.032 C 
ATOM     25  C   UNL     1       4.555   3.614  -9.758  1.00  0.00     0.014 C 
ATOM     26  C   UNL     1       6.199   4.186  -7.929  1.00  0.00     0.014 C 
ENDBRANCH  10  24
ENDBRANCH   5   6
ENDBRANCH   3   5
ENDBRANCH   2   3
ENDBRANCH   1   2
BRANCH   1  27
ATOM     27  C   UNL     1      -3.650   6.040  -6.196  1.00  0.00     0.275 C 
BRANCH  27  28
ATOM     28  O   UNL     1      -3.620   5.953  -4.770  1.00  0.00    -0.458 OA
BRANCH  28  29
ATOM     29  C   UNL     1      -2.502   5.356  -4.301  1.00  0.00     0.338 C 
ATOM     30  O   UNL     1      -1.501   5.066  -4.930  1.00  0.00    -0.246 OA
BRANCH  29  31
ATOM     31  C   UNL     1      -2.718   4.869  -2.942  1.00  0.00     0.060 A 
ATOM     32  C   UNL     1      -1.582   4.631  -2.167  1.00  0.00     0.016 A 
ATOM     33  C   UNL     1      -3.948   4.278  -2.654  1.00  0.00     0.016 A 
ATOM     34  C   UNL     1      -1.601   3.608  -1.250  1.00  0.00     0.010 A 
ATOM     35  C   UNL     1      -3.976   3.271  -1.720  1.00  0.00     0.010 A 
ATOM     36  C   UNL     1      -2.778   2.880  -1.111  1.00  0.00    -0.014 A 
BRANCH  36  37
ATOM     37  C   UNL     1      -2.763   1.717  -0.244  1.00  0.00     0.031 A 
ATOM     38  C   UNL     1      -2.680   2.057   1.200  1.00  0.00     0.074 A 
ATOM     39  C   UNL     1      -3.025   0.501  -0.765  1.00  0.00     0.049 A 
ATOM     40  N   UNL     1      -1.921   1.556   2.120  1.00  0.00    -0.248 NA
ATOM     41  C   UNL     1      -3.496   3.203   1.655  1.00  0.00     0.031 C 
ATOM     42  C   UNL     1      -3.384   0.200  -2.158  1.00  0.00     0.029 A 
ATOM     43  N   UNL     1      -3.196  -0.698  -0.146  1.00  0.00    -0.354 N 
ATOM     44  C   UNL     1      -2.325   2.178   3.301  1.00  0.00     0.074 A 
ATOM     45  C   UNL     1      -3.155   3.292   2.936  1.00  0.00     0.031 C 
ATOM     46  C   UNL     1      -3.967  -1.015  -2.215  1.00  0.00     0.029 A 
ATOM     47  C   UNL     1      -3.945  -1.603  -0.888  1.00  0.00     0.049 A 
ATOM     48  H   UNL     1      -2.825  -0.905   0.742  1.00  0.00     0.167 HD
ATOM     49  C   UNL     1      -2.206   1.566   4.506  1.00  0.00     0.037 A 
ATOM     50  C   UNL     1      -4.611  -2.684  -0.414  1.00  0.00     0.037 A 
ATOM     51  C   UNL     1      -1.198   0.546   4.499  1.00  0.00     0.049 A 
ATOM     52  C   UNL     1      -4.119  -2.957   0.959  1.00  0.00     0.074 A 
ATOM     53  C   UNL     1       0.163   0.524   4.275  1.00  0.00     0.029 A 
ATOM     54  N   UNL     1      -1.609  -0.761   4.445  1.00  0.00    -0.354 N 
ATOM     55  N   UNL     1      -2.931  -3.410   1.246  1.00  0.00    -0.248 NA
ATOM     56  C   UNL     1      -4.815  -2.309   2.062  1.00  0.00     0.031 C 
ATOM     57  C   UNL     1       0.418  -0.732   3.655  1.00  0.00     0.029 A 
ATOM     58  C   UNL     1      -0.797  -1.413   3.554  1.00  0.00     0.049 A 
ATOM     59  H   UNL     1      -2.351  -1.159   4.955  1.00  0.00     0.167 HD
ATOM     60  C   UNL     1      -2.561  -2.738   2.402  1.00  0.00     0.074 A 
ATOM     61  C   UNL     1      -3.800  -2.160   2.915  1.00  0.00     0.031 C 
ATOM     62  C   UNL     1      -1.248  -2.476   2.680  1.00  0.00     0.037 A 
BRANCH  49  63
ATOM     63  C   UNL     1      -3.292   1.629   5.547  1.00  0.00     0.057 A 
ATOM     64  C   UNL     1      -3.023   1.192   6.852  1.00  0.00     0.134 A 
ATOM     65  C   UNL     1      -4.659   1.817   5.240  1.00  0.00     0.134 A 
ATOM     66  F   UNL     1      -1.765   0.948   7.247  1.00  0.00    -0.206 F 
ATOM     67  C   UNL     1      -4.044   0.910   7.767  1.00  0.00     0.040 A 
ATOM     68  C   UNL     1      -5.680   1.593   6.163  1.00  0.00     0.040 A 
ATOM     69  F   UNL     1      -5.082   2.124   4.007  1.00  0.00    -0.206 F 
ATOM     70  C   UNL     1      -5.377   1.106   7.423  1.00  0.00     0.006 A 
ENDBRANCH  49  63
BRANCH  50  71
ATOM     71  C   UNL     1      -5.877  -3.256  -0.933  1.00  0.00     0.057 A 
ATOM     72  C   UNL     1      -6.280  -4.553  -0.590  1.00  0.00     0.134 A 
ATOM     73  C   UNL     1      -6.841  -2.468  -1.591  1.00  0.00     0.134 A 
ATOM     74  F   UNL     1      -5.455  -5.364   0.087  1.00  0.00    -0.206 F 
ATOM     75  C   UNL     1      -7.563  -5.036  -0.884  1.00  0.00     0.040 A 
ATOM     76  C   UNL     1      -8.117  -2.943  -1.906  1.00  0.00     0.040 A 
ATOM     77  F   UNL     1      -6.611  -1.179  -1.878  1.00  0.00    -0.206 F 
ATOM     78  C   UNL     1      -8.487  -4.230  -1.542  1.00  0.00     0.006 A 
ENDBRANCH  50  71
BRANCH  62  79
ATOM     79  C   UNL     1      -0.195  -3.139   1.823  1.00  0.00     0.057 A 
ATOM     80  C   UNL     1      -0.104  -2.979   0.431  1.00  0.00     0.134 A 
ATOM     81  C   UNL     1       0.862  -3.817   2.442  1.00  0.00     0.134 A 
ATOM     82  F   UNL     1      -1.004  -2.255  -0.243  1.00  0.00    -0.206 F 
ATOM     83  C   UNL     1       0.964  -3.491  -0.310  1.00  0.00     0.040 A 
ATOM     84  C   UNL     1       1.954  -4.304   1.718  1.00  0.00     0.040 A 
ATOM     85  F   UNL     1       0.883  -3.965   3.776  1.00  0.00    -0.206 F 
ATOM     86  C   UNL     1       2.003  -4.150   0.335  1.00  0.00     0.006 A 
ENDBRANCH  62  79
ENDBRANCH  36  37
ENDBRANCH  29  31
ENDBRANCH  28  29
ENDBRANCH  27  28
ENDBRANCH   1  27
TORSDOF 15
