REMARK SMILES C[C@H](NC(=O)c1ccncc1/C=C/C(=O)OCCOC(=O)c1ccc(-c2c3nc(c(-c4c(F)cccc4F)c4ccc([nH]4)c(-c4c(F)cccc4F)c4nc(c(-c5c(F)cccc5F)c5ccc2[nH]5)C=C4)C=C3)cc1)c1ccco1
REMARK SMILES IDX 17 1 16 2 14 3 15 4 13 5 12 6 11 7 6 8 7 9 8 10 10 11 9 12
REMARK SMILES IDX 4 13 3 14 5 16 2 17 1 18 76 19 77 20 80 21 78 22 79 23 18 24
REMARK SMILES IDX 19 25 20 26 21 27 22 28 23 29 75 30 24 31 74 32 25 33 26 34
REMARK SMILES IDX 27 35 68 36 28 37 73 38 67 39 69 40 29 41 72 42 66 43 65 44
REMARK SMILES IDX 30 46 56 47 39 48 55 49 40 50 43 51 54 52 70 53 41 54 42 55
REMARK SMILES IDX 53 57 71 58 44 59 31 60 32 61 37 62 33 63 34 64 36 65 38 66
REMARK SMILES IDX 35 67 57 68 58 69 63 70 59 71 60 72 62 73 64 74 61 75 45 76
REMARK SMILES IDX 46 77 51 78 47 79 48 80 50 81 52 82 49 83
REMARK H PARENT 3 15 69 45 43 56
REMARK Flexibility Score: inf
ROOT
ATOM      1  C   UNL     1       1.000   0.327  -7.241  1.00  0.00     0.275 C 
ENDROOT
BRANCH   1   2
ATOM      2  O   UNL     1       1.520   0.672  -5.942  1.00  0.00    -0.459 OA
BRANCH   2   3
ATOM      3  C   UNL     1       2.744   1.247  -5.942  1.00  0.00     0.330 C 
ATOM      4  O   UNL     1       3.444   1.458  -6.923  1.00  0.00    -0.247 OA
BRANCH   3   5
ATOM      5  C   UNL     1       3.189   1.672  -4.600  1.00  0.00     0.094 C 
ATOM      6  C   UNL     1       2.471   1.662  -3.464  1.00  0.00     0.018 C 
BRANCH   6   7
ATOM      7  C   UNL     1       3.054   2.144  -2.196  1.00  0.00     0.006 A 
ATOM      8  C   UNL     1       2.938   1.472  -0.970  1.00  0.00     0.050 A 
ATOM      9  C   UNL     1       3.650   1.897   0.155  1.00  0.00     0.034 A 
ATOM     10  C   UNL     1       4.364   3.075   0.058  1.00  0.00     0.112 A 
ATOM     11  C   UNL     1       3.772   3.338  -2.154  1.00  0.00     0.119 A 
ATOM     12  N   UNL     1       4.416   3.820  -1.063  1.00  0.00    -0.264 NA
BRANCH   8  13
ATOM     13  C   UNL     1       2.104   0.270  -0.852  1.00  0.00     0.252 C 
ATOM     14  N   UNL     1       0.936   0.283  -0.140  1.00  0.00    -0.342 N 
ATOM     15  H   UNL     1       0.392  -0.522  -0.296  1.00  0.00     0.164 HD
ATOM     16  O   UNL     1       2.451  -0.753  -1.436  1.00  0.00    -0.269 OA
BRANCH  14  17
ATOM     17  C   UNL     1       0.302   1.218   0.804  1.00  0.00     0.145 C 
ATOM     18  C   UNL     1       0.513   2.710   0.545  1.00  0.00     0.039 C 
BRANCH  17  19
ATOM     19  C   UNL     1      -1.170   0.876   0.849  1.00  0.00     0.125 A 
ATOM     20  C   UNL     1      -1.874  -0.309   0.974  1.00  0.00     0.048 A 
ATOM     21  O   UNL     1      -2.057   1.915   0.772  1.00  0.00    -0.467 OA
ATOM     22  C   UNL     1      -3.250   0.030   0.954  1.00  0.00     0.042 A 
ATOM     23  C   UNL     1      -3.306   1.396   0.837  1.00  0.00     0.195 A 
ENDBRANCH  17  19
ENDBRANCH  14  17
ENDBRANCH   8  13
ENDBRANCH   6   7
ENDBRANCH   3   5
ENDBRANCH   2   3
ENDBRANCH   1   2
BRANCH   1  24
ATOM     24  C   UNL     1      -0.015   1.362  -7.736  1.00  0.00     0.275 C 
BRANCH  24  25
ATOM     25  O   UNL     1       0.595   2.638  -8.004  1.00  0.00    -0.458 OA
BRANCH  25  26
ATOM     26  C   UNL     1       0.626   3.490  -6.952  1.00  0.00     0.338 C 
ATOM     27  O   UNL     1       0.173   3.302  -5.836  1.00  0.00    -0.246 OA
BRANCH  26  28
ATOM     28  C   UNL     1       1.411   4.689  -7.295  1.00  0.00     0.060 A 
ATOM     29  C   UNL     1       2.435   5.069  -6.421  1.00  0.00     0.016 A 
ATOM     30  C   UNL     1       1.101   5.476  -8.407  1.00  0.00     0.016 A 
ATOM     31  C   UNL     1       3.148   6.244  -6.651  1.00  0.00     0.010 A 
ATOM     32  C   UNL     1       1.817   6.656  -8.636  1.00  0.00     0.010 A 
ATOM     33  C   UNL     1       2.835   7.054  -7.751  1.00  0.00    -0.014 A 
BRANCH  33  34
ATOM     34  C   UNL     1       3.551   8.339  -7.944  1.00  0.00     0.031 A 
ATOM     35  C   UNL     1       2.878   9.635  -7.594  1.00  0.00     0.074 A 
ATOM     36  C   UNL     1       4.814   8.339  -8.408  1.00  0.00     0.049 A 
ATOM     37  N   UNL     1       3.323  10.860  -7.721  1.00  0.00    -0.248 NA
ATOM     38  C   UNL     1       1.525   9.541  -7.025  1.00  0.00     0.031 C 
ATOM     39  C   UNL     1       5.584   7.146  -8.757  1.00  0.00     0.029 A 
ATOM     40  N   UNL     1       5.669   9.380  -8.667  1.00  0.00    -0.354 N 
ATOM     41  C   UNL     1       2.308  11.682  -7.248  1.00  0.00     0.074 A 
ATOM     42  C   UNL     1       1.212  10.819  -6.860  1.00  0.00     0.031 C 
ATOM     43  C   UNL     1       6.799   7.523  -9.190  1.00  0.00     0.029 A 
ATOM     44  C   UNL     1       6.879   8.981  -9.180  1.00  0.00     0.049 A 
ATOM     45  H   UNL     1       5.438  10.323  -8.502  1.00  0.00     0.167 HD
ATOM     46  C   UNL     1       2.296  13.032  -7.137  1.00  0.00     0.037 A 
ATOM     47  C   UNL     1       7.925   9.711  -9.613  1.00  0.00     0.037 A 
ATOM     48  C   UNL     1       3.385  13.891  -7.526  1.00  0.00     0.049 A 
ATOM     49  C   UNL     1       7.863  11.211  -9.535  1.00  0.00     0.074 A 
ATOM     50  C   UNL     1       3.463  15.272  -7.455  1.00  0.00     0.029 A 
ATOM     51  N   UNL     1       4.586  13.451  -8.060  1.00  0.00    -0.354 N 
ATOM     52  N   UNL     1       6.902  11.977  -9.078  1.00  0.00    -0.248 NA
ATOM     53  C   UNL     1       9.033  11.950 -10.032  1.00  0.00     0.031 C 
ATOM     54  C   UNL     1       4.698  15.669  -7.979  1.00  0.00     0.029 A 
ATOM     55  C   UNL     1       5.405  14.533  -8.338  1.00  0.00     0.049 A 
ATOM     56  H   UNL     1       4.822  12.508  -8.219  1.00  0.00     0.167 HD
ATOM     57  C   UNL     1       7.357  13.282  -9.213  1.00  0.00     0.074 A 
ATOM     58  C   UNL     1       8.688  13.205  -9.779  1.00  0.00     0.031 C 
ATOM     59  C   UNL     1       6.729  14.441  -8.897  1.00  0.00     0.037 A 
BRANCH  46  60
ATOM     60  C   UNL     1       1.056  13.667  -6.583  1.00  0.00     0.057 A 
ATOM     61  C   UNL     1       0.736  13.591  -5.221  1.00  0.00     0.134 A 
ATOM     62  C   UNL     1       0.191  14.393  -7.411  1.00  0.00     0.134 A 
ATOM     63  F   UNL     1       1.517  12.900  -4.377  1.00  0.00    -0.206 F 
ATOM     64  C   UNL     1      -0.410  14.199  -4.706  1.00  0.00     0.040 A 
ATOM     65  C   UNL     1      -0.946  15.025  -6.904  1.00  0.00     0.040 A 
ATOM     66  F   UNL     1       0.443  14.510  -8.724  1.00  0.00    -0.206 F 
ATOM     67  C   UNL     1      -1.252  14.924  -5.548  1.00  0.00     0.006 A 
ENDBRANCH  46  60
BRANCH  47  68
ATOM     68  C   UNL     1       9.117   9.032 -10.180  1.00  0.00     0.057 A 
ATOM     69  C   UNL     1      10.343   9.030  -9.507  1.00  0.00     0.134 A 
ATOM     70  C   UNL     1       9.059   8.386 -11.421  1.00  0.00     0.134 A 
ATOM     71  F   UNL     1      10.466   9.655  -8.326  1.00  0.00    -0.206 F 
ATOM     72  C   UNL     1      11.475   8.424 -10.053  1.00  0.00     0.040 A 
ATOM     73  C   UNL     1      10.177   7.754 -11.968  1.00  0.00     0.040 A 
ATOM     74  F   UNL     1       7.913   8.353 -12.115  1.00  0.00    -0.206 F 
ATOM     75  C   UNL     1      11.392   7.779 -11.286  1.00  0.00     0.006 A 
ENDBRANCH  47  68
BRANCH  59  76
ATOM     76  C   UNL     1       7.485  15.715  -9.131  1.00  0.00     0.057 A 
ATOM     77  C   UNL     1       7.686  16.228 -10.418  1.00  0.00     0.134 A 
ATOM     78  C   UNL     1       7.989  16.454  -8.053  1.00  0.00     0.134 A 
ATOM     79  F   UNL     1       7.240  15.561 -11.493  1.00  0.00    -0.206 F 
ATOM     80  C   UNL     1       8.381  17.421 -10.626  1.00  0.00     0.040 A 
ATOM     81  C   UNL     1       8.664  17.659  -8.247  1.00  0.00     0.040 A 
ATOM     82  F   UNL     1       7.823  16.021  -6.793  1.00  0.00    -0.206 F 
ATOM     83  C   UNL     1       8.867  18.143  -9.538  1.00  0.00     0.006 A 
ENDBRANCH  59  76
ENDBRANCH  33  34
ENDBRANCH  26  28
ENDBRANCH  25  26
ENDBRANCH  24  25
ENDBRANCH   1  24
TORSDOF 15
