REMARK SMILES CC(C)[C@@H](CCNC(=O)N1C[C@@H](C)[C@H](C)C1)CCC(=O)OCCOC(=O)c1ccc(-c2c3nc(c(-c4c(F)cccc4F)c4ccc([nH]4)c(-c4c(F)cccc4F)c4nc(c(-c5c(F)cccc5F)c5ccc2[nH]5)C=C4)C=C3)cc1
REMARK SMILES IDX 21 1 19 2 20 3 18 4 17 5 4 6 2 7 1 8 3 9 5 10 6 11 7 12 8 13
REMARK SMILES IDX 9 15 10 16 11 17 16 18 12 19 14 20 13 21 15 22 22 23 23 24
REMARK SMILES IDX 24 25 25 26 26 27 27 28 28 29 80 30 29 31 79 32 30 33 31 34
REMARK SMILES IDX 32 35 73 36 33 37 78 38 72 39 74 40 34 41 77 42 71 43 70 44
REMARK SMILES IDX 35 46 61 47 44 48 60 49 45 50 48 51 59 52 75 53 46 54 47 55
REMARK SMILES IDX 58 57 76 58 49 59 36 60 37 61 42 62 38 63 39 64 41 65 43 66
REMARK SMILES IDX 40 67 62 68 63 69 68 70 64 71 65 72 67 73 69 74 66 75 50 76
REMARK SMILES IDX 51 77 56 78 52 79 53 80 55 81 57 82 54 83
REMARK H PARENT 7 14 74 45 48 56
REMARK Flexibility Score: inf
ROOT
ATOM      1  O   UNL     1      -1.531   0.487  -3.203  1.00  0.00    -0.462 OA
ENDROOT
BRANCH   1   2
ATOM      2  C   UNL     1      -0.847   1.516  -3.753  1.00  0.00     0.305 C 
ATOM      3  O   UNL     1      -0.563   1.610  -4.942  1.00  0.00    -0.252 OA
BRANCH   2   4
ATOM      4  C   UNL     1      -0.458   2.594  -2.763  1.00  0.00     0.123 C 
BRANCH   4   5
ATOM      5  C   UNL     1      -0.887   2.480  -1.301  1.00  0.00     0.015 C 
BRANCH   5   6
ATOM      6  C   UNL     1      -0.491   1.246  -0.454  1.00  0.00    -0.006 C 
BRANCH   6   7
ATOM      7  C   UNL     1       1.039   1.003  -0.238  1.00  0.00    -0.014 C 
ATOM      8  C   UNL     1       1.283  -0.276   0.580  1.00  0.00     0.007 C 
ATOM      9  C   UNL     1       1.854   0.872  -1.529  1.00  0.00     0.007 C 
ENDBRANCH   6   7
BRANCH   6  10
ATOM     10  C   UNL     1      -1.295   1.282   0.890  1.00  0.00     0.025 C 
BRANCH  10  11
ATOM     11  C   UNL     1      -0.857   2.304   1.954  1.00  0.00     0.118 C 
BRANCH  11  12
ATOM     12  N   UNL     1      -1.464   3.608   1.764  1.00  0.00    -0.338 N 
ATOM     13  C   UNL     1      -2.603   4.114   2.295  1.00  0.00     0.317 C 
ATOM     14  H   UNL     1      -0.977   4.215   1.161  1.00  0.00     0.165 HD
ATOM     15  O   UNL     1      -3.253   4.892   1.596  1.00  0.00    -0.249 OA
ATOM     16  N   UNL     1      -2.971   3.777   3.564  1.00  0.00    -0.324 N 
ATOM     17  C   UNL     1      -4.288   4.116   4.064  1.00  0.00     0.125 C 
ATOM     18  C   UNL     1      -2.066   3.487   4.667  1.00  0.00     0.125 C 
ATOM     19  C   UNL     1      -4.028   4.705   5.445  1.00  0.00     0.010 C 
ATOM     20  C   UNL     1      -2.800   3.923   5.944  1.00  0.00     0.010 C 
ATOM     21  C   UNL     1      -5.231   4.565   6.367  1.00  0.00     0.010 C 
ATOM     22  C   UNL     1      -1.917   4.758   6.866  1.00  0.00     0.010 C 
ENDBRANCH  11  12
ENDBRANCH  10  11
ENDBRANCH   6  10
ENDBRANCH   5   6
ENDBRANCH   4   5
ENDBRANCH   2   4
ENDBRANCH   1   2
BRANCH   1  23
ATOM     23  C   UNL     1      -1.932  -0.579  -4.086  1.00  0.00     0.274 C 
BRANCH  23  24
ATOM     24  C   UNL     1      -3.455  -0.654  -4.171  1.00  0.00     0.275 C 
BRANCH  24  25
ATOM     25  O   UNL     1      -3.979   0.565  -4.727  1.00  0.00    -0.458 OA
BRANCH  25  26
ATOM     26  C   UNL     1      -4.474   1.444  -3.828  1.00  0.00     0.338 C 
ATOM     27  O   UNL     1      -4.612   1.290  -2.622  1.00  0.00    -0.246 OA
BRANCH  26  28
ATOM     28  C   UNL     1      -4.723   2.715  -4.511  1.00  0.00     0.060 A 
ATOM     29  C   UNL     1      -3.698   3.659  -4.533  1.00  0.00     0.016 A 
ATOM     30  C   UNL     1      -5.964   3.002  -5.075  1.00  0.00     0.016 A 
ATOM     31  C   UNL     1      -3.901   4.904  -5.113  1.00  0.00     0.010 A 
ATOM     32  C   UNL     1      -6.158   4.241  -5.694  1.00  0.00     0.010 A 
ATOM     33  C   UNL     1      -5.128   5.199  -5.718  1.00  0.00    -0.014 A 
BRANCH  33  34
ATOM     34  C   UNL     1      -5.328   6.511  -6.378  1.00  0.00     0.031 A 
ATOM     35  C   UNL     1      -6.309   7.494  -5.814  1.00  0.00     0.074 A 
ATOM     36  C   UNL     1      -4.621   6.817  -7.482  1.00  0.00     0.049 A 
ATOM     37  N   UNL     1      -6.758   8.606  -6.338  1.00  0.00    -0.248 NA
ATOM     38  C   UNL     1      -6.862   7.184  -4.487  1.00  0.00     0.031 C 
ATOM     39  C   UNL     1      -3.592   5.971  -8.089  1.00  0.00     0.029 A 
ATOM     40  N   UNL     1      -4.664   7.923  -8.293  1.00  0.00    -0.354 N 
ATOM     41  C   UNL     1      -7.677   9.107  -5.425  1.00  0.00     0.074 A 
ATOM     42  C   UNL     1      -7.720   8.180  -4.314  1.00  0.00     0.031 C 
ATOM     43  C   UNL     1      -3.090   6.595  -9.166  1.00  0.00     0.029 A 
ATOM     44  C   UNL     1      -3.816   7.843  -9.370  1.00  0.00     0.049 A 
ATOM     45  H   UNL     1      -5.246   8.698  -8.119  1.00  0.00     0.167 HD
ATOM     46  C   UNL     1      -8.416  10.238  -5.515  1.00  0.00     0.037 A 
ATOM     47  C   UNL     1      -3.676   8.658 -10.432  1.00  0.00     0.037 A 
ATOM     48  C   UNL     1      -8.338  11.171  -6.608  1.00  0.00     0.049 A 
ATOM     49  C   UNL     1      -4.562   9.864 -10.547  1.00  0.00     0.074 A 
ATOM     50  C   UNL     1      -9.026  12.358  -6.783  1.00  0.00     0.029 A 
ATOM     51  N   UNL     1      -7.512  11.020  -7.713  1.00  0.00    -0.354 N 
ATOM     52  N   UNL     1      -5.465  10.306  -9.706  1.00  0.00    -0.248 NA
ATOM     53  C   UNL     1      -4.434  10.664 -11.773  1.00  0.00     0.031 C 
ATOM     54  C   UNL     1      -8.643  12.908  -8.012  1.00  0.00     0.029 A 
ATOM     55  C   UNL     1      -7.693  12.079  -8.587  1.00  0.00     0.049 A 
ATOM     56  H   UNL     1      -6.889  10.271  -7.854  1.00  0.00     0.167 HD
ATOM     57  C   UNL     1      -6.017  11.432 -10.300  1.00  0.00     0.074 A 
ATOM     58  C   UNL     1      -5.330  11.620 -11.562  1.00  0.00     0.031 C 
ATOM     59  C   UNL     1      -7.011  12.234  -9.845  1.00  0.00     0.037 A 
BRANCH  46  60
ATOM     60  C   UNL     1      -9.403  10.504  -4.419  1.00  0.00     0.057 A 
ATOM     61  C   UNL     1      -9.007  10.949  -3.152  1.00  0.00     0.134 A 
ATOM     62  C   UNL     1     -10.775  10.331  -4.645  1.00  0.00     0.134 A 
ATOM     63  F   UNL     1      -7.708  11.122  -2.868  1.00  0.00    -0.206 F 
ATOM     64  C   UNL     1      -9.940  11.194  -2.142  1.00  0.00     0.040 A 
ATOM     65  C   UNL     1     -11.718  10.591  -3.650  1.00  0.00     0.040 A 
ATOM     66  F   UNL     1     -11.220   9.909  -5.838  1.00  0.00    -0.206 F 
ATOM     67  C   UNL     1     -11.300  11.019  -2.392  1.00  0.00     0.006 A 
ENDBRANCH  46  60
BRANCH  47  68
ATOM     68  C   UNL     1      -2.700   8.320 -11.497  1.00  0.00     0.057 A 
ATOM     69  C   UNL     1      -1.535   9.072 -11.676  1.00  0.00     0.134 A 
ATOM     70  C   UNL     1      -2.901   7.225 -12.348  1.00  0.00     0.134 A 
ATOM     71  F   UNL     1      -1.300  10.146 -10.908  1.00  0.00    -0.206 F 
ATOM     72  C   UNL     1      -0.602   8.747 -12.662  1.00  0.00     0.040 A 
ATOM     73  C   UNL     1      -1.966   6.875 -13.322  1.00  0.00     0.040 A 
ATOM     74  F   UNL     1      -4.000   6.466 -12.227  1.00  0.00    -0.206 F 
ATOM     75  C   UNL     1      -0.812   7.640 -13.483  1.00  0.00     0.006 A 
ENDBRANCH  47  68
BRANCH  59  76
ATOM     76  C   UNL     1      -7.412  13.377 -10.725  1.00  0.00     0.057 A 
ATOM     77  C   UNL     1      -8.204  13.177 -11.862  1.00  0.00     0.134 A 
ATOM     78  C   UNL     1      -7.031  14.688 -10.419  1.00  0.00     0.134 A 
ATOM     79  F   UNL     1      -8.587  11.940 -12.216  1.00  0.00    -0.206 F 
ATOM     80  C   UNL     1      -8.594  14.243 -12.673  1.00  0.00     0.040 A 
ATOM     81  C   UNL     1      -7.429  15.764 -11.211  1.00  0.00     0.040 A 
ATOM     82  F   UNL     1      -6.274  14.943  -9.341  1.00  0.00    -0.206 F 
ATOM     83  C   UNL     1      -8.211  15.543 -12.344  1.00  0.00     0.006 A 
ENDBRANCH  59  76
ENDBRANCH  33  34
ENDBRANCH  26  28
ENDBRANCH  25  26
ENDBRANCH  24  25
ENDBRANCH  23  24
ENDBRANCH   1  23
TORSDOF 17
