REMARK SMILES CC1=C[C@@H]([C@@H]2N=N[C@H](S)N2/N=C/c2ccc(C(=O)OCCOC(=O)c3ccc(-c4c5nc(c(-c6c(F)cccc6F)c6ccc([nH]6)c(-c6c(F)cccc6F)c6nc(c(-c7c(F)cccc7F)c7ccc4[nH]7)C=C6)C=C5)cc3)cc2)N=N1
REMARK SMILES IDX 20 1 19 2 17 3 18 4 16 5 13 6 14 7 80 8 15 9 79 10 12 11
REMARK SMILES IDX 11 12 10 13 5 14 6 15 7 16 8 17 4 18 1 19 2 20 3 21 82 22
REMARK SMILES IDX 81 23 9 24 21 26 22 27 23 28 24 29 25 30 26 31 78 32 27 33
REMARK SMILES IDX 77 34 28 35 29 36 30 37 71 38 31 39 76 40 70 41 72 42 32 43
REMARK SMILES IDX 75 44 69 45 68 46 33 48 59 49 42 50 58 51 43 52 46 53 57 54
REMARK SMILES IDX 73 55 44 56 45 57 56 59 74 60 47 61 34 62 35 63 40 64 36 65
REMARK SMILES IDX 37 66 39 67 41 68 38 69 60 70 61 71 66 72 62 73 63 74 65 75
REMARK SMILES IDX 67 76 64 77 48 78 49 79 54 80 50 81 51 82 53 83 55 84 52 85
REMARK H PARENT 9 25 72 47 46 58
REMARK Flexibility Score: inf
ROOT
ATOM      1  C   UNL     1      -8.514   2.637  -9.005  1.00  0.00     0.275 C 
ENDROOT
BRANCH   1   2
ATOM      2  O   UNL     1      -7.197   2.580  -8.434  1.00  0.00    -0.458 OA
BRANCH   2   3
ATOM      3  C   UNL     1      -6.511   1.434  -8.665  1.00  0.00     0.338 C 
ATOM      4  O   UNL     1      -6.952   0.415  -9.178  1.00  0.00    -0.246 OA
BRANCH   3   5
ATOM      5  C   UNL     1      -5.081   1.602  -8.306  1.00  0.00     0.060 A 
ATOM      6  C   UNL     1      -2.384   1.775  -7.633  1.00  0.00    -0.005 A 
ATOM      7  C   UNL     1      -2.797   0.838  -8.584  1.00  0.00     0.010 A 
ATOM      8  C   UNL     1      -3.300   2.656  -7.051  1.00  0.00     0.010 A 
ATOM      9  C   UNL     1      -4.149   0.744  -8.909  1.00  0.00     0.016 A 
ATOM     10  C   UNL     1      -4.649   2.578  -7.399  1.00  0.00     0.016 A 
BRANCH   6  11
ATOM     11  C   UNL     1      -0.968   1.779  -7.231  1.00  0.00     0.141 C 
ATOM     12  N   UNL     1      -0.601   2.220  -6.070  1.00  0.00    -0.180 NA
BRANCH  12  13
ATOM     13  N   UNL     1       0.717   2.164  -5.745  1.00  0.00    -0.233 NA
ATOM     14  C   UNL     1       1.095   2.066  -4.328  1.00  0.00     0.274 C 
ATOM     15  N   UNL     1       2.388   1.338  -4.246  1.00  0.00    -0.161 NA
ATOM     16  N   UNL     1       2.773   1.000  -5.388  1.00  0.00    -0.153 NA
ATOM     17  C   UNL     1       1.783   1.407  -6.406  1.00  0.00     0.298 C 
BRANCH  14  18
ATOM     18  C   UNL     1       1.216   3.458  -3.657  1.00  0.00     0.201 C 
ATOM     19  C   UNL     1       4.408   5.320  -3.906  1.00  0.00     0.068 C 
ATOM     20  C   UNL     1       3.164   4.577  -3.581  1.00  0.00     0.058 C 
ATOM     21  C   UNL     1       2.111   4.409  -4.377  1.00  0.00     0.031 C 
ATOM     22  N   UNL     1       3.014   3.945  -2.372  1.00  0.00    -0.160 NA
ATOM     23  N   UNL     1       1.908   3.331  -2.336  1.00  0.00    -0.177 NA
ENDBRANCH  14  18
BRANCH  17  24
ATOM     24  S   UNL     1       2.472   2.409  -7.772  1.00  0.00    -0.128 SA
ATOM     25  H   UNL     1       2.959   3.578  -7.276  1.00  0.00     0.106 HD
ENDBRANCH  17  24
ENDBRANCH  12  13
ENDBRANCH   6  11
ENDBRANCH   3   5
ENDBRANCH   2   3
ENDBRANCH   1   2
BRANCH   1  26
ATOM     26  C   UNL     1      -8.475   3.206 -10.415  1.00  0.00     0.275 C 
BRANCH  26  27
ATOM     27  O   UNL     1      -7.878   2.300 -11.343  1.00  0.00    -0.458 OA
BRANCH  27  28
ATOM     28  C   UNL     1      -6.569   2.525 -11.595  1.00  0.00     0.338 C 
ATOM     29  O   UNL     1      -5.763   3.111 -10.893  1.00  0.00    -0.246 OA
BRANCH  28  30
ATOM     30  C   UNL     1      -6.290   2.177 -12.989  1.00  0.00     0.060 A 
ATOM     31  C   UNL     1      -4.955   2.106 -13.397  1.00  0.00     0.016 A 
ATOM     32  C   UNL     1      -7.346   2.183 -13.912  1.00  0.00     0.016 A 
ATOM     33  C   UNL     1      -4.671   2.146 -14.748  1.00  0.00     0.010 A 
ATOM     34  C   UNL     1      -7.062   2.240 -15.255  1.00  0.00     0.010 A 
ATOM     35  C   UNL     1      -5.728   2.270 -15.657  1.00  0.00    -0.014 A 
BRANCH  35  36
ATOM     36  C   UNL     1      -5.426   2.269 -17.076  1.00  0.00     0.031 A 
ATOM     37  C   UNL     1      -5.010   0.935 -17.571  1.00  0.00     0.074 A 
ATOM     38  C   UNL     1      -5.710   3.321 -17.869  1.00  0.00     0.049 A 
ATOM     39  N   UNL     1      -3.897   0.606 -18.134  1.00  0.00    -0.248 NA
ATOM     40  C   UNL     1      -5.893  -0.210 -17.277  1.00  0.00     0.031 C 
ATOM     41  C   UNL     1      -6.436   4.535 -17.479  1.00  0.00     0.029 A 
ATOM     42  N   UNL     1      -5.543   3.479 -19.214  1.00  0.00    -0.354 N 
ATOM     43  C   UNL     1      -4.045  -0.735 -18.479  1.00  0.00     0.074 A 
ATOM     44  C   UNL     1      -5.183  -1.230 -17.757  1.00  0.00     0.031 C 
ATOM     45  C   UNL     1      -6.849   5.181 -18.590  1.00  0.00     0.029 A 
ATOM     46  C   UNL     1      -6.312   4.501 -19.757  1.00  0.00     0.049 A 
ATOM     47  H   UNL     1      -4.933   2.921 -19.750  1.00  0.00     0.167 HD
ATOM     48  C   UNL     1      -3.438  -1.225 -19.592  1.00  0.00     0.037 A 
ATOM     49  C   UNL     1      -6.548   4.732 -21.070  1.00  0.00     0.037 A 
ATOM     50  C   UNL     1      -2.380  -0.354 -20.030  1.00  0.00     0.049 A 
ATOM     51  C   UNL     1      -5.502   4.038 -21.855  1.00  0.00     0.074 A 
ATOM     52  C   UNL     1      -1.113  -0.021 -19.609  1.00  0.00     0.029 A 
ATOM     53  N   UNL     1      -2.790   0.613 -20.905  1.00  0.00    -0.354 N 
ATOM     54  N   UNL     1      -4.245   4.383 -21.857  1.00  0.00    -0.248 NA
ATOM     55  C   UNL     1      -5.787   2.726 -22.428  1.00  0.00     0.031 C 
ATOM     56  C   UNL     1      -0.844   1.274 -20.144  1.00  0.00     0.029 A 
ATOM     57  C   UNL     1      -1.945   1.687 -20.892  1.00  0.00     0.049 A 
ATOM     58  H   UNL     1      -3.592   0.544 -21.473  1.00  0.00     0.167 HD
ATOM     59  C   UNL     1      -3.565   3.192 -22.013  1.00  0.00     0.074 A 
ATOM     60  C   UNL     1      -4.543   2.258 -22.552  1.00  0.00     0.031 C 
ATOM     61  C   UNL     1      -2.380   2.980 -21.372  1.00  0.00     0.037 A 
BRANCH  48  62
ATOM     62  C   UNL     1      -4.125  -2.152 -20.574  1.00  0.00     0.057 A 
ATOM     63  C   UNL     1      -3.374  -2.684 -21.638  1.00  0.00     0.134 A 
ATOM     64  C   UNL     1      -5.525  -2.266 -20.717  1.00  0.00     0.134 A 
ATOM     65  F   UNL     1      -2.034  -2.612 -21.635  1.00  0.00    -0.206 F 
ATOM     66  C   UNL     1      -3.973  -3.226 -22.782  1.00  0.00     0.040 A 
ATOM     67  C   UNL     1      -6.131  -2.853 -21.831  1.00  0.00     0.040 A 
ATOM     68  F   UNL     1      -6.386  -1.722 -19.850  1.00  0.00    -0.206 F 
ATOM     69  C   UNL     1      -5.356  -3.307 -22.884  1.00  0.00     0.006 A 
ENDBRANCH  48  62
BRANCH  49  70
ATOM     70  C   UNL     1      -7.741   5.329 -21.714  1.00  0.00     0.057 A 
ATOM     71  C   UNL     1      -7.692   5.792 -23.037  1.00  0.00     0.134 A 
ATOM     72  C   UNL     1      -9.023   5.219 -21.147  1.00  0.00     0.134 A 
ATOM     73  F   UNL     1      -6.519   5.901 -23.678  1.00  0.00    -0.206 F 
ATOM     74  C   UNL     1      -8.850   6.093 -23.766  1.00  0.00     0.040 A 
ATOM     75  C   UNL     1     -10.186   5.528 -21.859  1.00  0.00     0.040 A 
ATOM     76  F   UNL     1      -9.197   4.723 -19.914  1.00  0.00    -0.206 F 
ATOM     77  C   UNL     1     -10.104   5.949 -23.180  1.00  0.00     0.006 A 
ENDBRANCH  49  70
BRANCH  61  78
ATOM     78  C   UNL     1      -1.582   4.185 -20.988  1.00  0.00     0.057 A 
ATOM     79  C   UNL     1      -1.981   5.136 -20.040  1.00  0.00     0.134 A 
ATOM     80  C   UNL     1      -0.317   4.349 -21.564  1.00  0.00     0.134 A 
ATOM     81  F   UNL     1      -3.139   5.015 -19.378  1.00  0.00    -0.206 F 
ATOM     82  C   UNL     1      -1.174   6.232 -19.719  1.00  0.00     0.040 A 
ATOM     83  C   UNL     1       0.514   5.417 -21.225  1.00  0.00     0.040 A 
ATOM     84  F   UNL     1       0.146   3.451 -22.448  1.00  0.00    -0.206 F 
ATOM     85  C   UNL     1       0.080   6.371 -20.310  1.00  0.00     0.006 A 
ENDBRANCH  61  78
ENDBRANCH  35  36
ENDBRANCH  28  30
ENDBRANCH  27  28
ENDBRANCH  26  27
ENDBRANCH   1  26
TORSDOF 15
