REMARK SMILES CCOc1cc(C(=O)OCCOC(=O)c2ccc(-c3c4nc(c(-c5c(F)cccc5F)c5ccc([nH]5)c(-c5c(F)cccc5F)c5nc(c(-c6c(F)cccc6F)c6ccc3[nH]6)C=C5)C=C4)cc2)ccc1OCc1ccc(Cl)c(Cl)c1
REMARK SMILES IDX 10 1 9 2 7 3 8 4 6 5 4 6 5 7 71 8 70 9 69 10 3 11 2 12 1 13
REMARK SMILES IDX 72 14 73 15 74 16 75 17 81 18 76 19 79 20 77 21 80 22 78 23
REMARK SMILES IDX 11 24 12 25 13 26 14 27 15 28 16 29 68 30 17 31 67 32 18 33
REMARK SMILES IDX 19 34 20 35 61 36 21 37 66 38 60 39 62 40 22 41 65 42 59 43
REMARK SMILES IDX 58 44 23 46 49 47 32 48 48 49 33 50 36 51 47 52 63 53 34 54
REMARK SMILES IDX 35 55 46 57 64 58 37 59 24 60 25 61 30 62 26 63 27 64 29 65
REMARK SMILES IDX 31 66 28 67 50 68 51 69 56 70 52 71 53 72 55 73 57 74 54 75
REMARK SMILES IDX 38 76 39 77 44 78 40 79 41 80 43 81 45 82 42 83
REMARK H PARENT 62 45 36 56
REMARK Flexibility Score: inf
ROOT
ATOM      1  C   UNL     1       6.265  -6.508   2.296  1.00  0.00     0.275 C 
ENDROOT
BRANCH   1   2
ATOM      2  O   UNL     1       5.747  -5.166   2.186  1.00  0.00    -0.458 OA
BRANCH   2   3
ATOM      3  C   UNL     1       4.913  -4.910   1.152  1.00  0.00     0.338 C 
ATOM      4  O   UNL     1       4.606  -5.678   0.250  1.00  0.00    -0.246 OA
BRANCH   3   5
ATOM      5  C   UNL     1       4.456  -3.504   1.211  1.00  0.00     0.064 A 
ATOM      6  C   UNL     1       2.772  -1.764   0.972  1.00  0.00     0.162 A 
ATOM      7  C   UNL     1       3.096  -3.114   1.133  1.00  0.00     0.066 A 
ATOM      8  C   UNL     1       3.817  -0.858   0.740  1.00  0.00     0.161 A 
ATOM      9  C   UNL     1       5.144  -1.223   0.980  1.00  0.00     0.051 A 
ATOM     10  C   UNL     1       5.467  -2.545   1.223  1.00  0.00     0.020 A 
BRANCH   6  11
ATOM     11  O   UNL     1       1.530  -1.224   1.124  1.00  0.00    -0.490 OA
BRANCH  11  12
ATOM     12  C   UNL     1       0.376  -1.846   0.565  1.00  0.00     0.226 C 
ATOM     13  C   UNL     1      -0.679  -0.743   0.461  1.00  0.00     0.049 C 
ENDBRANCH  11  12
ENDBRANCH   6  11
BRANCH   8  14
ATOM     14  O   UNL     1       3.719   0.363   0.134  1.00  0.00    -0.485 OA
BRANCH  14  15
ATOM     15  C   UNL     1       2.615   0.656  -0.728  1.00  0.00     0.265 C 
BRANCH  15  16
ATOM     16  C   UNL     1       2.206  -0.244  -1.901  1.00  0.00    -0.009 A 
ATOM     17  C   UNL     1       1.148   0.210  -2.711  1.00  0.00     0.009 A 
ATOM     18  C   UNL     1       2.715  -1.526  -2.166  1.00  0.00     0.029 A 
ATOM     19  C   UNL     1       0.562  -0.613  -3.678  1.00  0.00     0.022 A 
ATOM     20  C   UNL     1       2.091  -2.379  -3.091  1.00  0.00     0.060 A 
ATOM     21  C   UNL     1       1.009  -1.923  -3.846  1.00  0.00     0.059 A 
ATOM     22  Cl  UNL     1       2.656  -4.012  -3.188  1.00  0.00    -0.083 Cl
ATOM     23  Cl  UNL     1       0.169  -2.924  -4.977  1.00  0.00    -0.083 Cl
ENDBRANCH  15  16
ENDBRANCH  14  15
ENDBRANCH   8  14
ENDBRANCH   3   5
ENDBRANCH   2   3
ENDBRANCH   1   2
BRANCH   1  24
ATOM     24  C   UNL     1       5.577  -7.237   3.449  1.00  0.00     0.275 C 
BRANCH  24  25
ATOM     25  O   UNL     1       4.217  -7.546   3.091  1.00  0.00    -0.458 OA
BRANCH  25  26
ATOM     26  C   UNL     1       3.304  -6.638   3.503  1.00  0.00     0.338 C 
ATOM     27  O   UNL     1       3.482  -5.661   4.204  1.00  0.00    -0.246 OA
BRANCH  26  28
ATOM     28  C   UNL     1       2.010  -6.914   2.869  1.00  0.00     0.060 A 
ATOM     29  C   UNL     1       1.784  -6.404   1.597  1.00  0.00     0.016 A 
ATOM     30  C   UNL     1       0.966  -7.480   3.591  1.00  0.00     0.016 A 
ATOM     31  C   UNL     1       0.500  -6.316   1.090  1.00  0.00     0.010 A 
ATOM     32  C   UNL     1      -0.308  -7.526   3.014  1.00  0.00     0.010 A 
ATOM     33  C   UNL     1      -0.562  -6.906   1.775  1.00  0.00    -0.014 A 
BRANCH  33  34
ATOM     34  C   UNL     1      -1.929  -6.843   1.197  1.00  0.00     0.031 A 
ATOM     35  C   UNL     1      -3.058  -6.252   1.993  1.00  0.00     0.074 A 
ATOM     36  C   UNL     1      -2.154  -7.291  -0.055  1.00  0.00     0.049 A 
ATOM     37  N   UNL     1      -4.343  -6.272   1.749  1.00  0.00    -0.248 NA
ATOM     38  C   UNL     1      -2.695  -5.561   3.241  1.00  0.00     0.031 C 
ATOM     39  C   UNL     1      -1.135  -7.819  -0.967  1.00  0.00     0.029 A 
ATOM     40  N   UNL     1      -3.314  -7.366  -0.782  1.00  0.00    -0.354 N 
ATOM     41  C   UNL     1      -4.946  -5.659   2.840  1.00  0.00     0.074 A 
ATOM     42  C   UNL     1      -3.886  -5.289   3.754  1.00  0.00     0.031 C 
ATOM     43  C   UNL     1      -1.704  -8.116  -2.143  1.00  0.00     0.029 A 
ATOM     44  C   UNL     1      -3.141  -7.915  -2.030  1.00  0.00     0.049 A 
ATOM     45  H   UNL     1      -4.185  -7.058  -0.444  1.00  0.00     0.167 HD
ATOM     46  C   UNL     1      -6.263  -5.430   3.057  1.00  0.00     0.037 A 
ATOM     47  C   UNL     1      -4.041  -8.273  -2.963  1.00  0.00     0.037 A 
ATOM     48  C   UNL     1      -7.302  -5.772   2.119  1.00  0.00     0.049 A 
ATOM     49  C   UNL     1      -5.499  -8.085  -2.668  1.00  0.00     0.074 A 
ATOM     50  C   UNL     1      -8.667  -5.572   2.230  1.00  0.00     0.029 A 
ATOM     51  N   UNL     1      -7.088  -6.383   0.890  1.00  0.00    -0.354 N 
ATOM     52  N   UNL     1      -6.066  -7.553  -1.613  1.00  0.00    -0.248 NA
ATOM     53  C   UNL     1      -6.441  -8.566  -3.685  1.00  0.00     0.031 C 
ATOM     54  C   UNL     1      -9.282  -6.114   1.096  1.00  0.00     0.029 A 
ATOM     55  C   UNL     1      -8.297  -6.593   0.246  1.00  0.00     0.049 A 
ATOM     56  H   UNL     1      -6.206  -6.631   0.529  1.00  0.00     0.167 HD
ATOM     57  C   UNL     1      -7.433  -7.612  -1.847  1.00  0.00     0.074 A 
ATOM     58  C   UNL     1      -7.605  -8.220  -3.152  1.00  0.00     0.031 C 
ATOM     59  C   UNL     1      -8.451  -7.199  -1.054  1.00  0.00     0.037 A 
BRANCH  46  60
ATOM     60  C   UNL     1      -6.650  -4.836   4.384  1.00  0.00     0.057 A 
ATOM     61  C   UNL     1      -6.322  -3.523   4.747  1.00  0.00     0.134 A 
ATOM     62  C   UNL     1      -7.355  -5.603   5.322  1.00  0.00     0.134 A 
ATOM     63  F   UNL     1      -5.637  -2.735   3.904  1.00  0.00    -0.206 F 
ATOM     64  C   UNL     1      -6.638  -3.012   6.008  1.00  0.00     0.040 A 
ATOM     65  C   UNL     1      -7.707  -5.092   6.572  1.00  0.00     0.040 A 
ATOM     66  F   UNL     1      -7.710  -6.866   5.041  1.00  0.00    -0.206 F 
ATOM     67  C   UNL     1      -7.337  -3.797   6.924  1.00  0.00     0.006 A 
ENDBRANCH  46  60
BRANCH  47  68
ATOM     68  C   UNL     1      -3.580  -8.878  -4.238  1.00  0.00     0.057 A 
ATOM     69  C   UNL     1      -3.711  -8.189  -5.448  1.00  0.00     0.134 A 
ATOM     70  C   UNL     1      -2.970 -10.139  -4.275  1.00  0.00     0.134 A 
ATOM     71  F   UNL     1      -4.306  -6.988  -5.479  1.00  0.00    -0.206 F 
ATOM     72  C   UNL     1      -3.255  -8.732  -6.650  1.00  0.00     0.040 A 
ATOM     73  C   UNL     1      -2.482 -10.681  -5.465  1.00  0.00     0.040 A 
ATOM     74  F   UNL     1      -2.808 -10.848  -3.148  1.00  0.00    -0.206 F 
ATOM     75  C   UNL     1      -2.629  -9.977  -6.658  1.00  0.00     0.006 A 
ENDBRANCH  47  68
BRANCH  59  76
ATOM     76  C   UNL     1      -9.841  -7.349  -1.600  1.00  0.00     0.057 A 
ATOM     77  C   UNL     1     -10.456  -8.600  -1.737  1.00  0.00     0.134 A 
ATOM     78  C   UNL     1     -10.582  -6.220  -1.971  1.00  0.00     0.134 A 
ATOM     79  F   UNL     1      -9.794  -9.723  -1.416  1.00  0.00    -0.206 F 
ATOM     80  C   UNL     1     -11.749  -8.724  -2.248  1.00  0.00     0.040 A 
ATOM     81  C   UNL     1     -11.887  -6.329  -2.453  1.00  0.00     0.040 A 
ATOM     82  F   UNL     1     -10.055  -4.991  -1.859  1.00  0.00    -0.206 F 
ATOM     83  C   UNL     1     -12.471  -7.585  -2.600  1.00  0.00     0.006 A 
ENDBRANCH  59  76
ENDBRANCH  33  34
ENDBRANCH  26  28
ENDBRANCH  25  26
ENDBRANCH  24  25
ENDBRANCH   1  24
TORSDOF 16
