REMARK SMILES O=C(OCCOC(=O)c1cccc(CSc2nc(-c3ccccc3)n[nH]2)c1)c1ccc(-c2c3nc(c(-c4c(F)cccc4F)c4ccc([nH]4)c(-c4c(F)cccc4F)c4nc(c(-c5c(F)cccc5F)c5ccc2[nH]5)C=C4)C=C3)cc1
REMARK SMILES IDX 5 1 4 2 3 3 2 4 1 5 28 6 29 7 81 8 30 9 80 10 31 11 32 12
REMARK SMILES IDX 33 13 74 14 34 15 79 16 73 17 75 18 35 19 78 20 72 21 71 22
REMARK SMILES IDX 36 24 62 25 45 26 61 27 46 28 49 29 60 30 76 31 47 32 48 33
REMARK SMILES IDX 59 35 77 36 50 37 37 38 38 39 43 40 39 41 40 42 42 43 44 44
REMARK SMILES IDX 41 45 63 46 64 47 69 48 65 49 66 50 68 51 70 52 67 53 51 54
REMARK SMILES IDX 52 55 57 56 53 57 54 58 56 59 58 60 55 61 6 62 7 63 8 64
REMARK SMILES IDX 9 65 10 66 27 67 11 68 13 69 12 70 14 71 15 72 16 73 17 74
REMARK SMILES IDX 26 75 18 76 25 77 19 79 20 80 24 81 21 82 23 83 22 84
REMARK H PARENT 75 23 49 34 26 78
REMARK Flexibility Score: inf
ROOT
ATOM      1  C   UNL     1       4.003  -0.796  -1.940  1.00  0.00     0.275 C 
ENDROOT
BRANCH   1   2
ATOM      2  C   UNL     1       4.148  -1.362  -0.521  1.00  0.00     0.275 C 
BRANCH   2   3
ATOM      3  O   UNL     1       3.093  -1.018   0.396  1.00  0.00    -0.458 OA
BRANCH   3   4
ATOM      4  C   UNL     1       2.923   0.079   1.172  1.00  0.00     0.338 C 
ATOM      5  O   UNL     1       2.021   0.080   2.009  1.00  0.00    -0.246 OA
BRANCH   4   6
ATOM      6  C   UNL     1       3.682   1.354   0.978  1.00  0.00     0.060 A 
ATOM      7  C   UNL     1       4.978   1.466   0.470  1.00  0.00     0.016 A 
ATOM      8  C   UNL     1       3.011   2.540   1.329  1.00  0.00     0.016 A 
ATOM      9  C   UNL     1       5.556   2.713   0.230  1.00  0.00     0.010 A 
ATOM     10  C   UNL     1       3.579   3.793   1.083  1.00  0.00     0.010 A 
ATOM     11  C   UNL     1       4.860   3.883   0.529  1.00  0.00    -0.014 A 
BRANCH  11  12
ATOM     12  C   UNL     1       5.554   5.184   0.437  1.00  0.00     0.031 A 
ATOM     13  C   UNL     1       6.037   5.810   1.708  1.00  0.00     0.074 A 
ATOM     14  C   UNL     1       5.830   5.756  -0.748  1.00  0.00     0.049 A 
ATOM     15  N   UNL     1       6.695   6.925   1.875  1.00  0.00    -0.248 NA
ATOM     16  C   UNL     1       5.798   5.052   2.947  1.00  0.00     0.031 C 
ATOM     17  C   UNL     1       5.577   5.161  -2.057  1.00  0.00     0.029 A 
ATOM     18  N   UNL     1       6.368   6.982  -1.046  1.00  0.00    -0.354 N 
ATOM     19  C   UNL     1       7.013   6.963   3.223  1.00  0.00     0.074 A 
ATOM     20  C   UNL     1       6.390   5.818   3.848  1.00  0.00     0.031 C 
ATOM     21  C   UNL     1       5.854   6.063  -3.014  1.00  0.00     0.029 A 
ATOM     22  C   UNL     1       6.303   7.294  -2.382  1.00  0.00     0.049 A 
ATOM     23  H   UNL     1       6.762   7.579  -0.369  1.00  0.00     0.167 HD
ATOM     24  C   UNL     1       7.808   7.845   3.868  1.00  0.00     0.037 A 
ATOM     25  C   UNL     1       6.552   8.454  -3.016  1.00  0.00     0.037 A 
ATOM     26  C   UNL     1       8.385   9.000   3.240  1.00  0.00     0.049 A 
ATOM     27  C   UNL     1       7.189   9.562  -2.232  1.00  0.00     0.074 A 
ATOM     28  C   UNL     1       9.194   9.973   3.795  1.00  0.00     0.029 A 
ATOM     29  N   UNL     1       8.186   9.350   1.911  1.00  0.00    -0.354 N 
ATOM     30  N   UNL     1       7.522   9.577  -0.964  1.00  0.00    -0.248 NA
ATOM     31  C   UNL     1       7.552  10.778  -2.969  1.00  0.00     0.031 C 
ATOM     32  C   UNL     1       9.430  10.947   2.817  1.00  0.00     0.029 A 
ATOM     33  C   UNL     1       8.818  10.550   1.637  1.00  0.00     0.049 A 
ATOM     34  H   UNL     1       7.670   8.822   1.259  1.00  0.00     0.167 HD
ATOM     35  C   UNL     1       8.205  10.767  -0.765  1.00  0.00     0.074 A 
ATOM     36  C   UNL     1       8.208  11.460  -2.040  1.00  0.00     0.031 C 
ATOM     37  C   UNL     1       8.808  11.223   0.360  1.00  0.00     0.037 A 
BRANCH  24  38
ATOM     38  C   UNL     1       8.059   7.579   5.321  1.00  0.00     0.057 A 
ATOM     39  C   UNL     1       8.841   6.494   5.747  1.00  0.00     0.134 A 
ATOM     40  C   UNL     1       7.472   8.379   6.306  1.00  0.00     0.134 A 
ATOM     41  F   UNL     1       9.407   5.670   4.851  1.00  0.00    -0.206 F 
ATOM     42  C   UNL     1       8.998   6.194   7.101  1.00  0.00     0.040 A 
ATOM     43  C   UNL     1       7.644   8.105   7.663  1.00  0.00     0.040 A 
ATOM     44  F   UNL     1       6.707   9.426   5.965  1.00  0.00    -0.206 F 
ATOM     45  C   UNL     1       8.399   7.004   8.064  1.00  0.00     0.006 A 
ENDBRANCH  24  38
BRANCH  25  46
ATOM     46  C   UNL     1       6.196   8.621  -4.447  1.00  0.00     0.057 A 
ATOM     47  C   UNL     1       7.165   8.671  -5.453  1.00  0.00     0.134 A 
ATOM     48  C   UNL     1       4.856   8.758  -4.835  1.00  0.00     0.134 A 
ATOM     49  F   UNL     1       8.464   8.556  -5.143  1.00  0.00    -0.206 F 
ATOM     50  C   UNL     1       6.818   8.870  -6.791  1.00  0.00     0.040 A 
ATOM     51  C   UNL     1       4.492   8.944  -6.170  1.00  0.00     0.040 A 
ATOM     52  F   UNL     1       3.880   8.711  -3.915  1.00  0.00    -0.206 F 
ATOM     53  C   UNL     1       5.478   9.007  -7.153  1.00  0.00     0.006 A 
ENDBRANCH  25  46
BRANCH  37  54
ATOM     54  C   UNL     1       9.574  12.505   0.246  1.00  0.00     0.057 A 
ATOM     55  C   UNL     1       8.936  13.742   0.102  1.00  0.00     0.134 A 
ATOM     56  C   UNL     1      10.973  12.499   0.318  1.00  0.00     0.134 A 
ATOM     57  F   UNL     1       7.599  13.812   0.007  1.00  0.00    -0.206 F 
ATOM     58  C   UNL     1       9.665  14.928   0.012  1.00  0.00     0.040 A 
ATOM     59  C   UNL     1      11.711  13.680   0.263  1.00  0.00     0.040 A 
ATOM     60  F   UNL     1      11.643  11.345   0.461  1.00  0.00    -0.206 F 
ATOM     61  C   UNL     1      11.056  14.899   0.102  1.00  0.00     0.006 A 
ENDBRANCH  37  54
ENDBRANCH  11  12
ENDBRANCH   4   6
ENDBRANCH   3   4
ENDBRANCH   2   3
ENDBRANCH   1   2
BRANCH   1  62
ATOM     62  O   UNL     1       3.548   0.567  -1.981  1.00  0.00    -0.458 OA
BRANCH  62  63
ATOM     63  C   UNL     1       2.197   0.702  -2.027  1.00  0.00     0.338 C 
ATOM     64  O   UNL     1       1.383  -0.204  -2.112  1.00  0.00    -0.246 OA
BRANCH  63  65
ATOM     65  C   UNL     1       1.807   2.118  -1.837  1.00  0.00     0.060 A 
ATOM     66  C   UNL     1       0.706   2.389  -1.021  1.00  0.00     0.016 A 
ATOM     67  C   UNL     1       2.480   3.167  -2.470  1.00  0.00     0.020 A 
ATOM     68  C   UNL     1       0.301   3.706  -0.811  1.00  0.00     0.001 A 
ATOM     69  C   UNL     1       1.991   4.486  -2.370  1.00  0.00    -0.037 A 
ATOM     70  C   UNL     1       0.934   4.747  -1.488  1.00  0.00     0.004 A 
BRANCH  69  71
ATOM     71  C   UNL     1       2.527   5.600  -3.241  1.00  0.00     0.113 C 
BRANCH  71  72
ATOM     72  S   UNL     1       1.334   6.216  -4.470  1.00  0.00    -0.082 SA
BRANCH  72  73
ATOM     73  C   UNL     1       1.019   4.864  -5.494  1.00  0.00     0.184 A 
ATOM     74  N   UNL     1       0.116   4.793  -6.441  1.00  0.00    -0.201 NA
ATOM     75  N   UNL     1       1.718   3.703  -5.463  1.00  0.00    -0.254 N 
ATOM     76  C   UNL     1       0.258   3.505  -6.907  1.00  0.00     0.182 A 
ATOM     77  N   UNL     1       1.231   2.800  -6.314  1.00  0.00    -0.153 NA
ATOM     78  H   UNL     1       2.496   3.546  -4.880  1.00  0.00     0.192 HD
BRANCH  76  79
ATOM     79  C   UNL     1      -0.494   2.973  -8.019  1.00  0.00     0.021 A 
ATOM     80  C   UNL     1      -1.426   1.950  -7.817  1.00  0.00     0.012 A 
ATOM     81  C   UNL     1      -0.210   3.420  -9.313  1.00  0.00     0.012 A 
ATOM     82  C   UNL     1      -2.071   1.374  -8.911  1.00  0.00     0.001 A 
ATOM     83  C   UNL     1      -0.846   2.833 -10.405  1.00  0.00     0.001 A 
ATOM     84  C   UNL     1      -1.774   1.811 -10.203  1.00  0.00     0.000 A 
ENDBRANCH  76  79
ENDBRANCH  72  73
ENDBRANCH  71  72
ENDBRANCH  69  71
ENDBRANCH  63  65
ENDBRANCH  62  63
ENDBRANCH   1  62
TORSDOF 15
