REMARK SMILES CCC1(CC)C[NH+]([C@H](C)CCC(=O)OCCOC(=O)c2ccc(-c3c4nc(c(-c5c(F)cccc5F)c5ccc([nH]5)c(-c5c(F)cccc5F)c5nc(c(-c6c(F)cccc6F)c6ccc3[nH]6)C=C5)C=C4)cc2)C1
REMARK SMILES IDX 15 1 14 2 12 3 13 4 11 5 10 6 8 7 9 8 7 9 3 10 6 11 74 12
REMARK SMILES IDX 2 14 1 15 4 16 5 17 16 18 17 19 18 20 19 21 20 22 21 23
REMARK SMILES IDX 73 24 22 25 72 26 23 27 24 28 25 29 66 30 26 31 71 32 65 33
REMARK SMILES IDX 67 34 27 35 70 36 64 37 63 38 28 40 54 41 37 42 53 43 38 44
REMARK SMILES IDX 41 45 52 46 68 47 39 48 40 49 51 51 69 52 42 53 29 54 30 55
REMARK SMILES IDX 35 56 31 57 32 58 34 59 36 60 33 61 55 62 56 63 61 64 57 65
REMARK SMILES IDX 58 66 60 67 62 68 59 69 43 70 44 71 49 72 45 73 46 74 48 75
REMARK SMILES IDX 50 76 47 77
REMARK H PARENT 7 13 67 39 41 50
REMARK Flexibility Score: inf
ROOT
ATOM      1  C   UNL     1       0.654  -7.452   5.065  1.00  0.00     0.274 C 
ENDROOT
BRANCH   1   2
ATOM      2  O   UNL     1       0.491  -6.073   4.683  1.00  0.00    -0.462 OA
BRANCH   2   3
ATOM      3  C   UNL     1      -0.486  -5.381   5.319  1.00  0.00     0.306 C 
ATOM      4  O   UNL     1      -1.256  -5.856   6.147  1.00  0.00    -0.252 OA
BRANCH   3   5
ATOM      5  C   UNL     1      -0.591  -3.947   4.854  1.00  0.00     0.129 C 
BRANCH   5   6
ATOM      6  C   UNL     1       0.725  -3.268   4.464  1.00  0.00     0.076 C 
BRANCH   6   7
ATOM      7  C   UNL     1       1.208  -3.518   3.012  1.00  0.00     0.181 C 
ATOM      8  C   UNL     1       0.122  -3.127   1.993  1.00  0.00     0.075 C 
BRANCH   7   9
ATOM      9  N   UNL     1       2.534  -2.888   2.867  1.00  0.00    -0.331 N 
ATOM     10  C   UNL     1       3.466  -1.585   1.457  1.00  0.00     0.068 C 
ATOM     11  C   UNL     1       2.530  -1.434   2.696  1.00  0.00     0.275 C 
ATOM     12  C   UNL     1       3.151  -3.108   1.556  1.00  0.00     0.275 C 
ATOM     13  H   UNL     1       2.975  -3.269   3.704  1.00  0.00     0.348 HD
BRANCH  10  14
ATOM     14  C   UNL     1       2.883  -0.911   0.202  1.00  0.00     0.015 C 
ATOM     15  C   UNL     1       3.036   0.604   0.228  1.00  0.00     0.005 C 
ENDBRANCH  10  14
BRANCH  10  16
ATOM     16  C   UNL     1       4.945  -1.262   1.742  1.00  0.00     0.015 C 
ATOM     17  C   UNL     1       5.860  -1.673   0.596  1.00  0.00     0.005 C 
ENDBRANCH  10  16
ENDBRANCH   7   9
ENDBRANCH   6   7
ENDBRANCH   5   6
ENDBRANCH   3   5
ENDBRANCH   2   3
ENDBRANCH   1   2
BRANCH   1  18
ATOM     18  C   UNL     1       1.802  -7.628   6.062  1.00  0.00     0.275 C 
BRANCH  18  19
ATOM     19  O   UNL     1       1.487  -7.023   7.330  1.00  0.00    -0.458 OA
BRANCH  19  20
ATOM     20  C   UNL     1       2.013  -5.791   7.522  1.00  0.00     0.338 C 
ATOM     21  O   UNL     1       2.768  -5.184   6.784  1.00  0.00    -0.246 OA
BRANCH  20  22
ATOM     22  C   UNL     1       1.430  -5.186   8.729  1.00  0.00     0.060 A 
ATOM     23  C   UNL     1       0.696  -4.007   8.576  1.00  0.00     0.016 A 
ATOM     24  C   UNL     1       1.671  -5.714   9.999  1.00  0.00     0.016 A 
ATOM     25  C   UNL     1       0.200  -3.346   9.695  1.00  0.00     0.010 A 
ATOM     26  C   UNL     1       1.177  -5.044  11.124  1.00  0.00     0.010 A 
ATOM     27  C   UNL     1       0.451  -3.849  10.979  1.00  0.00    -0.014 A 
BRANCH  27  28
ATOM     28  C   UNL     1      -0.002  -3.073  12.157  1.00  0.00     0.031 A 
ATOM     29  C   UNL     1       0.977  -2.223  12.915  1.00  0.00     0.074 A 
ATOM     30  C   UNL     1      -1.300  -3.084  12.507  1.00  0.00     0.049 A 
ATOM     31  N   UNL     1       0.771  -1.447  13.949  1.00  0.00    -0.248 NA
ATOM     32  C   UNL     1       2.371  -2.248  12.447  1.00  0.00     0.031 C 
ATOM     33  C   UNL     1      -2.349  -3.848  11.832  1.00  0.00     0.029 A 
ATOM     34  N   UNL     1      -1.958  -2.420  13.510  1.00  0.00    -0.354 N 
ATOM     35  C   UNL     1       2.008  -0.897  14.261  1.00  0.00     0.074 A 
ATOM     36  C   UNL     1       2.963  -1.446  13.320  1.00  0.00     0.031 C 
ATOM     37  C   UNL     1      -3.524  -3.599  12.434  1.00  0.00     0.029 A 
ATOM     38  C   UNL     1      -3.306  -2.678  13.547  1.00  0.00     0.049 A 
ATOM     39  H   UNL     1      -1.508  -1.816  14.144  1.00  0.00     0.167 HD
ATOM     40  C   UNL     1       2.317  -0.010  15.236  1.00  0.00     0.037 A 
ATOM     41  C   UNL     1      -4.256  -2.224  14.386  1.00  0.00     0.037 A 
ATOM     42  C   UNL     1       1.369   0.542  16.168  1.00  0.00     0.049 A 
ATOM     43  C   UNL     1      -3.881  -1.257  15.474  1.00  0.00     0.074 A 
ATOM     44  C   UNL     1       1.589   1.449  17.191  1.00  0.00     0.029 A 
ATOM     45  N   UNL     1       0.016   0.240  16.186  1.00  0.00    -0.354 N 
ATOM     46  N   UNL     1      -2.710  -0.740  15.753  1.00  0.00    -0.248 NA
ATOM     47  C   UNL     1      -4.965  -0.807  16.360  1.00  0.00     0.031 C 
ATOM     48  C   UNL     1       0.373   1.673  17.847  1.00  0.00     0.029 A 
ATOM     49  C   UNL     1      -0.610   0.934  17.210  1.00  0.00     0.049 A 
ATOM     50  H   UNL     1      -0.434  -0.376  15.565  1.00  0.00     0.167 HD
ATOM     51  C   UNL     1      -2.917   0.108  16.833  1.00  0.00     0.074 A 
ATOM     52  C   UNL     1      -4.330   0.050  17.147  1.00  0.00     0.031 C 
ATOM     53  C   UNL     1      -2.017   0.865  17.508  1.00  0.00     0.037 A 
BRANCH  40  54
ATOM     54  C   UNL     1       3.754   0.402  15.356  1.00  0.00     0.057 A 
ATOM     55  C   UNL     1       4.345   1.287  14.445  1.00  0.00     0.134 A 
ATOM     56  C   UNL     1       4.548  -0.073  16.406  1.00  0.00     0.134 A 
ATOM     57  F   UNL     1       3.641   1.766  13.408  1.00  0.00    -0.206 F 
ATOM     58  C   UNL     1       5.682   1.670  14.565  1.00  0.00     0.040 A 
ATOM     59  C   UNL     1       5.880   0.318  16.548  1.00  0.00     0.040 A 
ATOM     60  F   UNL     1       4.040  -0.921  17.314  1.00  0.00    -0.206 F 
ATOM     61  C   UNL     1       6.452   1.189  15.622  1.00  0.00     0.006 A 
ENDBRANCH  40  54
BRANCH  41  62
ATOM     62  C   UNL     1      -5.659  -2.675  14.226  1.00  0.00     0.057 A 
ATOM     63  C   UNL     1      -6.649  -1.806  13.754  1.00  0.00     0.134 A 
ATOM     64  C   UNL     1      -6.044  -3.980  14.554  1.00  0.00     0.134 A 
ATOM     65  F   UNL     1      -6.343  -0.537  13.446  1.00  0.00    -0.206 F 
ATOM     66  C   UNL     1      -7.977  -2.216  13.624  1.00  0.00     0.040 A 
ATOM     67  C   UNL     1      -7.364  -4.409  14.409  1.00  0.00     0.040 A 
ATOM     68  F   UNL     1      -5.140  -4.858  15.012  1.00  0.00    -0.206 F 
ATOM     69  C   UNL     1      -8.336  -3.523  13.948  1.00  0.00     0.006 A 
ENDBRANCH  41  62
BRANCH  53  70
ATOM     70  C   UNL     1      -2.544   1.704  18.633  1.00  0.00     0.057 A 
ATOM     71  C   UNL     1      -2.922   1.140  19.858  1.00  0.00     0.134 A 
ATOM     72  C   UNL     1      -2.666   3.092  18.492  1.00  0.00     0.134 A 
ATOM     73  F   UNL     1      -2.842  -0.185  20.049  1.00  0.00    -0.206 F 
ATOM     74  C   UNL     1      -3.427   1.925  20.896  1.00  0.00     0.040 A 
ATOM     75  C   UNL     1      -3.150   3.890  19.530  1.00  0.00     0.040 A 
ATOM     76  F   UNL     1      -2.315   3.695  17.346  1.00  0.00    -0.206 F 
ATOM     77  C   UNL     1      -3.539   3.305  20.734  1.00  0.00     0.006 A 
ENDBRANCH  53  70
ENDBRANCH  27  28
ENDBRANCH  20  22
ENDBRANCH  19  20
ENDBRANCH  18  19
ENDBRANCH   1  18
TORSDOF 16
