REMARK SMILES NC(=O)c1c(F)cccc1O[C@@H](F)C(=O)OCCOC(=O)c1ccc(-c2c3nc(c(-c4c(F)cccc4F)c4ccc([nH]4)c(-c4c(F)cccc4F)c4nc(c(-c5c(F)cccc5F)c5ccc2[nH]5)C=C4)C=C3)cc1
REMARK SMILES IDX 17 1 16 2 14 3 15 4 12 5 13 6 11 7 10 8 4 9 5 10 6 11 7 12
REMARK SMILES IDX 9 13 8 14 2 15 1 16 3 19 18 20 19 21 20 22 21 23 22 24 23 25
REMARK SMILES IDX 75 26 24 27 74 28 25 29 26 30 27 31 68 32 28 33 73 34 67 35
REMARK SMILES IDX 69 36 29 37 72 38 66 39 65 40 30 42 56 43 39 44 55 45 40 46
REMARK SMILES IDX 43 47 54 48 70 49 41 50 42 51 53 53 71 54 44 55 31 56 32 57
REMARK SMILES IDX 37 58 33 59 34 60 36 61 38 62 35 63 57 64 58 65 63 66 59 67
REMARK SMILES IDX 60 68 62 69 64 70 61 71 45 72 46 73 51 74 47 75 48 76 50 77
REMARK SMILES IDX 52 78 49 79
REMARK H PARENT 1 17 1 18 69 41 43 52
REMARK Flexibility Score: inf
ROOT
ATOM      1  C   UNL     1       1.280   1.247   1.627  1.00  0.00     0.274 C 
ENDROOT
BRANCH   1   2
ATOM      2  O   UNL     1       0.739   1.830   0.423  1.00  0.00    -0.457 OA
BRANCH   2   3
ATOM      3  C   UNL     1      -0.617   1.785   0.269  1.00  0.00     0.381 C 
ATOM      4  O   UNL     1      -1.378   1.294   1.100  1.00  0.00    -0.244 OA
BRANCH   3   5
ATOM      5  C   UNL     1      -1.107   2.531  -1.006  1.00  0.00     0.461 C 
ATOM      6  F   UNL     1      -2.230   1.948  -1.531  1.00  0.00    -0.189 F 
BRANCH   5   7
ATOM      7  O   UNL     1      -0.376   3.047  -2.091  1.00  0.00    -0.450 OA
BRANCH   7   8
ATOM      8  C   UNL     1       0.812   2.544  -2.510  1.00  0.00     0.139 A 
ATOM      9  C   UNL     1       1.262   1.220  -2.539  1.00  0.00     0.117 A 
ATOM     10  C   UNL     1       2.534   0.948  -3.061  1.00  0.00     0.139 A 
ATOM     11  F   UNL     1       3.001  -0.310  -3.107  1.00  0.00    -0.206 F 
ATOM     12  C   UNL     1       3.352   1.958  -3.561  1.00  0.00     0.040 A 
ATOM     13  C   UNL     1       1.644   3.556  -3.026  1.00  0.00     0.047 A 
ATOM     14  C   UNL     1       2.905   3.271  -3.546  1.00  0.00     0.007 A 
BRANCH   9  15
ATOM     15  C   UNL     1       0.439   0.075  -2.107  1.00  0.00     0.255 C 
ATOM     16  N   UNL     1       1.039  -0.859  -1.312  1.00  0.00    -0.365 N 
ATOM     17  H   UNL     1       0.529  -1.641  -0.999  1.00  0.00     0.159 HD
ATOM     18  H   UNL     1       1.983  -0.751  -1.051  1.00  0.00     0.159 HD
ATOM     19  O   UNL     1      -0.744  -0.018  -2.398  1.00  0.00    -0.269 OA
ENDBRANCH   9  15
ENDBRANCH   7   8
ENDBRANCH   5   7
ENDBRANCH   3   5
ENDBRANCH   2   3
ENDBRANCH   1   2
BRANCH   1  20
ATOM     20  C   UNL     1       1.965   2.312   2.489  1.00  0.00     0.275 C 
BRANCH  20  21
ATOM     21  O   UNL     1       1.001   3.197   3.088  1.00  0.00    -0.458 OA
BRANCH  21  22
ATOM     22  C   UNL     1       0.613   4.225   2.300  1.00  0.00     0.338 C 
ATOM     23  O   UNL     1       1.032   4.510   1.190  1.00  0.00    -0.246 OA
BRANCH  22  24
ATOM     24  C   UNL     1      -0.560   4.881   2.890  1.00  0.00     0.060 A 
ATOM     25  C   UNL     1      -1.718   4.923   2.114  1.00  0.00     0.016 A 
ATOM     26  C   UNL     1      -0.515   5.504   4.137  1.00  0.00     0.016 A 
ATOM     27  C   UNL     1      -2.834   5.612   2.556  1.00  0.00     0.010 A 
ATOM     28  C   UNL     1      -1.647   6.187   4.593  1.00  0.00     0.010 A 
ATOM     29  C   UNL     1      -2.804   6.255   3.797  1.00  0.00    -0.014 A 
BRANCH  29  30
ATOM     30  C   UNL     1      -3.985   7.040   4.215  1.00  0.00     0.031 A 
ATOM     31  C   UNL     1      -3.918   8.537   4.209  1.00  0.00     0.074 A 
ATOM     32  C   UNL     1      -5.125   6.400   4.530  1.00  0.00     0.049 A 
ATOM     33  N   UNL     1      -4.814   9.403   4.602  1.00  0.00    -0.248 NA
ATOM     34  C   UNL     1      -2.680   9.142   3.690  1.00  0.00     0.031 C 
ATOM     35  C   UNL     1      -5.313   4.948   4.495  1.00  0.00     0.029 A 
ATOM     36  N   UNL     1      -6.344   6.886   4.924  1.00  0.00    -0.354 N 
ATOM     37  C   UNL     1      -4.240  10.652   4.406  1.00  0.00     0.074 A 
ATOM     38  C   UNL     1      -2.915  10.434   3.869  1.00  0.00     0.031 C 
ATOM     39  C   UNL     1      -6.579   4.663   4.836  1.00  0.00     0.029 A 
ATOM     40  C   UNL     1      -7.271   5.904   5.170  1.00  0.00     0.049 A 
ATOM     41  H   UNL     1      -6.536   7.847   5.021  1.00  0.00     0.167 HD
ATOM     42  C   UNL     1      -4.781  11.868   4.652  1.00  0.00     0.037 A 
ATOM     43  C   UNL     1      -8.528   5.995   5.641  1.00  0.00     0.037 A 
ATOM     44  C   UNL     1      -6.113  12.065   5.159  1.00  0.00     0.049 A 
ATOM     45  C   UNL     1      -9.082   7.353   5.961  1.00  0.00     0.074 A 
ATOM     46  C   UNL     1      -6.760  13.255   5.442  1.00  0.00     0.029 A 
ATOM     47  N   UNL     1      -7.005  11.043   5.451  1.00  0.00    -0.354 N 
ATOM     48  N   UNL     1      -8.519   8.528   5.814  1.00  0.00    -0.248 NA
ATOM     49  C   UNL     1     -10.437   7.402   6.526  1.00  0.00     0.031 C 
ATOM     50  C   UNL     1      -8.029  12.951   5.944  1.00  0.00     0.029 A 
ATOM     51  C   UNL     1      -8.190  11.574   5.931  1.00  0.00     0.049 A 
ATOM     52  H   UNL     1      -6.822  10.083   5.334  1.00  0.00     0.167 HD
ATOM     53  C   UNL     1      -9.449   9.456   6.259  1.00  0.00     0.074 A 
ATOM     54  C   UNL     1     -10.623   8.708   6.663  1.00  0.00     0.031 C 
ATOM     55  C   UNL     1      -9.341  10.805   6.332  1.00  0.00     0.037 A 
BRANCH  42  56
ATOM     56  C   UNL     1      -3.926  13.075   4.405  1.00  0.00     0.057 A 
ATOM     57  C   UNL     1      -3.427  13.821   5.481  1.00  0.00     0.134 A 
ATOM     58  C   UNL     1      -3.636  13.529   3.114  1.00  0.00     0.134 A 
ATOM     59  F   UNL     1      -3.669  13.441   6.745  1.00  0.00    -0.206 F 
ATOM     60  C   UNL     1      -2.681  14.983   5.280  1.00  0.00     0.040 A 
ATOM     61  C   UNL     1      -2.871  14.678   2.899  1.00  0.00     0.040 A 
ATOM     62  F   UNL     1      -4.068  12.849   2.041  1.00  0.00    -0.206 F 
ATOM     63  C   UNL     1      -2.400  15.414   3.985  1.00  0.00     0.006 A 
ENDBRANCH  42  56
BRANCH  43  64
ATOM     64  C   UNL     1      -9.323   4.761   5.854  1.00  0.00     0.057 A 
ATOM     65  C   UNL     1      -8.982   3.838   6.852  1.00  0.00     0.134 A 
ATOM     66  C   UNL     1     -10.419   4.456   5.042  1.00  0.00     0.134 A 
ATOM     67  F   UNL     1      -7.940   4.072   7.663  1.00  0.00    -0.206 F 
ATOM     68  C   UNL     1      -9.685   2.644   7.016  1.00  0.00     0.040 A 
ATOM     69  C   UNL     1     -11.147   3.276   5.210  1.00  0.00     0.040 A 
ATOM     70  F   UNL     1     -10.808   5.309   4.083  1.00  0.00    -0.206 F 
ATOM     71  C   UNL     1     -10.774   2.362   6.194  1.00  0.00     0.006 A 
ENDBRANCH  43  64
BRANCH  55  72
ATOM     72  C   UNL     1     -10.522  11.559   6.862  1.00  0.00     0.057 A 
ATOM     73  C   UNL     1     -11.316  12.336   6.009  1.00  0.00     0.134 A 
ATOM     74  C   UNL     1     -10.830  11.571   8.228  1.00  0.00     0.134 A 
ATOM     75  F   UNL     1     -11.064  12.375   4.692  1.00  0.00    -0.206 F 
ATOM     76  C   UNL     1     -12.368  13.110   6.499  1.00  0.00     0.040 A 
ATOM     77  C   UNL     1     -11.895  12.322   8.726  1.00  0.00     0.040 A 
ATOM     78  F   UNL     1     -10.112  10.838   9.093  1.00  0.00    -0.206 F 
ATOM     79  C   UNL     1     -12.661  13.102   7.861  1.00  0.00     0.006 A 
ENDBRANCH  55  72
ENDBRANCH  29  30
ENDBRANCH  22  24
ENDBRANCH  21  22
ENDBRANCH  20  21
ENDBRANCH   1  20
TORSDOF 14
