REMARK SMILES CCOC(=O)C1=NN(c2ccc(C)cc2Cl)[C@@](C)(C(=O)OCCOC(=O)c2ccc(-c3c4nc(c(-c5c(F)cccc5F)c5ccc([nH]5)c(-c5c(F)cccc5F)c5nc(c(-c6c(F)cccc6F)c6ccc3[nH]6)C=C5)C=C4)cc2)C1
REMARK SMILES IDX 22 1 21 2 19 3 20 4 17 5 6 6 7 7 81 8 8 9 18 10 4 11 5 12
REMARK SMILES IDX 3 13 2 14 1 15 9 16 10 17 15 18 11 19 14 20 16 21 12 22
REMARK SMILES IDX 13 23 23 24 24 25 25 26 26 27 27 28 28 29 80 30 29 31 79 32
REMARK SMILES IDX 30 33 31 34 32 35 73 36 33 37 78 38 72 39 74 40 34 41 77 42
REMARK SMILES IDX 71 43 70 44 35 46 61 47 44 48 60 49 45 50 48 51 59 52 75 53
REMARK SMILES IDX 46 54 47 55 58 57 76 58 49 59 36 60 37 61 42 62 38 63 39 64
REMARK SMILES IDX 41 65 43 66 40 67 62 68 63 69 68 70 64 71 65 72 67 73 69 74
REMARK SMILES IDX 66 75 50 76 51 77 56 78 52 79 53 80 55 81 57 82 54 83
REMARK H PARENT 74 45 48 56
REMARK Flexibility Score: inf
ROOT
ATOM      1  C   UNL     1       6.710   6.797  -1.476  1.00  0.00     0.274 C 
ENDROOT
BRANCH   1   2
ATOM      2  O   UNL     1       5.518   6.398  -2.184  1.00  0.00    -0.460 OA
BRANCH   2   3
ATOM      3  C   UNL     1       5.462   5.117  -2.631  1.00  0.00     0.334 C 
ATOM      4  O   UNL     1       6.365   4.298  -2.469  1.00  0.00    -0.249 OA
BRANCH   3   5
ATOM      5  C   UNL     1       4.198   4.780  -3.447  1.00  0.00     0.163 C 
ATOM      6  C   UNL     1       2.465   4.043  -2.105  1.00  0.00     0.149 C 
ATOM      7  N   UNL     1       2.159   5.277  -2.346  1.00  0.00    -0.169 NA
ATOM      8  C   UNL     1       3.574   3.470  -2.921  1.00  0.00     0.108 C 
ATOM      9  N   UNL     1       3.078   5.728  -3.256  1.00  0.00    -0.246 N 
ATOM     10  C   UNL     1       4.656   4.594  -4.891  1.00  0.00     0.050 C 
BRANCH   6  11
ATOM     11  C   UNL     1       1.721   3.195  -1.104  1.00  0.00     0.354 C 
ATOM     12  O   UNL     1       1.842   3.351   0.089  1.00  0.00    -0.245 OA
BRANCH  11  13
ATOM     13  O   UNL     1       0.962   2.292  -1.760  1.00  0.00    -0.461 OA
BRANCH  13  14
ATOM     14  C   UNL     1       0.115   1.481  -0.927  1.00  0.00     0.230 C 
ATOM     15  C   UNL     1       0.611   0.049  -0.938  1.00  0.00     0.049 C 
ENDBRANCH  13  14
ENDBRANCH  11  13
ENDBRANCH   6  11
BRANCH   9  16
ATOM     16  C   UNL     1       2.940   7.014  -3.768  1.00  0.00     0.079 A 
ATOM     17  C   UNL     1       2.908   7.210  -5.160  1.00  0.00     0.030 A 
ATOM     18  C   UNL     1       2.740   8.158  -2.966  1.00  0.00     0.066 A 
ATOM     19  C   UNL     1       2.718   8.472  -5.734  1.00  0.00     0.006 A 
ATOM     20  C   UNL     1       2.547   9.425  -3.539  1.00  0.00     0.026 A 
ATOM     21  Cl  UNL     1       2.778   8.103  -1.233  1.00  0.00    -0.082 Cl
ATOM     22  C   UNL     1       2.535   9.592  -4.927  1.00  0.00    -0.049 A 
ATOM     23  C   UNL     1       2.313  10.948  -5.524  1.00  0.00     0.044 C 
ENDBRANCH   9  16
ENDBRANCH   3   5
ENDBRANCH   2   3
ENDBRANCH   1   2
BRANCH   1  24
ATOM     24  C   UNL     1       6.498   6.746   0.034  1.00  0.00     0.275 C 
BRANCH  24  25
ATOM     25  O   UNL     1       6.296   5.380   0.438  1.00  0.00    -0.458 OA
BRANCH  25  26
ATOM     26  C   UNL     1       5.176   5.152   1.159  1.00  0.00     0.338 C 
ATOM     27  O   UNL     1       4.377   5.979   1.564  1.00  0.00    -0.246 OA
BRANCH  26  28
ATOM     28  C   UNL     1       5.015   3.708   1.415  1.00  0.00     0.060 A 
ATOM     29  C   UNL     1       5.088   2.793   0.368  1.00  0.00     0.016 A 
ATOM     30  C   UNL     1       4.602   3.289   2.678  1.00  0.00     0.016 A 
ATOM     31  C   UNL     1       4.571   1.509   0.536  1.00  0.00     0.010 A 
ATOM     32  C   UNL     1       4.205   1.964   2.876  1.00  0.00     0.010 A 
ATOM     33  C   UNL     1       4.104   1.079   1.789  1.00  0.00    -0.014 A 
BRANCH  33  34
ATOM     34  C   UNL     1       3.423  -0.242   1.941  1.00  0.00     0.031 A 
ATOM     35  C   UNL     1       2.015  -0.316   2.490  1.00  0.00     0.074 A 
ATOM     36  C   UNL     1       4.021  -1.380   1.535  1.00  0.00     0.049 A 
ATOM     37  N   UNL     1       1.304  -1.371   2.809  1.00  0.00    -0.248 NA
ATOM     38  C   UNL     1       1.311   0.959   2.702  1.00  0.00     0.031 C 
ATOM     39  C   UNL     1       5.347  -1.470   0.923  1.00  0.00     0.029 A 
ATOM     40  N   UNL     1       3.581  -2.682   1.560  1.00  0.00    -0.354 N 
ATOM     41  C   UNL     1       0.094  -0.886   3.293  1.00  0.00     0.074 A 
ATOM     42  C   UNL     1       0.169   0.558   3.242  1.00  0.00     0.031 C 
ATOM     43  C   UNL     1       5.590  -2.744   0.583  1.00  0.00     0.029 A 
ATOM     44  C   UNL     1       4.487  -3.578   1.046  1.00  0.00     0.049 A 
ATOM     45  H   UNL     1       2.701  -2.947   1.912  1.00  0.00     0.167 HD
ATOM     46  C   UNL     1      -0.988  -1.575   3.729  1.00  0.00     0.037 A 
ATOM     47  C   UNL     1       4.465  -4.924   0.995  1.00  0.00     0.037 A 
ATOM     48  C   UNL     1      -1.090  -3.011   3.754  1.00  0.00     0.049 A 
ATOM     49  C   UNL     1       3.305  -5.669   1.586  1.00  0.00     0.074 A 
ATOM     50  C   UNL     1      -2.144  -3.795   4.191  1.00  0.00     0.029 A 
ATOM     51  N   UNL     1      -0.104  -3.879   3.312  1.00  0.00    -0.354 N 
ATOM     52  N   UNL     1       2.200  -5.196   2.108  1.00  0.00    -0.248 NA
ATOM     53  C   UNL     1       3.403  -7.135   1.608  1.00  0.00     0.031 C 
ATOM     54  C   UNL     1      -1.784  -5.139   4.042  1.00  0.00     0.029 A 
ATOM     55  C   UNL     1      -0.520  -5.190   3.479  1.00  0.00     0.049 A 
ATOM     56  H   UNL     1       0.763  -3.604   2.936  1.00  0.00     0.167 HD
ATOM     57  C   UNL     1       1.468  -6.304   2.512  1.00  0.00     0.074 A 
ATOM     58  C   UNL     1       2.245  -7.474   2.158  1.00  0.00     0.031 C 
ATOM     59  C   UNL     1       0.261  -6.347   3.127  1.00  0.00     0.037 A 
BRANCH  46  60
ATOM     60  C   UNL     1      -2.154  -0.779   4.239  1.00  0.00     0.057 A 
ATOM     61  C   UNL     1      -3.022  -0.102   3.373  1.00  0.00     0.134 A 
ATOM     62  C   UNL     1      -2.434  -0.723   5.610  1.00  0.00     0.134 A 
ATOM     63  F   UNL     1      -2.800  -0.105   2.049  1.00  0.00    -0.206 F 
ATOM     64  C   UNL     1      -4.117   0.617   3.855  1.00  0.00     0.040 A 
ATOM     65  C   UNL     1      -3.538  -0.025   6.102  1.00  0.00     0.040 A 
ATOM     66  F   UNL     1      -1.646  -1.357   6.492  1.00  0.00    -0.206 F 
ATOM     67  C   UNL     1      -4.381   0.651   5.223  1.00  0.00     0.006 A 
ENDBRANCH  46  60
BRANCH  47  68
ATOM     68  C   UNL     1       5.617  -5.656   0.410  1.00  0.00     0.057 A 
ATOM     69  C   UNL     1       5.494  -6.360  -0.792  1.00  0.00     0.134 A 
ATOM     70  C   UNL     1       6.871  -5.659   1.036  1.00  0.00     0.134 A 
ATOM     71  F   UNL     1       4.312  -6.417  -1.423  1.00  0.00    -0.206 F 
ATOM     72  C   UNL     1       6.576  -7.040  -1.353  1.00  0.00     0.040 A 
ATOM     73  C   UNL     1       7.968  -6.310   0.472  1.00  0.00     0.040 A 
ATOM     74  F   UNL     1       7.052  -5.005   2.192  1.00  0.00    -0.206 F 
ATOM     75  C   UNL     1       7.820  -7.007  -0.725  1.00  0.00     0.006 A 
ENDBRANCH  47  68
BRANCH  59  76
ATOM     76  C   UNL     1      -0.302  -7.702   3.429  1.00  0.00     0.057 A 
ATOM     77  C   UNL     1       0.193  -8.488   4.477  1.00  0.00     0.134 A 
ATOM     78  C   UNL     1      -1.363  -8.220   2.675  1.00  0.00     0.134 A 
ATOM     79  F   UNL     1       1.219  -8.054   5.225  1.00  0.00    -0.206 F 
ATOM     80  C   UNL     1      -0.333  -9.751   4.751  1.00  0.00     0.040 A 
ATOM     81  C   UNL     1      -1.911  -9.473   2.953  1.00  0.00     0.040 A 
ATOM     82  F   UNL     1      -1.885  -7.514   1.660  1.00  0.00    -0.206 F 
ATOM     83  C   UNL     1      -1.392 -10.245   3.990  1.00  0.00     0.006 A 
ENDBRANCH  59  76
ENDBRANCH  33  34
ENDBRANCH  26  28
ENDBRANCH  25  26
ENDBRANCH  24  25
ENDBRANCH   1  24
TORSDOF 15
