REMARK SMILES O=C(OCCOC(=O)[C@H]1Cc2[nH]cnc2CN1S(=O)(=O)c1cccs1)c1ccc(-c2c3nc(c(-c4c(F)cccc4F)c4ccc([nH]4)c(-c4c(F)cccc4F)c4nc(c(-c5c(F)cccc5F)c5ccc2[nH]5)C=C4)C=C3)cc1
REMARK SMILES IDX 4 1 3 2 2 3 1 4 26 5 27 6 79 7 28 8 78 9 29 10 30 11 31 12
REMARK SMILES IDX 72 13 32 14 77 15 71 16 73 17 33 18 76 19 70 20 69 21 34 23
REMARK SMILES IDX 60 24 43 25 59 26 44 27 47 28 58 29 74 30 45 31 46 32 57 34
REMARK SMILES IDX 75 35 48 36 35 37 36 38 41 39 37 40 38 41 40 42 42 43 39 44
REMARK SMILES IDX 61 45 62 46 67 47 63 48 64 49 66 50 68 51 65 52 49 53 50 54
REMARK SMILES IDX 55 55 51 56 52 57 54 58 56 59 53 60 5 61 6 62 7 63 8 64 9 65
REMARK SMILES IDX 10 66 17 67 11 68 16 69 12 70 15 71 13 72 14 74 18 75 19 76
REMARK SMILES IDX 20 77 21 78 22 79 25 80 23 81 24 82
REMARK H PARENT 73 22 47 33 12 73
REMARK Flexibility Score: inf
ROOT
ATOM      1  C   UNL     1       5.743   1.750  -0.538  1.00  0.00     0.275 C 
ENDROOT
BRANCH   1   2
ATOM      2  O   UNL     1       5.932   0.469   0.058  1.00  0.00    -0.458 OA
BRANCH   2   3
ATOM      3  C   UNL     1       4.822  -0.257   0.026  1.00  0.00     0.338 C 
ATOM      4  O   UNL     1       3.778   0.025  -0.582  1.00  0.00    -0.246 OA
BRANCH   3   5
ATOM      5  C   UNL     1       4.869  -1.291   1.044  1.00  0.00     0.060 A 
ATOM      6  C   UNL     1       5.475  -2.521   0.803  1.00  0.00     0.016 A 
ATOM      7  C   UNL     1       3.908  -1.147   2.022  1.00  0.00     0.016 A 
ATOM      8  C   UNL     1       4.936  -3.657   1.409  1.00  0.00     0.010 A 
ATOM      9  C   UNL     1       3.282  -2.270   2.472  1.00  0.00     0.010 A 
ATOM     10  C   UNL     1       3.755  -3.532   2.142  1.00  0.00    -0.014 A 
BRANCH  10  11
ATOM     11  C   UNL     1       3.018  -4.621   2.759  1.00  0.00     0.031 A 
ATOM     12  C   UNL     1       3.147  -4.616   4.242  1.00  0.00     0.074 A 
ATOM     13  C   UNL     1       2.016  -5.338   2.216  1.00  0.00     0.049 A 
ATOM     14  N   UNL     1       4.128  -5.106   4.927  1.00  0.00    -0.248 NA
ATOM     15  C   UNL     1       2.250  -3.744   5.028  1.00  0.00     0.031 C 
ATOM     16  C   UNL     1       1.329  -5.225   0.933  1.00  0.00     0.029 A 
ATOM     17  N   UNL     1       1.367  -6.371   2.819  1.00  0.00    -0.354 N 
ATOM     18  C   UNL     1       3.817  -4.801   6.244  1.00  0.00     0.074 A 
ATOM     19  C   UNL     1       2.909  -3.691   6.188  1.00  0.00     0.031 C 
ATOM     20  C   UNL     1       0.264  -6.067   0.915  1.00  0.00     0.029 A 
ATOM     21  C   UNL     1       0.286  -6.881   2.119  1.00  0.00     0.049 A 
ATOM     22  H   UNL     1       1.646  -6.730   3.692  1.00  0.00     0.167 HD
ATOM     23  C   UNL     1       4.017  -5.691   7.254  1.00  0.00     0.037 A 
ATOM     24  C   UNL     1      -0.512  -7.895   2.537  1.00  0.00     0.037 A 
ATOM     25  C   UNL     1       4.752  -6.845   6.790  1.00  0.00     0.049 A 
ATOM     26  C   UNL     1       0.232  -8.633   3.593  1.00  0.00     0.074 A 
ATOM     27  C   UNL     1       5.967  -7.040   6.161  1.00  0.00     0.029 A 
ATOM     28  N   UNL     1       4.026  -7.989   6.549  1.00  0.00    -0.354 N 
ATOM     29  N   UNL     1       1.320  -9.320   3.376  1.00  0.00    -0.248 NA
ATOM     30  C   UNL     1       0.012  -8.244   4.978  1.00  0.00     0.031 C 
ATOM     31  C   UNL     1       5.716  -8.046   5.178  1.00  0.00     0.029 A 
ATOM     32  C   UNL     1       4.388  -8.459   5.311  1.00  0.00     0.049 A 
ATOM     33  H   UNL     1       3.365  -8.397   7.154  1.00  0.00     0.167 HD
ATOM     34  C   UNL     1       2.120  -9.086   4.485  1.00  0.00     0.074 A 
ATOM     35  C   UNL     1       1.222  -8.503   5.481  1.00  0.00     0.031 C 
ATOM     36  C   UNL     1       3.483  -9.118   4.391  1.00  0.00     0.037 A 
BRANCH  23  37
ATOM     37  C   UNL     1       3.229  -5.710   8.540  1.00  0.00     0.057 A 
ATOM     38  C   UNL     1       3.724  -6.455   9.621  1.00  0.00     0.134 A 
ATOM     39  C   UNL     1       1.913  -5.226   8.701  1.00  0.00     0.134 A 
ATOM     40  F   UNL     1       4.952  -6.994   9.578  1.00  0.00    -0.206 F 
ATOM     41  C   UNL     1       2.954  -6.731  10.757  1.00  0.00     0.040 A 
ATOM     42  C   UNL     1       1.160  -5.438   9.856  1.00  0.00     0.040 A 
ATOM     43  F   UNL     1       1.242  -4.612   7.720  1.00  0.00    -0.206 F 
ATOM     44  C   UNL     1       1.668  -6.219  10.879  1.00  0.00     0.006 A 
ENDBRANCH  23  37
BRANCH  24  45
ATOM     45  C   UNL     1      -1.947  -8.144   2.285  1.00  0.00     0.057 A 
ATOM     46  C   UNL     1      -2.517  -9.407   2.507  1.00  0.00     0.134 A 
ATOM     47  C   UNL     1      -2.848  -7.081   2.111  1.00  0.00     0.134 A 
ATOM     48  F   UNL     1      -1.738 -10.476   2.724  1.00  0.00    -0.206 F 
ATOM     49  C   UNL     1      -3.903  -9.597   2.583  1.00  0.00     0.040 A 
ATOM     50  C   UNL     1      -4.235  -7.257   2.182  1.00  0.00     0.040 A 
ATOM     51  F   UNL     1      -2.408  -5.824   1.962  1.00  0.00    -0.206 F 
ATOM     52  C   UNL     1      -4.767  -8.516   2.435  1.00  0.00     0.006 A 
ENDBRANCH  24  45
BRANCH  36  53
ATOM     53  C   UNL     1       4.086  -9.663   3.119  1.00  0.00     0.057 A 
ATOM     54  C   UNL     1       3.930  -9.074   1.854  1.00  0.00     0.134 A 
ATOM     55  C   UNL     1       4.979 -10.737   3.198  1.00  0.00     0.134 A 
ATOM     56  F   UNL     1       3.176  -7.985   1.684  1.00  0.00    -0.206 F 
ATOM     57  C   UNL     1       4.598  -9.549   0.721  1.00  0.00     0.040 A 
ATOM     58  C   UNL     1       5.679 -11.201   2.080  1.00  0.00     0.040 A 
ATOM     59  F   UNL     1       5.224 -11.324   4.379  1.00  0.00    -0.206 F 
ATOM     60  C   UNL     1       5.484 -10.612   0.834  1.00  0.00     0.006 A 
ENDBRANCH  36  53
ENDBRANCH  10  11
ENDBRANCH   3   5
ENDBRANCH   2   3
ENDBRANCH   1   2
BRANCH   1  61
ATOM     61  C   UNL     1       4.677   2.667   0.134  1.00  0.00     0.274 C 
BRANCH  61  62
ATOM     62  O   UNL     1       3.765   2.045   1.079  1.00  0.00    -0.461 OA
BRANCH  62  63
ATOM     63  C   UNL     1       2.403   2.079   0.840  1.00  0.00     0.325 C 
ATOM     64  O   UNL     1       1.884   2.624  -0.126  1.00  0.00    -0.250 OA
BRANCH  63  65
ATOM     65  C   UNL     1       1.635   1.505   2.030  1.00  0.00     0.189 C 
ATOM     66  C   UNL     1       0.695   2.611   2.608  1.00  0.00     0.088 C 
ATOM     67  N   UNL     1       1.050   0.089   2.086  1.00  0.00    -0.176 NA
ATOM     68  C   UNL     1       0.283   2.178   3.966  1.00  0.00     0.041 A 
ATOM     69  C   UNL     1       0.472  -0.290   3.461  1.00  0.00     0.161 C 
ATOM     70  N   UNL     1       0.043   2.904   5.097  1.00  0.00    -0.348 N 
ATOM     71  C   UNL     1       0.192   0.866   4.344  1.00  0.00     0.077 A 
ATOM     72  C   UNL     1      -0.189   2.001   6.104  1.00  0.00     0.197 A 
ATOM     73  H   UNL     1       0.038   3.886   5.175  1.00  0.00     0.167 HD
ATOM     74  N   UNL     1      -0.099   0.760   5.677  1.00  0.00    -0.240 NA
BRANCH  67  75
ATOM     75  S   UNL     1       0.171  -0.697   0.851  1.00  0.00     0.253 S 
ATOM     76  O   UNL     1      -0.146  -1.995   1.398  1.00  0.00    -0.206 OA
ATOM     77  O   UNL     1      -0.902   0.214   0.473  1.00  0.00    -0.206 OA
BRANCH  75  78
ATOM     78  C   UNL     1       0.998  -1.209  -0.664  1.00  0.00     0.135 A 
ATOM     79  C   UNL     1       2.060  -2.065  -0.929  1.00  0.00     0.033 A 
ATOM     80  S   UNL     1       0.159  -0.898  -2.138  1.00  0.00    -0.131 S 
ATOM     81  C   UNL     1       2.312  -2.279  -2.317  1.00  0.00     0.013 A 
ATOM     82  C   UNL     1       1.313  -1.736  -3.086  1.00  0.00     0.066 A 
ENDBRANCH  75  78
ENDBRANCH  67  75
ENDBRANCH  63  65
ENDBRANCH  62  63
ENDBRANCH  61  62
ENDBRANCH   1  61
TORSDOF 13
