REMARK SMILES O=C(CNC(=O)c1cccs1)N[C@@H]1C=C[C@H](C(=O)OCCOC(=O)c2ccc(-c3c4nc(c(-c5c(F)cccc5F)c5ccc([nH]5)c(-c5c(F)cccc5F)c5nc(c(-c6c(F)cccc6F)c6ccc3[nH]6)C=C5)C=C4)cc2)C1
REMARK SMILES IDX 20 1 19 2 17 3 18 4 16 5 13 6 14 7 79 8 15 9 12 10 1 11 2 12
REMARK SMILES IDX 3 14 4 15 5 16 6 18 7 19 8 20 11 21 9 22 10 23 21 24 22 25
REMARK SMILES IDX 23 26 24 27 25 28 26 29 78 30 27 31 77 32 28 33 29 34 30 35
REMARK SMILES IDX 71 36 31 37 76 38 70 39 72 40 32 41 75 42 69 43 68 44 33 46
REMARK SMILES IDX 59 47 42 48 58 49 43 50 46 51 57 52 73 53 44 54 45 55 56 57
REMARK SMILES IDX 74 58 47 59 34 60 35 61 40 62 36 63 37 64 39 65 41 66 38 67
REMARK SMILES IDX 60 68 61 69 66 70 62 71 63 72 65 73 67 74 64 75 48 76 49 77
REMARK SMILES IDX 54 78 50 79 51 80 53 81 55 82 52 83
REMARK H PARENT 12 13 4 17 72 45 46 56
REMARK Flexibility Score: inf
ROOT
ATOM      1  C   UNL     1      -0.682   2.030  -6.666  1.00  0.00     0.274 C 
ENDROOT
BRANCH   1   2
ATOM      2  O   UNL     1      -0.631   1.452  -5.348  1.00  0.00    -0.462 OA
BRANCH   2   3
ATOM      3  C   UNL     1       0.538   1.594  -4.660  1.00  0.00     0.312 C 
ATOM      4  O   UNL     1       1.569   2.068  -5.119  1.00  0.00    -0.252 OA
BRANCH   3   5
ATOM      5  C   UNL     1       0.354   1.149  -3.212  1.00  0.00     0.124 C 
ATOM      6  C   UNL     1       2.259  -0.076  -2.257  1.00  0.00     0.106 C 
ATOM      7  C   UNL     1       1.119  -0.982  -2.580  1.00  0.00    -0.006 C 
ATOM      8  C   UNL     1       1.630   1.320  -2.366  1.00  0.00     0.048 C 
ATOM      9  C   UNL     1       0.081  -0.320  -3.102  1.00  0.00    -0.014 C 
BRANCH   6  10
ATOM     10  N   UNL     1       3.291  -0.297  -3.237  1.00  0.00    -0.348 N 
ATOM     11  O   UNL     1       5.004   0.390  -1.879  1.00  0.00    -0.273 OA
ATOM     12  C   UNL     1       4.617  -0.055  -2.957  1.00  0.00     0.239 C 
ATOM     13  H   UNL     1       3.042  -0.630  -4.129  1.00  0.00     0.164 HD
BRANCH  12  14
ATOM     14  C   UNL     1       5.564  -0.215  -4.148  1.00  0.00     0.216 C 
BRANCH  14  15
ATOM     15  N   UNL     1       5.095  -1.211  -5.104  1.00  0.00    -0.342 N 
ATOM     16  C   UNL     1       4.778  -1.074  -6.433  1.00  0.00     0.261 C 
ATOM     17  H   UNL     1       4.990  -2.120  -4.742  1.00  0.00     0.164 HD
ATOM     18  O   UNL     1       4.200  -2.024  -6.963  1.00  0.00    -0.268 OA
BRANCH  16  19
ATOM     19  C   UNL     1       5.120   0.152  -7.125  1.00  0.00     0.092 A 
ATOM     20  C   UNL     1       6.291   0.889  -7.105  1.00  0.00     0.025 A 
ATOM     21  S   UNL     1       3.970   0.842  -8.194  1.00  0.00    -0.139 S 
ATOM     22  C   UNL     1       6.212   2.060  -7.915  1.00  0.00     0.012 A 
ATOM     23  C   UNL     1       5.000   2.157  -8.559  1.00  0.00     0.065 A 
ENDBRANCH  16  19
ENDBRANCH  14  15
ENDBRANCH  12  14
ENDBRANCH   6  10
ENDBRANCH   3   5
ENDBRANCH   2   3
ENDBRANCH   1   2
BRANCH   1  24
ATOM     24  C   UNL     1      -1.516   3.316  -6.658  1.00  0.00     0.275 C 
BRANCH  24  25
ATOM     25  O   UNL     1      -0.865   4.370  -5.922  1.00  0.00    -0.458 OA
BRANCH  25  26
ATOM     26  C   UNL     1      -1.165   4.423  -4.602  1.00  0.00     0.338 C 
ATOM     27  O   UNL     1      -1.941   3.708  -3.991  1.00  0.00    -0.246 OA
BRANCH  26  28
ATOM     28  C   UNL     1      -0.289   5.400  -3.931  1.00  0.00     0.060 A 
ATOM     29  C   UNL     1       0.407   4.976  -2.794  1.00  0.00     0.016 A 
ATOM     30  C   UNL     1      -0.186   6.721  -4.372  1.00  0.00     0.016 A 
ATOM     31  C   UNL     1       1.221   5.866  -2.099  1.00  0.00     0.010 A 
ATOM     32  C   UNL     1       0.621   7.618  -3.666  1.00  0.00     0.010 A 
ATOM     33  C   UNL     1       1.326   7.195  -2.526  1.00  0.00    -0.014 A 
BRANCH  33  34
ATOM     34  C   UNL     1       2.143   8.151  -1.745  1.00  0.00     0.031 A 
ATOM     35  C   UNL     1       1.476   9.104  -0.800  1.00  0.00     0.074 A 
ATOM     36  C   UNL     1       3.482   8.143  -1.871  1.00  0.00     0.049 A 
ATOM     37  N   UNL     1       2.005  10.058  -0.077  1.00  0.00    -0.248 NA
ATOM     38  C   UNL     1       0.020   8.963  -0.644  1.00  0.00     0.031 C 
ATOM     39  C   UNL     1       4.244   7.224  -2.716  1.00  0.00     0.029 A 
ATOM     40  N   UNL     1       4.437   8.937  -1.288  1.00  0.00    -0.354 N 
ATOM     41  C   UNL     1       0.949  10.635   0.616  1.00  0.00     0.074 A 
ATOM     42  C   UNL     1      -0.254   9.938   0.212  1.00  0.00     0.031 C 
ATOM     43  C   UNL     1       5.551   7.512  -2.603  1.00  0.00     0.029 A 
ATOM     44  C   UNL     1       5.712   8.659  -1.713  1.00  0.00     0.049 A 
ATOM     45  H   UNL     1       4.228   9.637  -0.629  1.00  0.00     0.167 HD
ATOM     46  C   UNL     1       0.984  11.652   1.509  1.00  0.00     0.037 A 
ATOM     47  C   UNL     1       6.874   9.282  -1.438  1.00  0.00     0.037 A 
ATOM     48  C   UNL     1       2.183  12.342   1.906  1.00  0.00     0.049 A 
ATOM     49  C   UNL     1       6.872  10.469  -0.514  1.00  0.00     0.074 A 
ATOM     50  C   UNL     1       2.322  13.380   2.812  1.00  0.00     0.029 A 
ATOM     51  N   UNL     1       3.450  12.068   1.414  1.00  0.00    -0.354 N 
ATOM     52  N   UNL     1       5.870  11.007   0.138  1.00  0.00    -0.248 NA
ATOM     53  C   UNL     1       8.161  11.141  -0.296  1.00  0.00     0.031 C 
ATOM     54  C   UNL     1       3.667  13.763   2.835  1.00  0.00     0.029 A 
ATOM     55  C   UNL     1       4.373  12.936   1.975  1.00  0.00     0.049 A 
ATOM     56  H   UNL     1       3.663  11.361   0.762  1.00  0.00     0.167 HD
ATOM     57  C   UNL     1       6.408  12.066   0.857  1.00  0.00     0.074 A 
ATOM     58  C   UNL     1       7.828  12.087   0.571  1.00  0.00     0.031 C 
ATOM     59  C   UNL     1       5.783  12.943   1.680  1.00  0.00     0.037 A 
BRANCH  46  60
ATOM     60  C   UNL     1      -0.322  12.100   2.094  1.00  0.00     0.057 A 
ATOM     61  C   UNL     1      -0.998  11.344   3.059  1.00  0.00     0.134 A 
ATOM     62  C   UNL     1      -0.893  13.319   1.708  1.00  0.00     0.134 A 
ATOM     63  F   UNL     1      -0.510  10.160   3.460  1.00  0.00    -0.206 F 
ATOM     64  C   UNL     1      -2.208  11.776   3.606  1.00  0.00     0.040 A 
ATOM     65  C   UNL     1      -2.090  13.772   2.264  1.00  0.00     0.040 A 
ATOM     66  F   UNL     1      -0.293  14.092   0.790  1.00  0.00    -0.206 F 
ATOM     67  C   UNL     1      -2.754  12.997   3.213  1.00  0.00     0.006 A 
ENDBRANCH  46  60
BRANCH  47  68
ATOM     68  C   UNL     1       8.133   8.817  -2.071  1.00  0.00     0.057 A 
ATOM     69  C   UNL     1       9.140   8.205  -1.319  1.00  0.00     0.134 A 
ATOM     70  C   UNL     1       8.363   8.987  -3.442  1.00  0.00     0.134 A 
ATOM     71  F   UNL     1       8.989   8.037   0.003  1.00  0.00    -0.206 F 
ATOM     72  C   UNL     1      10.338   7.789  -1.904  1.00  0.00     0.040 A 
ATOM     73  C   UNL     1       9.544   8.555  -4.045  1.00  0.00     0.040 A 
ATOM     74  F   UNL     1       7.436   9.568  -4.218  1.00  0.00    -0.206 F 
ATOM     75  C   UNL     1      10.540   7.959  -3.273  1.00  0.00     0.006 A 
ENDBRANCH  47  68
BRANCH  59  76
ATOM     76  C   UNL     1       6.631  13.984   2.345  1.00  0.00     0.057 A 
ATOM     77  C   UNL     1       7.126  15.089   1.642  1.00  0.00     0.134 A 
ATOM     78  C   UNL     1       6.917  13.905   3.714  1.00  0.00     0.134 A 
ATOM     79  F   UNL     1       6.899  15.215   0.326  1.00  0.00    -0.206 F 
ATOM     80  C   UNL     1       7.888  16.073   2.275  1.00  0.00     0.040 A 
ATOM     81  C   UNL     1       7.659  14.893   4.362  1.00  0.00     0.040 A 
ATOM     82  F   UNL     1       6.466  12.875   4.446  1.00  0.00    -0.206 F 
ATOM     83  C   UNL     1       8.150  15.979   3.641  1.00  0.00     0.006 A 
ENDBRANCH  59  76
ENDBRANCH  33  34
ENDBRANCH  26  28
ENDBRANCH  25  26
ENDBRANCH  24  25
ENDBRANCH   1  24
TORSDOF 15
