REMARK SMILES CCC([NH3+])(CC)C(=O)N1CCC[N@@H+](CC(=O)OCCOC(=O)c2ccc(-c3c4nc(c(-c5c(F)cccc5F)c5ccc([nH]5)c(-c5c(F)cccc5F)c5nc(c(-c6c(F)cccc6F)c6ccc3[nH]6)C=C5)C=C4)cc2)CC1
REMARK SMILES IDX 15 1 16 2 14 3 13 4 77 6 78 7 9 8 7 9 8 10 3 11 2 12 1 13
REMARK SMILES IDX 4 14 5 18 6 19 10 20 11 21 12 23 17 25 18 26 19 27 20 28
REMARK SMILES IDX 21 29 22 30 23 31 24 32 76 33 25 34 75 35 26 36 27 37 28 38
REMARK SMILES IDX 69 39 29 40 74 41 68 42 70 43 30 44 73 45 67 46 66 47 31 49
REMARK SMILES IDX 57 50 40 51 56 52 41 53 44 54 55 55 71 56 42 57 43 58 54 60
REMARK SMILES IDX 72 61 45 62 32 63 33 64 38 65 34 66 35 67 37 68 39 69 36 70
REMARK SMILES IDX 58 71 59 72 64 73 60 74 61 75 63 76 65 77 62 78 46 79 47 80
REMARK SMILES IDX 52 81 48 82 49 83 51 84 53 85 50 86
REMARK H PARENT 13 5 4 15 4 16 4 17 70 48 44 59
REMARK Flexibility Score: 90.00
ROOT
ATOM      1  C   UNL     1       4.238  -0.061  -6.373  1.00  0.00     0.361 C 
ATOM      2  O   UNL     1       4.073  -0.143  -7.585  1.00  0.00    -0.245 OA
ENDROOT
BRANCH   1   3
ATOM      3  C   UNL     1       5.562   0.374  -5.739  1.00  0.00     0.386 C 
BRANCH   3   4
ATOM      4  N   UNL     1       5.327   1.210  -4.570  1.00  0.00    -0.324 N 
ATOM      5  H   UNL     1       4.335   0.991  -4.478  1.00  0.00     0.348 HD
BRANCH   4   6
ATOM      6  C   UNL     1       5.768   0.748  -3.266  1.00  0.00     0.284 C 
BRANCH   6   7
ATOM      7  C   UNL     1       4.577   0.515  -2.312  1.00  0.00     0.181 C 
BRANCH   7   8
ATOM      8  N   UNL     1       3.600   1.600  -2.099  1.00  0.00    -0.331 N 
BRANCH   8   9
ATOM      9  C   UNL     1       2.776   1.464  -0.976  1.00  0.00     0.284 C 
ATOM     10  O   UNL     1       3.287   1.149   0.106  1.00  0.00    -0.268 OA
BRANCH   9  11
ATOM     11  C   UNL     1       1.188   1.385  -1.172  1.00  0.00     0.173 C 
BRANCH  11  12
ATOM     12  C   UNL     1       0.488   1.197   0.211  1.00  0.00     0.075 C 
ATOM     13  C   UNL     1       0.607  -0.174   0.871  1.00  0.00     0.011 C 
ENDBRANCH  11  12
BRANCH  11  14
ATOM     14  N   UNL     1       0.931   0.191  -2.034  1.00  0.00    -0.345 N 
ATOM     15  H   UNL     1      -0.072   0.095  -2.190  1.00  0.00     0.345 HD
ATOM     16  H   UNL     1       1.284  -0.646  -1.570  1.00  0.00     0.345 HD
ATOM     17  H   UNL     1       1.405   0.309  -2.929  1.00  0.00     0.345 HD
ENDBRANCH  11  14
BRANCH  11  18
ATOM     18  C   UNL     1       0.490   2.572  -1.876  1.00  0.00     0.075 C 
ATOM     19  C   UNL     1       0.668   3.924  -1.195  1.00  0.00     0.011 C 
ENDBRANCH  11  18
ENDBRANCH   9  11
ENDBRANCH   8   9
BRANCH   8  20
ATOM     20  C   UNL     1       3.352   2.578  -3.155  1.00  0.00     0.126 C 
BRANCH  20  21
ATOM     21  C   UNL     1       4.590   3.346  -3.618  1.00  0.00     0.083 CG0
ATOM     22  G   UNL     1       5.303   2.642  -4.769  1.00  0.00     0.000 G0
ENDBRANCH  20  21
ENDBRANCH   8  20
ENDBRANCH   7   8
ENDBRANCH   6   7
ENDBRANCH   4   6
BRANCH   4  23
ATOM     23  C   UNL     1       5.303   2.642  -4.769  1.00  0.00     0.264 CG0
ATOM     24  G   UNL     1       4.590   3.346  -3.618  1.00  0.00     0.000 G0
ENDBRANCH   4  23
ENDBRANCH   3   4
ENDBRANCH   1   3
BRANCH   1  25
ATOM     25  O   UNL     1       3.306  -0.404  -5.433  1.00  0.00    -0.458 OA
BRANCH  25  26
ATOM     26  C   UNL     1       2.035  -0.868  -5.925  1.00  0.00     0.274 C 
BRANCH  26  27
ATOM     27  C   UNL     1       1.023   0.270  -5.994  1.00  0.00     0.275 C 
BRANCH  27  28
ATOM     28  O   UNL     1       1.484   1.275  -6.910  1.00  0.00    -0.458 OA
BRANCH  28  29
ATOM     29  C   UNL     1       1.477   2.535  -6.435  1.00  0.00     0.338 C 
ATOM     30  O   UNL     1       1.097   2.924  -5.340  1.00  0.00    -0.246 OA
BRANCH  29  31
ATOM     31  C   UNL     1       1.901   3.476  -7.470  1.00  0.00     0.060 A 
ATOM     32  C   UNL     1       3.119   3.346  -8.143  1.00  0.00     0.016 A 
ATOM     33  C   UNL     1       1.041   4.547  -7.722  1.00  0.00     0.016 A 
ATOM     34  C   UNL     1       3.475   4.304  -9.089  1.00  0.00     0.010 A 
ATOM     35  C   UNL     1       1.374   5.473  -8.697  1.00  0.00     0.010 A 
ATOM     36  C   UNL     1       2.585   5.347  -9.392  1.00  0.00    -0.014 A 
BRANCH  36  37
ATOM     37  C   UNL     1       2.799   6.214 -10.565  1.00  0.00     0.031 A 
ATOM     38  C   UNL     1       3.134   7.660 -10.405  1.00  0.00     0.074 A 
ATOM     39  C   UNL     1       2.525   5.678 -11.768  1.00  0.00     0.049 A 
ATOM     40  N   UNL     1       3.216   8.590 -11.319  1.00  0.00    -0.248 NA
ATOM     41  C   UNL     1       3.389   8.131  -9.036  1.00  0.00     0.031 C 
ATOM     42  C   UNL     1       2.121   4.286 -11.990  1.00  0.00     0.029 A 
ATOM     43  N   UNL     1       2.503   6.236 -13.015  1.00  0.00    -0.354 N 
ATOM     44  C   UNL     1       3.518   9.761 -10.640  1.00  0.00     0.074 A 
ATOM     45  C   UNL     1       3.589   9.428  -9.232  1.00  0.00     0.031 C 
ATOM     46  C   UNL     1       1.881   4.101 -13.294  1.00  0.00     0.029 A 
ATOM     47  C   UNL     1       2.081   5.365 -13.989  1.00  0.00     0.049 A 
ATOM     48  H   UNL     1       2.763   7.168 -13.198  1.00  0.00     0.167 HD
ATOM     49  C   UNL     1       3.712  10.998 -11.157  1.00  0.00     0.037 A 
ATOM     50  C   UNL     1       1.857   5.571 -15.297  1.00  0.00     0.037 A 
ATOM     51  C   UNL     1       3.611  11.297 -12.563  1.00  0.00     0.049 A 
ATOM     52  C   UNL     1       2.113   6.937 -15.851  1.00  0.00     0.074 A 
ATOM     53  C   UNL     1       3.825  12.499 -13.214  1.00  0.00     0.029 A 
ATOM     54  N   UNL     1       3.250  10.374 -13.538  1.00  0.00    -0.354 N 
ATOM     55  N   UNL     1       2.466   8.026 -15.210  1.00  0.00    -0.248 NA
ATOM     56  C   UNL     1       1.954   7.104 -17.298  1.00  0.00     0.031 C 
ATOM     57  C   UNL     1       3.561  12.310 -14.577  1.00  0.00     0.029 A 
ATOM     58  C   UNL     1       3.217  10.982 -14.782  1.00  0.00     0.049 A 
ATOM     59  H   UNL     1       3.047   9.426 -13.369  1.00  0.00     0.167 HD
ATOM     60  C   UNL     1       2.572   9.015 -16.174  1.00  0.00     0.074 A 
ATOM     61  C   UNL     1       2.269   8.384 -17.447  1.00  0.00     0.031 C 
ATOM     62  C   UNL     1       2.888  10.325 -16.023  1.00  0.00     0.037 A 
BRANCH  49  63
ATOM     63  C   UNL     1       4.022  12.107 -10.193  1.00  0.00     0.057 A 
ATOM     64  C   UNL     1       5.258  12.194  -9.538  1.00  0.00     0.134 A 
ATOM     65  C   UNL     1       3.075  13.100  -9.912  1.00  0.00     0.134 A 
ATOM     66  F   UNL     1       6.206  11.268  -9.750  1.00  0.00    -0.206 F 
ATOM     67  C   UNL     1       5.531  13.211  -8.619  1.00  0.00     0.040 A 
ATOM     68  C   UNL     1       3.343  14.133  -9.011  1.00  0.00     0.040 A 
ATOM     69  F   UNL     1       1.871  13.080 -10.504  1.00  0.00    -0.206 F 
ATOM     70  C   UNL     1       4.571  14.186  -8.355  1.00  0.00     0.006 A 
ENDBRANCH  49  63
BRANCH  50  71
ATOM     71  C   UNL     1       1.397   4.438 -16.132  1.00  0.00     0.057 A 
ATOM     72  C   UNL     1       2.285   3.762 -16.975  1.00  0.00     0.134 A 
ATOM     73  C   UNL     1       0.098   3.928 -16.015  1.00  0.00     0.134 A 
ATOM     74  F   UNL     1       3.541   4.206 -17.127  1.00  0.00    -0.206 F 
ATOM     75  C   UNL     1       1.900   2.612 -17.666  1.00  0.00     0.040 A 
ATOM     76  C   UNL     1      -0.294   2.769 -16.685  1.00  0.00     0.040 A 
ATOM     77  F   UNL     1      -0.790   4.520 -15.203  1.00  0.00    -0.206 F 
ATOM     78  C   UNL     1       0.610   2.106 -17.512  1.00  0.00     0.006 A 
ENDBRANCH  50  71
BRANCH  62  79
ATOM     79  C   UNL     1       2.905  11.146 -17.274  1.00  0.00     0.057 A 
ATOM     80  C   UNL     1       1.718  11.568 -17.884  1.00  0.00     0.134 A 
ATOM     81  C   UNL     1       4.116  11.521 -17.865  1.00  0.00     0.134 A 
ATOM     82  F   UNL     1       0.528  11.222 -17.370  1.00  0.00    -0.206 F 
ATOM     83  C   UNL     1       1.736  12.322 -19.057  1.00  0.00     0.040 A 
ATOM     84  C   UNL     1       4.146  12.291 -19.028  1.00  0.00     0.040 A 
ATOM     85  F   UNL     1       5.285  11.146 -17.324  1.00  0.00    -0.206 F 
ATOM     86  C   UNL     1       2.953  12.689 -19.629  1.00  0.00     0.006 A 
ENDBRANCH  62  79
ENDBRANCH  36  37
ENDBRANCH  29  31
ENDBRANCH  28  29
ENDBRANCH  27  28
ENDBRANCH  26  27
ENDBRANCH  25  26
ENDBRANCH   1  25
TORSDOF 17
