REMARK SMILES COc1ccc(C(=O)N2CSC[C@H]2C(=O)OCCOC(=O)c2ccc(-c3c4nc(c(-c5c(F)cccc5F)c5ccc([nH]5)c(-c5c(F)cccc5F)c5nc(c(-c6c(F)cccc6F)c6ccc3[nH]6)C=C5)C=C4)cc2)cc1C#N
REMARK SMILES IDX 17 1 16 2 14 3 15 4 13 5 9 6 10 7 11 8 12 9 7 10 8 11 6 12
REMARK SMILES IDX 3 13 4 14 77 15 5 16 76 17 2 18 1 19 78 20 79 21 18 22 19 23
REMARK SMILES IDX 20 24 21 25 22 26 23 27 75 28 24 29 74 30 25 31 26 32 27 33
REMARK SMILES IDX 68 34 28 35 73 36 67 37 69 38 29 39 72 40 66 41 65 42 30 44
REMARK SMILES IDX 56 45 39 46 55 47 40 48 43 49 54 50 70 51 41 52 42 53 53 55
REMARK SMILES IDX 71 56 44 57 31 58 32 59 37 60 33 61 34 62 36 63 38 64 35 65
REMARK SMILES IDX 57 66 58 67 63 68 59 69 60 70 62 71 64 72 61 73 45 74 46 75
REMARK SMILES IDX 51 76 47 77 48 78 50 79 52 80 49 81
REMARK H PARENT 69 43 43 54
REMARK Flexibility Score: inf
ROOT
ATOM      1  C   UNL     1       3.655  -4.940   9.759  1.00  0.00     0.274 C 
ENDROOT
BRANCH   1   2
ATOM      2  O   UNL     1       3.727  -4.202   8.518  1.00  0.00    -0.461 OA
BRANCH   2   3
ATOM      3  C   UNL     1       4.053  -4.948   7.432  1.00  0.00     0.329 C 
ATOM      4  O   UNL     1       4.376  -6.134   7.480  1.00  0.00    -0.250 OA
BRANCH   3   5
ATOM      5  C   UNL     1       4.101  -4.176   6.113  1.00  0.00     0.206 C 
ATOM      6  N   UNL     1       3.473  -2.862   5.961  1.00  0.00    -0.315 N 
ATOM      7  C   UNL     1       4.358  -1.764   6.263  1.00  0.00     0.191 C 
ATOM      8  S   UNL     1       5.967  -2.285   5.632  1.00  0.00    -0.138 SA
ATOM      9  C   UNL     1       5.569  -4.059   5.697  1.00  0.00     0.108 C 
BRANCH   6  10
ATOM     10  C   UNL     1       2.213  -2.796   5.389  1.00  0.00     0.255 C 
ATOM     11  O   UNL     1       1.420  -3.732   5.439  1.00  0.00    -0.269 OA
BRANCH  10  12
ATOM     12  C   UNL     1       1.855  -1.690   4.465  1.00  0.00     0.041 A 
ATOM     13  C   UNL     1       1.042  -0.074   2.316  1.00  0.00     0.136 A 
ATOM     14  C   UNL     1       0.124  -0.448   3.305  1.00  0.00     0.048 A 
ATOM     15  C   UNL     1       2.385  -0.454   2.433  1.00  0.00     0.095 A 
ATOM     16  C   UNL     1       0.525  -1.263   4.372  1.00  0.00     0.018 A 
ATOM     17  C   UNL     1       2.776  -1.284   3.492  1.00  0.00     0.037 A 
BRANCH  13  18
ATOM     18  O   UNL     1       0.555   0.703   1.297  1.00  0.00    -0.495 OA
ATOM     19  C   UNL     1       0.624   0.055   0.021  1.00  0.00     0.278 C 
ENDBRANCH  13  18
BRANCH  15  20
ATOM     20  C   UNL     1       3.390  -0.042   1.504  1.00  0.00     0.103 C 
ATOM     21  N   UNL     1       4.234   0.255   0.759  1.00  0.00    -0.192 NA
ENDBRANCH  15  20
ENDBRANCH  10  12
ENDBRANCH   6  10
ENDBRANCH   3   5
ENDBRANCH   2   3
ENDBRANCH   1   2
BRANCH   1  22
ATOM     22  C   UNL     1       2.214  -5.321  10.091  1.00  0.00     0.275 C 
BRANCH  22  23
ATOM     23  O   UNL     1       1.651  -6.121   9.037  1.00  0.00    -0.458 OA
BRANCH  23  24
ATOM     24  C   UNL     1       0.881  -5.429   8.163  1.00  0.00     0.338 C 
ATOM     25  O   UNL     1       0.574  -4.252   8.230  1.00  0.00    -0.246 OA
BRANCH  24  26
ATOM     26  C   UNL     1       0.394  -6.342   7.118  1.00  0.00     0.060 A 
ATOM     27  C   UNL     1       1.192  -6.676   6.021  1.00  0.00     0.016 A 
ATOM     28  C   UNL     1      -0.926  -6.776   7.187  1.00  0.00     0.016 A 
ATOM     29  C   UNL     1       0.650  -7.380   4.947  1.00  0.00     0.010 A 
ATOM     30  C   UNL     1      -1.443  -7.551   6.150  1.00  0.00     0.010 A 
ATOM     31  C   UNL     1      -0.670  -7.839   5.010  1.00  0.00    -0.014 A 
BRANCH  31  32
ATOM     32  C   UNL     1      -1.276  -8.622   3.906  1.00  0.00     0.031 A 
ATOM     33  C   UNL     1      -2.488  -8.091   3.196  1.00  0.00     0.074 A 
ATOM     34  C   UNL     1      -0.800  -9.846   3.611  1.00  0.00     0.049 A 
ATOM     35  N   UNL     1      -3.329  -8.715   2.412  1.00  0.00    -0.248 NA
ATOM     36  C   UNL     1      -2.805  -6.670   3.414  1.00  0.00     0.031 C 
ATOM     37  C   UNL     1       0.397 -10.455   4.193  1.00  0.00     0.029 A 
ATOM     38  N   UNL     1      -1.293 -10.815   2.773  1.00  0.00    -0.354 N 
ATOM     39  C   UNL     1      -4.297  -7.777   2.075  1.00  0.00     0.074 A 
ATOM     40  C   UNL     1      -3.949  -6.547   2.756  1.00  0.00     0.031 C 
ATOM     41  C   UNL     1       0.536 -11.699   3.710  1.00  0.00     0.029 A 
ATOM     42  C   UNL     1      -0.601 -12.000   2.847  1.00  0.00     0.049 A 
ATOM     43  H   UNL     1      -2.065 -10.675   2.178  1.00  0.00     0.167 HD
ATOM     44  C   UNL     1      -5.378  -7.934   1.274  1.00  0.00     0.037 A 
ATOM     45  C   UNL     1      -0.881 -13.210   2.326  1.00  0.00     0.037 A 
ATOM     46  C   UNL     1      -5.705  -9.165   0.599  1.00  0.00     0.049 A 
ATOM     47  C   UNL     1      -2.133 -13.385   1.511  1.00  0.00     0.074 A 
ATOM     48  C   UNL     1      -6.768  -9.426  -0.249  1.00  0.00     0.029 A 
ATOM     49  N   UNL     1      -4.977 -10.341   0.701  1.00  0.00    -0.354 N 
ATOM     50  N   UNL     1      -3.048 -12.499   1.200  1.00  0.00    -0.248 NA
ATOM     51  C   UNL     1      -2.395 -14.729   0.979  1.00  0.00     0.031 C 
ATOM     52  C   UNL     1      -6.718 -10.775  -0.608  1.00  0.00     0.029 A 
ATOM     53  C   UNL     1      -5.582 -11.337  -0.048  1.00  0.00     0.049 A 
ATOM     54  H   UNL     1      -4.153 -10.452   1.228  1.00  0.00     0.167 HD
ATOM     55  C   UNL     1      -3.967 -13.165   0.399  1.00  0.00     0.074 A 
ATOM     56  C   UNL     1      -3.500 -14.530   0.274  1.00  0.00     0.031 C 
ATOM     57  C   UNL     1      -5.090 -12.685  -0.187  1.00  0.00     0.037 A 
BRANCH  44  58
ATOM     58  C   UNL     1      -6.304  -6.763   1.111  1.00  0.00     0.057 A 
ATOM     59  C   UNL     1      -5.929  -5.605   0.418  1.00  0.00     0.134 A 
ATOM     60  C   UNL     1      -7.607  -6.811   1.624  1.00  0.00     0.134 A 
ATOM     61  F   UNL     1      -4.694  -5.487  -0.093  1.00  0.00    -0.206 F 
ATOM     62  C   UNL     1      -6.804  -4.527   0.269  1.00  0.00     0.040 A 
ATOM     63  C   UNL     1      -8.502  -5.753   1.453  1.00  0.00     0.040 A 
ATOM     64  F   UNL     1      -8.039  -7.893   2.290  1.00  0.00    -0.206 F 
ATOM     65  C   UNL     1      -8.098  -4.603   0.781  1.00  0.00     0.006 A 
ENDBRANCH  44  58
BRANCH  45  66
ATOM     66  C   UNL     1       0.026 -14.359   2.581  1.00  0.00     0.057 A 
ATOM     67  C   UNL     1       0.761 -14.938   1.541  1.00  0.00     0.134 A 
ATOM     68  C   UNL     1       0.172 -14.914   3.859  1.00  0.00     0.134 A 
ATOM     69  F   UNL     1       0.651 -14.464   0.292  1.00  0.00    -0.206 F 
ATOM     70  C   UNL     1       1.587 -16.043   1.756  1.00  0.00     0.040 A 
ATOM     71  C   UNL     1       1.019 -15.997   4.095  1.00  0.00     0.040 A 
ATOM     72  F   UNL     1      -0.498 -14.401   4.902  1.00  0.00    -0.206 F 
ATOM     73  C   UNL     1       1.722 -16.572   3.038  1.00  0.00     0.006 A 
ENDBRANCH  45  66
BRANCH  57  74
ATOM     74  C   UNL     1      -5.859 -13.612  -1.085  1.00  0.00     0.057 A 
ATOM     75  C   UNL     1      -6.616 -14.680  -0.590  1.00  0.00     0.134 A 
ATOM     76  C   UNL     1      -5.897 -13.378  -2.467  1.00  0.00     0.134 A 
ATOM     77  F   UNL     1      -6.612 -14.968   0.721  1.00  0.00    -0.206 F 
ATOM     78  C   UNL     1      -7.373 -15.491  -1.438  1.00  0.00     0.040 A 
ATOM     79  C   UNL     1      -6.675 -14.161  -3.320  1.00  0.00     0.040 A 
ATOM     80  F   UNL     1      -5.201 -12.366  -3.006  1.00  0.00    -0.206 F 
ATOM     81  C   UNL     1      -7.413 -15.224  -2.806  1.00  0.00     0.006 A 
ENDBRANCH  57  74
ENDBRANCH  31  32
ENDBRANCH  24  26
ENDBRANCH  23  24
ENDBRANCH  22  23
ENDBRANCH   1  22
TORSDOF 15
