REMARK SMILES COC(=O)c1ccc(Cl)c(-c2ccc(C(=O)OCCOC(=O)c3ccc(-c4c5nc(c(-c6c(F)cccc6F)c6ccc([nH]6)c(-c6c(F)cccc6F)c6nc(c(-c7c(F)cccc7F)c7ccc4[nH]7)C=C6)C=C5)cc3)c(F)c2)c1
REMARK SMILES IDX 18 1 17 2 15 3 16 4 14 5 11 6 12 7 79 8 13 9 77 10 78 11
REMARK SMILES IDX 10 12 5 13 6 14 80 15 7 16 8 17 9 18 3 19 4 20 2 21 1 22
REMARK SMILES IDX 19 23 20 24 21 25 22 26 23 27 24 28 76 29 25 30 75 31 26 32
REMARK SMILES IDX 27 33 28 34 69 35 29 36 74 37 68 38 70 39 30 40 73 41 67 42
REMARK SMILES IDX 66 43 31 45 57 46 40 47 56 48 41 49 44 50 55 51 71 52 42 53
REMARK SMILES IDX 43 54 54 56 72 57 45 58 32 59 33 60 38 61 34 62 35 63 37 64
REMARK SMILES IDX 39 65 36 66 58 67 59 68 64 69 60 70 61 71 63 72 65 73 62 74
REMARK SMILES IDX 46 75 47 76 52 77 48 78 49 79 51 80 53 81 50 82
REMARK H PARENT 70 44 44 55
REMARK Flexibility Score: inf
ROOT
ATOM      1  C   UNL     1       6.063   1.339 -11.605  1.00  0.00     0.275 C 
ENDROOT
BRANCH   1   2
ATOM      2  O   UNL     1       5.170   1.004 -10.524  1.00  0.00    -0.458 OA
BRANCH   2   3
ATOM      3  C   UNL     1       4.729   2.037  -9.769  1.00  0.00     0.341 C 
ATOM      4  O   UNL     1       5.004   3.217  -9.927  1.00  0.00    -0.246 OA
BRANCH   3   5
ATOM      5  C   UNL     1       3.722   1.597  -8.783  1.00  0.00     0.095 A 
ATOM      6  C   UNL     1       1.750   0.884  -6.899  1.00  0.00    -0.014 A 
ATOM      7  C   UNL     1       1.665   2.096  -7.592  1.00  0.00     0.010 A 
ATOM      8  C   UNL     1       2.841   0.037  -7.156  1.00  0.00     0.049 A 
ATOM      9  C   UNL     1       2.660   2.463  -8.493  1.00  0.00     0.019 A 
ATOM     10  C   UNL     1       3.810   0.389  -8.101  1.00  0.00     0.138 A 
ATOM     11  F   UNL     1       4.859  -0.429  -8.273  1.00  0.00    -0.206 F 
BRANCH   6  12
ATOM     12  C   UNL     1       0.781   0.603  -5.834  1.00  0.00     0.001 A 
ATOM     13  C   UNL     1       0.320   0.615  -3.435  1.00  0.00     0.060 A 
ATOM     14  C   UNL     1      -1.012   0.274  -3.676  1.00  0.00     0.017 A 
ATOM     15  C   UNL     1       1.203   0.784  -4.505  1.00  0.00     0.026 A 
ATOM     16  C   UNL     1      -1.452   0.096  -4.990  1.00  0.00     0.022 A 
ATOM     17  C   UNL     1      -0.563   0.255  -6.062  1.00  0.00     0.048 A 
ATOM     18  Cl  UNL     1      -1.184   0.021  -7.659  1.00  0.00    -0.084 Cl
BRANCH  13  19
ATOM     19  C   UNL     1       0.855   0.832  -2.071  1.00  0.00     0.337 C 
ATOM     20  O   UNL     1       1.761   1.602  -1.821  1.00  0.00    -0.246 OA
BRANCH  19  21
ATOM     21  O   UNL     1       0.252  -0.024  -1.209  1.00  0.00    -0.465 OA
ATOM     22  C   UNL     1       0.834  -0.013   0.095  1.00  0.00     0.282 C 
ENDBRANCH  19  21
ENDBRANCH  13  19
ENDBRANCH   6  12
ENDBRANCH   3   5
ENDBRANCH   2   3
ENDBRANCH   1   2
BRANCH   1  23
ATOM     23  C   UNL     1       5.360   1.219 -12.958  1.00  0.00     0.275 C 
BRANCH  23  24
ATOM     24  O   UNL     1       4.353   2.240 -13.104  1.00  0.00    -0.458 OA
BRANCH  24  25
ATOM     25  C   UNL     1       3.081   1.815 -12.939  1.00  0.00     0.338 C 
ATOM     26  O   UNL     1       2.695   0.679 -12.719  1.00  0.00    -0.246 OA
BRANCH  25  27
ATOM     27  C   UNL     1       2.158   2.958 -12.956  1.00  0.00     0.060 A 
ATOM     28  C   UNL     1       2.001   3.670 -11.775  1.00  0.00     0.016 A 
ATOM     29  C   UNL     1       1.314   3.199 -14.035  1.00  0.00     0.016 A 
ATOM     30  C   UNL     1       0.921   4.531 -11.610  1.00  0.00     0.010 A 
ATOM     31  C   UNL     1       0.303   4.163 -13.911  1.00  0.00     0.010 A 
ATOM     32  C   UNL     1       0.063   4.810 -12.683  1.00  0.00    -0.014 A 
BRANCH  32  33
ATOM     33  C   UNL     1      -1.080   5.757 -12.509  1.00  0.00     0.031 A 
ATOM     34  C   UNL     1      -2.489   5.326 -12.835  1.00  0.00     0.074 A 
ATOM     35  C   UNL     1      -0.867   7.007 -12.047  1.00  0.00     0.049 A 
ATOM     36  N   UNL     1      -3.576   6.051 -12.925  1.00  0.00    -0.248 NA
ATOM     37  C   UNL     1      -2.705   3.896 -13.109  1.00  0.00     0.031 C 
ATOM     38  C   UNL     1       0.431   7.555 -11.648  1.00  0.00     0.029 A 
ATOM     39  N   UNL     1      -1.739   8.049 -11.832  1.00  0.00    -0.354 N 
ATOM     40  C   UNL     1      -4.586   5.181 -13.322  1.00  0.00     0.074 A 
ATOM     41  C   UNL     1      -3.984   3.873 -13.460  1.00  0.00     0.031 C 
ATOM     42  C   UNL     1       0.267   8.807 -11.200  1.00  0.00     0.029 A 
ATOM     43  C   UNL     1      -1.126   9.195 -11.382  1.00  0.00     0.049 A 
ATOM     44  H   UNL     1      -2.709   7.981 -11.987  1.00  0.00     0.167 HD
ATOM     45  C   UNL     1      -5.894   5.452 -13.549  1.00  0.00     0.037 A 
ATOM     46  C   UNL     1      -1.606  10.438 -11.186  1.00  0.00     0.037 A 
ATOM     47  C   UNL     1      -6.503   6.742 -13.347  1.00  0.00     0.049 A 
ATOM     48  C   UNL     1      -3.050  10.723 -11.481  1.00  0.00     0.074 A 
ATOM     49  C   UNL     1      -7.829   7.101 -13.517  1.00  0.00     0.029 A 
ATOM     50  N   UNL     1      -5.833   7.878 -12.919  1.00  0.00    -0.354 N 
ATOM     51  N   UNL     1      -3.982   9.901 -11.897  1.00  0.00    -0.248 NA
ATOM     52  C   UNL     1      -3.506  12.108 -11.300  1.00  0.00     0.031 C 
ATOM     53  C   UNL     1      -7.952   8.465 -13.243  1.00  0.00     0.029 A 
ATOM     54  C   UNL     1      -6.715   8.944 -12.843  1.00  0.00     0.049 A 
ATOM     55  H   UNL     1      -4.874   7.921 -12.701  1.00  0.00     0.167 HD
ATOM     56  C   UNL     1      -5.136  10.663 -12.015  1.00  0.00     0.074 A 
ATOM     57  C   UNL     1      -4.792  12.010 -11.608  1.00  0.00     0.031 C 
ATOM     58  C   UNL     1      -6.367  10.279 -12.429  1.00  0.00     0.037 A 
BRANCH  45  59
ATOM     59  C   UNL     1      -6.772   4.346 -14.064  1.00  0.00     0.057 A 
ATOM     60  C   UNL     1      -7.282   4.402 -15.370  1.00  0.00     0.134 A 
ATOM     61  C   UNL     1      -7.194   3.287 -13.253  1.00  0.00     0.134 A 
ATOM     62  F   UNL     1      -6.928   5.397 -16.197  1.00  0.00    -0.206 F 
ATOM     63  C   UNL     1      -8.194   3.457 -15.841  1.00  0.00     0.040 A 
ATOM     64  C   UNL     1      -8.085   2.319 -13.723  1.00  0.00     0.040 A 
ATOM     65  F   UNL     1      -6.739   3.169 -11.997  1.00  0.00    -0.206 F 
ATOM     66  C   UNL     1      -8.598   2.410 -15.016  1.00  0.00     0.006 A 
ENDBRANCH  45  59
BRANCH  46  67
ATOM     67  C   UNL     1      -0.689  11.515 -10.728  1.00  0.00     0.057 A 
ATOM     68  C   UNL     1       0.354  11.980 -11.541  1.00  0.00     0.134 A 
ATOM     69  C   UNL     1      -0.810  12.080  -9.454  1.00  0.00     0.134 A 
ATOM     70  F   UNL     1       0.528  11.478 -12.773  1.00  0.00    -0.206 F 
ATOM     71  C   UNL     1       1.262  12.940 -11.092  1.00  0.00     0.040 A 
ATOM     72  C   UNL     1       0.071  13.065  -9.004  1.00  0.00     0.040 A 
ATOM     73  F   UNL     1      -1.802  11.696  -8.637  1.00  0.00    -0.206 F 
ATOM     74  C   UNL     1       1.119  13.488  -9.820  1.00  0.00     0.006 A 
ENDBRANCH  46  67
BRANCH  58  75
ATOM     75  C   UNL     1      -7.452  11.314 -12.439  1.00  0.00     0.057 A 
ATOM     76  C   UNL     1      -8.510  11.245 -11.522  1.00  0.00     0.134 A 
ATOM     77  C   UNL     1      -7.495  12.329 -13.402  1.00  0.00     0.134 A 
ATOM     78  F   UNL     1      -8.534  10.290 -10.580  1.00  0.00    -0.206 F 
ATOM     79  C   UNL     1      -9.581  12.138 -11.576  1.00  0.00     0.040 A 
ATOM     80  C   UNL     1      -8.547  13.244 -13.449  1.00  0.00     0.040 A 
ATOM     81  F   UNL     1      -6.507  12.456 -14.301  1.00  0.00    -0.206 F 
ATOM     82  C   UNL     1      -9.600  13.143 -12.540  1.00  0.00     0.006 A 
ENDBRANCH  58  75
ENDBRANCH  32  33
ENDBRANCH  25  27
ENDBRANCH  24  25
ENDBRANCH  23  24
ENDBRANCH   1  23
TORSDOF 14
