REMARK SMILES COc1ccc([C@H]2CC(c3ccc(S(C)(=O)=O)cc3)=NN2c2ccc(C(=O)OCCOC(=O)c3ccc(-c4c5nc(c(-c6c(F)cccc6F)c6ccc([nH]6)c(-c6c(F)cccc6F)c6nc(c(-c7c(F)cccc7F)c7ccc4[nH]7)C=C6)C=C5)cc3)cc2)cc1
REMARK SMILES IDX 29 1 28 2 26 3 27 4 25 5 22 6 23 7 89 8 24 9 88 10 21 11
REMARK SMILES IDX 7 12 8 13 9 14 20 15 6 16 3 17 4 18 91 19 5 20 90 21 2 22
REMARK SMILES IDX 1 23 10 24 11 25 19 26 12 27 18 28 13 29 14 30 15 31 16 32
REMARK SMILES IDX 17 33 30 34 31 35 32 36 33 37 34 38 35 39 87 40 36 41 86 42
REMARK SMILES IDX 37 43 38 44 39 45 80 46 40 47 85 48 79 49 81 50 41 51 84 52
REMARK SMILES IDX 78 53 77 54 42 56 68 57 51 58 67 59 52 60 55 61 66 62 82 63
REMARK SMILES IDX 53 64 54 65 65 67 83 68 56 69 43 70 44 71 49 72 45 73 46 74
REMARK SMILES IDX 48 75 50 76 47 77 69 78 70 79 75 80 71 81 72 82 74 83 76 84
REMARK SMILES IDX 73 85 57 86 58 87 63 88 59 89 60 90 62 91 64 92 61 93
REMARK H PARENT 81 55 55 66
REMARK Flexibility Score: inf
ROOT
ATOM      1  C   UNL     1       1.141   0.180  -9.742  1.00  0.00     0.275 C 
ENDROOT
BRANCH   1   2
ATOM      2  O   UNL     1       1.431   1.354  -8.956  1.00  0.00    -0.458 OA
BRANCH   2   3
ATOM      3  C   UNL     1       1.832   1.111  -7.685  1.00  0.00     0.338 C 
ATOM      4  O   UNL     1       1.954   0.018  -7.154  1.00  0.00    -0.246 OA
BRANCH   3   5
ATOM      5  C   UNL     1       2.188   2.370  -7.000  1.00  0.00     0.060 A 
ATOM      6  C   UNL     1       2.793   4.608  -5.416  1.00  0.00     0.060 A 
ATOM      7  C   UNL     1       3.683   3.536  -5.496  1.00  0.00     0.029 A 
ATOM      8  C   UNL     1       1.628   4.575  -6.197  1.00  0.00     0.029 A 
ATOM      9  C   UNL     1       3.361   2.409  -6.242  1.00  0.00     0.018 A 
ATOM     10  C   UNL     1       1.332   3.471  -7.006  1.00  0.00     0.018 A 
BRANCH   6  11
ATOM     11  N   UNL     1       3.016   5.621  -4.486  1.00  0.00    -0.257 N 
ATOM     12  C   UNL     1       2.195   5.736  -3.271  1.00  0.00     0.144 C 
ATOM     13  C   UNL     1       3.073   6.590  -2.347  1.00  0.00     0.091 C 
ATOM     14  C   UNL     1       4.295   6.751  -3.208  1.00  0.00     0.071 C 
ATOM     15  N   UNL     1       4.252   6.175  -4.368  1.00  0.00    -0.176 NA
BRANCH  12  16
ATOM     16  C   UNL     1       1.794   4.388  -2.676  1.00  0.00    -0.023 A 
ATOM     17  C   UNL     1       0.993   1.860  -1.702  1.00  0.00     0.118 A 
ATOM     18  C   UNL     1       0.079   2.687  -2.350  1.00  0.00     0.047 A 
ATOM     19  C   UNL     1       2.317   2.274  -1.567  1.00  0.00     0.047 A 
ATOM     20  C   UNL     1       0.470   3.943  -2.823  1.00  0.00     0.010 A 
ATOM     21  C   UNL     1       2.715   3.527  -2.056  1.00  0.00     0.010 A 
BRANCH  17  22
ATOM     22  O   UNL     1       0.501   0.650  -1.295  1.00  0.00    -0.497 OA
ATOM     23  C   UNL     1       1.096   0.120  -0.116  1.00  0.00     0.278 C 
ENDBRANCH  17  22
ENDBRANCH  12  16
BRANCH  14  24
ATOM     24  C   UNL     1       5.431   7.585  -2.778  1.00  0.00    -0.002 A 
ATOM     25  C   UNL     1       6.014   8.437  -3.726  1.00  0.00     0.011 A 
ATOM     26  C   UNL     1       5.888   7.577  -1.458  1.00  0.00     0.011 A 
ATOM     27  C   UNL     1       7.034   9.309  -3.348  1.00  0.00     0.021 A 
ATOM     28  C   UNL     1       6.928   8.432  -1.081  1.00  0.00     0.021 A 
ATOM     29  C   UNL     1       7.489   9.298  -2.026  1.00  0.00     0.067 A 
BRANCH  29  30
ATOM     30  S   UNL     1       8.756  10.448  -1.541  1.00  0.00     0.175 S 
ATOM     31  C   UNL     1      10.151  10.021  -2.549  1.00  0.00     0.163 C 
ATOM     32  O   UNL     1       8.292  11.765  -1.932  1.00  0.00    -0.224 OA
ATOM     33  O   UNL     1       9.105  10.159  -0.163  1.00  0.00    -0.224 OA
ENDBRANCH  29  30
ENDBRANCH  14  24
ENDBRANCH   6  11
ENDBRANCH   3   5
ENDBRANCH   2   3
ENDBRANCH   1   2
BRANCH   1  34
ATOM     34  C   UNL     1       2.335  -0.213 -10.611  1.00  0.00     0.275 C 
BRANCH  34  35
ATOM     35  O   UNL     1       3.428  -0.649  -9.782  1.00  0.00    -0.458 OA
BRANCH  35  36
ATOM     36  C   UNL     1       4.595   0.014  -9.947  1.00  0.00     0.338 C 
ATOM     37  O   UNL     1       4.841   0.895 -10.754  1.00  0.00    -0.246 OA
BRANCH  36  38
ATOM     38  C   UNL     1       5.595  -0.466  -8.976  1.00  0.00     0.060 A 
ATOM     39  C   UNL     1       5.333  -0.370  -7.614  1.00  0.00     0.016 A 
ATOM     40  C   UNL     1       6.857  -0.862  -9.411  1.00  0.00     0.016 A 
ATOM     41  C   UNL     1       6.362  -0.526  -6.687  1.00  0.00     0.010 A 
ATOM     42  C   UNL     1       7.855  -1.152  -8.471  1.00  0.00     0.010 A 
ATOM     43  C   UNL     1       7.638  -0.937  -7.097  1.00  0.00    -0.014 A 
BRANCH  43  44
ATOM     44  C   UNL     1       8.742  -1.111  -6.103  1.00  0.00     0.031 A 
ATOM     45  C   UNL     1      10.058  -0.392  -6.288  1.00  0.00     0.074 A 
ATOM     46  C   UNL     1       8.582  -1.910  -5.027  1.00  0.00     0.049 A 
ATOM     47  N   UNL     1      11.194  -0.565  -5.657  1.00  0.00    -0.248 NA
ATOM     48  C   UNL     1      10.111   0.645  -7.332  1.00  0.00     0.031 C 
ATOM     49  C   UNL     1       7.366  -2.652  -4.691  1.00  0.00     0.029 A 
ATOM     50  N   UNL     1       9.453  -2.233  -4.012  1.00  0.00    -0.354 N 
ATOM     51  C   UNL     1      12.108   0.280  -6.276  1.00  0.00     0.074 A 
ATOM     52  C   UNL     1      11.395   0.974  -7.327  1.00  0.00     0.031 C 
ATOM     53  C   UNL     1       7.551  -3.307  -3.536  1.00  0.00     0.029 A 
ATOM     54  C   UNL     1       8.928  -3.114  -3.097  1.00  0.00     0.049 A 
ATOM     55  H   UNL     1      10.364  -1.868  -3.948  1.00  0.00     0.167 HD
ATOM     56  C   UNL     1      13.422   0.459  -5.996  1.00  0.00     0.037 A 
ATOM     57  C   UNL     1       9.495  -3.743  -2.049  1.00  0.00     0.037 A 
ATOM     58  C   UNL     1      14.114  -0.165  -4.898  1.00  0.00     0.049 A 
ATOM     59  C   UNL     1      10.948  -3.518  -1.752  1.00  0.00     0.074 A 
ATOM     60  C   UNL     1      15.434  -0.007  -4.510  1.00  0.00     0.029 A 
ATOM     61  N   UNL     1      13.538  -1.049  -4.000  1.00  0.00    -0.354 N 
ATOM     62  N   UNL     1      11.809  -2.750  -2.374  1.00  0.00    -0.248 NA
ATOM     63  C   UNL     1      11.516  -4.264  -0.620  1.00  0.00     0.031 C 
ATOM     64  C   UNL     1      15.665  -0.818  -3.395  1.00  0.00     0.029 A 
ATOM     65  C   UNL     1      14.479  -1.452  -3.066  1.00  0.00     0.049 A 
ATOM     66  H   UNL     1      12.600  -1.347  -4.022  1.00  0.00     0.167 HD
ATOM     67  C   UNL     1      13.015  -2.916  -1.708  1.00  0.00     0.074 A 
ATOM     68  C   UNL     1      12.770  -3.836  -0.617  1.00  0.00     0.031 C 
ATOM     69  C   UNL     1      14.221  -2.364  -1.983  1.00  0.00     0.037 A 
BRANCH  56  70
ATOM     70  C   UNL     1      14.219   1.346  -6.907  1.00  0.00     0.057 A 
ATOM     71  C   UNL     1      14.114   2.741  -6.876  1.00  0.00     0.134 A 
ATOM     72  C   UNL     1      15.160   0.788  -7.784  1.00  0.00     0.134 A 
ATOM     73  F   UNL     1      13.227   3.338  -6.066  1.00  0.00    -0.206 F 
ATOM     74  C   UNL     1      14.905   3.550  -7.696  1.00  0.00     0.040 A 
ATOM     75  C   UNL     1      15.973   1.586  -8.591  1.00  0.00     0.040 A 
ATOM     76  F   UNL     1      15.319  -0.543  -7.856  1.00  0.00    -0.206 F 
ATOM     77  C   UNL     1      15.844   2.972  -8.550  1.00  0.00     0.006 A 
ENDBRANCH  56  70
BRANCH  57  78
ATOM     78  C   UNL     1       8.695  -4.694  -1.236  1.00  0.00     0.057 A 
ATOM     79  C   UNL     1       8.347  -4.404   0.088  1.00  0.00     0.134 A 
ATOM     80  C   UNL     1       8.262  -5.917  -1.764  1.00  0.00     0.134 A 
ATOM     81  F   UNL     1       8.753  -3.259   0.658  1.00  0.00    -0.206 F 
ATOM     82  C   UNL     1       7.608  -5.300   0.862  1.00  0.00     0.040 A 
ATOM     83  C   UNL     1       7.498  -6.809  -1.012  1.00  0.00     0.040 A 
ATOM     84  F   UNL     1       8.562  -6.254  -3.027  1.00  0.00    -0.206 F 
ATOM     85  C   UNL     1       7.174  -6.504   0.308  1.00  0.00     0.006 A 
ENDBRANCH  57  78
BRANCH  69  86
ATOM     86  C   UNL     1      15.357  -2.720  -1.073  1.00  0.00     0.057 A 
ATOM     87  C   UNL     1      15.978  -3.973  -1.128  1.00  0.00     0.134 A 
ATOM     88  C   UNL     1      15.847  -1.792  -0.146  1.00  0.00     0.134 A 
ATOM     89  F   UNL     1      15.543  -4.910  -1.984  1.00  0.00    -0.206 F 
ATOM     90  C   UNL     1      17.035  -4.299  -0.278  1.00  0.00     0.040 A 
ATOM     91  C   UNL     1      16.918  -2.098   0.694  1.00  0.00     0.040 A 
ATOM     92  F   UNL     1      15.299  -0.571  -0.048  1.00  0.00    -0.206 F 
ATOM     93  C   UNL     1      17.511  -3.358   0.633  1.00  0.00     0.006 A 
ENDBRANCH  69  86
ENDBRANCH  43  44
ENDBRANCH  36  38
ENDBRANCH  35  36
ENDBRANCH  34  35
ENDBRANCH   1  34
TORSDOF 16
