REMARK SMILES CC[NH2+][C@@]1(C(=O)OCCOC(=O)c2ccc(-c3c4nc(c(-c5c(F)cccc5F)c5ccc([nH]5)c(-c5c(F)cccc5F)c5nc(c(-c6c(F)cccc6F)c6ccc3[nH]6)C=C5)C=C4)cc2)CCC[C@H]1CCSc1cnn(C)c1
REMARK SMILES IDX 8 1 7 2 5 3 6 4 4 5 67 6 70 7 68 8 69 9 3 10 2 13 1 14 71 15
REMARK SMILES IDX 72 16 73 17 74 18 75 19 79 20 76 21 77 22 78 23 9 24 10 25
REMARK SMILES IDX 11 26 12 27 13 28 14 29 66 30 15 31 65 32 16 33 17 34 18 35
REMARK SMILES IDX 59 36 19 37 64 38 58 39 60 40 20 41 63 42 57 43 56 44 21 46
REMARK SMILES IDX 47 47 30 48 46 49 31 50 34 51 45 52 61 53 32 54 33 55 44 57
REMARK SMILES IDX 62 58 35 59 22 60 23 61 28 62 24 63 25 64 27 65 29 66 26 67
REMARK SMILES IDX 48 68 49 69 54 70 50 71 51 72 53 73 55 74 52 75 36 76 37 77
REMARK SMILES IDX 42 78 38 79 39 80 41 81 43 82 40 83
REMARK H PARENT 3 11 3 12 60 45 34 56
REMARK Flexibility Score: inf
ROOT
ATOM      1  C   UNL     1      -2.612  -2.614  -3.730  1.00  0.00     0.274 C 
ENDROOT
BRANCH   1   2
ATOM      2  O   UNL     1      -1.373  -3.251  -3.355  1.00  0.00    -0.457 OA
BRANCH   2   3
ATOM      3  C   UNL     1      -0.233  -2.538  -3.536  1.00  0.00     0.368 C 
ATOM      4  O   UNL     1      -0.189  -1.519  -4.225  1.00  0.00    -0.245 OA
BRANCH   3   5
ATOM      5  C   UNL     1       1.031  -3.132  -2.785  1.00  0.00     0.197 C 
ATOM      6  C   UNL     1       2.123  -3.349  -3.853  1.00  0.00     0.081 C 
ATOM      7  C   UNL     1       0.817  -4.604  -2.237  1.00  0.00     0.063 C 
ATOM      8  C   UNL     1       1.686  -4.619  -4.558  1.00  0.00     0.008 C 
ATOM      9  C   UNL     1       1.157  -5.513  -3.447  1.00  0.00     0.011 C 
BRANCH   5  10
ATOM     10  N   UNL     1       1.534  -2.184  -1.740  1.00  0.00    -0.332 N 
ATOM     11  H   UNL     1       0.972  -2.317  -0.899  1.00  0.00     0.347 HD
ATOM     12  H   UNL     1       2.522  -2.405  -1.615  1.00  0.00     0.347 HD
BRANCH  10  13
ATOM     13  C   UNL     1       1.484  -0.759  -2.095  1.00  0.00     0.257 C 
ATOM     14  C   UNL     1       2.250   0.089  -1.086  1.00  0.00     0.071 C 
ENDBRANCH  10  13
ENDBRANCH   5  10
BRANCH   7  15
ATOM     15  C   UNL     1       1.674  -5.047  -1.012  1.00  0.00     0.022 C 
BRANCH  15  16
ATOM     16  C   UNL     1       1.013  -4.833   0.359  1.00  0.00     0.075 C 
BRANCH  16  17
ATOM     17  S   UNL     1       0.125  -6.297   0.996  1.00  0.00    -0.123 SA
BRANCH  17  18
ATOM     18  C   UNL     1      -1.544  -5.891   0.722  1.00  0.00     0.045 A 
ATOM     19  C   UNL     1      -2.389  -6.468  -0.243  1.00  0.00     0.150 A 
ATOM     20  C   UNL     1      -2.341  -4.999   1.401  1.00  0.00     0.123 A 
ATOM     21  N   UNL     1      -3.627  -5.964  -0.208  1.00  0.00    -0.181 NA
ATOM     22  N   UNL     1      -3.552  -5.032   0.763  1.00  0.00    -0.275 N 
ATOM     23  C   UNL     1      -4.682  -4.163   0.991  1.00  0.00     0.173 C 
ENDBRANCH  17  18
ENDBRANCH  16  17
ENDBRANCH  15  16
ENDBRANCH   7  15
ENDBRANCH   3   5
ENDBRANCH   2   3
ENDBRANCH   1   2
BRANCH   1  24
ATOM     24  C   UNL     1      -3.589  -2.535  -2.542  1.00  0.00     0.275 C 
BRANCH  24  25
ATOM     25  O   UNL     1      -3.184  -1.611  -1.498  1.00  0.00    -0.458 OA
BRANCH  25  26
ATOM     26  C   UNL     1      -2.235  -2.129  -0.690  1.00  0.00     0.338 C 
ATOM     27  O   UNL     1      -1.704  -3.216  -0.843  1.00  0.00    -0.246 OA
BRANCH  26  28
ATOM     28  C   UNL     1      -1.841  -1.316   0.473  1.00  0.00     0.060 A 
ATOM     29  C   UNL     1      -0.511  -1.476   0.866  1.00  0.00     0.016 A 
ATOM     30  C   UNL     1      -2.716  -0.597   1.285  1.00  0.00     0.016 A 
ATOM     31  C   UNL     1      -0.046  -0.993   2.071  1.00  0.00     0.010 A 
ATOM     32  C   UNL     1      -2.240  -0.069   2.500  1.00  0.00     0.010 A 
ATOM     33  C   UNL     1      -0.907  -0.280   2.899  1.00  0.00    -0.014 A 
BRANCH  33  34
ATOM     34  C   UNL     1      -0.291   0.304   4.104  1.00  0.00     0.031 A 
ATOM     35  C   UNL     1      -0.204  -0.470   5.382  1.00  0.00     0.074 A 
ATOM     36  C   UNL     1       0.405   1.443   3.945  1.00  0.00     0.049 A 
ATOM     37  N   UNL     1       0.455  -0.181   6.474  1.00  0.00    -0.248 NA
ATOM     38  C   UNL     1      -0.931  -1.746   5.431  1.00  0.00     0.031 C 
ATOM     39  C   UNL     1       0.496   2.196   2.691  1.00  0.00     0.029 A 
ATOM     40  N   UNL     1       1.206   2.133   4.813  1.00  0.00    -0.354 N 
ATOM     41  C   UNL     1       0.232  -1.240   7.342  1.00  0.00     0.074 A 
ATOM     42  C   UNL     1      -0.634  -2.175   6.652  1.00  0.00     0.031 C 
ATOM     43  C   UNL     1       1.316   3.241   2.870  1.00  0.00     0.029 A 
ATOM     44  C   UNL     1       1.780   3.246   4.254  1.00  0.00     0.049 A 
ATOM     45  H   UNL     1       1.356   1.857   5.746  1.00  0.00     0.167 HD
ATOM     46  C   UNL     1       0.707  -1.408   8.600  1.00  0.00     0.037 A 
ATOM     47  C   UNL     1       2.581   4.176   4.800  1.00  0.00     0.037 A 
ATOM     48  C   UNL     1       1.554  -0.462   9.282  1.00  0.00     0.049 A 
ATOM     49  C   UNL     1       3.018   4.013   6.224  1.00  0.00     0.074 A 
ATOM     50  C   UNL     1       2.048  -0.516  10.574  1.00  0.00     0.029 A 
ATOM     51  N   UNL     1       2.031   0.716   8.723  1.00  0.00    -0.354 N 
ATOM     52  N   UNL     1       2.767   3.029   7.053  1.00  0.00    -0.248 NA
ATOM     53  C   UNL     1       3.848   5.084   6.788  1.00  0.00     0.031 C 
ATOM     54  C   UNL     1       2.789   0.650  10.810  1.00  0.00     0.029 A 
ATOM     55  C   UNL     1       2.790   1.411   9.651  1.00  0.00     0.049 A 
ATOM     56  H   UNL     1       1.857   1.014   7.801  1.00  0.00     0.167 HD
ATOM     57  C   UNL     1       3.408   3.358   8.238  1.00  0.00     0.074 A 
ATOM     58  C   UNL     1       4.081   4.622   8.009  1.00  0.00     0.031 C 
ATOM     59  C   UNL     1       3.435   2.677   9.410  1.00  0.00     0.037 A 
BRANCH  46  60
ATOM     60  C   UNL     1       0.264  -2.636   9.337  1.00  0.00     0.057 A 
ATOM     61  C   UNL     1       0.801  -3.900   9.064  1.00  0.00     0.134 A 
ATOM     62  C   UNL     1      -0.710  -2.549  10.339  1.00  0.00     0.134 A 
ATOM     63  F   UNL     1       1.728  -4.053   8.106  1.00  0.00    -0.206 F 
ATOM     64  C   UNL     1       0.367  -5.038   9.748  1.00  0.00     0.040 A 
ATOM     65  C   UNL     1      -1.139  -3.676  11.041  1.00  0.00     0.040 A 
ATOM     66  F   UNL     1      -1.263  -1.366  10.649  1.00  0.00    -0.206 F 
ATOM     67  C   UNL     1      -0.604  -4.927  10.742  1.00  0.00     0.006 A 
ENDBRANCH  46  60
BRANCH  47  68
ATOM     68  C   UNL     1       2.978   5.351   3.990  1.00  0.00     0.057 A 
ATOM     69  C   UNL     1       4.286   5.517   3.528  1.00  0.00     0.134 A 
ATOM     70  C   UNL     1       2.031   6.315   3.620  1.00  0.00     0.134 A 
ATOM     71  F   UNL     1       5.238   4.633   3.861  1.00  0.00    -0.206 F 
ATOM     72  C   UNL     1       4.641   6.603   2.726  1.00  0.00     0.040 A 
ATOM     73  C   UNL     1       2.365   7.391   2.800  1.00  0.00     0.040 A 
ATOM     74  F   UNL     1       0.758   6.204   4.027  1.00  0.00    -0.206 F 
ATOM     75  C   UNL     1       3.676   7.538   2.353  1.00  0.00     0.006 A 
ENDBRANCH  47  68
BRANCH  59  76
ATOM     76  C   UNL     1       4.212   3.300  10.529  1.00  0.00     0.057 A 
ATOM     77  C   UNL     1       3.722   4.408  11.232  1.00  0.00     0.134 A 
ATOM     78  C   UNL     1       5.455   2.785  10.914  1.00  0.00     0.134 A 
ATOM     79  F   UNL     1       2.544   4.957  10.899  1.00  0.00    -0.206 F 
ATOM     80  C   UNL     1       4.453   4.997  12.265  1.00  0.00     0.040 A 
ATOM     81  C   UNL     1       6.186   3.352  11.958  1.00  0.00     0.040 A 
ATOM     82  F   UNL     1       5.978   1.723  10.282  1.00  0.00    -0.206 F 
ATOM     83  C   UNL     1       5.688   4.465  12.633  1.00  0.00     0.006 A 
ENDBRANCH  59  76
ENDBRANCH  33  34
ENDBRANCH  26  28
ENDBRANCH  25  26
ENDBRANCH  24  25
ENDBRANCH   1  24
TORSDOF 17
