REMARK SMILES O=C(OCCOC(=O)[C@@H](CCCCl)[P@TB3](=O)(c1ccccc1)c1ccccc1)c1ccc(-c2c3nc(c(-c4c(F)cccc4F)c4ccc([nH]4)c(-c4c(F)cccc4F)c4nc(c(-c5c(F)cccc5F)c5ccc2[nH]5)C=C4)C=C3)cc1
REMARK SMILES IDX 5 1 4 2 3 3 2 4 1 5 28 6 29 7 81 8 30 9 80 10 31 11 32 12
REMARK SMILES IDX 33 13 74 14 34 15 79 16 73 17 75 18 35 19 78 20 72 21 71 22
REMARK SMILES IDX 36 24 62 25 45 26 61 27 46 28 49 29 60 30 76 31 47 32 48 33
REMARK SMILES IDX 59 35 77 36 50 37 37 38 38 39 43 40 39 41 40 42 42 43 44 44
REMARK SMILES IDX 41 45 63 46 64 47 69 48 65 49 66 50 68 51 70 52 67 53 51 54
REMARK SMILES IDX 52 55 57 56 53 57 54 58 56 59 58 60 55 61 6 62 7 63 8 64
REMARK SMILES IDX 9 65 10 66 11 67 12 68 13 69 14 70 15 71 16 72 17 73 21 74
REMARK SMILES IDX 18 75 20 76 19 77 22 78 23 79 27 80 24 81 26 82 25 83
REMARK H PARENT 75 23 49 34
REMARK Flexibility Score: inf
ROOT
ATOM      1  C   UNL     1       3.342  -0.443   1.428  1.00  0.00       nan C 
ENDROOT
BRANCH   1   2
ATOM      2  C   UNL     1       4.067   0.927   1.410  1.00  0.00       nan C 
BRANCH   2   3
ATOM      3  O   UNL     1       3.269   1.918   0.782  1.00  0.00       nan OA
BRANCH   3   4
ATOM      4  C   UNL     1       3.041   1.902  -0.546  1.00  0.00       nan C 
ATOM      5  O   UNL     1       2.158   2.623  -1.008  1.00  0.00       nan OA
BRANCH   4   6
ATOM      6  C   UNL     1       3.776   1.022  -1.528  1.00  0.00       nan A 
ATOM      7  C   UNL     1       4.588  -0.596  -1.294  1.00  0.00       nan A 
ATOM      8  C   UNL     1       3.382   1.532  -3.188  1.00  0.00       nan A 
ATOM      9  C   UNL     1       4.900  -1.687  -2.730  1.00  0.00       nan A 
ATOM     10  C   UNL     1       3.682   0.478  -4.564  1.00  0.00       nan A 
ATOM     11  C   UNL     1       4.525  -1.095  -4.390  1.00  0.00       nan A 
BRANCH  11  12
ATOM     12  C   UNL     1       5.091  -1.592  -5.673  1.00  0.00       inf A 
ATOM     13  C   UNL     1       5.779  -0.590  -6.585  1.00  0.00     0.074 A 
ATOM     14  C   UNL     1       5.489  -2.855  -5.904  1.00  0.00     0.049 A 
ATOM     15  N   UNL     1       6.588  -0.874  -7.569  1.00  0.00    -0.248 NA
ATOM     16  C   UNL     1       5.754   0.857  -6.297  1.00  0.00     0.031 C 
ATOM     17  C   UNL     1       5.994  -3.810  -4.944  1.00  0.00     0.029 A 
ATOM     18  N   UNL     1       5.272  -3.618  -7.024  1.00  0.00    -0.354 N 
ATOM     19  C   UNL     1       7.151   0.326  -7.960  1.00  0.00     0.074 A 
ATOM     20  C   UNL     1       6.642   1.360  -7.124  1.00  0.00     0.031 C 
ATOM     21  C   UNL     1       5.773  -5.058  -5.385  1.00  0.00     0.029 A 
ATOM     22  C   UNL     1       5.279  -4.969  -6.746  1.00  0.00     0.049 A 
ATOM     23  H   UNL     1       5.127  -3.243  -7.923  1.00  0.00     0.167 HD
ATOM     24  C   UNL     1       7.996   0.546  -8.979  1.00  0.00     0.037 A 
ATOM     25  C   UNL     1       5.335  -6.054  -7.537  1.00  0.00     0.037 A 
ATOM     26  C   UNL     1       8.344  -0.513  -9.871  1.00  0.00     0.049 A 
ATOM     27  C   UNL     1       6.171  -5.777  -8.742  1.00  0.00     0.074 A 
ATOM     28  C   UNL     1       9.016  -0.433 -11.067  1.00  0.00     0.029 A 
ATOM     29  N   UNL     1       7.975  -1.847  -9.682  1.00  0.00    -0.354 N 
ATOM     30  N   UNL     1       6.674  -4.620  -9.108  1.00  0.00    -0.248 NA
ATOM     31  C   UNL     1       6.599  -6.916  -9.550  1.00  0.00     0.031 C 
ATOM     32  C   UNL     1       8.968  -1.699 -11.653  1.00  0.00     0.029 A 
ATOM     33  C   UNL     1       8.354  -2.590 -10.780  1.00  0.00     0.049 A 
ATOM     34  H   UNL     1       7.515  -2.202  -8.887  1.00  0.00     0.167 HD
ATOM     35  C   UNL     1       7.491  -4.880 -10.179  1.00  0.00     0.074 A 
ATOM     36  C   UNL     1       7.456  -6.323 -10.373  1.00  0.00     0.031 C 
ATOM     37  C   UNL     1       8.192  -4.014 -10.948  1.00  0.00     0.037 A 
BRANCH  24  38
ATOM     38  C   UNL     1       8.333   1.982  -9.253  1.00  0.00     0.057 A 
ATOM     39  C   UNL     1       9.152   2.752  -8.411  1.00  0.00     0.134 A 
ATOM     40  C   UNL     1       7.673   2.650 -10.291  1.00  0.00     0.134 A 
ATOM     41  F   UNL     1       9.736   2.199  -7.336  1.00  0.00    -0.206 F 
ATOM     42  C   UNL     1       9.296   4.131  -8.594  1.00  0.00     0.040 A 
ATOM     43  C   UNL     1       7.829   4.021 -10.499  1.00  0.00     0.040 A 
ATOM     44  F   UNL     1       6.819   1.990 -11.087  1.00  0.00    -0.206 F 
ATOM     45  C   UNL     1       8.638   4.767  -9.646  1.00  0.00     0.006 A 
ENDBRANCH  24  38
BRANCH  25  46
ATOM     46  C   UNL     1       5.015  -7.407  -7.002  1.00  0.00     0.057 A 
ATOM     47  C   UNL     1       5.968  -8.393  -6.728  1.00  0.00     0.134 A 
ATOM     48  C   UNL     1       3.678  -7.732  -6.718  1.00  0.00     0.134 A 
ATOM     49  F   UNL     1       7.271  -8.145  -6.920  1.00  0.00    -0.206 F 
ATOM     50  C   UNL     1       5.608  -9.660  -6.249  1.00  0.00     0.040 A 
ATOM     51  C   UNL     1       3.303  -8.990  -6.234  1.00  0.00     0.040 A 
ATOM     52  F   UNL     1       2.706  -6.829  -6.917  1.00  0.00    -0.206 F 
ATOM     53  C   UNL     1       4.271  -9.965  -6.006  1.00  0.00     0.006 A 
ENDBRANCH  25  46
BRANCH  37  54
ATOM     54  C   UNL     1       8.824  -4.619 -12.151  1.00  0.00     0.057 A 
ATOM     55  C   UNL     1       8.030  -5.092 -13.202  1.00  0.00     0.134 A 
ATOM     56  C   UNL     1      10.213  -4.668 -12.286  1.00  0.00     0.134 A 
ATOM     57  F   UNL     1       6.691  -5.061 -13.113  1.00  0.00    -0.206 F 
ATOM     58  C   UNL     1       8.603  -5.636 -14.343  1.00  0.00     0.040 A 
ATOM     59  C   UNL     1      10.796  -5.172 -13.442  1.00  0.00     0.040 A 
ATOM     60  F   UNL     1      11.013  -4.206 -11.313  1.00  0.00    -0.206 F 
ATOM     61  C   UNL     1       9.990  -5.667 -14.468  1.00  0.00     0.006 A 
ENDBRANCH  37  54
ENDBRANCH  11  12
ENDBRANCH   4   6
ENDBRANCH   3   4
ENDBRANCH   2   3
ENDBRANCH   1   2
BRANCH   1  62
ATOM     62  O   UNL     1       2.577  -0.583   0.165  1.00  0.00       nan OA
BRANCH  62  63
ATOM     63  C   UNL     1       1.963  -1.635  -0.446  1.00  0.00       nan C 
ATOM     64  O   UNL     1       1.001  -2.195   0.064  1.00  0.00       nan OA
BRANCH  63  65
ATOM     65  C   UNL     1       2.469  -1.928  -1.932  1.00  0.00       nan C 
BRANCH  65  66
ATOM     66  C   UNL     1       3.197  -0.591  -2.794  1.00  0.00       nan C 
BRANCH  66  67
ATOM     67  C   UNL     1       5.181   0.298  -2.980  1.00  0.00       nan C 
BRANCH  67  68
ATOM     68  C   UNL     1       6.866  -0.356  -3.181  1.00  0.00       nan C 
ATOM     69  Cl  UNL     1       7.630  -1.721  -2.267  1.00  0.00       nan Cl
ENDBRANCH  67  68
ENDBRANCH  66  67
ENDBRANCH  65  66
BRANCH  65  70
ATOM     70  P   UNL     1       3.079  -3.620  -2.269  1.00  0.00       nan P 
ATOM     71  O   UNL     1       1.650  -3.978  -2.739  1.00  0.00       nan OA
BRANCH  70  72
ATOM     72  C   UNL     1       3.306  -4.202  -0.300  1.00  0.00       nan A 
ATOM     73  C   UNL     1       2.849  -5.442   0.192  1.00  0.00       nan A 
ATOM     74  C   UNL     1       4.117  -3.462   0.552  1.00  0.00       nan A 
ATOM     75  C   UNL     1       3.146  -5.855   1.503  1.00  0.00       nan A 
ATOM     76  C   UNL     1       4.273  -3.789   1.906  1.00  0.00       nan A 
ATOM     77  C   UNL     1       3.793  -4.996   2.383  1.00  0.00       nan A 
ENDBRANCH  70  72
BRANCH  70  78
ATOM     78  C   UNL     1       3.689  -5.312  -2.607  1.00  0.00       nan A 
ATOM     79  C   UNL     1       2.821  -6.369  -2.967  1.00  0.00       nan A 
ATOM     80  C   UNL     1       5.036  -5.651  -2.370  1.00  0.00       nan A 
ATOM     81  C   UNL     1       3.255  -7.696  -3.016  1.00  0.00       nan A 
ATOM     82  C   UNL     1       5.481  -6.977  -2.471  1.00  0.00       nan A 
ATOM     83  C   UNL     1       4.588  -7.999  -2.779  1.00  0.00       nan A 
ENDBRANCH  70  78
ENDBRANCH  65  70
ENDBRANCH  63  65
ENDBRANCH  62  63
ENDBRANCH   1  62
TORSDOF 17
