REMARK SMILES O=C(CCCOc1ccc([N+](=O)[O-])cc1F)OCCOC(=O)c1ccc(-c2c3nc(c(-c4c(F)cccc4F)c4ccc([nH]4)c(-c4c(F)cccc4F)c4nc(c(-c5c(F)cccc5F)c5ccc2[nH]5)C=C4)C=C3)cc1
REMARK SMILES IDX 17 1 2 2 1 3 3 4 4 5 5 6 6 7 7 8 8 9 15 10 9 11 14 12 16 13
REMARK SMILES IDX 10 14 11 15 12 16 13 17 18 18 19 19 20 20 21 21 22 22 23 23
REMARK SMILES IDX 24 24 76 25 25 26 75 27 26 28 27 29 28 30 69 31 29 32 74 33
REMARK SMILES IDX 68 34 70 35 30 36 73 37 67 38 66 39 31 41 57 42 40 43 56 44
REMARK SMILES IDX 41 45 44 46 55 47 71 48 42 49 43 50 54 52 72 53 45 54 32 55
REMARK SMILES IDX 33 56 38 57 34 58 35 59 37 60 39 61 36 62 58 63 59 64 64 65
REMARK SMILES IDX 60 66 61 67 63 68 65 69 62 70 46 71 47 72 52 73 48 74 49 75
REMARK SMILES IDX 51 76 53 77 50 78
REMARK H PARENT 70 40 44 51
REMARK Flexibility Score: inf
ROOT
ATOM      1  O   UNL     1       3.522   1.015  -0.575  1.00  0.00    -0.462 OA
ENDROOT
BRANCH   1   2
ATOM      2  C   UNL     1       2.777   0.208  -1.374  1.00  0.00     0.306 C 
ATOM      3  O   UNL     1       1.556   0.265  -1.469  1.00  0.00    -0.252 OA
BRANCH   2   4
ATOM      4  C   UNL     1       3.599  -0.928  -1.944  1.00  0.00     0.126 C 
BRANCH   4   5
ATOM      5  C   UNL     1       5.071  -0.654  -2.264  1.00  0.00     0.053 C 
BRANCH   5   6
ATOM      6  C   UNL     1       6.013  -0.358  -1.083  1.00  0.00     0.230 C 
BRANCH   6   7
ATOM      7  O   UNL     1       6.322  -1.555  -0.363  1.00  0.00    -0.490 OA
BRANCH   7   8
ATOM      8  C   UNL     1       6.133  -1.526   0.991  1.00  0.00     0.155 A 
ATOM      9  C   UNL     1       6.359  -0.421   1.816  1.00  0.00     0.056 A 
ATOM     10  C   UNL     1       5.677  -2.713   1.567  1.00  0.00     0.171 A 
ATOM     11  C   UNL     1       5.965  -0.458   3.162  1.00  0.00     0.089 A 
ATOM     12  C   UNL     1       5.283  -2.771   2.901  1.00  0.00     0.128 A 
ATOM     13  F   UNL     1       5.522  -3.809   0.809  1.00  0.00    -0.203 F 
ATOM     14  C   UNL     1       5.366  -1.616   3.675  1.00  0.00     0.272 A 
BRANCH  14  15
ATOM     15  N   UNL     1       4.732  -1.593   4.997  1.00  0.00     0.062 N 
ATOM     16  O   UNL     1       5.010  -0.652   5.751  1.00  0.00    -0.258 OA
ATOM     17  O   UNL     1       3.927  -2.498   5.258  1.00  0.00    -0.258 OA
ENDBRANCH  14  15
ENDBRANCH   7   8
ENDBRANCH   6   7
ENDBRANCH   5   6
ENDBRANCH   4   5
ENDBRANCH   2   4
ENDBRANCH   1   2
BRANCH   1  18
ATOM     18  C   UNL     1       2.818   1.560   0.547  1.00  0.00     0.274 C 
BRANCH  18  19
ATOM     19  C   UNL     1       2.710   0.523   1.677  1.00  0.00     0.275 C 
BRANCH  19  20
ATOM     20  O   UNL     1       2.614  -0.831   1.182  1.00  0.00    -0.458 OA
BRANCH  20  21
ATOM     21  C   UNL     1       1.453  -1.486   1.401  1.00  0.00     0.338 C 
ATOM     22  O   UNL     1       0.510  -1.093   2.076  1.00  0.00    -0.246 OA
BRANCH  21  23
ATOM     23  C   UNL     1       1.440  -2.761   0.650  1.00  0.00     0.060 A 
ATOM     24  C   UNL     1       0.432  -3.001  -0.285  1.00  0.00     0.016 A 
ATOM     25  C   UNL     1       2.373  -3.762   0.921  1.00  0.00     0.016 A 
ATOM     26  C   UNL     1       0.333  -4.257  -0.905  1.00  0.00     0.010 A 
ATOM     27  C   UNL     1       2.310  -4.995   0.265  1.00  0.00     0.010 A 
ATOM     28  C   UNL     1       1.253  -5.277  -0.611  1.00  0.00    -0.014 A 
BRANCH  28  29
ATOM     29  C   UNL     1       1.049  -6.674  -1.088  1.00  0.00     0.031 A 
ATOM     30  C   UNL     1       0.641  -7.741  -0.101  1.00  0.00     0.074 A 
ATOM     31  C   UNL     1       1.264  -7.016  -2.372  1.00  0.00     0.049 A 
ATOM     32  N   UNL     1       0.428  -9.020  -0.296  1.00  0.00    -0.248 NA
ATOM     33  C   UNL     1       0.475  -7.317   1.299  1.00  0.00     0.031 C 
ATOM     34  C   UNL     1       1.706  -6.106  -3.425  1.00  0.00     0.029 A 
ATOM     35  N   UNL     1       1.153  -8.233  -3.003  1.00  0.00    -0.354 N 
ATOM     36  C   UNL     1       0.112  -9.547   0.950  1.00  0.00     0.074 A 
ATOM     37  C   UNL     1       0.219  -8.466   1.905  1.00  0.00     0.031 C 
ATOM     38  C   UNL     1       1.825  -6.794  -4.574  1.00  0.00     0.029 A 
ATOM     39  C   UNL     1       1.481  -8.196  -4.336  1.00  0.00     0.049 A 
ATOM     40  H   UNL     1       0.865  -9.053  -2.542  1.00  0.00     0.167 HD
ATOM     41  C   UNL     1      -0.264 -10.808   1.272  1.00  0.00     0.037 A 
ATOM     42  C   UNL     1       1.498  -9.176  -5.263  1.00  0.00     0.037 A 
ATOM     43  C   UNL     1      -0.396 -11.883   0.326  1.00  0.00     0.049 A 
ATOM     44  C   UNL     1       1.081 -10.574  -4.889  1.00  0.00     0.074 A 
ATOM     45  C   UNL     1      -0.845 -13.173   0.548  1.00  0.00     0.029 A 
ATOM     46  N   UNL     1      -0.075 -11.795  -1.019  1.00  0.00    -0.354 N 
ATOM     47  N   UNL     1       0.697 -11.037  -3.725  1.00  0.00    -0.248 NA
ATOM     48  C   UNL     1       1.087 -11.584  -5.960  1.00  0.00     0.031 C 
ATOM     49  C   UNL     1      -0.750 -13.881  -0.653  1.00  0.00     0.029 A 
ATOM     50  C   UNL     1      -0.292 -13.016  -1.634  1.00  0.00     0.049 A 
ATOM     51  H   UNL     1       0.258 -10.986  -1.469  1.00  0.00     0.167 HD
ATOM     52  C   UNL     1       0.386 -12.377  -3.928  1.00  0.00     0.074 A 
ATOM     53  C   UNL     1       0.627 -12.656  -5.327  1.00  0.00     0.031 C 
ATOM     54  C   UNL     1      -0.065 -13.286  -3.031  1.00  0.00     0.037 A 
BRANCH  41  55
ATOM     55  C   UNL     1      -0.582 -11.095   2.712  1.00  0.00     0.057 A 
ATOM     56  C   UNL     1       0.233 -11.944   3.473  1.00  0.00     0.134 A 
ATOM     57  C   UNL     1      -1.728 -10.576   3.330  1.00  0.00     0.134 A 
ATOM     58  F   UNL     1       1.338 -12.486   2.941  1.00  0.00    -0.206 F 
ATOM     59  C   UNL     1      -0.083 -12.267   4.794  1.00  0.00     0.040 A 
ATOM     60  C   UNL     1      -2.038 -10.869   4.659  1.00  0.00     0.040 A 
ATOM     61  F   UNL     1      -2.547  -9.752   2.659  1.00  0.00    -0.206 F 
ATOM     62  C   UNL     1      -1.218 -11.724   5.392  1.00  0.00     0.006 A 
ENDBRANCH  41  55
BRANCH  42  63
ATOM     63  C   UNL     1       1.879  -8.847  -6.659  1.00  0.00     0.057 A 
ATOM     64  C   UNL     1       3.204  -8.564  -7.011  1.00  0.00     0.134 A 
ATOM     65  C   UNL     1       0.911  -8.767  -7.667  1.00  0.00     0.134 A 
ATOM     66  F   UNL     1       4.176  -8.621  -6.090  1.00  0.00    -0.206 F 
ATOM     67  C   UNL     1       3.550  -8.194  -8.312  1.00  0.00     0.040 A 
ATOM     68  C   UNL     1       1.246  -8.417  -8.976  1.00  0.00     0.040 A 
ATOM     69  F   UNL     1      -0.372  -9.048  -7.393  1.00  0.00    -0.206 F 
ATOM     70  C   UNL     1       2.568  -8.119  -9.299  1.00  0.00     0.006 A 
ENDBRANCH  42  63
BRANCH  54  71
ATOM     71  C   UNL     1      -0.369 -14.674  -3.516  1.00  0.00     0.057 A 
ATOM     72  C   UNL     1      -1.694 -15.125  -3.591  1.00  0.00     0.134 A 
ATOM     73  C   UNL     1       0.646 -15.598  -3.789  1.00  0.00     0.134 A 
ATOM     74  F   UNL     1      -2.713 -14.293  -3.329  1.00  0.00    -0.206 F 
ATOM     75  C   UNL     1      -1.997 -16.453  -3.896  1.00  0.00     0.040 A 
ATOM     76  C   UNL     1       0.354 -16.924  -4.116  1.00  0.00     0.040 A 
ATOM     77  F   UNL     1       1.934 -15.227  -3.741  1.00  0.00    -0.206 F 
ATOM     78  C   UNL     1      -0.970 -17.357  -4.157  1.00  0.00     0.006 A 
ENDBRANCH  54  71
ENDBRANCH  28  29
ENDBRANCH  21  23
ENDBRANCH  20  21
ENDBRANCH  19  20
ENDBRANCH  18  19
ENDBRANCH   1  18
TORSDOF 16
