REMARK SMILES C[C@@H](Sc1nc(-c2ccc3c(c2)OCO3)ccc1C#N)C(=O)OCCOC(=O)c1ccc(-c2c3nc(c(-c4c(F)cccc4F)c4ccc([nH]4)c(-c4c(F)cccc4F)c4nc(c(-c5c(F)cccc5F)c5ccc2[nH]5)C=C4)C=C3)cc1
REMARK SMILES IDX 24 1 23 2 21 3 22 4 2 5 1 6 3 7 4 8 5 9 18 10 6 11 17 12
REMARK SMILES IDX 16 13 19 14 20 15 7 16 8 17 12 18 9 19 11 20 10 21 13 22
REMARK SMILES IDX 15 23 14 24 25 25 26 26 27 27 28 28 29 29 30 30 82 31 31 32
REMARK SMILES IDX 81 33 32 34 33 35 34 36 75 37 35 38 80 39 74 40 76 41 36 42
REMARK SMILES IDX 79 43 73 44 72 45 37 47 63 48 46 49 62 50 47 51 50 52 61 53
REMARK SMILES IDX 77 54 48 55 49 56 60 58 78 59 51 60 38 61 39 62 44 63 40 64
REMARK SMILES IDX 41 65 43 66 45 67 42 68 64 69 65 70 70 71 66 72 67 73 69 74
REMARK SMILES IDX 71 75 68 76 52 77 53 78 58 79 54 80 55 81 57 82 59 83 56 84
REMARK H PARENT 76 46 50 57
REMARK Flexibility Score: inf
ROOT
ATOM      1  C   UNL     1      -2.909  -1.304  -0.049  1.00  0.00     0.274 C 
ENDROOT
BRANCH   1   2
ATOM      2  O   UNL     1      -1.483  -1.234   0.151  1.00  0.00    -0.461 OA
BRANCH   2   3
ATOM      3  C   UNL     1      -0.701  -1.463  -0.940  1.00  0.00     0.319 C 
ATOM      4  O   UNL     1      -1.135  -1.784  -2.044  1.00  0.00    -0.251 OA
BRANCH   3   5
ATOM      5  C   UNL     1       0.792  -1.310  -0.650  1.00  0.00     0.160 C 
ATOM      6  C   UNL     1       1.093  -0.298   0.449  1.00  0.00     0.032 C 
BRANCH   5   7
ATOM      7  S   UNL     1       1.421  -2.974  -0.234  1.00  0.00    -0.090 SA
BRANCH   7   8
ATOM      8  C   UNL     1       3.161  -2.857  -0.660  1.00  0.00     0.115 A 
ATOM      9  N   UNL     1       3.720  -1.616  -0.721  1.00  0.00    -0.240 NA
ATOM     10  C   UNL     1       3.911  -4.025  -0.812  1.00  0.00     0.084 A 
ATOM     11  C   UNL     1       5.064  -1.521  -0.901  1.00  0.00     0.072 A 
ATOM     12  C   UNL     1       5.292  -3.911  -0.957  1.00  0.00     0.024 A 
ATOM     13  C   UNL     1       5.875  -2.651  -0.988  1.00  0.00     0.030 A 
BRANCH  10  14
ATOM     14  C   UNL     1       3.320  -5.331  -0.832  1.00  0.00     0.102 C 
ATOM     15  N   UNL     1       2.880  -6.401  -0.876  1.00  0.00    -0.192 NA
ENDBRANCH  10  14
BRANCH  11  16
ATOM     16  C   UNL     1       5.653  -0.171  -0.986  1.00  0.00     0.004 A 
ATOM     17  C   UNL     1       6.570   0.146  -2.026  1.00  0.00     0.014 A 
ATOM     18  C   UNL     1       5.389   0.808  -0.010  1.00  0.00     0.061 A 
ATOM     19  C   UNL     1       7.237   1.375  -2.078  1.00  0.00     0.051 A 
ATOM     20  C   UNL     1       6.072   2.009  -0.076  1.00  0.00     0.166 A 
ATOM     21  C   UNL     1       6.975   2.280  -1.077  1.00  0.00     0.165 A 
ATOM     22  O   UNL     1       5.976   3.033   0.816  1.00  0.00    -0.454 OA
ATOM     23  O   UNL     1       7.557   3.501  -0.943  1.00  0.00    -0.454 OA
ATOM     24  C   UNL     1       6.943   3.960   0.278  1.00  0.00     0.468 C 
ENDBRANCH  11  16
ENDBRANCH   7   8
ENDBRANCH   5   7
ENDBRANCH   3   5
ENDBRANCH   2   3
ENDBRANCH   1   2
BRANCH   1  25
ATOM     25  C   UNL     1      -3.503   0.087  -0.282  1.00  0.00     0.275 C 
BRANCH  25  26
ATOM     26  O   UNL     1      -3.082   0.631  -1.546  1.00  0.00    -0.458 OA
BRANCH  26  27
ATOM     27  C   UNL     1      -1.982   1.416  -1.492  1.00  0.00     0.338 C 
ATOM     28  O   UNL     1      -1.351   1.748  -0.505  1.00  0.00    -0.246 OA
BRANCH  27  29
ATOM     29  C   UNL     1      -1.578   1.785  -2.851  1.00  0.00     0.060 A 
ATOM     30  C   UNL     1      -0.476   1.154  -3.436  1.00  0.00     0.016 A 
ATOM     31  C   UNL     1      -2.231   2.830  -3.500  1.00  0.00     0.016 A 
ATOM     32  C   UNL     1      -0.011   1.573  -4.678  1.00  0.00     0.010 A 
ATOM     33  C   UNL     1      -1.780   3.232  -4.755  1.00  0.00     0.010 A 
ATOM     34  C   UNL     1      -0.662   2.615  -5.347  1.00  0.00    -0.014 A 
BRANCH  34  35
ATOM     35  C   UNL     1      -0.176   3.094  -6.660  1.00  0.00     0.031 A 
ATOM     36  C   UNL     1       0.399   4.472  -6.777  1.00  0.00     0.074 A 
ATOM     37  C   UNL     1      -0.324   2.318  -7.748  1.00  0.00     0.049 A 
ATOM     38  N   UNL     1       0.684   5.162  -7.850  1.00  0.00    -0.248 NA
ATOM     39  C   UNL     1       0.670   5.174  -5.513  1.00  0.00     0.031 C 
ATOM     40  C   UNL     1      -0.842   0.950  -7.745  1.00  0.00     0.029 A 
ATOM     41  N   UNL     1      -0.088   2.587  -9.072  1.00  0.00    -0.354 N 
ATOM     42  C   UNL     1       1.132   6.395  -7.394  1.00  0.00     0.074 A 
ATOM     43  C   UNL     1       1.062   6.362  -5.948  1.00  0.00     0.031 C 
ATOM     44  C   UNL     1      -0.913   0.509  -9.010  1.00  0.00     0.029 A 
ATOM     45  C   UNL     1      -0.507   1.584  -9.910  1.00  0.00     0.049 A 
ATOM     46  H   UNL     1       0.339   3.416  -9.389  1.00  0.00     0.167 HD
ATOM     47  C   UNL     1       1.557   7.455  -8.122  1.00  0.00     0.037 A 
ATOM     48  C   UNL     1      -0.609   1.555 -11.252  1.00  0.00     0.037 A 
ATOM     49  C   UNL     1       1.618   7.464  -9.561  1.00  0.00     0.049 A 
ATOM     50  C   UNL     1      -0.191   2.762 -12.044  1.00  0.00     0.074 A 
ATOM     51  C   UNL     1       2.072   8.468 -10.398  1.00  0.00     0.029 A 
ATOM     52  N   UNL     1       1.196   6.423 -10.377  1.00  0.00    -0.354 N 
ATOM     53  N   UNL     1       0.258   3.917 -11.612  1.00  0.00    -0.248 NA
ATOM     54  C   UNL     1      -0.292   2.667 -13.506  1.00  0.00     0.031 C 
ATOM     55  C   UNL     1       1.855   8.064 -11.719  1.00  0.00     0.029 A 
ATOM     56  C   UNL     1       1.341   6.776 -11.708  1.00  0.00     0.049 A 
ATOM     57  H   UNL     1       0.844   5.561 -10.056  1.00  0.00     0.167 HD
ATOM     58  C   UNL     1       0.522   4.674 -12.746  1.00  0.00     0.074 A 
ATOM     59  C   UNL     1       0.184   3.845 -13.886  1.00  0.00     0.031 C 
ATOM     60  C   UNL     1       1.007   5.936 -12.833  1.00  0.00     0.037 A 
BRANCH  47  61
ATOM     61  C   UNL     1       1.931   8.703  -7.374  1.00  0.00     0.057 A 
ATOM     62  C   UNL     1       3.048   8.769  -6.531  1.00  0.00     0.134 A 
ATOM     63  C   UNL     1       1.155   9.864  -7.504  1.00  0.00     0.134 A 
ATOM     64  F   UNL     1       3.830   7.694  -6.352  1.00  0.00    -0.206 F 
ATOM     65  C   UNL     1       3.353   9.927  -5.811  1.00  0.00     0.040 A 
ATOM     66  C   UNL     1       1.471  11.037  -6.817  1.00  0.00     0.040 A 
ATOM     67  F   UNL     1       0.076   9.878  -8.301  1.00  0.00    -0.206 F 
ATOM     68  C   UNL     1       2.566  11.066  -5.957  1.00  0.00     0.006 A 
ENDBRANCH  47  61
BRANCH  48  69
ATOM     69  C   UNL     1      -1.163   0.348 -11.915  1.00  0.00     0.057 A 
ATOM     70  C   UNL     1      -0.352  -0.497 -12.679  1.00  0.00     0.134 A 
ATOM     71  C   UNL     1      -2.510  -0.008 -11.769  1.00  0.00     0.134 A 
ATOM     72  F   UNL     1       0.942  -0.201 -12.870  1.00  0.00    -0.206 F 
ATOM     73  C   UNL     1      -0.861  -1.649 -13.281  1.00  0.00     0.040 A 
ATOM     74  C   UNL     1      -3.026  -1.172 -12.340  1.00  0.00     0.040 A 
ATOM     75  F   UNL     1      -3.338   0.756 -11.041  1.00  0.00    -0.206 F 
ATOM     76  C   UNL     1      -2.200  -1.994 -13.103  1.00  0.00     0.006 A 
ENDBRANCH  48  69
BRANCH  60  77
ATOM     77  C   UNL     1       1.255   6.493 -14.206  1.00  0.00     0.057 A 
ATOM     78  C   UNL     1       0.210   6.875 -15.057  1.00  0.00     0.134 A 
ATOM     79  C   UNL     1       2.565   6.724 -14.647  1.00  0.00     0.134 A 
ATOM     80  F   UNL     1      -1.067   6.669 -14.701  1.00  0.00    -0.206 F 
ATOM     81  C   UNL     1       0.460   7.458 -16.301  1.00  0.00     0.040 A 
ATOM     82  C   UNL     1       2.827   7.334 -15.874  1.00  0.00     0.040 A 
ATOM     83  F   UNL     1       3.612   6.390 -13.878  1.00  0.00    -0.206 F 
ATOM     84  C   UNL     1       1.772   7.700 -16.706  1.00  0.00     0.006 A 
ENDBRANCH  60  77
ENDBRANCH  34  35
ENDBRANCH  27  29
ENDBRANCH  26  27
ENDBRANCH  25  26
ENDBRANCH   1  25
TORSDOF 15
