REMARK SMILES Cc1cc2c(cc1C)O[C@@H](C(=O)OCCOC(=O)c1ccc(-c3c4nc(c(-c5c(F)cccc5F)c5ccc([nH]5)c(-c5c(F)cccc5F)c5nc(c(-c6c(F)cccc6F)c6ccc3[nH]6)C=C5)C=C4)cc1)C2
REMARK SMILES IDX 15 1 14 2 13 3 11 4 12 5 10 6 1 7 2 8 3 9 7 10 4 11 6 12
REMARK SMILES IDX 8 13 5 14 73 15 9 16 16 17 17 18 18 19 19 20 20 21 72 22
REMARK SMILES IDX 21 23 71 24 22 25 23 26 24 27 65 28 25 29 70 30 64 31 66 32
REMARK SMILES IDX 26 33 69 34 63 35 62 36 27 38 53 39 36 40 52 41 37 42 40 43
REMARK SMILES IDX 51 44 67 45 38 46 39 47 50 49 68 50 41 51 28 52 29 53 34 54
REMARK SMILES IDX 30 55 31 56 33 57 35 58 32 59 54 60 55 61 60 62 56 63 57 64
REMARK SMILES IDX 59 65 61 66 58 67 42 68 43 69 48 70 44 71 45 72 47 73 49 74
REMARK SMILES IDX 46 75
REMARK H PARENT 66 37 40 48
REMARK Flexibility Score: inf
ROOT
ATOM      1  C   UNL     1      -0.828   4.026  -9.434  1.00  0.00     0.275 C 
ENDROOT
BRANCH   1   2
ATOM      2  C   UNL     1      -1.158   2.544  -9.259  1.00  0.00     0.274 C 
BRANCH   2   3
ATOM      3  O   UNL     1      -1.309   2.228  -7.864  1.00  0.00    -0.459 OA
BRANCH   3   4
ATOM      4  C   UNL     1      -0.359   1.437  -7.282  1.00  0.00     0.347 C 
ATOM      5  O   UNL     1       0.583   0.922  -7.870  1.00  0.00    -0.248 OA
BRANCH   4   6
ATOM      6  C   UNL     1      -0.647   1.311  -5.794  1.00  0.00     0.287 C 
ATOM      7  C   UNL     1       0.839  -0.172  -0.164  1.00  0.00     0.044 C 
ATOM      8  C   UNL     1       0.657   0.569  -1.462  1.00  0.00    -0.048 A 
ATOM      9  C   UNL     1       0.354  -0.171  -2.625  1.00  0.00     0.011 A 
ATOM     10  C   UNL     1       0.809   1.980  -1.539  1.00  0.00    -0.045 A 
ATOM     11  C   UNL     1       0.150   0.504  -3.814  1.00  0.00    -0.001 A 
ATOM     12  C   UNL     1       0.605   2.634  -2.765  1.00  0.00     0.050 A 
ATOM     13  C   UNL     1       1.146   2.841  -0.351  1.00  0.00     0.045 C 
ATOM     14  C   UNL     1       0.257   1.881  -3.864  1.00  0.00     0.124 A 
ATOM     15  C   UNL     1      -0.151  -0.002  -5.176  1.00  0.00     0.097 C 
ATOM     16  O   UNL     1      -0.016   2.407  -5.097  1.00  0.00    -0.478 OA
ENDBRANCH   4   6
ENDBRANCH   3   4
ENDBRANCH   2   3
ENDBRANCH   1   2
BRANCH   1  17
ATOM     17  O   UNL     1       0.545   4.283  -9.092  1.00  0.00    -0.458 OA
BRANCH  17  18
ATOM     18  C   UNL     1       0.771   4.685  -7.816  1.00  0.00     0.338 C 
ATOM     19  O   UNL     1      -0.056   4.905  -6.956  1.00  0.00    -0.246 OA
BRANCH  18  20
ATOM     20  C   UNL     1       2.231   4.719  -7.596  1.00  0.00     0.060 A 
ATOM     21  C   UNL     1       3.075   5.394  -8.482  1.00  0.00     0.016 A 
ATOM     22  C   UNL     1       2.757   4.059  -6.483  1.00  0.00     0.016 A 
ATOM     23  C   UNL     1       4.455   5.373  -8.271  1.00  0.00     0.010 A 
ATOM     24  C   UNL     1       4.136   4.049  -6.266  1.00  0.00     0.010 A 
ATOM     25  C   UNL     1       4.997   4.691  -7.168  1.00  0.00    -0.014 A 
BRANCH  25  26
ATOM     26  C   UNL     1       6.465   4.650  -6.954  1.00  0.00     0.031 A 
ATOM     27  C   UNL     1       7.232   3.375  -7.171  1.00  0.00     0.074 A 
ATOM     28  C   UNL     1       7.107   5.761  -6.547  1.00  0.00     0.049 A 
ATOM     29  N   UNL     1       8.517   3.155  -7.047  1.00  0.00    -0.248 NA
ATOM     30  C   UNL     1       6.456   2.191  -7.571  1.00  0.00     0.031 C 
ATOM     31  C   UNL     1       6.468   7.048  -6.273  1.00  0.00     0.029 A 
ATOM     32  N   UNL     1       8.436   5.986  -6.289  1.00  0.00    -0.354 N 
ATOM     33  C   UNL     1       8.704   1.815  -7.357  1.00  0.00     0.074 A 
ATOM     34  C   UNL     1       7.398   1.258  -7.633  1.00  0.00     0.031 C 
ATOM     35  C   UNL     1       7.407   7.932  -5.901  1.00  0.00     0.029 A 
ATOM     36  C   UNL     1       8.708   7.268  -5.880  1.00  0.00     0.049 A 
ATOM     37  H   UNL     1       9.129   5.293  -6.388  1.00  0.00     0.167 HD
ATOM     38  C   UNL     1       9.864   1.119  -7.423  1.00  0.00     0.037 A 
ATOM     39  C   UNL     1       9.872   7.843  -5.521  1.00  0.00     0.037 A 
ATOM     40  C   UNL     1      11.164   1.678  -7.154  1.00  0.00     0.049 A 
ATOM     41  C   UNL     1      11.141   7.037  -5.573  1.00  0.00     0.074 A 
ATOM     42  C   UNL     1      12.400   1.061  -7.250  1.00  0.00     0.029 A 
ATOM     43  N   UNL     1      11.397   2.976  -6.728  1.00  0.00    -0.354 N 
ATOM     44  N   UNL     1      11.314   5.791  -5.942  1.00  0.00    -0.248 NA
ATOM     45  C   UNL     1      12.379   7.718  -5.166  1.00  0.00     0.031 C 
ATOM     46  C   UNL     1      13.376   1.968  -6.828  1.00  0.00     0.029 A 
ATOM     47  C   UNL     1      12.754   3.169  -6.526  1.00  0.00     0.049 A 
ATOM     48  H   UNL     1      10.702   3.659  -6.590  1.00  0.00     0.167 HD
ATOM     49  C   UNL     1      12.676   5.545  -5.832  1.00  0.00     0.074 A 
ATOM     50  C   UNL     1      13.289   6.777  -5.381  1.00  0.00     0.031 C 
ATOM     51  C   UNL     1      13.356   4.399  -6.079  1.00  0.00     0.037 A 
BRANCH  38  52
ATOM     52  C   UNL     1       9.799  -0.330  -7.814  1.00  0.00     0.057 A 
ATOM     53  C   UNL     1       9.522  -0.723  -9.129  1.00  0.00     0.134 A 
ATOM     54  C   UNL     1      10.121  -1.335  -6.893  1.00  0.00     0.134 A 
ATOM     55  F   UNL     1       9.202   0.189 -10.059  1.00  0.00    -0.206 F 
ATOM     56  C   UNL     1       9.563  -2.065  -9.513  1.00  0.00     0.040 A 
ATOM     57  C   UNL     1      10.190  -2.677  -7.271  1.00  0.00     0.040 A 
ATOM     58  F   UNL     1      10.407  -1.026  -5.619  1.00  0.00    -0.206 F 
ATOM     59  C   UNL     1       9.911  -3.045  -8.585  1.00  0.00     0.006 A 
ENDBRANCH  38  52
BRANCH  39  60
ATOM     60  C   UNL     1       9.891   9.266  -5.097  1.00  0.00     0.057 A 
ATOM     61  C   UNL     1      10.493  10.250  -5.889  1.00  0.00     0.134 A 
ATOM     62  C   UNL     1       9.300   9.678  -3.896  1.00  0.00     0.134 A 
ATOM     63  F   UNL     1      11.093   9.916  -7.041  1.00  0.00    -0.206 F 
ATOM     64  C   UNL     1      10.518  11.590  -5.498  1.00  0.00     0.040 A 
ATOM     65  C   UNL     1       9.294  11.018  -3.505  1.00  0.00     0.040 A 
ATOM     66  F   UNL     1       8.703   8.785  -3.093  1.00  0.00    -0.206 F 
ATOM     67  C   UNL     1       9.910  11.978  -4.306  1.00  0.00     0.006 A 
ENDBRANCH  39  60
BRANCH  51  68
ATOM     68  C   UNL     1      14.845   4.416  -5.885  1.00  0.00     0.057 A 
ATOM     69  C   UNL     1      15.422   4.461  -4.610  1.00  0.00     0.134 A 
ATOM     70  C   UNL     1      15.711   4.309  -6.982  1.00  0.00     0.134 A 
ATOM     71  F   UNL     1      14.650   4.573  -3.518  1.00  0.00    -0.206 F 
ATOM     72  C   UNL     1      16.805   4.413  -4.432  1.00  0.00     0.040 A 
ATOM     73  C   UNL     1      17.095   4.231  -6.816  1.00  0.00     0.040 A 
ATOM     74  F   UNL     1      15.226   4.250  -8.231  1.00  0.00    -0.206 F 
ATOM     75  C   UNL     1      17.645   4.287  -5.537  1.00  0.00     0.006 A 
ENDBRANCH  51  68
ENDBRANCH  25  26
ENDBRANCH  18  20
ENDBRANCH  17  18
ENDBRANCH   1  17
TORSDOF 11
