REMARK SMILES O=C(OCCOC(=O)c1cccc(Nc2ccnc3ccc(Cl)cc23)c1)c1ccc(-c2c3nc(c(-c4c(F)cccc4F)c4ccc([nH]4)c(-c4c(F)cccc4F)c4nc(c(-c5c(F)cccc5F)c5ccc2[nH]5)C=C4)C=C3)cc1
REMARK SMILES IDX 4 1 3 2 2 3 1 4 27 5 28 6 80 7 29 8 79 9 30 10 31 11 32 12
REMARK SMILES IDX 73 13 33 14 78 15 72 16 74 17 34 18 77 19 71 20 70 21 35 23
REMARK SMILES IDX 61 24 44 25 60 26 45 27 48 28 59 29 75 30 46 31 47 32 58 34
REMARK SMILES IDX 76 35 49 36 36 37 37 38 42 39 38 40 39 41 41 42 43 43 40 44
REMARK SMILES IDX 62 45 63 46 68 47 64 48 65 49 67 50 69 51 66 52 50 53 51 54
REMARK SMILES IDX 56 55 52 56 53 57 55 58 57 59 54 60 5 61 6 62 7 63 8 64 9 65
REMARK SMILES IDX 10 66 26 67 11 68 13 69 12 70 14 71 15 73 16 74 25 75 17 76
REMARK SMILES IDX 19 77 24 78 18 79 20 80 22 81 21 82 23 83
REMARK H PARENT 74 22 48 33 14 72
REMARK Flexibility Score: inf
ROOT
ATOM      1  C   UNL     1       4.057   0.200  -1.526  1.00  0.00     0.275 C 
ENDROOT
BRANCH   1   2
ATOM      2  O   UNL     1       2.960  -0.483  -0.897  1.00  0.00    -0.458 OA
BRANCH   2   3
ATOM      3  C   UNL     1       2.866  -0.934   0.378  1.00  0.00     0.338 C 
ATOM      4  O   UNL     1       2.005  -1.774   0.639  1.00  0.00    -0.246 OA
BRANCH   3   5
ATOM      5  C   UNL     1       3.614  -0.329   1.529  1.00  0.00     0.060 A 
ATOM      6  C   UNL     1       4.848   0.316   1.466  1.00  0.00     0.016 A 
ATOM      7  C   UNL     1       2.979  -0.403   2.785  1.00  0.00     0.016 A 
ATOM      8  C   UNL     1       5.405   0.918   2.592  1.00  0.00     0.010 A 
ATOM      9  C   UNL     1       3.507   0.238   3.909  1.00  0.00     0.010 A 
ATOM     10  C   UNL     1       4.738   0.890   3.816  1.00  0.00    -0.014 A 
BRANCH  10  11
ATOM     11  C   UNL     1       5.442   1.404   5.007  1.00  0.00     0.031 A 
ATOM     12  C   UNL     1       6.004   0.410   5.979  1.00  0.00     0.074 A 
ATOM     13  C   UNL     1       5.674   2.722   5.141  1.00  0.00     0.049 A 
ATOM     14  N   UNL     1       6.742   0.613   7.037  1.00  0.00    -0.248 NA
ATOM     15  C   UNL     1       5.710  -1.008   5.710  1.00  0.00     0.031 C 
ATOM     16  C   UNL     1       5.233   3.759   4.203  1.00  0.00     0.029 A 
ATOM     17  N   UNL     1       6.349   3.417   6.109  1.00  0.00    -0.354 N 
ATOM     18  C   UNL     1       7.008  -0.650   7.550  1.00  0.00     0.074 A 
ATOM     19  C   UNL     1       6.303  -1.606   6.729  1.00  0.00     0.031 C 
ATOM     20  C   UNL     1       5.649   4.958   4.645  1.00  0.00     0.029 A 
ATOM     21  C   UNL     1       6.379   4.774   5.894  1.00  0.00     0.049 A 
ATOM     22  H   UNL     1       6.774   2.984   6.885  1.00  0.00     0.167 HD
ATOM     23  C   UNL     1       7.798  -0.985   8.595  1.00  0.00     0.037 A 
ATOM     24  C   UNL     1       6.940   5.750   6.632  1.00  0.00     0.037 A 
ATOM     25  C   UNL     1       8.488  -0.021   9.406  1.00  0.00     0.049 A 
ATOM     26  C   UNL     1       7.721   5.359   7.859  1.00  0.00     0.074 A 
ATOM     27  C   UNL     1       9.299  -0.234  10.503  1.00  0.00     0.029 A 
ATOM     28  N   UNL     1       8.432   1.352   9.204  1.00  0.00    -0.354 N 
ATOM     29  N   UNL     1       7.990   4.160   8.321  1.00  0.00    -0.248 NA
ATOM     30  C   UNL     1       8.293   6.452   8.655  1.00  0.00     0.031 C 
ATOM     31  C   UNL     1       9.690   1.015  10.999  1.00  0.00     0.029 A 
ATOM     32  C   UNL     1       9.171   2.003  10.175  1.00  0.00     0.049 A 
ATOM     33  H   UNL     1       7.938   1.797   8.478  1.00  0.00     0.167 HD
ATOM     34  C   UNL     1       8.794   4.351   9.437  1.00  0.00     0.074 A 
ATOM     35  C   UNL     1       8.976   5.783   9.574  1.00  0.00     0.031 C 
ATOM     36  C   UNL     1       9.341   3.432  10.271  1.00  0.00     0.037 A 
BRANCH  23  37
ATOM     37  C   UNL     1       7.897  -2.445   8.924  1.00  0.00     0.057 A 
ATOM     38  C   UNL     1       8.554  -3.356   8.083  1.00  0.00     0.134 A 
ATOM     39  C   UNL     1       7.269  -2.959  10.065  1.00  0.00     0.134 A 
ATOM     40  F   UNL     1       9.151  -2.933   6.957  1.00  0.00    -0.206 F 
ATOM     41  C   UNL     1       8.543  -4.728   8.341  1.00  0.00     0.040 A 
ATOM     42  C   UNL     1       7.277  -4.326  10.349  1.00  0.00     0.040 A 
ATOM     43  F   UNL     1       6.619  -2.145  10.909  1.00  0.00    -0.206 F 
ATOM     44  C   UNL     1       7.903  -5.216   9.478  1.00  0.00     0.006 A 
ENDBRANCH  23  37
BRANCH  24  45
ATOM     45  C   UNL     1       6.808   7.176   6.229  1.00  0.00     0.057 A 
ATOM     46  C   UNL     1       7.919   7.924   5.821  1.00  0.00     0.134 A 
ATOM     47  C   UNL     1       5.573   7.835   6.272  1.00  0.00     0.134 A 
ATOM     48  F   UNL     1       9.133   7.357   5.770  1.00  0.00    -0.206 F 
ATOM     49  C   UNL     1       7.813   9.279   5.498  1.00  0.00     0.040 A 
ATOM     50  C   UNL     1       5.448   9.183   5.929  1.00  0.00     0.040 A 
ATOM     51  F   UNL     1       4.466   7.176   6.644  1.00  0.00    -0.206 F 
ATOM     52  C   UNL     1       6.573   9.912   5.550  1.00  0.00     0.006 A 
ENDBRANCH  24  45
BRANCH  36  53
ATOM     53  C   UNL     1      10.222   3.946  11.371  1.00  0.00     0.057 A 
ATOM     54  C   UNL     1       9.706   4.632  12.477  1.00  0.00     0.134 A 
ATOM     55  C   UNL     1      11.602   3.707  11.341  1.00  0.00     0.134 A 
ATOM     56  F   UNL     1       8.395   4.903  12.559  1.00  0.00    -0.206 F 
ATOM     57  C   UNL     1      10.536   5.083  13.504  1.00  0.00     0.040 A 
ATOM     58  C   UNL     1      12.437   4.125  12.377  1.00  0.00     0.040 A 
ATOM     59  F   UNL     1      12.158   3.046  10.314  1.00  0.00    -0.206 F 
ATOM     60  C   UNL     1      11.905   4.822  13.459  1.00  0.00     0.006 A 
ENDBRANCH  36  53
ENDBRANCH  10  11
ENDBRANCH   3   5
ENDBRANCH   2   3
ENDBRANCH   1   2
BRANCH   1  61
ATOM     61  C   UNL     1       3.916   1.731  -1.509  1.00  0.00     0.275 C 
BRANCH  61  62
ATOM     62  O   UNL     1       3.322   2.201  -0.280  1.00  0.00    -0.458 OA
BRANCH  62  63
ATOM     63  C   UNL     1       2.222   2.996  -0.371  1.00  0.00     0.338 C 
ATOM     64  O   UNL     1       1.770   3.519  -1.380  1.00  0.00    -0.246 OA
BRANCH  63  65
ATOM     65  C   UNL     1       1.542   2.993   0.945  1.00  0.00     0.062 A 
ATOM     66  C   UNL     1       0.933   1.786   1.297  1.00  0.00     0.016 A 
ATOM     67  C   UNL     1       1.491   4.102   1.821  1.00  0.00     0.041 A 
ATOM     68  C   UNL     1       0.417   1.620   2.572  1.00  0.00     0.003 A 
ATOM     69  C   UNL     1       0.910   3.959   3.099  1.00  0.00     0.039 A 
ATOM     70  C   UNL     1       0.449   2.681   3.471  1.00  0.00     0.026 A 
BRANCH  69  71
ATOM     71  N   UNL     1       0.848   5.011   4.059  1.00  0.00    -0.355 N 
ATOM     72  H   UNL     1       0.689   5.924   3.728  1.00  0.00     0.167 HD
BRANCH  71  73
ATOM     73  C   UNL     1       1.001   4.832   5.464  1.00  0.00     0.050 A 
ATOM     74  C   UNL     1       2.088   4.049   5.856  1.00  0.00     0.047 A 
ATOM     75  C   UNL     1       0.078   5.242   6.474  1.00  0.00     0.025 A 
ATOM     76  C   UNL     1       2.123   3.510   7.114  1.00  0.00     0.114 A 
ATOM     77  C   UNL     1       0.386   4.827   7.799  1.00  0.00     0.072 A 
ATOM     78  C   UNL     1      -1.122   5.982   6.303  1.00  0.00     0.033 A 
ATOM     79  N   UNL     1       1.315   3.918   8.096  1.00  0.00    -0.256 NA
ATOM     80  C   UNL     1      -0.308   5.337   8.880  1.00  0.00     0.030 A 
ATOM     81  C   UNL     1      -1.871   6.396   7.416  1.00  0.00     0.041 A 
ATOM     82  C   UNL     1      -1.428   6.137   8.707  1.00  0.00     0.023 A 
ATOM     83  Cl  UNL     1      -3.367   7.220   7.207  1.00  0.00    -0.084 Cl
ENDBRANCH  71  73
ENDBRANCH  69  71
ENDBRANCH  63  65
ENDBRANCH  62  63
ENDBRANCH  61  62
ENDBRANCH   1  61
TORSDOF 13
