REMARK SMILES CC[C@@H](C)N1C(=O)/C(=C/Nc2cccc(C(=O)OCCOC(=O)c3ccc(-c4c5nc(c(-c6c(F)cccc6F)c6ccc([nH]6)c(-c6c(F)cccc6F)c6nc(c(-c7c(F)cccc7F)c7ccc4[nH]7)C=C6)C=C5)cc3)c2)C(=O)NC1=S
REMARK SMILES IDX 19 1 18 2 16 3 17 4 15 5 11 6 12 7 78 8 13 9 14 10 10 11
REMARK SMILES IDX 9 13 5 14 6 15 82 16 7 17 8 18 81 19 83 20 79 21 80 23 3 24
REMARK SMILES IDX 4 25 2 26 1 27 20 28 21 29 22 30 23 31 24 32 25 33 77 34
REMARK SMILES IDX 26 35 76 36 27 37 28 38 29 39 70 40 30 41 75 42 69 43 71 44
REMARK SMILES IDX 31 45 74 46 68 47 67 48 32 50 58 51 41 52 57 53 42 54 45 55
REMARK SMILES IDX 56 56 72 57 43 58 44 59 55 61 73 62 46 63 33 64 34 65 39 66
REMARK SMILES IDX 35 67 36 68 38 69 40 70 37 71 59 72 60 73 65 74 61 75 62 76
REMARK SMILES IDX 64 77 66 78 63 79 47 80 48 81 53 82 49 83 50 84 52 85 54 86
REMARK SMILES IDX 51 87
REMARK H PARENT 10 12 81 22 71 49 45 60
REMARK Flexibility Score: inf
ROOT
ATOM      1  C   UNL     1       6.747   4.107  -3.252  1.00  0.00     0.275 C 
ENDROOT
BRANCH   1   2
ATOM      2  O   UNL     1       5.843   3.715  -4.304  1.00  0.00    -0.458 OA
BRANCH   2   3
ATOM      3  C   UNL     1       5.389   4.711  -5.114  1.00  0.00     0.338 C 
ATOM      4  O   UNL     1       5.671   5.891  -5.036  1.00  0.00    -0.246 OA
BRANCH   3   5
ATOM      5  C   UNL     1       4.571   4.144  -6.217  1.00  0.00     0.062 A 
ATOM      6  C   UNL     1       3.105   2.430  -7.131  1.00  0.00     0.039 A 
ATOM      7  C   UNL     1       3.175   3.059  -8.379  1.00  0.00     0.026 A 
ATOM      8  C   UNL     1       3.830   2.972  -6.058  1.00  0.00     0.041 A 
ATOM      9  C   UNL     1       3.886   4.249  -8.540  1.00  0.00     0.003 A 
ATOM     10  C   UNL     1       4.546   4.810  -7.449  1.00  0.00     0.016 A 
BRANCH   6  11
ATOM     11  N   UNL     1       2.221   1.357  -6.960  1.00  0.00    -0.361 N 
ATOM     12  H   UNL     1       2.094   0.755  -7.730  1.00  0.00     0.166 HD
BRANCH  11  13
ATOM     13  C   UNL     1       1.516   1.066  -5.819  1.00  0.00     0.102 C 
ATOM     14  N   UNL     1       0.292  -1.380  -3.597  1.00  0.00    -0.282 N 
ATOM     15  C   UNL     1       0.192  -0.118  -4.190  1.00  0.00     0.267 C 
ATOM     16  C   UNL     1       0.159  -2.501  -4.428  1.00  0.00     0.183 C 
ATOM     17  O   UNL     1      -0.366   0.864  -3.709  1.00  0.00    -0.268 OA
ATOM     18  C   UNL     1       0.792  -0.024  -5.530  1.00  0.00     0.121 C 
ATOM     19  N   UNL     1       0.254  -2.287  -5.788  1.00  0.00    -0.298 N 
ATOM     20  S   UNL     1      -0.122  -4.105  -4.044  1.00  0.00    -0.040 S 
ATOM     21  C   UNL     1       0.666  -1.157  -6.434  1.00  0.00     0.264 C 
ATOM     22  H   UNL     1      -0.008  -3.042  -6.364  1.00  0.00     0.172 HD
ATOM     23  O   UNL     1       0.940  -1.127  -7.627  1.00  0.00    -0.269 OA
BRANCH  14  24
ATOM     24  C   UNL     1       0.718  -1.395  -2.129  1.00  0.00     0.090 C 
ATOM     25  C   UNL     1       0.299  -2.611  -1.295  1.00  0.00     0.031 C 
BRANCH  24  26
ATOM     26  C   UNL     1       0.399  -0.090  -1.332  1.00  0.00     0.022 C 
ATOM     27  C   UNL     1       0.908  -0.032   0.105  1.00  0.00     0.006 C 
ENDBRANCH  24  26
ENDBRANCH  14  24
ENDBRANCH  11  13
ENDBRANCH   6  11
ENDBRANCH   3   5
ENDBRANCH   2   3
ENDBRANCH   1   2
BRANCH   1  28
ATOM     28  C   UNL     1       8.190   3.739  -3.602  1.00  0.00     0.275 C 
BRANCH  28  29
ATOM     29  O   UNL     1       8.640   4.540  -4.709  1.00  0.00    -0.458 OA
BRANCH  29  30
ATOM     30  C   UNL     1       8.993   3.860  -5.822  1.00  0.00     0.338 C 
ATOM     31  O   UNL     1       9.053   2.653  -5.978  1.00  0.00    -0.246 OA
BRANCH  30  32
ATOM     32  C   UNL     1       9.231   4.814  -6.914  1.00  0.00     0.060 A 
ATOM     33  C   UNL     1       8.123   5.340  -7.570  1.00  0.00     0.016 A 
ATOM     34  C   UNL     1      10.514   5.066  -7.392  1.00  0.00     0.016 A 
ATOM     35  C   UNL     1       8.274   6.065  -8.748  1.00  0.00     0.010 A 
ATOM     36  C   UNL     1      10.673   5.848  -8.544  1.00  0.00     0.010 A 
ATOM     37  C   UNL     1       9.553   6.318  -9.259  1.00  0.00    -0.014 A 
BRANCH  37  38
ATOM     38  C   UNL     1       9.704   6.965 -10.592  1.00  0.00     0.031 A 
ATOM     39  C   UNL     1      10.332   6.195 -11.726  1.00  0.00     0.074 A 
ATOM     40  C   UNL     1       9.236   8.207 -10.820  1.00  0.00     0.049 A 
ATOM     41  N   UNL     1      10.683   6.609 -12.918  1.00  0.00    -0.248 NA
ATOM     42  C   UNL     1      10.610   4.771 -11.481  1.00  0.00     0.031 C 
ATOM     43  C   UNL     1       8.544   9.047  -9.842  1.00  0.00     0.029 A 
ATOM     44  N   UNL     1       9.261   8.976 -11.959  1.00  0.00    -0.354 N 
ATOM     45  C   UNL     1      11.275   5.515 -13.540  1.00  0.00     0.074 A 
ATOM     46  C   UNL     1      11.239   4.422 -12.593  1.00  0.00     0.031 C 
ATOM     47  C   UNL     1       8.180  10.198 -10.431  1.00  0.00     0.029 A 
ATOM     48  C   UNL     1       8.675  10.209 -11.804  1.00  0.00     0.049 A 
ATOM     49  H   UNL     1       9.661   8.672 -12.805  1.00  0.00     0.167 HD
ATOM     50  C   UNL     1      11.798   5.428 -14.786  1.00  0.00     0.037 A 
ATOM     51  C   UNL     1       8.573  11.244 -12.660  1.00  0.00     0.037 A 
ATOM     52  C   UNL     1      11.780   6.495 -15.753  1.00  0.00     0.049 A 
ATOM     53  C   UNL     1       9.178  11.132 -14.032  1.00  0.00     0.074 A 
ATOM     54  C   UNL     1      12.292   6.505 -17.039  1.00  0.00     0.029 A 
ATOM     55  N   UNL     1      11.196   7.735 -15.546  1.00  0.00    -0.354 N 
ATOM     56  N   UNL     1       9.800  10.118 -14.582  1.00  0.00    -0.248 NA
ATOM     57  C   UNL     1       9.077  12.316 -14.898  1.00  0.00     0.031 C 
ATOM     58  C   UNL     1      12.038   7.760 -17.603  1.00  0.00     0.029 A 
ATOM     59  C   UNL     1      11.334   8.518 -16.681  1.00  0.00     0.049 A 
ATOM     60  H   UNL     1      10.750   8.018 -14.715  1.00  0.00     0.167 HD
ATOM     61  C   UNL     1      10.148  10.533 -15.861  1.00  0.00     0.074 A 
ATOM     62  C   UNL     1       9.653  11.885 -16.012  1.00  0.00     0.031 C 
ATOM     63  C   UNL     1      10.822   9.856 -16.822  1.00  0.00     0.037 A 
BRANCH  50  64
ATOM     64  C   UNL     1      12.468   4.139 -15.162  1.00  0.00     0.057 A 
ATOM     65  C   UNL     1      11.744   2.970 -15.428  1.00  0.00     0.134 A 
ATOM     66  C   UNL     1      13.864   4.073 -15.272  1.00  0.00     0.134 A 
ATOM     67  F   UNL     1      10.407   2.961 -15.323  1.00  0.00    -0.206 F 
ATOM     68  C   UNL     1      12.385   1.776 -15.763  1.00  0.00     0.040 A 
ATOM     69  C   UNL     1      14.514   2.892 -15.631  1.00  0.00     0.040 A 
ATOM     70  F   UNL     1      14.617   5.158 -15.036  1.00  0.00    -0.206 F 
ATOM     71  C   UNL     1      13.775   1.736 -15.871  1.00  0.00     0.006 A 
ENDBRANCH  50  64
BRANCH  51  72
ATOM     72  C   UNL     1       7.888  12.492 -12.239  1.00  0.00     0.057 A 
ATOM     73  C   UNL     1       6.663  12.871 -12.800  1.00  0.00     0.134 A 
ATOM     74  C   UNL     1       8.448  13.342 -11.277  1.00  0.00     0.134 A 
ATOM     75  F   UNL     1       6.091  12.112 -13.746  1.00  0.00    -0.206 F 
ATOM     76  C   UNL     1       6.024  14.054 -12.428  1.00  0.00     0.040 A 
ATOM     77  C   UNL     1       7.806  14.515 -10.876  1.00  0.00     0.040 A 
ATOM     78  F   UNL     1       9.621  13.037 -10.703  1.00  0.00    -0.206 F 
ATOM     79  C   UNL     1       6.593  14.877 -11.457  1.00  0.00     0.006 A 
ENDBRANCH  51  72
BRANCH  63  80
ATOM     80  C   UNL     1      11.019  10.551 -18.136  1.00  0.00     0.057 A 
ATOM     81  C   UNL     1      11.941  11.594 -18.291  1.00  0.00     0.134 A 
ATOM     82  C   UNL     1      10.290  10.157 -19.265  1.00  0.00     0.134 A 
ATOM     83  F   UNL     1      12.660  12.027 -17.245  1.00  0.00    -0.206 F 
ATOM     84  C   UNL     1      12.113  12.237 -19.518  1.00  0.00     0.040 A 
ATOM     85  C   UNL     1      10.469  10.777 -20.502  1.00  0.00     0.040 A 
ATOM     86  F   UNL     1       9.396   9.159 -19.184  1.00  0.00    -0.206 F 
ATOM     87  C   UNL     1      11.378  11.826 -20.629  1.00  0.00     0.006 A 
ENDBRANCH  63  80
ENDBRANCH  37  38
ENDBRANCH  30  32
ENDBRANCH  29  30
ENDBRANCH  28  29
ENDBRANCH   1  28
TORSDOF 15
