REMARK SMILES Cc1n[nH]c2c1[C@@]1(C(=O)N([C@@H](C)C(=O)OCCOC(=O)c3ccc(-c4c5nc(c(-c6c(F)cccc6F)c6ccc([nH]6)c(-c6c(F)cccc6F)c6nc(c(-c7c(F)cccc7F)c7ccc4[nH]7)C=C6)C=C5)cc3)c3ccccc31)C(C#N)=C(N)O2
REMARK SMILES IDX 16 1 15 2 13 3 14 4 11 5 12 6 10 7 1 8 2 9 3 10 6 11 4 12
REMARK SMILES IDX 5 13 7 14 86 16 8 17 80 18 81 19 84 20 9 21 75 22 79 23
REMARK SMILES IDX 76 24 78 25 77 26 82 27 83 28 85 29 17 32 18 33 19 34 20 35
REMARK SMILES IDX 21 36 22 37 74 38 23 39 73 40 24 41 25 42 26 43 67 44 27 45
REMARK SMILES IDX 72 46 66 47 68 48 28 49 71 50 65 51 64 52 29 54 55 55 38 56
REMARK SMILES IDX 54 57 39 58 42 59 53 60 69 61 40 62 41 63 52 65 70 66 43 67
REMARK SMILES IDX 30 68 31 69 36 70 32 71 33 72 35 73 37 74 34 75 56 76 57 77
REMARK SMILES IDX 62 78 58 79 59 80 61 81 63 82 60 83 44 84 45 85 50 86 46 87
REMARK SMILES IDX 47 88 49 89 51 90 48 91
REMARK H PARENT 4 15 85 30 85 31 68 53 42 64
REMARK Flexibility Score: inf
ROOT
ATOM      1  C   UNL     1      -3.529   4.788  -1.875  1.00  0.00     0.274 C 
ENDROOT
BRANCH   1   2
ATOM      2  O   UNL     1      -2.327   4.070  -1.521  1.00  0.00    -0.461 OA
BRANCH   2   3
ATOM      3  C   UNL     1      -1.665   3.419  -2.511  1.00  0.00     0.329 C 
ATOM      4  O   UNL     1      -1.999   3.438  -3.692  1.00  0.00    -0.250 OA
BRANCH   3   5
ATOM      5  C   UNL     1      -0.453   2.599  -1.999  1.00  0.00     0.197 C 
ATOM      6  C   UNL     1      -0.664   1.135  -2.390  1.00  0.00     0.044 C 
BRANCH   5   7
ATOM      7  N   UNL     1      -0.114   2.753  -0.591  1.00  0.00    -0.297 N 
ATOM      8  C   UNL     1       1.243  -0.305   0.400  1.00  0.00     0.069 C 
ATOM      9  C   UNL     1       0.659  -0.029   1.738  1.00  0.00     0.068 A 
ATOM     10  N   UNL     1       0.663  -1.014   2.652  1.00  0.00    -0.177 NA
ATOM     11  C   UNL     1       0.052   1.146   2.263  1.00  0.00     0.063 A 
ATOM     12  N   UNL     1       0.037  -0.484   3.720  1.00  0.00    -0.246 N 
ATOM     13  C   UNL     1      -0.339   0.805   3.529  1.00  0.00     0.222 A 
ATOM     14  C   UNL     1      -0.290   2.507   1.750  1.00  0.00     0.149 C 
ATOM     15  H   UNL     1      -0.131  -0.981   4.554  1.00  0.00     0.193 HD
ATOM     16  O   UNL     1      -0.999   1.547   4.410  1.00  0.00    -0.422 OA
ATOM     17  C   UNL     1      -1.018   2.357   0.409  1.00  0.00     0.248 C 
ATOM     18  C   UNL     1       1.023   3.133   1.371  1.00  0.00     0.002 A 
ATOM     19  C   UNL     1      -1.102   3.306   2.746  1.00  0.00     0.114 C 
ATOM     20  C   UNL     1      -1.401   2.827   3.982  1.00  0.00     0.208 C 
ATOM     21  O   UNL     1      -2.144   1.910   0.242  1.00  0.00    -0.273 OA
ATOM     22  C   UNL     1       1.113   3.182  -0.020  1.00  0.00     0.050 A 
ATOM     23  C   UNL     1       2.050   3.585   2.200  1.00  0.00     0.008 A 
ATOM     24  C   UNL     1       2.308   3.571  -0.590  1.00  0.00     0.027 A 
ATOM     25  C   UNL     1       3.201   4.099   1.612  1.00  0.00     0.001 A 
ATOM     26  C   UNL     1       3.335   4.080   0.222  1.00  0.00     0.002 A 
BRANCH  19  27
ATOM     27  C   UNL     1      -1.564   4.605   2.357  1.00  0.00     0.102 C 
ATOM     28  N   UNL     1      -1.968   5.651   2.102  1.00  0.00    -0.193 NA
ENDBRANCH  19  27
BRANCH  20  29
ATOM     29  N   UNL     1      -2.103   3.511   4.931  1.00  0.00    -0.369 N 
ATOM     30  H   UNL     1      -2.435   4.418   4.739  1.00  0.00     0.159 HD
ATOM     31  H   UNL     1      -2.279   3.097   5.807  1.00  0.00     0.159 HD
ENDBRANCH  20  29
ENDBRANCH   5   7
ENDBRANCH   3   5
ENDBRANCH   2   3
ENDBRANCH   1   2
BRANCH   1  32
ATOM     32  C   UNL     1      -3.352   6.263  -1.508  1.00  0.00     0.275 C 
BRANCH  32  33
ATOM     33  O   UNL     1      -2.402   6.845  -2.421  1.00  0.00    -0.458 OA
BRANCH  33  34
ATOM     34  C   UNL     1      -1.121   6.894  -1.977  1.00  0.00     0.338 C 
ATOM     35  O   UNL     1      -0.748   6.955  -0.818  1.00  0.00    -0.246 OA
BRANCH  34  36
ATOM     36  C   UNL     1      -0.247   6.455  -3.091  1.00  0.00     0.060 A 
ATOM     37  C   UNL     1      -0.607   6.554  -4.435  1.00  0.00     0.016 A 
ATOM     38  C   UNL     1       0.848   5.677  -2.738  1.00  0.00     0.016 A 
ATOM     39  C   UNL     1      -0.042   5.672  -5.365  1.00  0.00     0.010 A 
ATOM     40  C   UNL     1       1.402   4.811  -3.676  1.00  0.00     0.010 A 
ATOM     41  C   UNL     1       0.862   4.686  -4.950  1.00  0.00    -0.014 A 
BRANCH  41  42
ATOM     42  C   UNL     1       1.540   3.784  -5.898  1.00  0.00     0.031 A 
ATOM     43  C   UNL     1       2.650   4.530  -6.521  1.00  0.00     0.074 A 
ATOM     44  C   UNL     1       1.364   2.472  -6.199  1.00  0.00     0.049 A 
ATOM     45  N   UNL     1       2.523   5.221  -7.601  1.00  0.00    -0.248 NA
ATOM     46  C   UNL     1       3.884   4.799  -5.771  1.00  0.00     0.031 C 
ATOM     47  C   UNL     1       0.470   1.482  -5.615  1.00  0.00     0.029 A 
ATOM     48  N   UNL     1       1.996   1.726  -7.173  1.00  0.00    -0.354 N 
ATOM     49  C   UNL     1       3.754   5.811  -7.806  1.00  0.00     0.074 A 
ATOM     50  C   UNL     1       4.444   5.732  -6.547  1.00  0.00     0.031 C 
ATOM     51  C   UNL     1       0.769   0.231  -6.057  1.00  0.00     0.029 A 
ATOM     52  C   UNL     1       1.750   0.341  -7.126  1.00  0.00     0.049 A 
ATOM     53  H   UNL     1       2.578   2.134  -7.854  1.00  0.00     0.167 HD
ATOM     54  C   UNL     1       4.186   6.015  -9.078  1.00  0.00     0.037 A 
ATOM     55  C   UNL     1       2.167  -0.624  -8.003  1.00  0.00     0.037 A 
ATOM     56  C   UNL     1       3.088   5.865 -10.014  1.00  0.00     0.049 A 
ATOM     57  C   UNL     1       2.464   0.057  -9.284  1.00  0.00     0.074 A 
ATOM     58  C   UNL     1       1.878   6.497 -10.227  1.00  0.00     0.029 A 
ATOM     59  N   UNL     1       2.987   4.648 -10.642  1.00  0.00    -0.354 N 
ATOM     60  N   UNL     1       1.546   0.587 -10.039  1.00  0.00    -0.248 NA
ATOM     61  C   UNL     1       3.806   0.581  -9.451  1.00  0.00     0.031 C 
ATOM     62  C   UNL     1       0.966   5.457 -10.585  1.00  0.00     0.029 A 
ATOM     63  C   UNL     1       1.674   4.258 -10.657  1.00  0.00     0.049 A 
ATOM     64  H   UNL     1       3.738   4.137 -11.022  1.00  0.00     0.167 HD
ATOM     65  C   UNL     1       2.075   1.814 -10.405  1.00  0.00     0.074 A 
ATOM     66  C   UNL     1       3.495   1.731 -10.053  1.00  0.00     0.031 C 
ATOM     67  C   UNL     1       1.258   2.874 -10.677  1.00  0.00     0.037 A 
BRANCH  54  68
ATOM     68  C   UNL     1       5.624   5.853  -9.505  1.00  0.00     0.057 A 
ATOM     69  C   UNL     1       6.618   5.167  -8.777  1.00  0.00     0.134 A 
ATOM     70  C   UNL     1       5.944   6.115 -10.849  1.00  0.00     0.134 A 
ATOM     71  F   UNL     1       6.469   4.800  -7.500  1.00  0.00    -0.206 F 
ATOM     72  C   UNL     1       7.806   4.718  -9.355  1.00  0.00     0.040 A 
ATOM     73  C   UNL     1       7.109   5.628 -11.449  1.00  0.00     0.040 A 
ATOM     74  F   UNL     1       5.086   6.770 -11.646  1.00  0.00    -0.206 F 
ATOM     75  C   UNL     1       8.038   4.912 -10.705  1.00  0.00     0.006 A 
ENDBRANCH  54  68
BRANCH  55  76
ATOM     76  C   UNL     1       2.675  -2.009  -7.768  1.00  0.00     0.057 A 
ATOM     77  C   UNL     1       3.310  -2.345  -6.563  1.00  0.00     0.134 A 
ATOM     78  C   UNL     1       2.856  -2.929  -8.823  1.00  0.00     0.134 A 
ATOM     79  F   UNL     1       3.273  -1.505  -5.519  1.00  0.00    -0.206 F 
ATOM     80  C   UNL     1       4.090  -3.503  -6.417  1.00  0.00     0.040 A 
ATOM     81  C   UNL     1       3.631  -4.096  -8.688  1.00  0.00     0.040 A 
ATOM     82  F   UNL     1       2.346  -2.682 -10.039  1.00  0.00    -0.206 F 
ATOM     83  C   UNL     1       4.263  -4.380  -7.483  1.00  0.00     0.006 A 
ENDBRANCH  55  76
BRANCH  67  84
ATOM     84  C   UNL     1      -0.213   2.594 -10.850  1.00  0.00     0.057 A 
ATOM     85  C   UNL     1      -0.814   2.941 -12.065  1.00  0.00     0.134 A 
ATOM     86  C   UNL     1      -1.063   2.101  -9.845  1.00  0.00     0.134 A 
ATOM     87  F   UNL     1      -0.074   3.460 -13.057  1.00  0.00    -0.206 F 
ATOM     88  C   UNL     1      -2.186   2.801 -12.281  1.00  0.00     0.040 A 
ATOM     89  C   UNL     1      -2.437   1.927 -10.059  1.00  0.00     0.040 A 
ATOM     90  F   UNL     1      -0.600   1.815  -8.622  1.00  0.00    -0.206 F 
ATOM     91  C   UNL     1      -3.002   2.282 -11.281  1.00  0.00     0.006 A 
ENDBRANCH  67  84
ENDBRANCH  41  42
ENDBRANCH  34  36
ENDBRANCH  33  34
ENDBRANCH  32  33
ENDBRANCH   1  32
TORSDOF 14
