REMARK SMILES CN1C(=O)C[C@@H](C(=O)OCCOC(=O)c2ccc(-c3c4nc(c(-c5c(F)cccc5F)c5ccc([nH]5)c(-c5c(F)cccc5F)c5nc(c(-c6c(F)cccc6F)c6ccc3[nH]6)C=C5)C=C4)cc2)C12CCN(C(=O)c1cccc3ccccc13)CC2
REMARK SMILES IDX 11 1 10 2 9 3 7 4 8 5 6 6 1 7 2 8 3 9 69 10 4 11 5 12 70 13
REMARK SMILES IDX 86 14 71 15 85 16 72 17 73 18 74 19 75 20 76 21 84 22 77 23
REMARK SMILES IDX 79 24 83 25 78 26 80 27 82 28 81 29 12 30 13 31 14 32 15 33
REMARK SMILES IDX 16 34 68 35 17 36 67 37 18 38 19 39 20 40 61 41 21 42 66 43
REMARK SMILES IDX 60 44 62 45 22 46 65 47 59 48 58 49 23 51 49 52 32 53 48 54
REMARK SMILES IDX 33 55 36 56 47 57 63 58 34 59 35 60 46 62 64 63 37 64 24 65
REMARK SMILES IDX 25 66 30 67 26 68 27 69 29 70 31 71 28 72 50 73 51 74 56 75
REMARK SMILES IDX 52 76 53 77 55 78 57 79 54 80 38 81 39 82 44 83 40 84 41 85
REMARK SMILES IDX 43 86 45 87 42 88
REMARK H PARENT 62 50 36 61
REMARK Flexibility Score: inf
ROOT
ATOM      1  C   UNL     1      -2.075   1.349  -5.661  1.00  0.00     0.275 C 
ENDROOT
BRANCH   1   2
ATOM      2  C   UNL     1      -0.707   1.816  -5.163  1.00  0.00     0.274 C 
BRANCH   2   3
ATOM      3  O   UNL     1      -0.577   1.601  -3.740  1.00  0.00    -0.462 OA
BRANCH   3   4
ATOM      4  C   UNL     1      -0.908   2.652  -2.963  1.00  0.00     0.311 C 
ATOM      5  O   UNL     1      -1.236   3.753  -3.401  1.00  0.00    -0.252 OA
BRANCH   4   6
ATOM      6  C   UNL     1      -0.861   2.406  -1.465  1.00  0.00     0.134 C 
ATOM      7  C   UNL     1       1.639  -0.097  -0.191  1.00  0.00     0.147 C 
ATOM      8  N   UNL     1       0.856   1.036  -0.650  1.00  0.00    -0.339 N 
ATOM      9  C   UNL     1       1.396   2.316  -0.684  1.00  0.00     0.223 C 
ATOM     10  C   UNL     1      -0.606   1.016  -0.818  1.00  0.00     0.060 C 
ATOM     11  O   UNL     1       2.553   2.625  -0.486  1.00  0.00    -0.275 OA
ATOM     12  C   UNL     1       0.281   3.290  -0.939  1.00  0.00     0.118 C 
ATOM     13  C   UNL     1      -1.092  -0.233  -1.587  1.00  0.00     0.051 C 
ATOM     14  C   UNL     1      -1.278   0.973   0.595  1.00  0.00     0.051 C 
ATOM     15  C   UNL     1      -2.613  -0.314  -1.655  1.00  0.00     0.122 C 
ATOM     16  C   UNL     1      -2.791   0.733   0.563  1.00  0.00     0.122 C 
ATOM     17  N   UNL     1      -3.157  -0.384  -0.305  1.00  0.00    -0.338 N 
ATOM     18  C   UNL     1      -4.084  -1.319   0.169  1.00  0.00     0.254 C 
ATOM     19  O   UNL     1      -4.549  -1.260   1.308  1.00  0.00    -0.269 OA
BRANCH  18  20
ATOM     20  C   UNL     1      -4.637  -2.390  -0.704  1.00  0.00     0.047 A 
ATOM     21  C   UNL     1      -6.035  -2.361  -0.852  1.00  0.00     0.014 A 
ATOM     22  C   UNL     1      -3.875  -3.454  -1.260  1.00  0.00    -0.006 A 
ATOM     23  C   UNL     1      -6.693  -3.355  -1.568  1.00  0.00     0.001 A 
ATOM     24  C   UNL     1      -4.562  -4.441  -2.015  1.00  0.00    -0.018 A 
ATOM     25  C   UNL     1      -2.479  -3.613  -1.103  1.00  0.00     0.009 A 
ATOM     26  C   UNL     1      -5.958  -4.383  -2.151  1.00  0.00     0.009 A 
ATOM     27  C   UNL     1      -3.850  -5.490  -2.619  1.00  0.00     0.009 A 
ATOM     28  C   UNL     1      -1.780  -4.644  -1.738  1.00  0.00     0.001 A 
ATOM     29  C   UNL     1      -2.465  -5.580  -2.499  1.00  0.00     0.001 A 
ENDBRANCH  18  20
ENDBRANCH   4   6
ENDBRANCH   3   4
ENDBRANCH   2   3
ENDBRANCH   1   2
BRANCH   1  30
ATOM     30  O   UNL     1      -3.119   1.989  -4.902  1.00  0.00    -0.458 OA
BRANCH  30  31
ATOM     31  C   UNL     1      -4.141   1.190  -4.518  1.00  0.00     0.338 C 
ATOM     32  O   UNL     1      -4.300   0.018  -4.815  1.00  0.00    -0.246 OA
BRANCH  31  33
ATOM     33  C   UNL     1      -5.056   1.910  -3.602  1.00  0.00     0.060 A 
ATOM     34  C   UNL     1      -4.578   2.827  -2.662  1.00  0.00     0.016 A 
ATOM     35  C   UNL     1      -6.411   1.573  -3.609  1.00  0.00     0.016 A 
ATOM     36  C   UNL     1      -5.433   3.362  -1.699  1.00  0.00     0.010 A 
ATOM     37  C   UNL     1      -7.285   2.186  -2.707  1.00  0.00     0.010 A 
ATOM     38  C   UNL     1      -6.806   3.079  -1.734  1.00  0.00    -0.014 A 
BRANCH  38  39
ATOM     39  C   UNL     1      -7.753   3.757  -0.809  1.00  0.00     0.031 A 
ATOM     40  C   UNL     1      -8.636   2.963   0.113  1.00  0.00     0.074 A 
ATOM     41  C   UNL     1      -7.874   5.099  -0.853  1.00  0.00     0.049 A 
ATOM     42  N   UNL     1      -9.665   3.362   0.819  1.00  0.00    -0.248 NA
ATOM     43  C   UNL     1      -8.336   1.530   0.242  1.00  0.00     0.031 C 
ATOM     44  C   UNL     1      -7.084   5.995  -1.699  1.00  0.00     0.029 A 
ATOM     45  N   UNL     1      -8.728   5.942  -0.185  1.00  0.00    -0.354 N 
ATOM     46  C   UNL     1     -10.167   2.223   1.436  1.00  0.00     0.074 A 
ATOM     47  C   UNL     1      -9.331   1.117   1.017  1.00  0.00     0.031 C 
ATOM     48  C   UNL     1      -7.483   7.258  -1.497  1.00  0.00     0.029 A 
ATOM     49  C   UNL     1      -8.605   7.256  -0.568  1.00  0.00     0.049 A 
ATOM     50  H   UNL     1      -9.365   5.636   0.500  1.00  0.00     0.167 HD
ATOM     51  C   UNL     1     -11.228   2.114   2.273  1.00  0.00     0.037 A 
ATOM     52  C   UNL     1      -9.341   8.337  -0.252  1.00  0.00     0.037 A 
ATOM     53  C   UNL     1     -12.028   3.224   2.728  1.00  0.00     0.049 A 
ATOM     54  C   UNL     1     -10.512   8.191   0.672  1.00  0.00     0.074 A 
ATOM     55  C   UNL     1     -13.083   3.216   3.625  1.00  0.00     0.029 A 
ATOM     56  N   UNL     1     -11.859   4.540   2.325  1.00  0.00    -0.354 N 
ATOM     57  N   UNL     1     -10.981   7.109   1.243  1.00  0.00    -0.248 NA
ATOM     58  C   UNL     1     -11.260   9.415   0.988  1.00  0.00     0.031 C 
ATOM     59  C   UNL     1     -13.578   4.521   3.734  1.00  0.00     0.029 A 
ATOM     60  C   UNL     1     -12.804   5.349   2.938  1.00  0.00     0.049 A 
ATOM     61  H   UNL     1     -11.169   4.854   1.696  1.00  0.00     0.167 HD
ATOM     62  C   UNL     1     -12.076   7.520   1.990  1.00  0.00     0.074 A 
ATOM     63  C   UNL     1     -12.186   8.954   1.817  1.00  0.00     0.031 C 
ATOM     64  C   UNL     1     -12.916   6.773   2.747  1.00  0.00     0.037 A 
BRANCH  51  65
ATOM     65  C   UNL     1     -11.608   0.736   2.734  1.00  0.00     0.057 A 
ATOM     66  C   UNL     1     -10.844   0.022   3.664  1.00  0.00     0.134 A 
ATOM     67  C   UNL     1     -12.783   0.132   2.264  1.00  0.00     0.134 A 
ATOM     68  F   UNL     1      -9.706   0.540   4.149  1.00  0.00    -0.206 F 
ATOM     69  C   UNL     1     -11.220  -1.254   4.092  1.00  0.00     0.040 A 
ATOM     70  C   UNL     1     -13.182  -1.131   2.703  1.00  0.00     0.040 A 
ATOM     71  F   UNL     1     -13.567   0.765   1.378  1.00  0.00    -0.206 F 
ATOM     72  C   UNL     1     -12.396  -1.831   3.615  1.00  0.00     0.006 A 
ENDBRANCH  51  65
BRANCH  52  73
ATOM     73  C   UNL     1      -9.000   9.647  -0.857  1.00  0.00     0.057 A 
ATOM     74  C   UNL     1      -8.406  10.659  -0.098  1.00  0.00     0.134 A 
ATOM     75  C   UNL     1      -9.218   9.898  -2.217  1.00  0.00     0.134 A 
ATOM     76  F   UNL     1      -8.190  10.481   1.214  1.00  0.00    -0.206 F 
ATOM     77  C   UNL     1      -8.040  11.879  -0.670  1.00  0.00     0.040 A 
ATOM     78  C   UNL     1      -8.834  11.102  -2.808  1.00  0.00     0.040 A 
ATOM     79  F   UNL     1      -9.775   8.961  -2.998  1.00  0.00    -0.206 F 
ATOM     80  C   UNL     1      -8.245  12.098  -2.031  1.00  0.00     0.006 A 
ENDBRANCH  52  73
BRANCH  64  81
ATOM     81  C   UNL     1     -14.020   7.502   3.452  1.00  0.00     0.057 A 
ATOM     82  C   UNL     1     -15.133   7.999   2.761  1.00  0.00     0.134 A 
ATOM     83  C   UNL     1     -13.973   7.707   4.836  1.00  0.00     0.134 A 
ATOM     84  F   UNL     1     -15.228   7.851   1.431  1.00  0.00    -0.206 F 
ATOM     85  C   UNL     1     -16.148   8.695   3.419  1.00  0.00     0.040 A 
ATOM     86  C   UNL     1     -14.993   8.381   5.509  1.00  0.00     0.040 A 
ATOM     87  F   UNL     1     -12.937   7.253   5.557  1.00  0.00    -0.206 F 
ATOM     88  C   UNL     1     -16.081   8.884   4.798  1.00  0.00     0.006 A 
ENDBRANCH  64  81
ENDBRANCH  38  39
ENDBRANCH  31  33
ENDBRANCH  30  31
ENDBRANCH   1  30
TORSDOF 12
