REMARK SMILES CCCO[C@@H]1CCC[N@@H+]([C@@H]2CC[C@]([NH2+]C)(C(=O)OCCOC(=O)c3ccc(-c4c5nc(c(-c6c(F)cccc6F)c6ccc([nH]6)c(-c6c(F)cccc6F)c6nc(c(-c7c(F)cccc7F)c7ccc4[nH]7)C=C6)C=C5)cc3)C2)C1
REMARK SMILES IDX 19 1 18 2 16 3 17 4 13 5 10 6 11 7 78 8 12 9 9 10 5 11 6 12
REMARK SMILES IDX 79 13 7 14 8 15 4 17 3 18 2 19 1 20 14 21 15 22 20 25 21 26
REMARK SMILES IDX 22 27 23 28 24 29 25 30 77 31 26 32 76 33 27 34 28 35 29 36
REMARK SMILES IDX 70 37 30 38 75 39 69 40 71 41 31 42 74 43 68 44 67 45 32 47
REMARK SMILES IDX 58 48 41 49 57 50 42 51 45 52 56 53 72 54 43 55 44 56 55 58
REMARK SMILES IDX 73 59 46 60 33 61 34 62 39 63 35 64 36 65 38 66 40 67 37 68
REMARK SMILES IDX 59 69 60 70 65 71 61 72 62 73 64 74 66 75 63 76 47 77 48 78
REMARK SMILES IDX 53 79 49 80 50 81 52 82 54 83 51 84
REMARK H PARENT 9 16 14 23 14 24 71 46 45 57
REMARK Flexibility Score: inf
ROOT
ATOM      1  C   UNL     1       3.609   2.467  -5.149  1.00  0.00     0.274 C 
ENDROOT
BRANCH   1   2
ATOM      2  O   UNL     1       3.534   1.566  -4.027  1.00  0.00    -0.457 OA
BRANCH   2   3
ATOM      3  C   UNL     1       4.400   0.512  -4.047  1.00  0.00     0.368 C 
ATOM      4  O   UNL     1       5.220   0.326  -4.940  1.00  0.00    -0.245 OA
BRANCH   3   5
ATOM      5  C   UNL     1       4.277  -0.373  -2.771  1.00  0.00     0.200 C 
ATOM      6  C   UNL     1       3.233  -0.643  -0.604  1.00  0.00     0.191 C 
ATOM      7  C   UNL     1       4.552   0.064  -0.326  1.00  0.00     0.072 C 
ATOM      8  C   UNL     1       2.912  -0.299  -2.063  1.00  0.00     0.146 C 
ATOM      9  C   UNL     1       5.230   0.198  -1.689  1.00  0.00     0.087 C 
BRANCH   6  10
ATOM     10  N   UNL     1       2.127  -0.389   0.305  1.00  0.00    -0.330 N 
ATOM     11  C   UNL     1       0.771  -1.267   2.146  1.00  0.00     0.173 C 
ATOM     12  C   UNL     1       0.369   0.157   2.559  1.00  0.00     0.044 C 
ATOM     13  C   UNL     1       2.190  -1.183   1.539  1.00  0.00     0.294 C 
ATOM     14  C   UNL     1       0.464   1.115   1.362  1.00  0.00     0.064 C 
ATOM     15  C   UNL     1       1.804   1.007   0.617  1.00  0.00     0.262 C 
ATOM     16  H   UNL     1       1.345  -0.706  -0.268  1.00  0.00     0.348 HD
BRANCH  11  17
ATOM     17  O   UNL     1      -0.256  -1.718   1.243  1.00  0.00    -0.372 OA
BRANCH  17  18
ATOM     18  C   UNL     1       0.031  -2.850   0.437  1.00  0.00     0.160 C 
BRANCH  18  19
ATOM     19  C   UNL     1      -0.680  -2.745  -0.918  1.00  0.00     0.025 C 
ATOM     20  C   UNL     1      -1.019  -1.329  -1.361  1.00  0.00     0.006 C 
ENDBRANCH  18  19
ENDBRANCH  17  18
ENDBRANCH  11  17
ENDBRANCH   6  10
BRANCH   5  21
ATOM     21  N   UNL     1       4.716  -1.771  -3.054  1.00  0.00    -0.334 N 
ATOM     22  C   UNL     1       3.977  -2.438  -4.117  1.00  0.00     0.331 C 
ATOM     23  H   UNL     1       4.605  -2.317  -2.199  1.00  0.00     0.347 HD
ATOM     24  H   UNL     1       5.684  -1.710  -3.369  1.00  0.00     0.347 HD
ENDBRANCH   5  21
ENDBRANCH   3   5
ENDBRANCH   2   3
ENDBRANCH   1   2
BRANCH   1  25
ATOM     25  C   UNL     1       4.433   3.699  -4.789  1.00  0.00     0.275 C 
BRANCH  25  26
ATOM     26  O   UNL     1       5.781   3.304  -4.478  1.00  0.00    -0.458 OA
BRANCH  26  27
ATOM     27  C   UNL     1       6.270   3.751  -3.304  1.00  0.00     0.338 C 
ATOM     28  O   UNL     1       5.720   4.507  -2.510  1.00  0.00    -0.246 OA
BRANCH  27  29
ATOM     29  C   UNL     1       7.607   3.188  -3.057  1.00  0.00     0.060 A 
ATOM     30  C   UNL     1       7.817   1.810  -3.114  1.00  0.00     0.016 A 
ATOM     31  C   UNL     1       8.628   4.030  -2.617  1.00  0.00     0.016 A 
ATOM     32  C   UNL     1       8.995   1.262  -2.615  1.00  0.00     0.010 A 
ATOM     33  C   UNL     1       9.855   3.485  -2.232  1.00  0.00     0.010 A 
ATOM     34  C   UNL     1      10.039   2.092  -2.184  1.00  0.00    -0.014 A 
BRANCH  34  35
ATOM     35  C   UNL     1      11.305   1.515  -1.658  1.00  0.00     0.031 A 
ATOM     36  C   UNL     1      11.777   1.866  -0.272  1.00  0.00     0.074 A 
ATOM     37  C   UNL     1      12.041   0.678  -2.415  1.00  0.00     0.049 A 
ATOM     38  N   UNL     1      12.946   1.662   0.282  1.00  0.00    -0.248 NA
ATOM     39  C   UNL     1      10.812   2.551   0.603  1.00  0.00     0.031 C 
ATOM     40  C   UNL     1      11.685   0.206  -3.755  1.00  0.00     0.029 A 
ATOM     41  N   UNL     1      13.246   0.071  -2.161  1.00  0.00    -0.354 N 
ATOM     42  C   UNL     1      12.880   2.253   1.537  1.00  0.00     0.074 A 
ATOM     43  C   UNL     1      11.551   2.812   1.673  1.00  0.00     0.031 C 
ATOM     44  C   UNL     1      12.627  -0.645  -4.187  1.00  0.00     0.029 A 
ATOM     45  C   UNL     1      13.697  -0.707  -3.199  1.00  0.00     0.049 A 
ATOM     46  H   UNL     1      13.739   0.183  -1.316  1.00  0.00     0.167 HD
ATOM     47  C   UNL     1      13.844   2.329   2.486  1.00  0.00     0.037 A 
ATOM     48  C   UNL     1      14.861  -1.361  -3.363  1.00  0.00     0.037 A 
ATOM     49  C   UNL     1      15.142   1.717   2.375  1.00  0.00     0.049 A 
ATOM     50  C   UNL     1      15.917  -1.257  -2.304  1.00  0.00     0.074 A 
ATOM     51  C   UNL     1      16.187   1.735   3.282  1.00  0.00     0.029 A 
ATOM     52  N   UNL     1      15.561   0.953   1.296  1.00  0.00    -0.354 N 
ATOM     53  N   UNL     1      15.878  -0.618  -1.161  1.00  0.00    -0.248 NA
ATOM     54  C   UNL     1      17.191  -1.939  -2.571  1.00  0.00     0.031 C 
ATOM     55  C   UNL     1      17.246   0.994   2.744  1.00  0.00     0.029 A 
ATOM     56  C   UNL     1      16.849   0.495   1.515  1.00  0.00     0.049 A 
ATOM     57  H   UNL     1      15.022   0.765   0.494  1.00  0.00     0.167 HD
ATOM     58  C   UNL     1      17.119  -0.817  -0.573  1.00  0.00     0.074 A 
ATOM     59  C   UNL     1      17.881  -1.656  -1.475  1.00  0.00     0.031 C 
ATOM     60  C   UNL     1      17.589  -0.338   0.604  1.00  0.00     0.037 A 
BRANCH  47  61
ATOM     61  C   UNL     1      13.543   3.135   3.713  1.00  0.00     0.057 A 
ATOM     62  C   UNL     1      12.718   2.655   4.736  1.00  0.00     0.134 A 
ATOM     63  C   UNL     1      14.118   4.402   3.884  1.00  0.00     0.134 A 
ATOM     64  F   UNL     1      12.125   1.457   4.625  1.00  0.00    -0.206 F 
ATOM     65  C   UNL     1      12.461   3.414   5.881  1.00  0.00     0.040 A 
ATOM     66  C   UNL     1      13.885   5.161   5.031  1.00  0.00     0.040 A 
ATOM     67  F   UNL     1      14.921   4.918   2.941  1.00  0.00    -0.206 F 
ATOM     68  C   UNL     1      13.050   4.668   6.033  1.00  0.00     0.006 A 
ENDBRANCH  47  61
BRANCH  48  69
ATOM     69  C   UNL     1      15.101  -2.131  -4.607  1.00  0.00     0.057 A 
ATOM     70  C   UNL     1      15.110  -3.529  -4.598  1.00  0.00     0.134 A 
ATOM     71  C   UNL     1      15.301  -1.488  -5.835  1.00  0.00     0.134 A 
ATOM     72  F   UNL     1      14.947  -4.197  -3.447  1.00  0.00    -0.206 F 
ATOM     73  C   UNL     1      15.310  -4.264  -5.767  1.00  0.00     0.040 A 
ATOM     74  C   UNL     1      15.479  -2.210  -7.015  1.00  0.00     0.040 A 
ATOM     75  F   UNL     1      15.301  -0.149  -5.907  1.00  0.00    -0.206 F 
ATOM     76  C   UNL     1      15.486  -3.603  -6.982  1.00  0.00     0.006 A 
ENDBRANCH  48  69
BRANCH  60  77
ATOM     77  C   UNL     1      18.984  -0.726   0.981  1.00  0.00     0.057 A 
ATOM     78  C   UNL     1      20.097  -0.104   0.403  1.00  0.00     0.134 A 
ATOM     79  C   UNL     1      19.215  -1.715   1.944  1.00  0.00     0.134 A 
ATOM     80  F   UNL     1      19.936   0.841  -0.536  1.00  0.00    -0.206 F 
ATOM     81  C   UNL     1      21.396  -0.464   0.760  1.00  0.00     0.040 A 
ATOM     82  C   UNL     1      20.510  -2.073   2.320  1.00  0.00     0.040 A 
ATOM     83  F   UNL     1      18.188  -2.345   2.533  1.00  0.00    -0.206 F 
ATOM     84  C   UNL     1      21.605  -1.449   1.724  1.00  0.00     0.006 A 
ENDBRANCH  60  77
ENDBRANCH  34  35
ENDBRANCH  27  29
ENDBRANCH  26  27
ENDBRANCH  25  26
ENDBRANCH   1  25
TORSDOF 16
