REMARK SMILES CCCc1cc2c(cc1Cl)C=C(C(=O)OCCOC(=O)c1ccc(-c3c4nc(c(-c5c(F)cccc5F)c5ccc([nH]5)c(-c5c(F)cccc5F)c5nc(c(-c6c(F)cccc6F)c6ccc3[nH]6)C=C5)C=C4)cc1)[C@@H](C(F)(F)F)O2
REMARK SMILES IDX 16 1 15 2 13 3 14 4 12 5 4 6 5 7 9 8 6 9 8 10 10 11 7 12
REMARK SMILES IDX 80 13 11 14 75 15 3 16 2 17 1 18 76 19 77 20 78 21 79 22
REMARK SMILES IDX 17 23 18 24 19 25 20 26 21 27 22 28 74 29 23 30 73 31 24 32
REMARK SMILES IDX 25 33 26 34 67 35 27 36 72 37 66 38 68 39 28 40 71 41 65 42
REMARK SMILES IDX 64 43 29 45 55 46 38 47 54 48 39 49 42 50 53 51 69 52 40 53
REMARK SMILES IDX 41 54 52 56 70 57 43 58 30 59 31 60 36 61 32 62 33 63 35 64
REMARK SMILES IDX 37 65 34 66 56 67 57 68 62 69 58 70 59 71 61 72 63 73 60 74
REMARK SMILES IDX 44 75 45 76 50 77 46 78 47 79 49 80 51 81 48 82
REMARK H PARENT 68 44 42 55
REMARK Flexibility Score: inf
ROOT
ATOM      1  C   UNL     1      -2.999   8.692  -2.942  1.00  0.00     0.275 C 
ENDROOT
BRANCH   1   2
ATOM      2  O   UNL     1      -2.758   7.428  -2.284  1.00  0.00    -0.459 OA
BRANCH   2   3
ATOM      3  C   UNL     1      -1.463   7.144  -2.012  1.00  0.00     0.338 C 
ATOM      4  O   UNL     1      -0.494   7.839  -2.277  1.00  0.00    -0.246 OA
BRANCH   3   5
ATOM      5  C   UNL     1      -1.359   5.872  -1.270  1.00  0.00     0.087 C 
ATOM      6  C   UNL     1       0.267   2.101   1.632  1.00  0.00    -0.026 A 
ATOM      7  C   UNL     1      -0.720   2.220   0.633  1.00  0.00     0.052 A 
ATOM      8  C   UNL     1       0.858   3.281   2.120  1.00  0.00     0.045 A 
ATOM      9  C   UNL     1      -1.001   3.449   0.037  1.00  0.00     0.128 A 
ATOM     10  C   UNL     1       0.562   4.513   1.540  1.00  0.00     0.032 A 
ATOM     11  Cl  UNL     1       1.982   3.279   3.434  1.00  0.00    -0.084 Cl
ATOM     12  C   UNL     1      -0.331   4.585   0.470  1.00  0.00     0.019 A 
ATOM     13  O   UNL     1      -1.938   3.460  -0.959  1.00  0.00    -0.475 OA
ATOM     14  C   UNL     1      -0.533   5.837  -0.219  1.00  0.00     0.027 C 
ATOM     15  C   UNL     1      -2.055   4.649  -1.796  1.00  0.00     0.316 C 
BRANCH   6  16
ATOM     16  C   UNL     1       0.686   0.752   2.181  1.00  0.00     0.037 C 
BRANCH  16  17
ATOM     17  C   UNL     1       0.419  -0.482   1.310  1.00  0.00     0.001 C 
ATOM     18  C   UNL     1       1.173  -0.466  -0.015  1.00  0.00     0.004 C 
ENDBRANCH  16  17
ENDBRANCH   6  16
BRANCH  15  19
ATOM     19  C   UNL     1      -1.556   4.310  -3.211  1.00  0.00     0.430 C 
ATOM     20  F   UNL     1      -2.147   3.192  -3.692  1.00  0.00    -0.167 F 
ATOM     21  F   UNL     1      -1.835   5.305  -4.088  1.00  0.00    -0.167 F 
ATOM     22  F   UNL     1      -0.218   4.109  -3.243  1.00  0.00    -0.167 F 
ENDBRANCH  15  19
ENDBRANCH   3   5
ENDBRANCH   2   3
ENDBRANCH   1   2
BRANCH   1  23
ATOM     23  C   UNL     1      -3.567   9.728  -1.970  1.00  0.00     0.275 C 
BRANCH  23  24
ATOM     24  O   UNL     1      -2.569  10.125  -1.011  1.00  0.00    -0.458 OA
BRANCH  24  25
ATOM     25  C   UNL     1      -2.722   9.611   0.230  1.00  0.00     0.338 C 
ATOM     26  O   UNL     1      -3.611   8.881   0.631  1.00  0.00    -0.246 OA
BRANCH  25  27
ATOM     27  C   UNL     1      -1.555   9.960   1.052  1.00  0.00     0.060 A 
ATOM     28  C   UNL     1      -1.624  10.888   2.082  1.00  0.00     0.016 A 
ATOM     29  C   UNL     1      -0.404   9.204   0.881  1.00  0.00     0.016 A 
ATOM     30  C   UNL     1      -0.513  11.055   2.921  1.00  0.00     0.010 A 
ATOM     31  C   UNL     1       0.626   9.248   1.813  1.00  0.00     0.010 A 
ATOM     32  C   UNL     1       0.615  10.211   2.824  1.00  0.00    -0.014 A 
BRANCH  32  33
ATOM     33  C   UNL     1       1.778  10.345   3.753  1.00  0.00     0.031 A 
ATOM     34  C   UNL     1       3.188  10.522   3.228  1.00  0.00     0.074 A 
ATOM     35  C   UNL     1       1.578  10.279   5.085  1.00  0.00     0.049 A 
ATOM     36  N   UNL     1       4.303  10.706   3.895  1.00  0.00    -0.248 NA
ATOM     37  C   UNL     1       3.386  10.434   1.771  1.00  0.00     0.031 C 
ATOM     38  C   UNL     1       0.299   9.989   5.739  1.00  0.00     0.029 A 
ATOM     39  N   UNL     1       2.443  10.475   6.134  1.00  0.00    -0.354 N 
ATOM     40  C   UNL     1       5.319  10.730   2.944  1.00  0.00     0.074 A 
ATOM     41  C   UNL     1       4.706  10.450   1.668  1.00  0.00     0.031 C 
ATOM     42  C   UNL     1       0.442  10.117   7.067  1.00  0.00     0.029 A 
ATOM     43  C   UNL     1       1.829  10.457   7.364  1.00  0.00     0.049 A 
ATOM     44  H   UNL     1       3.411  10.615   6.016  1.00  0.00     0.167 HD
ATOM     45  C   UNL     1       6.636  11.011   3.100  1.00  0.00     0.037 A 
ATOM     46  C   UNL     1       2.321  10.712   8.591  1.00  0.00     0.037 A 
ATOM     47  C   UNL     1       7.243  11.347   4.360  1.00  0.00     0.049 A 
ATOM     48  C   UNL     1       3.771  11.082   8.738  1.00  0.00     0.074 A 
ATOM     49  C   UNL     1       8.547  11.732   4.617  1.00  0.00     0.029 A 
ATOM     50  N   UNL     1       6.579  11.344   5.576  1.00  0.00    -0.354 N 
ATOM     51  N   UNL     1       4.692  11.206   7.814  1.00  0.00    -0.248 NA
ATOM     52  C   UNL     1       4.245  11.358  10.101  1.00  0.00     0.031 C 
ATOM     53  C   UNL     1       8.680  11.931   5.996  1.00  0.00     0.029 A 
ATOM     54  C   UNL     1       7.448  11.710   6.590  1.00  0.00     0.049 A 
ATOM     55  H   UNL     1       5.629  11.116   5.701  1.00  0.00     0.167 HD
ATOM     56  C   UNL     1       5.848  11.593   8.480  1.00  0.00     0.074 A 
ATOM     57  C   UNL     1       5.503  11.710   9.882  1.00  0.00     0.031 C 
ATOM     58  C   UNL     1       7.085  11.825   7.979  1.00  0.00     0.037 A 
BRANCH  45  59
ATOM     59  C   UNL     1       7.497  11.002   1.866  1.00  0.00     0.057 A 
ATOM     60  C   UNL     1       8.492  10.033   1.688  1.00  0.00     0.134 A 
ATOM     61  C   UNL     1       7.346  11.962   0.854  1.00  0.00     0.134 A 
ATOM     62  F   UNL     1       8.703   9.091   2.619  1.00  0.00    -0.206 F 
ATOM     63  C   UNL     1       9.296  10.012   0.545  1.00  0.00     0.040 A 
ATOM     64  C   UNL     1       8.121  11.932  -0.307  1.00  0.00     0.040 A 
ATOM     65  F   UNL     1       6.407  12.914   0.956  1.00  0.00    -0.206 F 
ATOM     66  C   UNL     1       9.103  10.957  -0.462  1.00  0.00     0.006 A 
ENDBRANCH  45  59
BRANCH  46  67
ATOM     67  C   UNL     1       1.425  10.692   9.776  1.00  0.00     0.057 A 
ATOM     68  C   UNL     1       0.897   9.498  10.279  1.00  0.00     0.134 A 
ATOM     69  C   UNL     1       1.089  11.877  10.444  1.00  0.00     0.134 A 
ATOM     70  F   UNL     1       1.171   8.330   9.679  1.00  0.00    -0.206 F 
ATOM     71  C   UNL     1       0.069   9.482  11.403  1.00  0.00     0.040 A 
ATOM     72  C   UNL     1       0.285  11.873  11.584  1.00  0.00     0.040 A 
ATOM     73  F   UNL     1       1.577  13.052  10.019  1.00  0.00    -0.206 F 
ATOM     74  C   UNL     1      -0.231  10.671  12.065  1.00  0.00     0.006 A 
ENDBRANCH  46  67
BRANCH  58  75
ATOM     75  C   UNL     1       8.143  12.255   8.951  1.00  0.00     0.057 A 
ATOM     76  C   UNL     1       8.627  13.568   8.944  1.00  0.00     0.134 A 
ATOM     77  C   UNL     1       8.692  11.366   9.884  1.00  0.00     0.134 A 
ATOM     78  F   UNL     1       8.150  14.466   8.069  1.00  0.00    -0.206 F 
ATOM     79  C   UNL     1       9.618  13.985   9.834  1.00  0.00     0.040 A 
ATOM     80  C   UNL     1       9.663  11.778  10.798  1.00  0.00     0.040 A 
ATOM     81  F   UNL     1       8.261  10.097   9.951  1.00  0.00    -0.206 F 
ATOM     82  C   UNL     1      10.132  13.090  10.771  1.00  0.00     0.006 A 
ENDBRANCH  58  75
ENDBRANCH  32  33
ENDBRANCH  25  27
ENDBRANCH  24  25
ENDBRANCH  23  24
ENDBRANCH   1  23
TORSDOF 14
