REMARK SMILES Cc1noc2c1-c1c(c(C(=O)OCCOC(=O)c3ccc(-c4c5nc(c(-c6c(F)cccc6F)c6ccc([nH]6)c(-c6c(F)cccc6F)c6nc(c(-c7c(F)cccc7F)c7ccc4[nH]7)C=C6)C=C5)cc3)nn1C)CC2
REMARK SMILES IDX 14 1 13 2 12 3 10 4 11 5 9 6 1 7 2 8 3 9 6 10 4 11 5 12 7 13
REMARK SMILES IDX 76 14 8 15 73 16 75 17 72 18 74 19 15 20 16 21 17 22 18 23
REMARK SMILES IDX 19 24 71 25 20 26 70 27 21 28 22 29 23 30 64 31 24 32 69 33
REMARK SMILES IDX 63 34 65 35 25 36 68 37 62 38 61 39 26 41 52 42 35 43 51 44
REMARK SMILES IDX 36 45 39 46 50 47 66 48 37 49 38 50 49 52 67 53 40 54 27 55
REMARK SMILES IDX 28 56 33 57 29 58 30 59 32 60 34 61 31 62 53 63 54 64 59 65
REMARK SMILES IDX 55 66 56 67 58 68 60 69 57 70 41 71 42 72 47 73 43 74 44 75
REMARK SMILES IDX 46 76 48 77 45 78
REMARK H PARENT 65 40 39 51
REMARK Flexibility Score: inf
ROOT
ATOM      1  C   UNL     1      -8.093  -1.201   0.533  1.00  0.00     0.275 C 
ENDROOT
BRANCH   1   2
ATOM      2  C   UNL     1      -7.595  -1.699  -0.815  1.00  0.00     0.275 C 
BRANCH   2   3
ATOM      3  O   UNL     1      -6.164  -1.619  -0.890  1.00  0.00    -0.457 OA
BRANCH   3   4
ATOM      4  C   UNL     1      -5.641  -0.434  -1.336  1.00  0.00     0.359 C 
ATOM      5  O   UNL     1      -6.320   0.452  -1.852  1.00  0.00    -0.244 OA
BRANCH   4   6
ATOM      6  C   UNL     1      -4.195  -0.320  -1.068  1.00  0.00     0.174 A 
ATOM      7  C   UNL     1       1.353  -0.146   0.036  1.00  0.00     0.071 C 
ATOM      8  C   UNL     1       0.535  -1.368  -0.111  1.00  0.00     0.090 A 
ATOM      9  N   UNL     1       1.143  -2.566  -0.015  1.00  0.00    -0.084 NA
ATOM     10  C   UNL     1      -0.844  -1.527  -0.335  1.00  0.00     0.066 A 
ATOM     11  O   UNL     1       0.152  -3.522  -0.183  1.00  0.00    -0.360 OA
ATOM     12  C   UNL     1      -1.024  -2.889  -0.363  1.00  0.00     0.146 A 
ATOM     13  C   UNL     1      -2.050  -0.709  -0.581  1.00  0.00     0.077 A 
ATOM     14  C   UNL     1      -2.263  -3.658  -0.640  1.00  0.00     0.084 C 
ATOM     15  C   UNL     1      -3.286  -1.335  -0.651  1.00  0.00     0.014 A 
ATOM     16  N   UNL     1      -2.278   0.611  -0.806  1.00  0.00    -0.267 N 
ATOM     17  C   UNL     1      -3.501  -2.789  -0.318  1.00  0.00     0.048 C 
ATOM     18  N   UNL     1      -3.550   0.863  -1.178  1.00  0.00    -0.165 NA
ATOM     19  C   UNL     1      -1.351   1.711  -0.749  1.00  0.00     0.174 C 
ENDBRANCH   4   6
ENDBRANCH   3   4
ENDBRANCH   2   3
ENDBRANCH   1   2
BRANCH   1  20
ATOM     20  O   UNL     1      -7.897   0.204   0.665  1.00  0.00    -0.458 OA
BRANCH  20  21
ATOM     21  C   UNL     1      -6.773   0.570   1.322  1.00  0.00     0.338 C 
ATOM     22  O   UNL     1      -5.794  -0.121   1.549  1.00  0.00    -0.246 OA
BRANCH  21  23
ATOM     23  C   UNL     1      -7.010   1.866   1.964  1.00  0.00     0.060 A 
ATOM     24  C   UNL     1      -5.932   2.487   2.602  1.00  0.00     0.016 A 
ATOM     25  C   UNL     1      -8.333   2.282   2.169  1.00  0.00     0.016 A 
ATOM     26  C   UNL     1      -6.198   3.438   3.566  1.00  0.00     0.010 A 
ATOM     27  C   UNL     1      -8.598   3.200   3.152  1.00  0.00     0.010 A 
ATOM     28  C   UNL     1      -7.531   3.726   3.877  1.00  0.00    -0.014 A 
BRANCH  28  29
ATOM     29  C   UNL     1      -7.813   4.728   4.883  1.00  0.00     0.031 A 
ATOM     30  C   UNL     1      -7.600   6.105   4.383  1.00  0.00     0.074 A 
ATOM     31  C   UNL     1      -8.393   4.420   6.058  1.00  0.00     0.049 A 
ATOM     32  N   UNL     1      -6.736   6.972   4.793  1.00  0.00    -0.248 NA
ATOM     33  C   UNL     1      -8.323   6.510   3.163  1.00  0.00     0.031 C 
ATOM     34  C   UNL     1      -8.924   3.120   6.477  1.00  0.00     0.029 A 
ATOM     35  N   UNL     1      -8.744   5.238   7.087  1.00  0.00    -0.354 N 
ATOM     36  C   UNL     1      -6.977   8.113   4.033  1.00  0.00     0.074 A 
ATOM     37  C   UNL     1      -7.780   7.701   2.917  1.00  0.00     0.031 C 
ATOM     38  C   UNL     1      -9.721   3.292   7.556  1.00  0.00     0.029 A 
ATOM     39  C   UNL     1      -9.667   4.685   7.967  1.00  0.00     0.049 A 
ATOM     40  H   UNL     1      -8.376   6.144   7.199  1.00  0.00     0.167 HD
ATOM     41  C   UNL     1      -6.784   9.347   4.570  1.00  0.00     0.037 A 
ATOM     42  C   UNL     1     -10.387   5.353   8.904  1.00  0.00     0.037 A 
ATOM     43  C   UNL     1      -5.887   9.283   5.700  1.00  0.00     0.049 A 
ATOM     44  C   UNL     1      -9.731   6.667   9.120  1.00  0.00     0.074 A 
ATOM     45  C   UNL     1      -4.605   8.808   5.903  1.00  0.00     0.029 A 
ATOM     46  N   UNL     1      -6.432   9.426   6.952  1.00  0.00    -0.354 N 
ATOM     47  N   UNL     1      -8.577   6.823   9.704  1.00  0.00    -0.248 NA
ATOM     48  C   UNL     1     -10.166   7.784   8.294  1.00  0.00     0.031 C 
ATOM     49  C   UNL     1      -4.616   8.254   7.217  1.00  0.00     0.029 A 
ATOM     50  C   UNL     1      -5.880   8.474   7.764  1.00  0.00     0.049 A 
ATOM     51  H   UNL     1      -7.102  10.096   7.218  1.00  0.00     0.167 HD
ATOM     52  C   UNL     1      -7.949   7.824   8.977  1.00  0.00     0.074 A 
ATOM     53  C   UNL     1      -9.013   8.451   8.197  1.00  0.00     0.031 C 
ATOM     54  C   UNL     1      -6.590   7.849   8.855  1.00  0.00     0.037 A 
BRANCH  41  55
ATOM     55  C   UNL     1      -7.763  10.489   4.381  1.00  0.00     0.057 A 
ATOM     56  C   UNL     1      -7.453  11.734   4.956  1.00  0.00     0.134 A 
ATOM     57  C   UNL     1      -9.105  10.347   3.964  1.00  0.00     0.134 A 
ATOM     58  F   UNL     1      -6.212  12.000   5.391  1.00  0.00    -0.206 F 
ATOM     59  C   UNL     1      -8.426  12.708   5.209  1.00  0.00     0.040 A 
ATOM     60  C   UNL     1     -10.072  11.335   4.163  1.00  0.00     0.040 A 
ATOM     61  F   UNL     1      -9.593   9.222   3.433  1.00  0.00    -0.206 F 
ATOM     62  C   UNL     1      -9.744  12.504   4.826  1.00  0.00     0.006 A 
ENDBRANCH  41  55
BRANCH  42  63
ATOM     63  C   UNL     1     -11.751   5.074   9.415  1.00  0.00     0.057 A 
ATOM     64  C   UNL     1     -12.234   5.712  10.569  1.00  0.00     0.134 A 
ATOM     65  C   UNL     1     -12.711   4.395   8.645  1.00  0.00     0.134 A 
ATOM     66  F   UNL     1     -11.407   6.420  11.353  1.00  0.00    -0.206 F 
ATOM     67  C   UNL     1     -13.591   5.701  10.919  1.00  0.00     0.040 A 
ATOM     68  C   UNL     1     -14.067   4.366   8.989  1.00  0.00     0.040 A 
ATOM     69  F   UNL     1     -12.385   3.812   7.483  1.00  0.00    -0.206 F 
ATOM     70  C   UNL     1     -14.515   5.035  10.120  1.00  0.00     0.006 A 
ENDBRANCH  42  63
BRANCH  54  71
ATOM     71  C   UNL     1      -5.786   6.977   9.777  1.00  0.00     0.057 A 
ATOM     72  C   UNL     1      -5.856   5.576   9.808  1.00  0.00     0.134 A 
ATOM     73  C   UNL     1      -4.809   7.580  10.576  1.00  0.00     0.134 A 
ATOM     74  F   UNL     1      -6.690   4.903   9.005  1.00  0.00    -0.206 F 
ATOM     75  C   UNL     1      -5.024   4.816  10.636  1.00  0.00     0.040 A 
ATOM     76  C   UNL     1      -3.947   6.831  11.379  1.00  0.00     0.040 A 
ATOM     77  F   UNL     1      -4.647   8.913  10.557  1.00  0.00    -0.206 F 
ATOM     78  C   UNL     1      -4.061   5.444  11.421  1.00  0.00     0.006 A 
ENDBRANCH  54  71
ENDBRANCH  28  29
ENDBRANCH  21  23
ENDBRANCH  20  21
ENDBRANCH   1  20
TORSDOF 11
