REMARK SMILES CC[C@H]1SC[C@H](C(=O)OCCOC(=O)c2ccc(-c3c4nc(c(-c5c(F)cccc5F)c5ccc([nH]5)c(-c5c(F)cccc5F)c5nc(c(-c6c(F)cccc6F)c6ccc3[nH]6)C=C5)C=C4)cc2)N1C(=O)N1C[C@@H](C)[C@@H](C)C1
REMARK SMILES IDX 10 1 9 2 7 3 8 4 6 5 3 6 4 7 69 8 5 9 2 10 1 11 70 12 71 13
REMARK SMILES IDX 72 14 73 15 78 16 74 17 76 18 75 19 77 20 11 21 12 22 13 23
REMARK SMILES IDX 14 24 15 25 16 26 68 27 17 28 67 29 18 30 19 31 20 32 61 33
REMARK SMILES IDX 21 34 66 35 60 36 62 37 22 38 65 39 59 40 58 41 23 43 49 44
REMARK SMILES IDX 32 45 48 46 33 47 36 48 47 49 63 50 34 51 35 52 46 54 64 55
REMARK SMILES IDX 37 56 24 57 25 58 30 59 26 60 27 61 29 62 31 63 28 64 50 65
REMARK SMILES IDX 51 66 56 67 52 68 53 69 55 70 57 71 54 72 38 73 39 74 44 75
REMARK SMILES IDX 40 76 41 77 43 78 45 79 42 80
REMARK H PARENT 62 42 36 53
REMARK Flexibility Score: inf
ROOT
ATOM      1  C   UNL     1       5.446   4.852  -1.919  1.00  0.00     0.274 C 
ENDROOT
BRANCH   1   2
ATOM      2  O   UNL     1       4.194   4.160  -1.728  1.00  0.00    -0.461 OA
BRANCH   2   3
ATOM      3  C   UNL     1       3.861   3.910  -0.432  1.00  0.00     0.329 C 
ATOM      4  O   UNL     1       4.472   4.359   0.534  1.00  0.00    -0.250 OA
BRANCH   3   5
ATOM      5  C   UNL     1       2.532   3.163  -0.268  1.00  0.00     0.208 C 
ATOM      6  C   UNL     1       0.789   1.854  -1.330  1.00  0.00     0.145 C 
ATOM      7  S   UNL     1       0.061   3.514  -1.321  1.00  0.00    -0.134 SA
ATOM      8  N   UNL     1       2.219   2.108  -1.236  1.00  0.00    -0.298 N 
ATOM      9  C   UNL     1       1.396   4.196  -0.303  1.00  0.00     0.109 C 
BRANCH   6  10
ATOM     10  C   UNL     1       0.204   1.092  -0.116  1.00  0.00     0.033 C 
ATOM     11  C   UNL     1       0.667  -0.354  -0.004  1.00  0.00     0.007 C 
ENDBRANCH   6  10
BRANCH   8  12
ATOM     12  C   UNL     1       3.140   1.100  -1.400  1.00  0.00     0.321 C 
ATOM     13  O   UNL     1       4.072   0.964  -0.607  1.00  0.00    -0.248 OA
BRANCH  12  14
ATOM     14  N   UNL     1       2.964   0.258  -2.470  1.00  0.00    -0.324 N 
ATOM     15  C   UNL     1       3.640  -1.027  -2.505  1.00  0.00     0.125 C 
ATOM     16  C   UNL     1       2.616   0.704  -3.817  1.00  0.00     0.125 C 
ATOM     17  C   UNL     1       4.002  -1.240  -3.972  1.00  0.00     0.010 C 
ATOM     18  C   UNL     1       2.878  -0.504  -4.726  1.00  0.00     0.010 C 
ATOM     19  C   UNL     1       4.198  -2.707  -4.314  1.00  0.00     0.010 C 
ATOM     20  C   UNL     1       1.606  -1.323  -4.944  1.00  0.00     0.010 C 
ENDBRANCH  12  14
ENDBRANCH   8  12
ENDBRANCH   3   5
ENDBRANCH   2   3
ENDBRANCH   1   2
BRANCH   1  21
ATOM     21  C   UNL     1       5.298   6.379  -1.950  1.00  0.00     0.275 C 
BRANCH  21  22
ATOM     22  O   UNL     1       5.015   6.920  -0.644  1.00  0.00    -0.458 OA
BRANCH  22  23
ATOM     23  C   UNL     1       3.745   7.338  -0.450  1.00  0.00     0.338 C 
ATOM     24  O   UNL     1       2.839   7.358  -1.265  1.00  0.00    -0.246 OA
BRANCH  23  25
ATOM     25  C   UNL     1       3.532   7.688   0.964  1.00  0.00     0.060 A 
ATOM     26  C   UNL     1       2.859   6.772   1.775  1.00  0.00     0.016 A 
ATOM     27  C   UNL     1       3.851   8.954   1.450  1.00  0.00     0.016 A 
ATOM     28  C   UNL     1       2.466   7.118   3.061  1.00  0.00     0.010 A 
ATOM     29  C   UNL     1       3.479   9.297   2.756  1.00  0.00     0.010 A 
ATOM     30  C   UNL     1       2.766   8.388   3.560  1.00  0.00    -0.014 A 
BRANCH  30  31
ATOM     31  C   UNL     1       2.266   8.780   4.898  1.00  0.00     0.031 A 
ATOM     32  C   UNL     1       1.138   9.764   5.008  1.00  0.00     0.074 A 
ATOM     33  C   UNL     1       2.787   8.219   6.005  1.00  0.00     0.049 A 
ATOM     34  N   UNL     1       0.648  10.345   6.071  1.00  0.00    -0.248 NA
ATOM     35  C   UNL     1       0.467  10.137   3.752  1.00  0.00     0.031 C 
ATOM     36  C   UNL     1       3.823   7.186   6.024  1.00  0.00     0.029 A 
ATOM     37  N   UNL     1       2.511   8.442   7.330  1.00  0.00    -0.354 N 
ATOM     38  C   UNL     1      -0.370  11.171   5.614  1.00  0.00     0.074 A 
ATOM     39  C   UNL     1      -0.426  11.021   4.176  1.00  0.00     0.031 C 
ATOM     40  C   UNL     1       4.100   6.868   7.299  1.00  0.00     0.029 A 
ATOM     41  C   UNL     1       3.304   7.714   8.183  1.00  0.00     0.049 A 
ATOM     42  H   UNL     1       1.814   9.064   7.639  1.00  0.00     0.167 HD
ATOM     43  C   UNL     1      -1.183  11.980   6.333  1.00  0.00     0.037 A 
ATOM     44  C   UNL     1       3.404   7.757   9.524  1.00  0.00     0.037 A 
ATOM     45  C   UNL     1      -1.131  12.116   7.764  1.00  0.00     0.049 A 
ATOM     46  C   UNL     1       2.545   8.723  10.292  1.00  0.00     0.074 A 
ATOM     47  C   UNL     1      -1.873  12.949   8.583  1.00  0.00     0.029 A 
ATOM     48  N   UNL     1      -0.294  11.383   8.591  1.00  0.00    -0.354 N 
ATOM     49  N   UNL     1       1.638   9.557   9.846  1.00  0.00    -0.248 NA
ATOM     50  C   UNL     1       2.736   8.765  11.749  1.00  0.00     0.031 C 
ATOM     51  C   UNL     1      -1.472  12.732   9.906  1.00  0.00     0.029 A 
ATOM     52  C   UNL     1      -0.502  11.743   9.911  1.00  0.00     0.049 A 
ATOM     53  H   UNL     1       0.353  10.706   8.285  1.00  0.00     0.167 HD
ATOM     54  C   UNL     1       1.135  10.206  10.966  1.00  0.00     0.074 A 
ATOM     55  C   UNL     1       1.829   9.661  12.114  1.00  0.00     0.031 C 
ATOM     56  C   UNL     1       0.186  11.171  11.038  1.00  0.00     0.037 A 
BRANCH  43  57
ATOM     57  C   UNL     1      -2.182  12.802   5.577  1.00  0.00     0.057 A 
ATOM     58  C   UNL     1      -3.354  12.242   5.058  1.00  0.00     0.134 A 
ATOM     59  C   UNL     1      -1.985  14.177   5.399  1.00  0.00     0.134 A 
ATOM     60  F   UNL     1      -3.592  10.927   5.181  1.00  0.00    -0.206 F 
ATOM     61  C   UNL     1      -4.293  13.019   4.377  1.00  0.00     0.040 A 
ATOM     62  C   UNL     1      -2.924  14.968   4.736  1.00  0.00     0.040 A 
ATOM     63  F   UNL     1      -0.881  14.774   5.874  1.00  0.00    -0.206 F 
ATOM     64  C   UNL     1      -4.082  14.388   4.221  1.00  0.00     0.006 A 
ENDBRANCH  43  57
BRANCH  44  65
ATOM     65  C   UNL     1       4.386   6.896  10.228  1.00  0.00     0.057 A 
ATOM     66  C   UNL     1       3.970   5.841  11.047  1.00  0.00     0.134 A 
ATOM     67  C   UNL     1       5.763   7.128  10.121  1.00  0.00     0.134 A 
ATOM     68  F   UNL     1       2.663   5.587  11.209  1.00  0.00    -0.206 F 
ATOM     69  C   UNL     1       4.887   5.058  11.749  1.00  0.00     0.040 A 
ATOM     70  C   UNL     1       6.692   6.337  10.797  1.00  0.00     0.040 A 
ATOM     71  F   UNL     1       6.224   8.126   9.352  1.00  0.00    -0.206 F 
ATOM     72  C   UNL     1       6.254   5.303  11.621  1.00  0.00     0.006 A 
ENDBRANCH  44  65
BRANCH  56  73
ATOM     73  C   UNL     1      -0.184  11.660  12.404  1.00  0.00     0.057 A 
ATOM     74  C   UNL     1       0.636  12.541  13.117  1.00  0.00     0.134 A 
ATOM     75  C   UNL     1      -1.392  11.270  12.994  1.00  0.00     0.134 A 
ATOM     76  F   UNL     1       1.812  12.939  12.608  1.00  0.00    -0.206 F 
ATOM     77  C   UNL     1       0.274  13.007  14.382  1.00  0.00     0.040 A 
ATOM     78  C   UNL     1      -1.774  11.744  14.250  1.00  0.00     0.040 A 
ATOM     79  F   UNL     1      -2.223  10.431  12.357  1.00  0.00    -0.206 F 
ATOM     80  C   UNL     1      -0.937  12.612  14.948  1.00  0.00     0.006 A 
ENDBRANCH  56  73
ENDBRANCH  30  31
ENDBRANCH  23  25
ENDBRANCH  22  23
ENDBRANCH  21  22
ENDBRANCH   1  21
TORSDOF 14
