REMARK SMILES CC[C@H]1CCCC[C@@H]1C1(C(=O)OCCOC(=O)c2ccc(-c3c4nc(c(-c5c(F)cccc5F)c5ccc([nH]5)c(-c5c(F)cccc5F)c5nc(c(-c6c(F)cccc6F)c6ccc3[nH]6)C=C5)C=C4)cc2)CC1
REMARK SMILES IDX 13 1 12 2 10 3 11 4 9 5 72 6 73 7 8 8 3 9 4 10 5 11 7 12
REMARK SMILES IDX 6 13 2 14 1 15 14 16 15 17 16 18 17 19 18 20 19 21 71 22
REMARK SMILES IDX 20 23 70 24 21 25 22 26 23 27 64 28 24 29 69 30 63 31 65 32
REMARK SMILES IDX 25 33 68 34 62 35 61 36 26 38 52 39 35 40 51 41 36 42 39 43
REMARK SMILES IDX 50 44 66 45 37 46 38 47 49 49 67 50 40 51 27 52 28 53 33 54
REMARK SMILES IDX 29 55 30 56 32 57 34 58 31 59 53 60 54 61 59 62 55 63 56 64
REMARK SMILES IDX 58 65 60 66 57 67 41 68 42 69 47 70 43 71 44 72 46 73 48 74
REMARK SMILES IDX 45 75
REMARK H PARENT 65 37 39 48
REMARK Flexibility Score: inf
ROOT
ATOM      1  C   UNL     1       2.167   6.918  -2.219  1.00  0.00     0.274 C 
ENDROOT
BRANCH   1   2
ATOM      2  O   UNL     1       2.689   5.732  -1.587  1.00  0.00    -0.462 OA
BRANCH   2   3
ATOM      3  C   UNL     1       1.916   5.161  -0.627  1.00  0.00     0.312 C 
ATOM      4  O   UNL     1       0.893   5.628  -0.144  1.00  0.00    -0.252 OA
BRANCH   3   5
ATOM      5  C   UNL     1       2.383   3.759  -0.291  1.00  0.00     0.071 C 
ATOM      6  C   UNL     1       2.490   3.442   1.203  1.00  0.00     0.020 C 
ATOM      7  C   UNL     1       3.735   3.580   0.390  1.00  0.00     0.020 C 
BRANCH   5   8
ATOM      8  C   UNL     1       2.037   2.715  -1.379  1.00  0.00     0.009 C 
ATOM      9  C   UNL     1       1.599   1.287  -0.912  1.00  0.00    -0.007 C 
ATOM     10  C   UNL     1       2.464   0.163  -1.497  1.00  0.00     0.004 C 
ATOM     11  C   UNL     1       2.788   0.352  -2.966  1.00  0.00     0.000 C 
ATOM     12  C   UNL     1       3.073   2.830  -2.533  1.00  0.00     0.005 C 
ATOM     13  C   UNL     1       3.671   1.568  -3.123  1.00  0.00     0.000 C 
BRANCH   9  14
ATOM     14  C   UNL     1       0.058   1.119  -1.109  1.00  0.00     0.000 C 
ATOM     15  C   UNL     1      -0.495  -0.279  -1.350  1.00  0.00     0.004 C 
ENDBRANCH   9  14
ENDBRANCH   5   8
ENDBRANCH   3   5
ENDBRANCH   2   3
ENDBRANCH   1   2
BRANCH   1  16
ATOM     16  C   UNL     1       2.326   6.778  -3.737  1.00  0.00     0.275 C 
BRANCH  16  17
ATOM     17  O   UNL     1       1.469   5.717  -4.200  1.00  0.00    -0.458 OA
BRANCH  17  18
ATOM     18  C   UNL     1       1.760   5.199  -5.424  1.00  0.00     0.338 C 
ATOM     19  O   UNL     1       2.591   5.629  -6.206  1.00  0.00    -0.246 OA
BRANCH  18  20
ATOM     20  C   UNL     1       0.971   3.952  -5.653  1.00  0.00     0.060 A 
ATOM     21  C   UNL     1       0.321   3.329  -4.592  1.00  0.00     0.016 A 
ATOM     22  C   UNL     1       0.963   3.321  -6.903  1.00  0.00     0.016 A 
ATOM     23  C   UNL     1      -0.205   2.052  -4.746  1.00  0.00     0.010 A 
ATOM     24  C   UNL     1       0.303   2.086  -7.078  1.00  0.00     0.010 A 
ATOM     25  C   UNL     1      -0.279   1.420  -5.988  1.00  0.00    -0.014 A 
BRANCH  25  26
ATOM     26  C   UNL     1      -0.956   0.087  -6.086  1.00  0.00     0.031 A 
ATOM     27  C   UNL     1      -0.256  -1.095  -6.704  1.00  0.00     0.074 A 
ATOM     28  C   UNL     1      -2.178  -0.114  -5.543  1.00  0.00     0.049 A 
ATOM     29  N   UNL     1      -0.752  -2.249  -7.078  1.00  0.00    -0.248 NA
ATOM     30  C   UNL     1       1.192  -0.967  -6.919  1.00  0.00     0.031 C 
ATOM     31  C   UNL     1      -2.950   0.875  -4.785  1.00  0.00     0.029 A 
ATOM     32  N   UNL     1      -2.982  -1.232  -5.518  1.00  0.00    -0.354 N 
ATOM     33  C   UNL     1       0.303  -2.953  -7.645  1.00  0.00     0.074 A 
ATOM     34  C   UNL     1       1.475  -2.109  -7.533  1.00  0.00     0.031 C 
ATOM     35  C   UNL     1      -4.063   0.304  -4.308  1.00  0.00     0.029 A 
ATOM     36  C   UNL     1      -4.177  -1.035  -4.867  1.00  0.00     0.049 A 
ATOM     37  H   UNL     1      -2.725  -2.090  -5.927  1.00  0.00     0.167 HD
ATOM     38  C   UNL     1       0.284  -4.176  -8.230  1.00  0.00     0.037 A 
ATOM     39  C   UNL     1      -5.287  -1.795  -4.793  1.00  0.00     0.037 A 
ATOM     40  C   UNL     1      -0.879  -5.028  -8.299  1.00  0.00     0.049 A 
ATOM     41  C   UNL     1      -5.329  -3.094  -5.542  1.00  0.00     0.074 A 
ATOM     42  C   UNL     1      -1.014  -6.260  -8.917  1.00  0.00     0.029 A 
ATOM     43  N   UNL     1      -2.105  -4.741  -7.716  1.00  0.00    -0.354 N 
ATOM     44  N   UNL     1      -4.376  -3.691  -6.214  1.00  0.00    -0.248 NA
ATOM     45  C   UNL     1      -6.616  -3.804  -5.562  1.00  0.00     0.031 C 
ATOM     46  C   UNL     1      -2.337  -6.691  -8.756  1.00  0.00     0.029 A 
ATOM     47  C   UNL     1      -3.009  -5.758  -7.984  1.00  0.00     0.049 A 
ATOM     48  H   UNL     1      -2.304  -3.934  -7.189  1.00  0.00     0.167 HD
ATOM     49  C   UNL     1      -4.943  -4.847  -6.732  1.00  0.00     0.074 A 
ATOM     50  C   UNL     1      -6.317  -4.881  -6.274  1.00  0.00     0.031 C 
ATOM     51  C   UNL     1      -4.376  -5.788  -7.525  1.00  0.00     0.037 A 
BRANCH  38  52
ATOM     52  C   UNL     1       1.533  -4.616  -8.941  1.00  0.00     0.057 A 
ATOM     53  C   UNL     1       2.699  -4.999  -8.268  1.00  0.00     0.134 A 
ATOM     54  C   UNL     1       1.561  -4.645 -10.343  1.00  0.00     0.134 A 
ATOM     55  F   UNL     1       2.748  -4.982  -6.927  1.00  0.00    -0.206 F 
ATOM     56  C   UNL     1       3.859  -5.356  -8.963  1.00  0.00     0.040 A 
ATOM     57  C   UNL     1       2.703  -5.027 -11.048  1.00  0.00     0.040 A 
ATOM     58  F   UNL     1       0.476  -4.300 -11.053  1.00  0.00    -0.206 F 
ATOM     59  C   UNL     1       3.861  -5.373 -10.357  1.00  0.00     0.006 A 
ENDBRANCH  38  52
BRANCH  39  60
ATOM     60  C   UNL     1      -6.488  -1.290  -4.075  1.00  0.00     0.057 A 
ATOM     61  C   UNL     1      -6.976  -1.930  -2.931  1.00  0.00     0.134 A 
ATOM     62  C   UNL     1      -7.179  -0.151  -4.516  1.00  0.00     0.134 A 
ATOM     63  F   UNL     1      -6.382  -3.043  -2.475  1.00  0.00    -0.206 F 
ATOM     64  C   UNL     1      -8.104  -1.459  -2.254  1.00  0.00     0.040 A 
ATOM     65  C   UNL     1      -8.283   0.352  -3.829  1.00  0.00     0.040 A 
ATOM     66  F   UNL     1      -6.770   0.508  -5.611  1.00  0.00    -0.206 F 
ATOM     67  C   UNL     1      -8.752  -0.307  -2.696  1.00  0.00     0.006 A 
ENDBRANCH  39  60
BRANCH  51  68
ATOM     68  C   UNL     1      -5.231  -6.957  -7.921  1.00  0.00     0.057 A 
ATOM     69  C   UNL     1      -6.280  -6.832  -8.841  1.00  0.00     0.134 A 
ATOM     70  C   UNL     1      -4.982  -8.231  -7.395  1.00  0.00     0.134 A 
ATOM     71  F   UNL     1      -6.583  -5.636  -9.368  1.00  0.00    -0.206 F 
ATOM     72  C   UNL     1      -7.062  -7.928  -9.209  1.00  0.00     0.040 A 
ATOM     73  C   UNL     1      -5.739  -9.340  -7.777  1.00  0.00     0.040 A 
ATOM     74  F   UNL     1      -3.990  -8.422  -6.512  1.00  0.00    -0.206 F 
ATOM     75  C   UNL     1      -6.786  -9.188  -8.682  1.00  0.00     0.006 A 
ENDBRANCH  51  68
ENDBRANCH  25  26
ENDBRANCH  18  20
ENDBRANCH  17  18
ENDBRANCH  16  17
ENDBRANCH   1  16
TORSDOF 13
