REMARK SMILES Cc1cc(/C=C2\C(=O)N(Cc3ccco3)C(=O)N=C2OCCOC(=O)c2ccc(-c3c4nc(c(-c5c(F)cccc5F)c5ccc([nH]5)c(-c5c(F)cccc5F)c5nc(c(-c6c(F)cccc6F)c6ccc3[nH]6)C=C5)C=C4)cc2)c(C)n1-c1ccc(Cl)c(C(=O)[O-])c1
REMARK SMILES IDX 21 1 20 2 19 3 5 4 6 5 7 6 8 7 9 8 18 9 16 10 17 11 4 12
REMARK SMILES IDX 1 13 2 14 3 15 82 16 80 17 81 18 83 19 84 20 92 21 85 22
REMARK SMILES IDX 88 23 86 24 87 25 89 26 90 27 91 28 10 29 11 30 12 31 15 32
REMARK SMILES IDX 13 33 14 34 22 35 23 36 24 37 25 38 26 39 27 40 79 41 28 42
REMARK SMILES IDX 78 43 29 44 30 45 31 46 72 47 32 48 77 49 71 50 73 51 33 52
REMARK SMILES IDX 76 53 70 54 69 55 34 57 60 58 43 59 59 60 44 61 47 62 58 63
REMARK SMILES IDX 74 64 45 65 46 66 57 68 75 69 48 70 35 71 36 72 41 73 37 74
REMARK SMILES IDX 38 75 40 76 42 77 39 78 61 79 62 80 67 81 63 82 64 83 66 84
REMARK SMILES IDX 68 85 65 86 49 87 50 88 55 89 51 90 52 91 54 92 56 93 53 94
REMARK H PARENT 73 56 47 67
REMARK Flexibility Score: inf
ROOT
ATOM      1  C   UNL     1       0.743  -9.667   1.036  1.00  0.00     0.273 C 
ENDROOT
BRANCH   1   2
ATOM      2  O   UNL     1       0.820  -8.210   0.688  1.00  0.00    -0.473 OA
BRANCH   2   3
ATOM      3  C   UNL     1      -0.328  -7.727   0.171  1.00  0.00     0.231 C 
ATOM      4  C   UNL     1       0.294  -5.220   0.207  1.00  0.00     0.029 C 
ATOM      5  C   UNL     1      -0.522  -6.267  -0.091  1.00  0.00     0.103 C 
ATOM      6  C   UNL     1      -1.857  -6.058  -0.740  1.00  0.00     0.267 C 
ATOM      7  O   UNL     1      -2.044  -5.255  -1.644  1.00  0.00    -0.268 OA
ATOM      8  N   UNL     1      -2.815  -6.904  -0.221  1.00  0.00    -0.250 N 
ATOM      9  N   UNL     1      -1.250  -8.607   0.014  1.00  0.00    -0.156 NA
ATOM     10  C   UNL     1      -2.531  -8.214   0.054  1.00  0.00     0.354 C 
ATOM     11  O   UNL     1      -3.382  -9.030   0.415  1.00  0.00    -0.245 OA
BRANCH   4  12
ATOM     12  C   UNL     1       0.069  -3.763   0.161  1.00  0.00    -0.003 A 
ATOM     13  C   UNL     1       1.123  -0.143  -0.055  1.00  0.00     0.065 C 
ATOM     14  C   UNL     1       0.492  -1.499   0.022  1.00  0.00     0.020 A 
ATOM     15  C   UNL     1       1.073  -2.761  -0.051  1.00  0.00     0.031 A 
ATOM     16  N   UNL     1      -0.854  -1.678   0.281  1.00  0.00    -0.318 N 
ATOM     17  C   UNL     1      -1.100  -3.047   0.428  1.00  0.00     0.027 A 
ATOM     18  C   UNL     1      -2.475  -3.537   0.703  1.00  0.00     0.065 C 
BRANCH  16  19
ATOM     19  C   UNL     1      -1.853  -0.654   0.343  1.00  0.00     0.046 A 
ATOM     20  C   UNL     1      -2.674  -0.559   1.468  1.00  0.00     0.028 A 
ATOM     21  C   UNL     1      -2.136   0.116  -0.793  1.00  0.00     0.038 A 
ATOM     22  C   UNL     1      -3.846   0.196   1.414  1.00  0.00     0.023 A 
ATOM     23  C   UNL     1      -3.311   0.902  -0.849  1.00  0.00     0.018 A 
ATOM     24  C   UNL     1      -4.183   0.905   0.254  1.00  0.00     0.050 A 
ATOM     25  Cl  UNL     1      -5.714   1.708   0.289  1.00  0.00    -0.084 Cl
BRANCH  23  26
ATOM     26  C   UNL     1      -3.631   1.666  -2.090  1.00  0.00     0.073 C 
ATOM     27  O   UNL     1      -4.617   2.331  -2.336  1.00  0.00    -0.545 OA
ATOM     28  O   UNL     1      -2.652   1.575  -3.011  1.00  0.00    -0.545 OA
ENDBRANCH  23  26
ENDBRANCH  16  19
ENDBRANCH   4  12
BRANCH   8  29
ATOM     29  C   UNL     1      -4.164  -6.460   0.033  1.00  0.00     0.206 C 
BRANCH  29  30
ATOM     30  C   UNL     1      -5.100  -6.951  -0.996  1.00  0.00     0.123 A 
ATOM     31  C   UNL     1      -5.631  -8.190  -1.286  1.00  0.00     0.047 A 
ATOM     32  O   UNL     1      -5.596  -6.015  -1.847  1.00  0.00    -0.467 OA
ATOM     33  C   UNL     1      -6.466  -8.007  -2.406  1.00  0.00     0.042 A 
ATOM     34  C   UNL     1      -6.422  -6.666  -2.701  1.00  0.00     0.195 A 
ENDBRANCH  29  30
ENDBRANCH   8  29
ENDBRANCH   2   3
ENDBRANCH   1   2
BRANCH   1  35
ATOM     35  C   UNL     1      -0.035 -10.018   2.393  1.00  0.00     0.274 C 
BRANCH  35  36
ATOM     36  O   UNL     1      -1.324 -10.825   2.443  1.00  0.00    -0.458 OA
BRANCH  36  37
ATOM     37  C   UNL     1      -2.330 -10.434   3.342  1.00  0.00     0.338 C 
ATOM     38  O   UNL     1      -2.342  -9.301   3.818  1.00  0.00    -0.246 OA
BRANCH  37  39
ATOM     39  C   UNL     1      -3.458 -11.468   3.816  1.00  0.00     0.060 A 
ATOM     40  C   UNL     1      -4.751 -11.438   3.295  1.00  0.00     0.016 A 
ATOM     41  C   UNL     1      -3.418 -12.232   5.017  1.00  0.00     0.016 A 
ATOM     42  C   UNL     1      -5.879 -12.207   3.878  1.00  0.00     0.010 A 
ATOM     43  C   UNL     1      -4.591 -12.980   5.640  1.00  0.00     0.010 A 
ATOM     44  C   UNL     1      -5.889 -13.024   5.087  1.00  0.00    -0.014 A 
BRANCH  44  45
ATOM     45  C   UNL     1      -7.412 -13.425   5.806  1.00  0.00     0.031 A 
ATOM     46  C   UNL     1      -8.144 -12.151   5.551  1.00  0.00     0.074 A 
ATOM     47  C   UNL     1      -8.195 -14.338   6.596  1.00  0.00     0.049 A 
ATOM     48  N   UNL     1      -7.627 -11.031   5.980  1.00  0.00    -0.248 NA
ATOM     49  C   UNL     1      -9.176 -11.986   4.526  1.00  0.00     0.031 C 
ATOM     50  C   UNL     1      -7.766 -15.599   7.251  1.00  0.00     0.029 A 
ATOM     51  N   UNL     1      -9.608 -14.377   7.043  1.00  0.00    -0.354 N 
ATOM     52  C   UNL     1      -8.499 -10.049   5.600  1.00  0.00     0.074 A 
ATOM     53  C   UNL     1      -9.241 -10.648   4.498  1.00  0.00     0.031 C 
ATOM     54  C   UNL     1      -8.800 -16.305   7.818  1.00  0.00     0.029 A 
ATOM     55  C   UNL     1     -10.091 -15.613   7.706  1.00  0.00     0.049 A 
ATOM     56  H   UNL     1     -10.207 -13.608   6.903  1.00  0.00     0.167 HD
ATOM     57  C   UNL     1      -8.967  -9.286   6.632  1.00  0.00     0.037 A 
ATOM     58  C   UNL     1     -11.351 -16.030   8.222  1.00  0.00     0.037 A 
ATOM     59  C   UNL     1     -10.312  -9.630   7.003  1.00  0.00     0.049 A 
ATOM     60  C   UNL     1     -12.087 -14.810   8.561  1.00  0.00     0.074 A 
ATOM     61  C   UNL     1     -11.424 -10.029   6.286  1.00  0.00     0.029 A 
ATOM     62  N   UNL     1     -10.512 -10.046   8.298  1.00  0.00    -0.354 N 
ATOM     63  N   UNL     1     -11.839 -14.163   9.657  1.00  0.00    -0.248 NA
ATOM     64  C   UNL     1     -13.239 -14.339   7.800  1.00  0.00     0.031 C 
ATOM     65  C   UNL     1     -11.923 -11.131   7.009  1.00  0.00     0.029 A 
ATOM     66  C   UNL     1     -11.412 -11.083   8.297  1.00  0.00     0.049 A 
ATOM     67  H   UNL     1     -10.081  -9.664   9.096  1.00  0.00     0.167 HD
ATOM     68  C   UNL     1     -12.375 -12.946   9.402  1.00  0.00     0.074 A 
ATOM     69  C   UNL     1     -13.433 -13.180   8.434  1.00  0.00     0.031 C 
ATOM     70  C   UNL     1     -11.481 -11.932   9.453  1.00  0.00     0.037 A 
BRANCH  57  71
ATOM     71  C   UNL     1      -7.901  -8.907   7.632  1.00  0.00     0.057 A 
ATOM     72  C   UNL     1      -7.449  -7.591   7.696  1.00  0.00     0.134 A 
ATOM     73  C   UNL     1      -7.231  -9.850   8.443  1.00  0.00     0.134 A 
ATOM     74  F   UNL     1      -8.081  -6.624   7.012  1.00  0.00    -0.206 F 
ATOM     75  C   UNL     1      -6.335  -7.240   8.465  1.00  0.00     0.040 A 
ATOM     76  C   UNL     1      -6.080  -9.528   9.157  1.00  0.00     0.040 A 
ATOM     77  F   UNL     1      -7.684 -11.110   8.556  1.00  0.00    -0.206 F 
ATOM     78  C   UNL     1      -5.622  -8.217   9.162  1.00  0.00     0.006 A 
ENDBRANCH  57  71
BRANCH  58  79
ATOM     79  C   UNL     1     -12.266 -17.228   8.803  1.00  0.00     0.057 A 
ATOM     80  C   UNL     1     -13.289 -17.006   9.811  1.00  0.00     0.134 A 
ATOM     81  C   UNL     1     -12.488 -18.430   8.117  1.00  0.00     0.134 A 
ATOM     82  F   UNL     1     -13.262 -15.941  10.624  1.00  0.00    -0.206 F 
ATOM     83  C   UNL     1     -14.436 -17.816  10.020  1.00  0.00     0.040 A 
ATOM     84  C   UNL     1     -13.627 -19.275   8.347  1.00  0.00     0.040 A 
ATOM     85  F   UNL     1     -11.660 -18.803   7.135  1.00  0.00    -0.206 F 
ATOM     86  C   UNL     1     -14.623 -18.954   9.269  1.00  0.00     0.006 A 
ENDBRANCH  58  79
BRANCH  70  87
ATOM     87  C   UNL     1     -10.488 -11.942  10.598  1.00  0.00     0.057 A 
ATOM     88  C   UNL     1      -9.602 -12.983  10.954  1.00  0.00     0.134 A 
ATOM     89  C   UNL     1     -10.474 -10.821  11.435  1.00  0.00     0.134 A 
ATOM     90  F   UNL     1      -9.441 -14.081  10.204  1.00  0.00    -0.206 F 
ATOM     91  C   UNL     1      -8.809 -12.927  12.109  1.00  0.00     0.040 A 
ATOM     92  C   UNL     1      -9.651 -10.734  12.562  1.00  0.00     0.040 A 
ATOM     93  F   UNL     1     -11.253  -9.766  11.152  1.00  0.00    -0.206 F 
ATOM     94  C   UNL     1      -8.830 -11.798  12.915  1.00  0.00     0.006 A 
ENDBRANCH  70  87
ENDBRANCH  44  45
ENDBRANCH  37  39
ENDBRANCH  36  37
ENDBRANCH  35  36
ENDBRANCH   1  35
TORSDOF 15
