REMARK SMILES CCc1cc(=O)oc2c3c(cc(OCC(=O)NCC(=O)OCCOC(=O)c4ccc(-c5c6nc(c(-c7c(F)cccc7F)c7ccc([nH]7)c(-c7c(F)cccc7F)c7nc(c(-c8c(F)cccc8F)c8ccc5[nH]8)C=C7)C=C6)cc4)c12)OC(C)(C)CC3
REMARK SMILES IDX 21 1 19 2 20 3 18 4 17 5 15 6 16 7 14 9 13 10 12 11 3 12
REMARK SMILES IDX 4 13 81 14 5 15 8 16 6 17 7 18 9 19 11 20 10 21 87 22 82 23
REMARK SMILES IDX 86 24 83 25 84 26 85 27 2 28 1 29 22 30 23 31 24 32 25 33
REMARK SMILES IDX 26 34 27 35 28 36 80 37 29 38 79 39 30 40 31 41 32 42 73 43
REMARK SMILES IDX 33 44 78 45 72 46 74 47 34 48 77 49 71 50 70 51 35 53 61 54
REMARK SMILES IDX 44 55 60 56 45 57 48 58 59 59 75 60 46 61 47 62 58 64 76 65
REMARK SMILES IDX 49 66 36 67 37 68 42 69 38 70 39 71 41 72 43 73 40 74 62 75
REMARK SMILES IDX 63 76 68 77 64 78 65 79 67 80 69 81 66 82 50 83 51 84 56 85
REMARK SMILES IDX 52 86 53 87 55 88 57 89 54 90
REMARK H PARENT 17 8 74 52 48 63
REMARK Flexibility Score: inf
ROOT
ATOM      1  O   UNL     1      -2.532   1.469   1.760  1.00  0.00    -0.461 OA
ENDROOT
BRANCH   1   2
ATOM      2  C   UNL     1      -2.560   0.355   0.983  1.00  0.00     0.325 C 
ATOM      3  O   UNL     1      -2.621  -0.795   1.405  1.00  0.00    -0.250 OA
BRANCH   2   4
ATOM      4  C   UNL     1      -2.474   0.670  -0.510  1.00  0.00     0.238 C 
BRANCH   4   5
ATOM      5  N   UNL     1      -2.678   2.058  -0.879  1.00  0.00    -0.342 N 
ATOM      6  C   UNL     1      -1.776   2.906  -1.450  1.00  0.00     0.258 C 
ATOM      7  O   UNL     1      -2.137   4.027  -1.809  1.00  0.00    -0.271 OA
ATOM      8  H   UNL     1      -3.570   2.432  -0.696  1.00  0.00     0.164 HD
BRANCH   6   9
ATOM      9  C   UNL     1      -0.334   2.421  -1.657  1.00  0.00     0.329 C 
BRANCH   9  10
ATOM     10  O   UNL     1       0.321   1.933  -0.489  1.00  0.00    -0.483 OA
BRANCH  10  11
ATOM     11  C   UNL     1       0.550   2.795   0.554  1.00  0.00     0.135 A 
ATOM     12  C   UNL     1       1.198   0.818   2.105  1.00  0.00    -0.026 A 
ATOM     13  C   UNL     1       1.582   0.476   3.346  1.00  0.00     0.098 A 
ATOM     14  C   UNL     1       0.971   2.257   1.794  1.00  0.00     0.063 A 
ATOM     15  C   UNL     1       1.811   1.430   4.431  1.00  0.00     0.336 A 
ATOM     16  C   UNL     1       1.179   3.180   2.842  1.00  0.00     0.149 A 
ATOM     17  O   UNL     1       2.160   1.054   5.543  1.00  0.00    -0.246 OA
ATOM     18  O   UNL     1       1.590   2.754   4.129  1.00  0.00    -0.422 OA
ATOM     19  C   UNL     1       0.992   4.569   2.711  1.00  0.00     0.038 A 
ATOM     20  C   UNL     1       0.375   4.182   0.416  1.00  0.00     0.094 A 
ATOM     21  C   UNL     1       0.561   5.052   1.485  1.00  0.00     0.130 A 
ATOM     22  C   UNL     1       1.210   5.508   3.862  1.00  0.00     0.047 C 
ATOM     23  O   UNL     1       0.303   6.366   1.217  1.00  0.00    -0.487 OA
ATOM     24  C   UNL     1       1.286   6.952   3.380  1.00  0.00     0.053 C 
ATOM     25  C   UNL     1       0.195   7.251   2.344  1.00  0.00     0.104 C 
ATOM     26  C   UNL     1       0.407   8.663   1.779  1.00  0.00     0.056 C 
ATOM     27  C   UNL     1      -1.225   7.167   2.925  1.00  0.00     0.056 C 
BRANCH  12  28
ATOM     28  C   UNL     1       0.959  -0.299   1.116  1.00  0.00     0.033 C 
ATOM     29  C   UNL     1       2.098  -0.520   0.132  1.00  0.00     0.009 C 
ENDBRANCH  12  28
ENDBRANCH  10  11
ENDBRANCH   9  10
ENDBRANCH   6   9
ENDBRANCH   4   5
ENDBRANCH   2   4
ENDBRANCH   1   2
BRANCH   1  30
ATOM     30  C   UNL     1      -2.748   1.285   3.171  1.00  0.00     0.274 C 
BRANCH  30  31
ATOM     31  C   UNL     1      -4.133   1.801   3.574  1.00  0.00     0.275 C 
BRANCH  31  32
ATOM     32  O   UNL     1      -5.189   0.995   3.014  1.00  0.00    -0.458 OA
BRANCH  32  33
ATOM     33  C   UNL     1      -5.577   1.345   1.767  1.00  0.00     0.338 C 
ATOM     34  O   UNL     1      -5.152   2.259   1.079  1.00  0.00    -0.246 OA
BRANCH  33  35
ATOM     35  C   UNL     1      -6.503   0.339   1.231  1.00  0.00     0.060 A 
ATOM     36  C   UNL     1      -6.092  -0.366   0.099  1.00  0.00     0.016 A 
ATOM     37  C   UNL     1      -7.787   0.169   1.746  1.00  0.00     0.016 A 
ATOM     38  C   UNL     1      -6.966  -1.220  -0.555  1.00  0.00     0.010 A 
ATOM     39  C   UNL     1      -8.666  -0.702   1.095  1.00  0.00     0.010 A 
ATOM     40  C   UNL     1      -8.265  -1.383  -0.069  1.00  0.00    -0.014 A 
BRANCH  40  41
ATOM     41  C   UNL     1      -9.221  -2.207  -0.839  1.00  0.00     0.031 A 
ATOM     42  C   UNL     1     -10.312  -1.534  -1.616  1.00  0.00     0.074 A 
ATOM     43  C   UNL     1      -9.072  -3.543  -0.883  1.00  0.00     0.049 A 
ATOM     44  N   UNL     1     -11.328  -2.065  -2.244  1.00  0.00    -0.248 NA
ATOM     45  C   UNL     1     -10.250  -0.066  -1.699  1.00  0.00     0.031 C 
ATOM     46  C   UNL     1      -7.993  -4.296  -0.243  1.00  0.00     0.029 A 
ATOM     47  N   UNL     1      -9.832  -4.503  -1.498  1.00  0.00    -0.354 N 
ATOM     48  C   UNL     1     -12.044  -0.998  -2.769  1.00  0.00     0.074 A 
ATOM     49  C   UNL     1     -11.350   0.212  -2.385  1.00  0.00     0.031 C 
ATOM     50  C   UNL     1      -8.160  -5.603  -0.500  1.00  0.00     0.029 A 
ATOM     51  C   UNL     1      -9.388  -5.781  -1.269  1.00  0.00     0.049 A 
ATOM     52  H   UNL     1     -10.621  -4.295  -2.051  1.00  0.00     0.167 HD
ATOM     53  C   UNL     1     -13.181  -1.031  -3.502  1.00  0.00     0.037 A 
ATOM     54  C   UNL     1      -9.936  -6.962  -1.609  1.00  0.00     0.037 A 
ATOM     55  C   UNL     1     -13.851  -2.242  -3.894  1.00  0.00     0.049 A 
ATOM     56  C   UNL     1     -11.237  -6.972  -2.359  1.00  0.00     0.074 A 
ATOM     57  C   UNL     1     -15.026  -2.389  -4.609  1.00  0.00     0.029 A 
ATOM     58  N   UNL     1     -13.392  -3.519  -3.610  1.00  0.00    -0.354 N 
ATOM     59  N   UNL     1     -11.948  -5.959  -2.793  1.00  0.00    -0.248 NA
ATOM     60  C   UNL     1     -11.823  -8.287  -2.652  1.00  0.00     0.031 C 
ATOM     61  C   UNL     1     -15.291  -3.757  -4.737  1.00  0.00     0.029 A 
ATOM     62  C   UNL     1     -14.262  -4.461  -4.131  1.00  0.00     0.049 A 
ATOM     63  H   UNL     1     -12.568  -3.726  -3.112  1.00  0.00     0.167 HD
ATOM     64  C   UNL     1     -13.052  -6.512  -3.426  1.00  0.00     0.074 A 
ATOM     65  C   UNL     1     -12.912  -7.951  -3.328  1.00  0.00     0.031 C 
ATOM     66  C   UNL     1     -14.090  -5.887  -4.032  1.00  0.00     0.037 A 
BRANCH  53  67
ATOM     67  C   UNL     1     -13.787   0.283  -3.890  1.00  0.00     0.057 A 
ATOM     68  C   UNL     1     -13.242   1.080  -4.903  1.00  0.00     0.134 A 
ATOM     69  C   UNL     1     -14.943   0.749  -3.250  1.00  0.00     0.134 A 
ATOM     70  F   UNL     1     -12.124   0.699  -5.540  1.00  0.00    -0.206 F 
ATOM     71  C   UNL     1     -13.815   2.304  -5.256  1.00  0.00     0.040 A 
ATOM     72  C   UNL     1     -15.537   1.960  -3.607  1.00  0.00     0.040 A 
ATOM     73  F   UNL     1     -15.514   0.032  -2.270  1.00  0.00    -0.206 F 
ATOM     74  C   UNL     1     -14.970   2.743  -4.610  1.00  0.00     0.006 A 
ENDBRANCH  53  67
BRANCH  54  75
ATOM     75  C   UNL     1      -9.277  -8.229  -1.207  1.00  0.00     0.057 A 
ATOM     76  C   UNL     1      -8.681  -9.067  -2.155  1.00  0.00     0.134 A 
ATOM     77  C   UNL     1      -9.231  -8.633   0.133  1.00  0.00     0.134 A 
ATOM     78  F   UNL     1      -8.712  -8.743  -3.457  1.00  0.00    -0.206 F 
ATOM     79  C   UNL     1      -8.072 -10.268  -1.788  1.00  0.00     0.040 A 
ATOM     80  C   UNL     1      -8.606  -9.819   0.517  1.00  0.00     0.040 A 
ATOM     81  F   UNL     1      -9.784  -7.872   1.089  1.00  0.00    -0.206 F 
ATOM     82  C   UNL     1      -8.029 -10.643  -0.446  1.00  0.00     0.006 A 
ENDBRANCH  54  75
BRANCH  66  83
ATOM     83  C   UNL     1     -15.129  -6.757  -4.669  1.00  0.00     0.057 A 
ATOM     84  C   UNL     1     -16.096  -7.425  -3.908  1.00  0.00     0.134 A 
ATOM     85  C   UNL     1     -15.184  -6.895  -6.061  1.00  0.00     0.134 A 
ATOM     86  F   UNL     1     -16.084  -7.342  -2.569  1.00  0.00    -0.206 F 
ATOM     87  C   UNL     1     -17.076  -8.214  -4.512  1.00  0.00     0.040 A 
ATOM     88  C   UNL     1     -16.170  -7.665  -6.677  1.00  0.00     0.040 A 
ATOM     89  F   UNL     1     -14.288  -6.274  -6.843  1.00  0.00    -0.206 F 
ATOM     90  C   UNL     1     -17.118  -8.330  -5.901  1.00  0.00     0.006 A 
ENDBRANCH  66  83
ENDBRANCH  40  41
ENDBRANCH  33  35
ENDBRANCH  32  33
ENDBRANCH  31  32
ENDBRANCH  30  31
ENDBRANCH   1  30
TORSDOF 16
