REMARK SMILES CC1(C)[C@H](C(=O)Nc2ccc(C(=O)Nc3cccnc3)c(Cl)c2)[C@H]1C(=O)OCCOC(=O)c1ccc(-c2c3nc(c(-c4c(F)cccc4F)c4ccc([nH]4)c(-c4c(F)cccc4F)c4nc(c(-c5c(F)cccc5F)c5ccc2[nH]5)C=C4)C=C3)cc1
REMARK SMILES IDX 28 1 27 2 25 3 26 4 24 5 1 6 2 7 3 8 4 9 5 10 6 11 7 12 8 14
REMARK SMILES IDX 9 15 23 16 10 17 21 18 11 19 22 20 12 21 13 22 14 23 15 25
REMARK SMILES IDX 16 26 20 27 17 28 19 29 18 30 29 31 30 32 31 33 32 34 33 35
REMARK SMILES IDX 34 36 86 37 35 38 85 39 36 40 37 41 38 42 79 43 39 44 84 45
REMARK SMILES IDX 78 46 80 47 40 48 83 49 77 50 76 51 41 53 67 54 50 55 66 56
REMARK SMILES IDX 51 57 54 58 65 59 81 60 52 61 53 62 64 64 82 65 55 66 42 67
REMARK SMILES IDX 43 68 48 69 44 70 45 71 47 72 49 73 46 74 68 75 69 76 74 77
REMARK SMILES IDX 70 78 71 79 73 80 75 81 72 82 56 83 57 84 62 85 58 86 59 87
REMARK SMILES IDX 61 88 63 89 60 90
REMARK H PARENT 7 13 14 24 80 52 54 63
REMARK Flexibility Score: inf
ROOT
ATOM      1  C   UNL     1      -2.113  -3.135   2.535  1.00  0.00     0.274 C 
ENDROOT
BRANCH   1   2
ATOM      2  O   UNL     1      -1.380  -2.288   1.635  1.00  0.00    -0.462 OA
BRANCH   2   3
ATOM      3  C   UNL     1      -2.024  -1.213   1.111  1.00  0.00     0.310 C 
ATOM      4  O   UNL     1      -3.196  -0.935   1.248  1.00  0.00    -0.252 OA
BRANCH   3   5
ATOM      5  C   UNL     1      -1.094  -0.294   0.403  1.00  0.00     0.118 C 
ATOM      6  C   UNL     1       0.594  -2.225  -0.446  1.00  0.00     0.013 C 
ATOM      7  C   UNL     1       0.231  -0.771  -0.219  1.00  0.00    -0.009 C 
ATOM      8  C   UNL     1       1.430  -0.024   0.310  1.00  0.00     0.013 C 
ATOM      9  C   UNL     1      -0.960  -0.301  -1.078  1.00  0.00     0.100 C 
BRANCH   9  10
ATOM     10  C   UNL     1      -1.062   0.826  -2.058  1.00  0.00     0.228 C 
ATOM     11  O   UNL     1      -1.066   0.512  -3.249  1.00  0.00    -0.274 OA
ATOM     12  N   UNL     1      -1.480   2.106  -1.745  1.00  0.00    -0.326 N 
ATOM     13  H   UNL     1      -2.328   2.384  -2.161  1.00  0.00     0.169 HD
BRANCH  12  14
ATOM     14  C   UNL     1      -0.876   3.067  -0.922  1.00  0.00     0.042 A 
ATOM     15  C   UNL     1       0.348   2.847  -0.336  1.00  0.00     0.027 A 
ATOM     16  C   UNL     1      -1.413   4.345  -0.800  1.00  0.00     0.047 A 
ATOM     17  C   UNL     1       0.820   3.674   0.678  1.00  0.00     0.017 A 
ATOM     18  C   UNL     1      -0.812   5.280   0.065  1.00  0.00     0.055 A 
ATOM     19  C   UNL     1       0.155   4.862   0.981  1.00  0.00     0.058 A 
ATOM     20  Cl  UNL     1      -1.174   6.949  -0.215  1.00  0.00    -0.083 Cl
BRANCH  19  21
ATOM     21  C   UNL     1       0.591   5.538   2.235  1.00  0.00     0.257 C 
ATOM     22  O   UNL     1       1.755   5.364   2.605  1.00  0.00    -0.269 OA
ATOM     23  N   UNL     1      -0.227   6.302   3.040  1.00  0.00    -0.321 N 
ATOM     24  H   UNL     1       0.223   6.671   3.834  1.00  0.00     0.170 HD
BRANCH  23  25
ATOM     25  C   UNL     1      -1.582   6.649   2.938  1.00  0.00     0.059 A 
ATOM     26  C   UNL     1      -2.578   5.818   2.429  1.00  0.00     0.029 A 
ATOM     27  C   UNL     1      -1.939   7.956   3.258  1.00  0.00     0.137 A 
ATOM     28  C   UNL     1      -3.812   6.357   2.087  1.00  0.00     0.022 A 
ATOM     29  N   UNL     1      -3.119   8.514   2.911  1.00  0.00    -0.263 NA
ATOM     30  C   UNL     1      -4.004   7.709   2.290  1.00  0.00     0.111 A 
ENDBRANCH  23  25
ENDBRANCH  19  21
ENDBRANCH  12  14
ENDBRANCH   9  10
ENDBRANCH   3   5
ENDBRANCH   2   3
ENDBRANCH   1   2
BRANCH   1  31
ATOM     31  C   UNL     1      -1.441  -3.116   3.912  1.00  0.00     0.275 C 
BRANCH  31  32
ATOM     32  O   UNL     1      -1.629  -1.844   4.567  1.00  0.00    -0.458 OA
BRANCH  32  33
ATOM     33  C   UNL     1      -0.671  -0.922   4.314  1.00  0.00     0.338 C 
ATOM     34  O   UNL     1       0.336  -1.066   3.641  1.00  0.00    -0.246 OA
BRANCH  33  35
ATOM     35  C   UNL     1      -1.084   0.391   4.841  1.00  0.00     0.060 A 
ATOM     36  C   UNL     1      -1.111   1.451   3.937  1.00  0.00     0.016 A 
ATOM     37  C   UNL     1      -1.353   0.617   6.195  1.00  0.00     0.016 A 
ATOM     38  C   UNL     1      -1.402   2.735   4.380  1.00  0.00     0.010 A 
ATOM     39  C   UNL     1      -1.647   1.919   6.638  1.00  0.00     0.010 A 
ATOM     40  C   UNL     1      -1.668   2.990   5.730  1.00  0.00    -0.014 A 
BRANCH  40  41
ATOM     41  C   UNL     1      -1.867   4.406   6.139  1.00  0.00     0.031 A 
ATOM     42  C   UNL     1      -0.678   5.221   6.562  1.00  0.00     0.074 A 
ATOM     43  C   UNL     1      -3.064   5.003   5.971  1.00  0.00     0.049 A 
ATOM     44  N   UNL     1      -0.588   6.511   6.767  1.00  0.00    -0.248 NA
ATOM     45  C   UNL     1       0.583   4.490   6.754  1.00  0.00     0.031 C 
ATOM     46  C   UNL     1      -4.260   4.341   5.455  1.00  0.00     0.029 A 
ATOM     47  N   UNL     1      -3.454   6.312   6.140  1.00  0.00    -0.354 N 
ATOM     48  C   UNL     1       0.726   6.741   7.151  1.00  0.00     0.074 A 
ATOM     49  C   UNL     1       1.406   5.464   7.117  1.00  0.00     0.031 C 
ATOM     50  C   UNL     1      -5.222   5.261   5.270  1.00  0.00     0.029 A 
ATOM     51  C   UNL     1      -4.730   6.574   5.688  1.00  0.00     0.049 A 
ATOM     52  H   UNL     1      -2.876   6.998   6.546  1.00  0.00     0.167 HD
ATOM     53  C   UNL     1       1.308   7.907   7.518  1.00  0.00     0.037 A 
ATOM     54  C   UNL     1      -5.403   7.743   5.588  1.00  0.00     0.037 A 
ATOM     55  C   UNL     1       0.636   9.178   7.564  1.00  0.00     0.049 A 
ATOM     56  C   UNL     1      -4.721   9.017   6.034  1.00  0.00     0.074 A 
ATOM     57  C   UNL     1       1.145  10.404   7.957  1.00  0.00     0.029 A 
ATOM     58  N   UNL     1      -0.688   9.387   7.217  1.00  0.00    -0.354 N 
ATOM     59  N   UNL     1      -3.481   9.215   6.414  1.00  0.00    -0.248 NA
ATOM     60  C   UNL     1      -5.551  10.232   6.054  1.00  0.00     0.031 C 
ATOM     61  C   UNL     1       0.117  11.349   7.884  1.00  0.00     0.029 A 
ATOM     62  C   UNL     1      -1.018  10.720   7.400  1.00  0.00     0.049 A 
ATOM     63  H   UNL     1      -1.303   8.692   6.889  1.00  0.00     0.167 HD
ATOM     64  C   UNL     1      -3.376  10.578   6.672  1.00  0.00     0.074 A 
ATOM     65  C   UNL     1      -4.668  11.162   6.386  1.00  0.00     0.031 C 
ATOM     66  C   UNL     1      -2.311  11.286   7.121  1.00  0.00     0.037 A 
BRANCH  53  67
ATOM     67  C   UNL     1       2.736   7.850   7.966  1.00  0.00     0.057 A 
ATOM     68  C   UNL     1       3.793   7.731   7.057  1.00  0.00     0.134 A 
ATOM     69  C   UNL     1       3.055   7.955   9.326  1.00  0.00     0.134 A 
ATOM     70  F   UNL     1       3.549   7.618   5.744  1.00  0.00    -0.206 F 
ATOM     71  C   UNL     1       5.121   7.702   7.488  1.00  0.00     0.040 A 
ATOM     72  C   UNL     1       4.378   7.948   9.767  1.00  0.00     0.040 A 
ATOM     73  F   UNL     1       2.085   8.076  10.245  1.00  0.00    -0.206 F 
ATOM     74  C   UNL     1       5.416   7.817   8.847  1.00  0.00     0.006 A 
ENDBRANCH  53  67
BRANCH  54  75
ATOM     75  C   UNL     1      -6.775   7.797   4.990  1.00  0.00     0.057 A 
ATOM     76  C   UNL     1      -7.056   8.586   3.863  1.00  0.00     0.134 A 
ATOM     77  C   UNL     1      -7.855   7.095   5.537  1.00  0.00     0.134 A 
ATOM     78  F   UNL     1      -6.118   9.384   3.338  1.00  0.00    -0.206 F 
ATOM     79  C   UNL     1      -8.323   8.637   3.278  1.00  0.00     0.040 A 
ATOM     80  C   UNL     1      -9.129   7.129   4.960  1.00  0.00     0.040 A 
ATOM     81  F   UNL     1      -7.692   6.356   6.645  1.00  0.00    -0.206 F 
ATOM     82  C   UNL     1      -9.364   7.896   3.822  1.00  0.00     0.006 A 
ENDBRANCH  54  75
BRANCH  66  83
ATOM     83  C   UNL     1      -2.502  12.759   7.350  1.00  0.00     0.057 A 
ATOM     84  C   UNL     1      -3.299  13.240   8.399  1.00  0.00     0.134 A 
ATOM     85  C   UNL     1      -1.853  13.707   6.549  1.00  0.00     0.134 A 
ATOM     86  F   UNL     1      -3.955  12.386   9.200  1.00  0.00    -0.206 F 
ATOM     87  C   UNL     1      -3.466  14.607   8.625  1.00  0.00     0.040 A 
ATOM     88  C   UNL     1      -1.990  15.078   6.783  1.00  0.00     0.040 A 
ATOM     89  F   UNL     1      -1.062  13.320   5.538  1.00  0.00    -0.206 F 
ATOM     90  C   UNL     1      -2.804  15.531   7.819  1.00  0.00     0.006 A 
ENDBRANCH  66  83
ENDBRANCH  40  41
ENDBRANCH  33  35
ENDBRANCH  32  33
ENDBRANCH  31  32
ENDBRANCH   1  31
TORSDOF 15
