REMARK SMILES O=C(OCCOC(=O)c1cccn1CC(=O)N1CCC[C@H]2CCCC[C@H]21)c1ccc(-c2c3nc(c(-c4c(F)cccc4F)c4ccc([nH]4)c(-c4c(F)cccc4F)c4nc(c(-c5c(F)cccc5F)c5ccc2[nH]5)C=C4)C=C3)cc1
REMARK SMILES IDX 5 1 4 2 3 3 2 4 1 5 27 6 28 7 80 8 29 9 79 10 30 11 31 12
REMARK SMILES IDX 32 13 73 14 33 15 78 16 72 17 74 18 34 19 77 20 71 21 70 22
REMARK SMILES IDX 35 24 61 25 44 26 60 27 45 28 48 29 59 30 75 31 46 32 47 33
REMARK SMILES IDX 58 35 76 36 49 37 36 38 37 39 42 40 38 41 39 42 41 43 43 44
REMARK SMILES IDX 40 45 62 46 63 47 68 48 64 49 65 50 67 51 69 52 66 53 50 54
REMARK SMILES IDX 51 55 56 56 52 57 53 58 55 59 57 60 54 61 6 62 7 63 8 64
REMARK SMILES IDX 9 65 10 66 13 67 11 68 12 69 14 70 15 71 16 72 17 73 18 74
REMARK SMILES IDX 26 75 19 76 21 77 25 78 20 79 22 80 24 81 23 82
REMARK H PARENT 74 23 48 34
REMARK Flexibility Score: inf
ROOT
ATOM      1  C   UNL     1       4.628  -1.998   0.724  1.00  0.00     0.275 C 
ENDROOT
BRANCH   1   2
ATOM      2  C   UNL     1       5.303  -0.726   1.261  1.00  0.00     0.275 C 
BRANCH   2   3
ATOM      3  O   UNL     1       4.498   0.443   1.426  1.00  0.00    -0.458 OA
BRANCH   3   4
ATOM      4  C   UNL     1       3.751   0.802   0.371  1.00  0.00     0.338 C 
ATOM      5  O   UNL     1       2.559   0.542   0.265  1.00  0.00    -0.246 OA
BRANCH   4   6
ATOM      6  C   UNL     1       4.334   1.866  -0.473  1.00  0.00     0.060 A 
ATOM      7  C   UNL     1       5.463   1.799  -1.307  1.00  0.00     0.016 A 
ATOM      8  C   UNL     1       3.480   2.939  -0.596  1.00  0.00     0.016 A 
ATOM      9  C   UNL     1       5.703   2.810  -2.298  1.00  0.00     0.010 A 
ATOM     10  C   UNL     1       3.677   3.843  -1.623  1.00  0.00     0.010 A 
ATOM     11  C   UNL     1       4.788   3.858  -2.501  1.00  0.00    -0.014 A 
BRANCH  11  12
ATOM     12  C   UNL     1       4.870   4.992  -3.561  1.00  0.00     0.031 A 
ATOM     13  C   UNL     1       5.142   4.592  -5.137  1.00  0.00     0.074 A 
ATOM     14  C   UNL     1       4.604   6.245  -3.025  1.00  0.00     0.049 A 
ATOM     15  N   UNL     1       5.938   5.005  -6.094  1.00  0.00    -0.248 NA
ATOM     16  C   UNL     1       4.402   3.474  -5.735  1.00  0.00     0.031 C 
ATOM     17  C   UNL     1       4.272   6.556  -1.590  1.00  0.00     0.029 A 
ATOM     18  N   UNL     1       4.514   7.523  -3.546  1.00  0.00    -0.354 N 
ATOM     19  C   UNL     1       5.613   4.238  -7.290  1.00  0.00     0.074 A 
ATOM     20  C   UNL     1       4.981   3.049  -6.855  1.00  0.00     0.031 C 
ATOM     21  C   UNL     1       4.096   7.865  -1.369  1.00  0.00     0.029 A 
ATOM     22  C   UNL     1       4.389   8.561  -2.579  1.00  0.00     0.049 A 
ATOM     23  H   UNL     1       4.534   7.702  -4.514  1.00  0.00     0.167 HD
ATOM     24  C   UNL     1       5.398   4.723  -8.563  1.00  0.00     0.037 A 
ATOM     25  C   UNL     1       4.622   9.900  -2.673  1.00  0.00     0.037 A 
ATOM     26  C   UNL     1       5.612   6.120  -8.571  1.00  0.00     0.049 A 
ATOM     27  C   UNL     1       4.858  10.139  -4.088  1.00  0.00     0.074 A 
ATOM     28  C   UNL     1       6.771   6.788  -8.295  1.00  0.00     0.029 A 
ATOM     29  N   UNL     1       4.525   6.942  -8.347  1.00  0.00    -0.354 N 
ATOM     30  N   UNL     1       3.917  10.240  -4.978  1.00  0.00    -0.248 NA
ATOM     31  C   UNL     1       6.232  10.003  -4.578  1.00  0.00     0.031 C 
ATOM     32  C   UNL     1       6.308   7.659  -7.304  1.00  0.00     0.029 A 
ATOM     33  C   UNL     1       4.955   7.940  -7.505  1.00  0.00     0.049 A 
ATOM     34  H   UNL     1       3.619   6.834  -8.719  1.00  0.00     0.167 HD
ATOM     35  C   UNL     1       4.573   9.827  -6.110  1.00  0.00     0.074 A 
ATOM     36  C   UNL     1       5.987  10.052  -5.880  1.00  0.00     0.031 C 
ATOM     37  C   UNL     1       4.033   8.852  -6.888  1.00  0.00     0.037 A 
BRANCH  24  38
ATOM     38  C   UNL     1       4.753   4.161  -9.815  1.00  0.00     0.057 A 
ATOM     39  C   UNL     1       5.295   4.565 -11.056  1.00  0.00     0.134 A 
ATOM     40  C   UNL     1       3.475   3.586  -9.875  1.00  0.00     0.134 A 
ATOM     41  F   UNL     1       6.515   5.122 -11.112  1.00  0.00    -0.206 F 
ATOM     42  C   UNL     1       4.582   4.490 -12.259  1.00  0.00     0.040 A 
ATOM     43  C   UNL     1       2.765   3.467 -11.085  1.00  0.00     0.040 A 
ATOM     44  F   UNL     1       2.829   3.212  -8.761  1.00  0.00    -0.206 F 
ATOM     45  C   UNL     1       3.303   3.953 -12.275  1.00  0.00     0.006 A 
ENDBRANCH  24  38
BRANCH  25  46
ATOM     46  C   UNL     1       4.891  10.991  -1.682  1.00  0.00     0.057 A 
ATOM     47  C   UNL     1       4.218  11.191  -0.473  1.00  0.00     0.134 A 
ATOM     48  C   UNL     1       5.921  11.930  -1.938  1.00  0.00     0.134 A 
ATOM     49  F   UNL     1       3.153  10.448  -0.145  1.00  0.00    -0.206 F 
ATOM     50  C   UNL     1       4.602  12.195   0.441  1.00  0.00     0.040 A 
ATOM     51  C   UNL     1       6.327  12.914  -1.036  1.00  0.00     0.040 A 
ATOM     52  F   UNL     1       6.600  11.940  -3.090  1.00  0.00    -0.206 F 
ATOM     53  C   UNL     1       5.676  13.041   0.173  1.00  0.00     0.006 A 
ENDBRANCH  25  46
BRANCH  37  54
ATOM     54  C   UNL     1       2.537   8.793  -6.885  1.00  0.00     0.057 A 
ATOM     55  C   UNL     1       1.843   9.751  -7.633  1.00  0.00     0.134 A 
ATOM     56  C   UNL     1       1.762   7.944  -6.082  1.00  0.00     0.134 A 
ATOM     57  F   UNL     1       2.521  10.626  -8.391  1.00  0.00    -0.206 F 
ATOM     58  C   UNL     1       0.448   9.847  -7.616  1.00  0.00     0.040 A 
ATOM     59  C   UNL     1       0.359   8.025  -6.056  1.00  0.00     0.040 A 
ATOM     60  F   UNL     1       2.344   7.031  -5.293  1.00  0.00    -0.206 F 
ATOM     61  C   UNL     1      -0.302   8.977  -6.831  1.00  0.00     0.006 A 
ENDBRANCH  37  54
ENDBRANCH  11  12
ENDBRANCH   4   6
ENDBRANCH   3   4
ENDBRANCH   2   3
ENDBRANCH   1   2
BRANCH   1  62
ATOM     62  O   UNL     1       3.991  -1.847  -0.558  1.00  0.00    -0.457 OA
BRANCH  62  63
ATOM     63  C   UNL     1       2.627  -2.060  -0.578  1.00  0.00     0.355 C 
ATOM     64  O   UNL     1       1.929  -2.240   0.398  1.00  0.00    -0.244 OA
BRANCH  63  65
ATOM     65  C   UNL     1       2.163  -2.156  -1.952  1.00  0.00     0.128 A 
ATOM     66  C   UNL     1       2.856  -2.687  -3.033  1.00  0.00     0.035 A 
ATOM     67  N   UNL     1       0.902  -1.795  -2.434  1.00  0.00    -0.333 N 
ATOM     68  C   UNL     1       1.946  -2.862  -4.097  1.00  0.00     0.020 A 
ATOM     69  C   UNL     1       0.717  -2.413  -3.658  1.00  0.00     0.087 A 
BRANCH  67  70
ATOM     70  C   UNL     1      -0.053  -0.851  -1.817  1.00  0.00     0.222 C 
BRANCH  70  71
ATOM     71  C   UNL     1      -0.529   0.471  -2.505  1.00  0.00     0.242 C 
ATOM     72  O   UNL     1      -1.574   0.993  -2.091  1.00  0.00    -0.273 OA
BRANCH  71  73
ATOM     73  N   UNL     1       0.262   1.194  -3.405  1.00  0.00    -0.338 N 
ATOM     74  C   UNL     1       1.121   0.410  -4.302  1.00  0.00     0.120 C 
ATOM     75  C   UNL     1       0.684   2.564  -2.976  1.00  0.00     0.088 C 
ATOM     76  C   UNL     1       2.239   1.054  -5.056  1.00  0.00     0.022 C 
ATOM     77  C   UNL     1       1.724   3.154  -3.923  1.00  0.00     0.012 C 
ATOM     78  C   UNL     1      -0.317   3.675  -2.637  1.00  0.00     0.025 C 
ATOM     79  C   UNL     1       2.755   2.015  -4.037  1.00  0.00     0.007 C 
ATOM     80  C   UNL     1       1.125   3.846  -5.180  1.00  0.00     0.006 C 
ATOM     81  C   UNL     1      -0.958   4.388  -3.819  1.00  0.00     0.002 C 
ATOM     82  C   UNL     1      -0.383   4.015  -5.171  1.00  0.00     0.000 C 
ENDBRANCH  71  73
ENDBRANCH  70  71
ENDBRANCH  67  70
ENDBRANCH  63  65
ENDBRANCH  62  63
ENDBRANCH   1  62
TORSDOF 14
