REMARK SMILES O=C(C[C@@H](C(=O)N(c1ccccc1)c1ccccc1)[NH+]1CCOCC1)OCCOC(=O)c1ccc(-c2c3nc(c(-c4c(F)cccc4F)c4ccc([nH]4)c(-c4c(F)cccc4F)c4nc(c(-c5c(F)cccc5F)c5ccc2[nH]5)C=C4)C=C3)cc1
REMARK SMILES IDX 27 1 26 2 2 3 1 4 3 5 4 6 5 7 6 8 7 9 8 10 9 11 13 12 10 13
REMARK SMILES IDX 12 14 11 15 14 16 15 17 19 18 16 19 18 20 17 21 20 22 21 23
REMARK SMILES IDX 25 24 22 26 24 27 23 28 28 29 29 30 30 31 31 32 32 33 33 34
REMARK SMILES IDX 85 35 34 36 84 37 35 38 36 39 37 40 78 41 38 42 83 43 77 44
REMARK SMILES IDX 79 45 39 46 82 47 76 48 75 49 40 51 66 52 49 53 65 54 50 55
REMARK SMILES IDX 53 56 64 57 80 58 51 59 52 60 63 62 81 63 54 64 41 65 42 66
REMARK SMILES IDX 47 67 43 68 44 69 46 70 48 71 45 72 67 73 68 74 73 75 69 76
REMARK SMILES IDX 70 77 72 78 74 79 71 80 55 81 56 82 61 83 57 84 58 85 60 86
REMARK SMILES IDX 62 87 59 88
REMARK H PARENT 20 25 79 50 53 61
REMARK Flexibility Score: inf
ROOT
ATOM      1  C   UNL     1       4.317   1.556  -0.984  1.00  0.00     0.274 C 
ENDROOT
BRANCH   1   2
ATOM      2  O   UNL     1       2.967   1.041  -1.046  1.00  0.00    -0.462 OA
BRANCH   2   3
ATOM      3  C   UNL     1       2.320   0.423  -0.034  1.00  0.00     0.312 C 
ATOM      4  O   UNL     1       1.092   0.360  -0.030  1.00  0.00    -0.252 OA
BRANCH   3   5
ATOM      5  C   UNL     1       3.104  -0.113   1.135  1.00  0.00     0.198 C 
BRANCH   5   6
ATOM      6  C   UNL     1       3.877  -1.439   1.070  1.00  0.00     0.286 C 
BRANCH   6   7
ATOM      7  C   UNL     1       4.643  -1.633  -0.250  1.00  0.00     0.290 C 
ATOM      8  O   UNL     1       5.823  -1.238  -0.250  1.00  0.00    -0.267 OA
ATOM      9  N   UNL     1       4.088  -2.147  -1.443  1.00  0.00    -0.276 N 
BRANCH   9  10
ATOM     10  C   UNL     1       2.713  -2.477  -1.823  1.00  0.00     0.049 A 
ATOM     11  C   UNL     1       2.417  -2.927  -3.134  1.00  0.00     0.027 A 
ATOM     12  C   UNL     1       1.594  -2.324  -1.006  1.00  0.00     0.027 A 
ATOM     13  C   UNL     1       1.118  -2.940  -3.662  1.00  0.00     0.002 A 
ATOM     14  C   UNL     1       0.285  -2.317  -1.526  1.00  0.00     0.002 A 
ATOM     15  C   UNL     1       0.050  -2.574  -2.866  1.00  0.00     0.000 A 
ENDBRANCH   9  10
BRANCH   9  16
ATOM     16  C   UNL     1       5.030  -2.123  -2.547  1.00  0.00     0.049 A 
ATOM     17  C   UNL     1       4.843  -1.240  -3.625  1.00  0.00     0.027 A 
ATOM     18  C   UNL     1       6.215  -2.871  -2.481  1.00  0.00     0.027 A 
ATOM     19  C   UNL     1       5.804  -1.137  -4.631  1.00  0.00     0.002 A 
ATOM     20  C   UNL     1       7.184  -2.750  -3.479  1.00  0.00     0.002 A 
ATOM     21  C   UNL     1       6.976  -1.887  -4.554  1.00  0.00     0.000 A 
ENDBRANCH   9  16
ENDBRANCH   6   7
BRANCH   6  22
ATOM     22  N   UNL     1       4.736  -1.554   2.315  1.00  0.00    -0.320 N 
ATOM     23  C   UNL     1       5.520  -0.410   2.826  1.00  0.00     0.291 C 
ATOM     24  C   UNL     1       5.530  -2.787   2.466  1.00  0.00     0.291 C 
ATOM     25  H   UNL     1       3.918  -1.577   2.923  1.00  0.00     0.348 HD
ATOM     26  C   UNL     1       6.981  -0.338   2.367  1.00  0.00     0.221 C 
ATOM     27  C   UNL     1       7.033  -2.677   2.116  1.00  0.00     0.221 C 
ATOM     28  O   UNL     1       7.666  -1.542   2.719  1.00  0.00    -0.370 OA
ENDBRANCH   6  22
ENDBRANCH   5   6
ENDBRANCH   3   5
ENDBRANCH   2   3
ENDBRANCH   1   2
BRANCH   1  29
ATOM     29  C   UNL     1       4.368   2.994  -0.466  1.00  0.00     0.275 C 
BRANCH  29  30
ATOM     30  O   UNL     1       4.005   3.023   0.927  1.00  0.00    -0.458 OA
BRANCH  30  31
ATOM     31  C   UNL     1       2.718   3.376   1.187  1.00  0.00     0.338 C 
ATOM     32  O   UNL     1       1.919   3.840   0.406  1.00  0.00    -0.246 OA
BRANCH  31  33
ATOM     33  C   UNL     1       2.365   2.906   2.550  1.00  0.00     0.060 A 
ATOM     34  C   UNL     1       1.103   2.326   2.731  1.00  0.00     0.016 A 
ATOM     35  C   UNL     1       3.256   3.006   3.623  1.00  0.00     0.016 A 
ATOM     36  C   UNL     1       0.709   1.887   3.994  1.00  0.00     0.010 A 
ATOM     37  C   UNL     1       2.855   2.584   4.893  1.00  0.00     0.010 A 
ATOM     38  C   UNL     1       1.563   2.064   5.089  1.00  0.00    -0.014 A 
BRANCH  38  39
ATOM     39  C   UNL     1       1.009   1.980   6.461  1.00  0.00     0.031 A 
ATOM     40  C   UNL     1       0.453   3.244   7.059  1.00  0.00     0.074 A 
ATOM     41  C   UNL     1       0.978   0.827   7.150  1.00  0.00     0.049 A 
ATOM     42  N   UNL     1      -0.051   3.455   8.246  1.00  0.00    -0.248 NA
ATOM     43  C   UNL     1       0.472   4.435   6.191  1.00  0.00     0.031 C 
ATOM     44  C   UNL     1       1.442  -0.469   6.660  1.00  0.00     0.029 A 
ATOM     45  N   UNL     1       0.536   0.569   8.423  1.00  0.00    -0.354 N 
ATOM     46  C   UNL     1      -0.410   4.797   8.265  1.00  0.00     0.074 A 
ATOM     47  C   UNL     1      -0.039   5.360   6.987  1.00  0.00     0.031 C 
ATOM     48  C   UNL     1       1.272  -1.386   7.630  1.00  0.00     0.029 A 
ATOM     49  C   UNL     1       0.713  -0.736   8.815  1.00  0.00     0.049 A 
ATOM     50  H   UNL     1       0.130   1.254   9.002  1.00  0.00     0.167 HD
ATOM     51  C   UNL     1      -1.003   5.500   9.257  1.00  0.00     0.037 A 
ATOM     52  C   UNL     1       0.468  -1.323  10.003  1.00  0.00     0.037 A 
ATOM     53  C   UNL     1      -1.349   4.946  10.536  1.00  0.00     0.049 A 
ATOM     54  C   UNL     1      -0.113  -0.498  11.126  1.00  0.00     0.074 A 
ATOM     55  C   UNL     1      -1.938   5.572  11.619  1.00  0.00     0.029 A 
ATOM     56  N   UNL     1      -1.123   3.628  10.905  1.00  0.00    -0.354 N 
ATOM     57  N   UNL     1      -0.465   0.765  11.131  1.00  0.00    -0.248 NA
ATOM     58  C   UNL     1      -0.329  -1.183  12.409  1.00  0.00     0.031 C 
ATOM     59  C   UNL     1      -2.027   4.643  12.661  1.00  0.00     0.029 A 
ATOM     60  C   UNL     1      -1.541   3.426  12.209  1.00  0.00     0.049 A 
ATOM     61  H   UNL     1      -0.725   2.939  10.326  1.00  0.00     0.167 HD
ATOM     62  C   UNL     1      -0.971   1.018  12.401  1.00  0.00     0.074 A 
ATOM     63  C   UNL     1      -0.889  -0.227  13.137  1.00  0.00     0.031 C 
ATOM     64  C   UNL     1      -1.460   2.174  12.915  1.00  0.00     0.037 A 
BRANCH  51  65
ATOM     65  C   UNL     1      -1.272   6.952   8.997  1.00  0.00     0.057 A 
ATOM     66  C   UNL     1      -2.272   7.371   8.108  1.00  0.00     0.134 A 
ATOM     67  C   UNL     1      -0.516   7.943   9.634  1.00  0.00     0.134 A 
ATOM     68  F   UNL     1      -3.015   6.470   7.448  1.00  0.00    -0.206 F 
ATOM     69  C   UNL     1      -2.491   8.723   7.842  1.00  0.00     0.040 A 
ATOM     70  C   UNL     1      -0.743   9.299   9.395  1.00  0.00     0.040 A 
ATOM     71  F   UNL     1       0.459   7.610  10.493  1.00  0.00    -0.206 F 
ATOM     72  C   UNL     1      -1.728   9.692   8.491  1.00  0.00     0.006 A 
ENDBRANCH  51  65
BRANCH  52  73
ATOM     73  C   UNL     1       0.782  -2.761  10.210  1.00  0.00     0.057 A 
ATOM     74  C   UNL     1      -0.232  -3.706  10.406  1.00  0.00     0.134 A 
ATOM     75  C   UNL     1       2.105  -3.219  10.256  1.00  0.00     0.134 A 
ATOM     76  F   UNL     1      -1.518  -3.327  10.402  1.00  0.00    -0.206 F 
ATOM     77  C   UNL     1       0.057  -5.049  10.658  1.00  0.00     0.040 A 
ATOM     78  C   UNL     1       2.408  -4.563  10.482  1.00  0.00     0.040 A 
ATOM     79  F   UNL     1       3.124  -2.365  10.081  1.00  0.00    -0.206 F 
ATOM     80  C   UNL     1       1.381  -5.482  10.692  1.00  0.00     0.006 A 
ENDBRANCH  52  73
BRANCH  64  81
ATOM     81  C   UNL     1      -1.980   2.139  14.322  1.00  0.00     0.057 A 
ATOM     82  C   UNL     1      -1.123   2.058  15.427  1.00  0.00     0.134 A 
ATOM     83  C   UNL     1      -3.354   2.246  14.574  1.00  0.00     0.134 A 
ATOM     84  F   UNL     1       0.203   1.944  15.253  1.00  0.00    -0.206 F 
ATOM     85  C   UNL     1      -1.616   2.066  16.733  1.00  0.00     0.040 A 
ATOM     86  C   UNL     1      -3.856   2.282  15.875  1.00  0.00     0.040 A 
ATOM     87  F   UNL     1      -4.227   2.339  13.560  1.00  0.00    -0.206 F 
ATOM     88  C   UNL     1      -2.986   2.187  16.959  1.00  0.00     0.006 A 
ENDBRANCH  64  81
ENDBRANCH  38  39
ENDBRANCH  31  33
ENDBRANCH  30  31
ENDBRANCH  29  30
ENDBRANCH   1  29
TORSDOF 16
