REMARK SMILES CCCCC[NH2+][C@](C)(C(=O)OCCOC(=O)c1ccc(-c2c3nc(c(-c4c(F)cccc4F)c4ccc([nH]4)c(-c4c(F)cccc4F)c4nc(c(-c5c(F)cccc5F)c5ccc2[nH]5)C=C4)C=C3)cc1)C(F)(F)F
REMARK SMILES IDX 11 1 9 2 10 3 7 4 8 5 6 6 5 9 4 10 3 11 2 12 1 13 71 14
REMARK SMILES IDX 72 15 73 16 74 17 12 18 13 19 14 20 15 21 16 22 17 23 18 24
REMARK SMILES IDX 70 25 19 26 69 27 20 28 21 29 22 30 63 31 23 32 68 33 62 34
REMARK SMILES IDX 64 35 24 36 67 37 61 38 60 39 25 41 51 42 34 43 50 44 35 45
REMARK SMILES IDX 38 46 49 47 65 48 36 49 37 50 48 52 66 53 39 54 26 55 27 56
REMARK SMILES IDX 32 57 28 58 29 59 31 60 33 61 30 62 52 63 53 64 58 65 54 66
REMARK SMILES IDX 55 67 57 68 59 69 56 70 40 71 41 72 46 73 42 74 43 75 45 76
REMARK SMILES IDX 47 77 44 78
REMARK H PARENT 6 7 6 8 64 40 38 51
REMARK Flexibility Score: inf
ROOT
ATOM      1  O   UNL     1      -2.676   5.181  -0.097  1.00  0.00    -0.457 OA
ENDROOT
BRANCH   1   2
ATOM      2  C   UNL     1      -3.431   4.266  -0.775  1.00  0.00     0.377 C 
ATOM      3  O   UNL     1      -4.608   4.456  -1.061  1.00  0.00    -0.244 OA
BRANCH   2   4
ATOM      4  C   UNL     1      -2.704   2.921  -0.960  1.00  0.00     0.287 C 
ATOM      5  C   UNL     1      -1.177   3.126  -1.031  1.00  0.00     0.103 C 
BRANCH   4   6
ATOM      6  N   UNL     1      -2.959   2.003   0.213  1.00  0.00    -0.325 N 
ATOM      7  H   UNL     1      -2.776   1.045  -0.085  1.00  0.00     0.347 HD
ATOM      8  H   UNL     1      -2.340   2.309   0.964  1.00  0.00     0.347 HD
BRANCH   6   9
ATOM      9  C   UNL     1      -4.324   2.065   0.744  1.00  0.00     0.261 C 
BRANCH   9  10
ATOM     10  C   UNL     1      -4.564   1.041   1.857  1.00  0.00     0.061 C 
BRANCH  10  11
ATOM     11  C   UNL     1      -3.504   0.982   2.965  1.00  0.00     0.006 C 
BRANCH  11  12
ATOM     12  C   UNL     1      -3.091   2.316   3.593  1.00  0.00    -0.003 C 
ATOM     13  C   UNL     1      -4.224   3.048   4.288  1.00  0.00     0.004 C 
ENDBRANCH  11  12
ENDBRANCH  10  11
ENDBRANCH   9  10
ENDBRANCH   6   9
ENDBRANCH   4   6
BRANCH   4  14
ATOM     14  C   UNL     1      -3.147   2.356  -2.329  1.00  0.00     0.455 C 
ATOM     15  F   UNL     1      -2.732   3.150  -3.346  1.00  0.00    -0.164 F 
ATOM     16  F   UNL     1      -2.593   1.137  -2.558  1.00  0.00    -0.164 F 
ATOM     17  F   UNL     1      -4.483   2.204  -2.453  1.00  0.00    -0.164 F 
ENDBRANCH   4  14
ENDBRANCH   2   4
ENDBRANCH   1   2
BRANCH   1  18
ATOM     18  C   UNL     1      -3.361   6.377   0.332  1.00  0.00     0.274 C 
BRANCH  18  19
ATOM     19  C   UNL     1      -3.129   7.544  -0.625  1.00  0.00     0.275 C 
BRANCH  19  20
ATOM     20  O   UNL     1      -3.749   7.284  -1.895  1.00  0.00    -0.458 OA
BRANCH  20  21
ATOM     21  C   UNL     1      -2.904   7.053  -2.922  1.00  0.00     0.338 C 
ATOM     22  O   UNL     1      -1.682   7.071  -2.901  1.00  0.00    -0.246 OA
BRANCH  21  23
ATOM     23  C   UNL     1      -3.672   6.710  -4.125  1.00  0.00     0.060 A 
ATOM     24  C   UNL     1      -4.270   5.455  -4.203  1.00  0.00     0.016 A 
ATOM     25  C   UNL     1      -3.679   7.560  -5.229  1.00  0.00     0.016 A 
ATOM     26  C   UNL     1      -4.797   5.000  -5.404  1.00  0.00     0.010 A 
ATOM     27  C   UNL     1      -4.290   7.137  -6.414  1.00  0.00     0.010 A 
ATOM     28  C   UNL     1      -4.824   5.839  -6.522  1.00  0.00    -0.014 A 
BRANCH  28  29
ATOM     29  C   UNL     1      -5.358   5.336  -7.812  1.00  0.00     0.031 A 
ATOM     30  C   UNL     1      -4.454   5.242  -9.008  1.00  0.00     0.074 A 
ATOM     31  C   UNL     1      -6.638   4.929  -7.908  1.00  0.00     0.049 A 
ATOM     32  N   UNL     1      -4.761   5.035 -10.263  1.00  0.00    -0.248 NA
ATOM     33  C   UNL     1      -3.013   5.413  -8.761  1.00  0.00     0.031 C 
ATOM     34  C   UNL     1      -7.602   4.888  -6.807  1.00  0.00     0.029 A 
ATOM     35  N   UNL     1      -7.346   4.461  -8.986  1.00  0.00    -0.354 N 
ATOM     36  C   UNL     1      -3.563   5.115 -10.961  1.00  0.00     0.074 A 
ATOM     37  C   UNL     1      -2.521   5.373  -9.991  1.00  0.00     0.031 C 
ATOM     38  C   UNL     1      -8.763   4.391  -7.258  1.00  0.00     0.029 A 
ATOM     39  C   UNL     1      -8.653   4.160  -8.694  1.00  0.00     0.049 A 
ATOM     40  H   UNL     1      -6.954   4.351  -9.883  1.00  0.00     0.167 HD
ATOM     41  C   UNL     1      -3.360   4.995 -12.294  1.00  0.00     0.037 A 
ATOM     42  C   UNL     1      -9.664   3.787  -9.499  1.00  0.00     0.037 A 
ATOM     43  C   UNL     1      -4.392   4.679 -13.245  1.00  0.00     0.049 A 
ATOM     44  C   UNL     1      -9.421   3.681 -10.976  1.00  0.00     0.074 A 
ATOM     45  C   UNL     1      -4.295   4.551 -14.620  1.00  0.00     0.029 A 
ATOM     46  N   UNL     1      -5.711   4.412 -12.910  1.00  0.00    -0.354 N 
ATOM     47  N   UNL     1      -8.309   3.868 -11.644  1.00  0.00    -0.248 NA
ATOM     48  C   UNL     1     -10.580   3.344 -11.815  1.00  0.00     0.031 C 
ATOM     49  C   UNL     1      -5.561   4.224 -15.119  1.00  0.00     0.029 A 
ATOM     50  C   UNL     1      -6.439   4.122 -14.052  1.00  0.00     0.049 A 
ATOM     51  H   UNL     1      -6.076   4.427 -11.996  1.00  0.00     0.167 HD
ATOM     52  C   UNL     1      -8.632   3.677 -12.979  1.00  0.00     0.074 A 
ATOM     53  C   UNL     1     -10.040   3.335 -13.026  1.00  0.00     0.031 C 
ATOM     54  C   UNL     1      -7.838   3.786 -14.071  1.00  0.00     0.037 A 
BRANCH  41  55
ATOM     55  C   UNL     1      -1.976   5.254 -12.805  1.00  0.00     0.057 A 
ATOM     56  C   UNL     1      -0.945   4.317 -12.675  1.00  0.00     0.134 A 
ATOM     57  C   UNL     1      -1.680   6.459 -13.457  1.00  0.00     0.134 A 
ATOM     58  F   UNL     1      -1.161   3.153 -12.045  1.00  0.00    -0.206 F 
ATOM     59  C   UNL     1       0.338   4.574 -13.163  1.00  0.00     0.040 A 
ATOM     60  C   UNL     1      -0.407   6.720 -13.965  1.00  0.00     0.040 A 
ATOM     61  F   UNL     1      -2.624   7.399 -13.613  1.00  0.00    -0.206 F 
ATOM     62  C   UNL     1       0.608   5.777 -13.815  1.00  0.00     0.006 A 
ENDBRANCH  41  55
BRANCH  42  63
ATOM     63  C   UNL     1     -11.011   3.544  -8.927  1.00  0.00     0.057 A 
ATOM     64  C   UNL     1     -11.538   2.251  -8.844  1.00  0.00     0.134 A 
ATOM     65  C   UNL     1     -11.793   4.595  -8.434  1.00  0.00     0.134 A 
ATOM     66  F   UNL     1     -10.845   1.207  -9.321  1.00  0.00    -0.206 F 
ATOM     67  C   UNL     1     -12.798   2.012  -8.293  1.00  0.00     0.040 A 
ATOM     68  C   UNL     1     -13.044   4.369  -7.860  1.00  0.00     0.040 A 
ATOM     69  F   UNL     1     -11.342   5.857  -8.486  1.00  0.00    -0.206 F 
ATOM     70  C   UNL     1     -13.551   3.073  -7.791  1.00  0.00     0.006 A 
ENDBRANCH  42  63
BRANCH  54  71
ATOM     71  C   UNL     1      -8.476   3.524 -15.399  1.00  0.00     0.057 A 
ATOM     72  C   UNL     1      -9.276   4.485 -16.026  1.00  0.00     0.134 A 
ATOM     73  C   UNL     1      -8.263   2.313 -16.067  1.00  0.00     0.134 A 
ATOM     74  F   UNL     1      -9.526   5.659 -15.426  1.00  0.00    -0.206 F 
ATOM     75  C   UNL     1      -9.856   4.245 -17.272  1.00  0.00     0.040 A 
ATOM     76  C   UNL     1      -8.825   2.067 -17.320  1.00  0.00     0.040 A 
ATOM     77  F   UNL     1      -7.503   1.355 -15.516  1.00  0.00    -0.206 F 
ATOM     78  C   UNL     1      -9.627   3.035 -17.924  1.00  0.00     0.006 A 
ENDBRANCH  54  71
ENDBRANCH  28  29
ENDBRANCH  21  23
ENDBRANCH  20  21
ENDBRANCH  19  20
ENDBRANCH  18  19
ENDBRANCH   1  18
TORSDOF 17
