REMARK SMILES Cc1ccc2occ(/C=N/NC(=O)CCC(=O)Nc3ccc(C(=O)OCCOC(=O)c4ccc(-c5c6nc(c(-c7c(F)cccc7F)c7ccc([nH]7)c(-c7c(F)cccc7F)c7nc(c(-c8c(F)cccc8F)c8ccc5[nH]8)C=C7)C=C6)cc4)cc3)c(=O)c2c1
REMARK SMILES IDX 23 1 24 2 22 3 19 4 20 5 86 6 21 7 85 8 18 9 16 10 17 11
REMARK SMILES IDX 15 13 14 14 12 15 11 16 13 18 10 19 9 20 8 21 1 22 2 23 3 24
REMARK SMILES IDX 90 25 4 26 89 27 5 28 87 29 6 30 88 31 7 32 25 33 26 34
REMARK SMILES IDX 27 35 28 36 29 37 30 38 31 39 32 40 84 41 33 42 83 43 34 44
REMARK SMILES IDX 35 45 36 46 77 47 37 48 82 49 76 50 78 51 38 52 81 53 75 54
REMARK SMILES IDX 74 55 39 57 65 58 48 59 64 60 49 61 52 62 63 63 79 64 50 65
REMARK SMILES IDX 51 66 62 68 80 69 53 70 40 71 41 72 46 73 42 74 43 75 45 76
REMARK SMILES IDX 47 77 44 78 66 79 67 80 72 81 68 82 69 83 71 84 73 85 70 86
REMARK SMILES IDX 54 87 55 88 60 89 56 90 57 91 59 92 61 93 58 94
REMARK H PARENT 18 12 11 17 78 56 52 67
REMARK Flexibility Score: inf
ROOT
ATOM      1  C   UNL     1      10.540   2.465  -1.379  1.00  0.00     0.338 C 
ATOM      2  O   UNL     1      11.167   2.564  -2.419  1.00  0.00    -0.246 OA
ENDROOT
BRANCH   1   3
ATOM      3  C   UNL     1       9.130   2.069  -1.370  1.00  0.00     0.060 A 
ATOM      4  C   UNL     1       6.433   1.523  -1.835  1.00  0.00     0.041 A 
ATOM      5  C   UNL     1       7.364   0.481  -1.812  1.00  0.00     0.027 A 
ATOM      6  C   UNL     1       6.880   2.832  -1.665  1.00  0.00     0.027 A 
ATOM      7  C   UNL     1       8.710   0.750  -1.558  1.00  0.00     0.018 A 
ATOM      8  C   UNL     1       8.216   3.108  -1.406  1.00  0.00     0.018 A 
BRANCH   4   9
ATOM      9  N   UNL     1       5.091   1.159  -1.983  1.00  0.00    -0.326 N 
ATOM     10  C   UNL     1       3.925   1.796  -1.704  1.00  0.00     0.224 C 
ATOM     11  O   UNL     1       2.879   1.185  -1.961  1.00  0.00    -0.275 OA
ATOM     12  H   UNL     1       4.967   0.260  -2.365  1.00  0.00     0.169 HD
BRANCH  10  13
ATOM     13  C   UNL     1       3.848   3.191  -1.126  1.00  0.00     0.110 C 
BRANCH  13  14
ATOM     14  C   UNL     1       4.257   3.495   0.318  1.00  0.00     0.112 C 
BRANCH  14  15
ATOM     15  C   UNL     1       5.467   2.869   1.016  1.00  0.00     0.240 C 
ATOM     16  N   UNL     1       5.530   1.528   1.314  1.00  0.00    -0.247 N 
ATOM     17  H   UNL     1       6.310   1.229   1.835  1.00  0.00     0.193 HD
ATOM     18  O   UNL     1       6.405   3.593   1.369  1.00  0.00    -0.273 OA
BRANCH  16  19
ATOM     19  N   UNL     1       4.629   0.571   0.964  1.00  0.00    -0.180 NA
ATOM     20  C   UNL     1       3.428   0.795   1.379  1.00  0.00     0.148 C 
BRANCH  20  21
ATOM     21  C   UNL     1       2.235   0.116   0.865  1.00  0.00     0.078 A 
ATOM     22  C   UNL     1      -3.876   0.849  -0.086  1.00  0.00     0.044 C 
ATOM     23  C   UNL     1      -2.566   0.123  -0.047  1.00  0.00    -0.050 A 
ATOM     24  C   UNL     1      -2.486  -1.268  -0.213  1.00  0.00     0.007 A 
ATOM     25  C   UNL     1      -1.394   0.850   0.163  1.00  0.00     0.019 A 
ATOM     26  C   UNL     1      -1.250  -1.925  -0.165  1.00  0.00     0.048 A 
ATOM     27  C   UNL     1      -0.174   0.181   0.254  1.00  0.00     0.066 A 
ATOM     28  C   UNL     1      -0.089  -1.198   0.077  1.00  0.00     0.137 A 
ATOM     29  C   UNL     1       1.027   0.922   0.635  1.00  0.00     0.201 A 
ATOM     30  O   UNL     1       1.099  -1.889   0.158  1.00  0.00    -0.463 OA
ATOM     31  O   UNL     1       1.019   2.137   0.800  1.00  0.00    -0.288 OA
ATOM     32  C   UNL     1       2.207  -1.192   0.591  1.00  0.00     0.209 A 
ENDBRANCH  20  21
ENDBRANCH  16  19
ENDBRANCH  14  15
ENDBRANCH  13  14
ENDBRANCH  10  13
ENDBRANCH   4   9
ENDBRANCH   1   3
BRANCH   1  33
ATOM     33  O   UNL     1      10.953   2.788  -0.135  1.00  0.00    -0.458 OA
BRANCH  33  34
ATOM     34  C   UNL     1      12.281   3.336  -0.085  1.00  0.00     0.275 C 
BRANCH  34  35
ATOM     35  C   UNL     1      13.323   2.268   0.248  1.00  0.00     0.275 C 
BRANCH  35  36
ATOM     36  O   UNL     1      13.397   1.257  -0.777  1.00  0.00    -0.458 OA
BRANCH  36  37
ATOM     37  C   UNL     1      12.694   0.136  -0.510  1.00  0.00     0.338 C 
ATOM     38  O   UNL     1      12.054  -0.117   0.501  1.00  0.00    -0.246 OA
BRANCH  37  39
ATOM     39  C   UNL     1      12.680  -0.785  -1.655  1.00  0.00     0.060 A 
ATOM     40  C   UNL     1      11.684  -0.617  -2.609  1.00  0.00     0.016 A 
ATOM     41  C   UNL     1      13.413  -1.967  -1.623  1.00  0.00     0.016 A 
ATOM     42  C   UNL     1      11.281  -1.682  -3.398  1.00  0.00     0.010 A 
ATOM     43  C   UNL     1      13.116  -2.983  -2.542  1.00  0.00     0.010 A 
ATOM     44  C   UNL     1      12.004  -2.877  -3.400  1.00  0.00    -0.014 A 
BRANCH  44  45
ATOM     45  C   UNL     1      11.554  -4.011  -4.258  1.00  0.00     0.031 A 
ATOM     46  C   UNL     1      11.325  -5.372  -3.652  1.00  0.00     0.074 A 
ATOM     47  C   UNL     1      11.310  -3.822  -5.572  1.00  0.00     0.049 A 
ATOM     48  N   UNL     1      11.157  -6.526  -4.247  1.00  0.00    -0.248 NA
ATOM     49  C   UNL     1      11.298  -5.450  -2.182  1.00  0.00     0.031 C 
ATOM     50  C   UNL     1      11.414  -2.545  -6.285  1.00  0.00     0.029 A 
ATOM     51  N   UNL     1      10.913  -4.704  -6.547  1.00  0.00    -0.354 N 
ATOM     52  C   UNL     1      11.086  -7.472  -3.230  1.00  0.00     0.074 A 
ATOM     53  C   UNL     1      11.225  -6.758  -1.979  1.00  0.00     0.031 C 
ATOM     54  C   UNL     1      11.041  -2.715  -7.560  1.00  0.00     0.029 A 
ATOM     55  C   UNL     1      10.802  -4.131  -7.792  1.00  0.00     0.049 A 
ATOM     56  H   UNL     1      10.726  -5.655  -6.371  1.00  0.00     0.167 HD
ATOM     57  C   UNL     1      10.926  -8.813  -3.336  1.00  0.00     0.037 A 
ATOM     58  C   UNL     1      10.601  -4.685  -9.001  1.00  0.00     0.037 A 
ATOM     59  C   UNL     1      10.723  -9.501  -4.586  1.00  0.00     0.049 A 
ATOM     60  C   UNL     1      10.473  -6.176  -9.099  1.00  0.00     0.074 A 
ATOM     61  C   UNL     1      10.544 -10.855  -4.807  1.00  0.00     0.029 A 
ATOM     62  N   UNL     1      10.651  -8.881  -5.825  1.00  0.00    -0.354 N 
ATOM     63  N   UNL     1      10.492  -7.071  -8.142  1.00  0.00    -0.248 NA
ATOM     64  C   UNL     1      10.317  -6.736 -10.447  1.00  0.00     0.031 C 
ATOM     65  C   UNL     1      10.408 -11.060  -6.184  1.00  0.00     0.029 A 
ATOM     66  C   UNL     1      10.441  -9.827  -6.816  1.00  0.00     0.049 A 
ATOM     67  H   UNL     1      10.736  -7.912  -5.979  1.00  0.00     0.167 HD
ATOM     68  C   UNL     1      10.326  -8.298  -8.767  1.00  0.00     0.074 A 
ATOM     69  C   UNL     1      10.190  -8.028 -10.184  1.00  0.00     0.031 C 
ATOM     70  C   UNL     1      10.292  -9.537  -8.219  1.00  0.00     0.037 A 
BRANCH  57  71
ATOM     71  C   UNL     1      11.011  -9.632  -2.078  1.00  0.00     0.057 A 
ATOM     72  C   UNL     1      10.015  -9.609  -1.094  1.00  0.00     0.134 A 
ATOM     73  C   UNL     1      12.102 -10.487  -1.868  1.00  0.00     0.134 A 
ATOM     74  F   UNL     1       8.950  -8.804  -1.223  1.00  0.00    -0.206 F 
ATOM     75  C   UNL     1      10.112 -10.388   0.062  1.00  0.00     0.040 A 
ATOM     76  C   UNL     1      12.196 -11.292  -0.731  1.00  0.00     0.040 A 
ATOM     77  F   UNL     1      13.092 -10.564  -2.771  1.00  0.00    -0.206 F 
ATOM     78  C   UNL     1      11.202 -11.238   0.242  1.00  0.00     0.006 A 
ENDBRANCH  57  71
BRANCH  58  79
ATOM     79  C   UNL     1      10.578  -3.831 -10.219  1.00  0.00     0.057 A 
ATOM     80  C   UNL     1       9.414  -3.684 -10.981  1.00  0.00     0.134 A 
ATOM     81  C   UNL     1      11.721  -3.144 -10.651  1.00  0.00     0.134 A 
ATOM     82  F   UNL     1       8.293  -4.333 -10.633  1.00  0.00    -0.206 F 
ATOM     83  C   UNL     1       9.390  -2.899 -12.135  1.00  0.00     0.040 A 
ATOM     84  C   UNL     1      11.701  -2.327 -11.782  1.00  0.00     0.040 A 
ATOM     85  F   UNL     1      12.869  -3.237  -9.965  1.00  0.00    -0.206 F 
ATOM     86  C   UNL     1      10.535  -2.211 -12.534  1.00  0.00     0.006 A 
ENDBRANCH  58  79
BRANCH  70  87
ATOM     87  C   UNL     1      10.034 -10.684  -9.151  1.00  0.00     0.057 A 
ATOM     88  C   UNL     1      10.990 -11.123 -10.076  1.00  0.00     0.134 A 
ATOM     89  C   UNL     1       8.811 -11.364  -9.111  1.00  0.00     0.134 A 
ATOM     90  F   UNL     1      12.175 -10.502 -10.176  1.00  0.00    -0.206 F 
ATOM     91  C   UNL     1      10.726 -12.179 -10.949  1.00  0.00     0.040 A 
ATOM     92  C   UNL     1       8.547 -12.441  -9.957  1.00  0.00     0.040 A 
ATOM     93  F   UNL     1       7.855 -10.999  -8.243  1.00  0.00    -0.206 F 
ATOM     94  C   UNL     1       9.503 -12.845 -10.886  1.00  0.00     0.006 A 
ENDBRANCH  70  87
ENDBRANCH  44  45
ENDBRANCH  37  39
ENDBRANCH  36  37
ENDBRANCH  35  36
ENDBRANCH  34  35
ENDBRANCH  33  34
ENDBRANCH   1  33
TORSDOF 17
