REMARK SMILES COc1cc(C)cc2c1[C@@H](C)[C@@H](CC(=O)N[C@@H](Cc1c[nH]c3ccccc13)C(=O)OCCOC(=O)c1ccc(-c3c4nc(c(-c5c(F)cccc5F)c5ccc([nH]5)c(-c5c(F)cccc5F)c5nc(c(-c6c(F)cccc6F)c6ccc3[nH]6)C=C5)C=C4)cc1)C(=O)O2
REMARK SMILES IDX 31 1 30 2 28 3 29 4 17 5 16 6 14 7 15 8 13 10 12 11 3 12
REMARK SMILES IDX 4 13 9 14 5 15 8 16 10 17 6 18 7 19 92 20 11 21 90 22 91 23
REMARK SMILES IDX 2 24 1 25 18 26 19 27 20 28 27 29 21 30 22 31 26 32 23 34
REMARK SMILES IDX 25 35 24 36 32 37 33 38 34 39 35 40 36 41 37 42 89 43 38 44
REMARK SMILES IDX 88 45 39 46 40 47 41 48 82 49 42 50 87 51 81 52 83 53 43 54
REMARK SMILES IDX 86 55 80 56 79 57 44 59 70 60 53 61 69 62 54 63 57 64 68 65
REMARK SMILES IDX 84 66 55 67 56 68 67 70 85 71 58 72 45 73 46 74 51 75 47 76
REMARK SMILES IDX 48 77 50 78 52 79 49 80 71 81 72 82 77 83 73 84 74 85 76 86
REMARK SMILES IDX 78 87 75 88 59 89 60 90 65 91 61 92 62 93 64 94 66 95 63 96
REMARK H PARENT 16 9 21 33 83 58 57 69
REMARK Flexibility Score: inf
ROOT
ATOM      1  C   UNL     1      -0.735   4.470   9.263  1.00  0.00     0.274 C 
ENDROOT
BRANCH   1   2
ATOM      2  O   UNL     1      -1.641   4.143   8.190  1.00  0.00    -0.461 OA
BRANCH   2   3
ATOM      3  C   UNL     1      -1.396   4.773   7.018  1.00  0.00     0.329 C 
ATOM      4  O   UNL     1      -0.517   5.618   6.852  1.00  0.00    -0.250 OA
BRANCH   3   5
ATOM      5  C   UNL     1      -2.359   4.401   5.892  1.00  0.00     0.196 C 
BRANCH   5   6
ATOM      6  N   UNL     1      -3.088   3.142   5.894  1.00  0.00    -0.342 N 
ATOM      7  C   UNL     1      -3.533   2.428   4.807  1.00  0.00     0.221 C 
ATOM      8  O   UNL     1      -4.542   1.732   4.904  1.00  0.00    -0.275 OA
ATOM      9  H   UNL     1      -3.285   2.755   6.778  1.00  0.00     0.164 HD
BRANCH   7  10
ATOM     10  C   UNL     1      -2.652   2.342   3.569  1.00  0.00     0.116 C 
BRANCH  10  11
ATOM     11  C   UNL     1      -3.116   3.012   2.254  1.00  0.00     0.116 C 
ATOM     12  C   UNL     1       0.480   2.931   1.409  1.00  0.00     0.126 A 
ATOM     13  C   UNL     1       1.512   3.376   2.252  1.00  0.00     0.050 A 
ATOM     14  C   UNL     1      -0.799   3.479   1.550  1.00  0.00     0.041 A 
ATOM     15  C   UNL     1       1.280   4.388   3.205  1.00  0.00    -0.044 A 
ATOM     16  C   UNL     1      -0.937   4.622   2.351  1.00  0.00     0.138 A 
ATOM     17  C   UNL     1      -2.101   2.849   1.076  1.00  0.00     0.038 C 
ATOM     18  C   UNL     1       2.246   4.705   4.305  1.00  0.00     0.044 C 
ATOM     19  C   UNL     1       0.084   5.093   3.160  1.00  0.00     0.051 A 
ATOM     20  O   UNL     1      -2.181   5.257   2.494  1.00  0.00    -0.426 OA
ATOM     21  C   UNL     1      -2.065   1.384   0.633  1.00  0.00     0.014 C 
ATOM     22  C   UNL     1      -3.335   4.498   2.358  1.00  0.00     0.315 C 
ATOM     23  O   UNL     1      -4.444   5.018   2.334  1.00  0.00    -0.251 OA
BRANCH  12  24
ATOM     24  O   UNL     1       0.650   2.028   0.400  1.00  0.00    -0.496 OA
ATOM     25  C   UNL     1       1.533   0.935   0.614  1.00  0.00     0.278 C 
ENDBRANCH  12  24
ENDBRANCH  10  11
ENDBRANCH   7  10
ENDBRANCH   5   6
BRANCH   5  26
ATOM     26  C   UNL     1      -3.234   5.618   5.599  1.00  0.00     0.074 C 
BRANCH  26  27
ATOM     27  C   UNL     1      -4.504   6.010   6.312  1.00  0.00    -0.020 A 
ATOM     28  C   UNL     1      -4.868   7.350   6.334  1.00  0.00     0.087 A 
ATOM     29  C   UNL     1      -5.672   5.282   6.757  1.00  0.00     0.003 A 
ATOM     30  N   UNL     1      -6.227   7.417   6.397  1.00  0.00    -0.361 N 
ATOM     31  C   UNL     1      -6.746   6.178   6.664  1.00  0.00     0.046 A 
ATOM     32  C   UNL     1      -6.000   3.961   7.135  1.00  0.00     0.010 A 
ATOM     33  H   UNL     1      -6.758   8.236   6.270  1.00  0.00     0.166 HD
ATOM     34  C   UNL     1      -8.090   5.799   6.793  1.00  0.00     0.026 A 
ATOM     35  C   UNL     1      -7.336   3.578   7.341  1.00  0.00     0.001 A 
ATOM     36  C   UNL     1      -8.369   4.479   7.136  1.00  0.00     0.002 A 
ENDBRANCH  26  27
ENDBRANCH   5  26
ENDBRANCH   3   5
ENDBRANCH   2   3
ENDBRANCH   1   2
BRANCH   1  37
ATOM     37  C   UNL     1      -0.013   3.217   9.757  1.00  0.00     0.275 C 
BRANCH  37  38
ATOM     38  O   UNL     1       0.910   2.715   8.770  1.00  0.00    -0.458 OA
BRANCH  38  39
ATOM     39  C   UNL     1       0.382   1.820   7.895  1.00  0.00     0.338 C 
ATOM     40  O   UNL     1      -0.760   1.421   7.866  1.00  0.00    -0.246 OA
BRANCH  39  41
ATOM     41  C   UNL     1       1.385   1.467   6.861  1.00  0.00     0.060 A 
ATOM     42  C   UNL     1       2.752   1.328   7.131  1.00  0.00     0.016 A 
ATOM     43  C   UNL     1       0.910   1.245   5.570  1.00  0.00     0.016 A 
ATOM     44  C   UNL     1       3.644   0.982   6.101  1.00  0.00     0.010 A 
ATOM     45  C   UNL     1       1.803   0.925   4.549  1.00  0.00     0.010 A 
ATOM     46  C   UNL     1       3.182   0.796   4.790  1.00  0.00    -0.014 A 
BRANCH  46  47
ATOM     47  C   UNL     1       4.102   0.449   3.667  1.00  0.00     0.031 A 
ATOM     48  C   UNL     1       5.087   1.444   3.108  1.00  0.00     0.074 A 
ATOM     49  C   UNL     1       3.979  -0.745   3.060  1.00  0.00     0.049 A 
ATOM     50  N   UNL     1       5.964   1.310   2.142  1.00  0.00    -0.248 NA
ATOM     51  C   UNL     1       5.037   2.794   3.672  1.00  0.00     0.031 C 
ATOM     52  C   UNL     1       3.038  -1.797   3.446  1.00  0.00     0.029 A 
ATOM     53  N   UNL     1       4.639  -1.266   1.976  1.00  0.00    -0.354 N 
ATOM     54  C   UNL     1       6.549   2.563   1.976  1.00  0.00     0.074 A 
ATOM     55  C   UNL     1       5.873   3.458   2.889  1.00  0.00     0.031 C 
ATOM     56  C   UNL     1       3.179  -2.837   2.611  1.00  0.00     0.029 A 
ATOM     57  C   UNL     1       4.241  -2.539   1.655  1.00  0.00     0.049 A 
ATOM     58  H   UNL     1       5.332  -0.775   1.478  1.00  0.00     0.167 HD
ATOM     59  C   UNL     1       7.566   2.939   1.159  1.00  0.00     0.037 A 
ATOM     60  C   UNL     1       4.710  -3.392   0.727  1.00  0.00     0.037 A 
ATOM     61  C   UNL     1       8.230   2.055   0.238  1.00  0.00     0.049 A 
ATOM     62  C   UNL     1       5.884  -2.997  -0.122  1.00  0.00     0.074 A 
ATOM     63  C   UNL     1       9.296   2.315  -0.608  1.00  0.00     0.029 A 
ATOM     64  N   UNL     1       7.864   0.736   0.022  1.00  0.00    -0.354 N 
ATOM     65  N   UNL     1       6.540  -1.863  -0.150  1.00  0.00    -0.248 NA
ATOM     66  C   UNL     1       6.403  -4.019  -1.042  1.00  0.00     0.031 C 
ATOM     67  C   UNL     1       9.523   1.175  -1.388  1.00  0.00     0.029 A 
ATOM     68  C   UNL     1       8.643   0.186  -0.981  1.00  0.00     0.049 A 
ATOM     69  H   UNL     1       7.154   0.260   0.510  1.00  0.00     0.167 HD
ATOM     70  C   UNL     1       7.568  -2.044  -1.067  1.00  0.00     0.074 A 
ATOM     71  C   UNL     1       7.454  -3.400  -1.563  1.00  0.00     0.031 C 
ATOM     72  C   UNL     1       8.523  -1.166  -1.460  1.00  0.00     0.037 A 
BRANCH  59  73
ATOM     73  C   UNL     1       7.992   4.382   1.207  1.00  0.00     0.057 A 
ATOM     74  C   UNL     1       7.763   5.231   0.117  1.00  0.00     0.134 A 
ATOM     75  C   UNL     1       8.615   4.939   2.333  1.00  0.00     0.134 A 
ATOM     76  F   UNL     1       7.187   4.764  -1.001  1.00  0.00    -0.206 F 
ATOM     77  C   UNL     1       8.115   6.582   0.152  1.00  0.00     0.040 A 
ATOM     78  C   UNL     1       8.945   6.296   2.393  1.00  0.00     0.040 A 
ATOM     79  F   UNL     1       8.861   4.187   3.417  1.00  0.00    -0.206 F 
ATOM     80  C   UNL     1       8.694   7.122   1.299  1.00  0.00     0.006 A 
ENDBRANCH  59  73
BRANCH  60  81
ATOM     81  C   UNL     1       4.148  -4.760   0.659  1.00  0.00     0.057 A 
ATOM     82  C   UNL     1       2.897  -5.018   0.091  1.00  0.00     0.134 A 
ATOM     83  C   UNL     1       4.846  -5.836   1.218  1.00  0.00     0.134 A 
ATOM     84  F   UNL     1       2.175  -4.020  -0.439  1.00  0.00    -0.206 F 
ATOM     85  C   UNL     1       2.357  -6.305   0.082  1.00  0.00     0.040 A 
ATOM     86  C   UNL     1       4.326  -7.129   1.202  1.00  0.00     0.040 A 
ATOM     87  F   UNL     1       6.051  -5.642   1.773  1.00  0.00    -0.206 F 
ATOM     88  C   UNL     1       3.074  -7.365   0.636  1.00  0.00     0.006 A 
ENDBRANCH  60  81
BRANCH  72  89
ATOM     89  C   UNL     1       9.531  -1.644  -2.461  1.00  0.00     0.057 A 
ATOM     90  C   UNL     1      10.860  -1.869  -2.079  1.00  0.00     0.134 A 
ATOM     91  C   UNL     1       9.201  -1.835  -3.809  1.00  0.00     0.134 A 
ATOM     92  F   UNL     1      11.241  -1.696  -0.805  1.00  0.00    -0.206 F 
ATOM     93  C   UNL     1      11.826  -2.264  -3.004  1.00  0.00     0.040 A 
ATOM     94  C   UNL     1      10.155  -2.252  -4.739  1.00  0.00     0.040 A 
ATOM     95  F   UNL     1       7.944  -1.644  -4.234  1.00  0.00    -0.206 F 
ATOM     96  C   UNL     1      11.473  -2.461  -4.338  1.00  0.00     0.006 A 
ENDBRANCH  72  89
ENDBRANCH  46  47
ENDBRANCH  39  41
ENDBRANCH  38  39
ENDBRANCH  37  38
ENDBRANCH   1  37
TORSDOF 17
