REMARK SMILES C[NH2+]CCCC(=O)NC[C@@H]1CC[C@H](C(=O)OCCOC(=O)c2ccc(-c3c4nc(c(-c5c(F)cccc5F)c5ccc([nH]5)c(-c5c(F)cccc5F)c5nc(c(-c6c(F)cccc6F)c6ccc3[nH]6)C=C5)C=C4)cc2)O1
REMARK SMILES IDX 14 1 15 2 13 3 10 4 11 5 76 6 12 7 9 8 8 9 6 10 7 11 5 13
REMARK SMILES IDX 4 14 3 15 2 16 1 17 16 20 17 21 18 22 19 23 20 24 21 25
REMARK SMILES IDX 22 26 23 27 75 28 24 29 74 30 25 31 26 32 27 33 68 34 28 35
REMARK SMILES IDX 73 36 67 37 69 38 29 39 72 40 66 41 65 42 30 44 56 45 39 46
REMARK SMILES IDX 55 47 40 48 43 49 54 50 70 51 41 52 42 53 53 55 71 56 44 57
REMARK SMILES IDX 31 58 32 59 37 60 33 61 34 62 36 63 38 64 35 65 57 66 58 67
REMARK SMILES IDX 63 68 59 69 60 70 62 71 64 72 61 73 45 74 46 75 51 76 47 77
REMARK SMILES IDX 48 78 50 79 52 80 49 81
REMARK H PARENT 8 12 2 18 2 19 69 43 43 54
REMARK Flexibility Score: inf
ROOT
ATOM      1  C   UNL     1      -3.583  -3.412  -0.209  1.00  0.00     0.335 C 
ATOM      2  O   UNL     1      -4.042  -2.274  -0.200  1.00  0.00    -0.249 OA
ENDROOT
BRANCH   1   3
ATOM      3  C   UNL     1      -2.635  -3.932   0.888  1.00  0.00     0.228 C 
ATOM      4  C   UNL     1      -0.452  -4.307   0.159  1.00  0.00     0.138 C 
ATOM      5  C   UNL     1      -1.201  -5.632   0.068  1.00  0.00     0.037 C 
ATOM      6  O   UNL     1      -1.333  -3.358   0.777  1.00  0.00    -0.361 OA
ATOM      7  C   UNL     1      -2.409  -5.427   0.953  1.00  0.00     0.047 C 
BRANCH   4   8
ATOM      8  C   UNL     1       0.053  -3.756  -1.188  1.00  0.00     0.147 C 
BRANCH   8   9
ATOM      9  N   UNL     1      -1.022  -3.476  -2.135  1.00  0.00    -0.353 N 
ATOM     10  C   UNL     1      -1.330  -2.345  -2.823  1.00  0.00     0.220 C 
ATOM     11  O   UNL     1      -2.337  -2.358  -3.535  1.00  0.00    -0.275 OA
ATOM     12  H   UNL     1      -1.627  -4.234  -2.303  1.00  0.00     0.163 HD
BRANCH  10  13
ATOM     13  C   UNL     1      -0.447  -1.119  -2.751  1.00  0.00     0.106 C 
BRANCH  13  14
ATOM     14  C   UNL     1      -1.002  -0.029  -1.831  1.00  0.00     0.071 C 
BRANCH  14  15
ATOM     15  C   UNL     1      -0.672  -0.194  -0.344  1.00  0.00     0.260 C 
BRANCH  15  16
ATOM     16  N   UNL     1       0.758  -0.167  -0.023  1.00  0.00    -0.349 N 
ATOM     17  C   UNL     1       1.266   1.185   0.150  1.00  0.00     0.330 C 
ATOM     18  H   UNL     1       0.909  -0.686   0.842  1.00  0.00     0.346 HD
ATOM     19  H   UNL     1       1.259  -0.587  -0.806  1.00  0.00     0.346 HD
ENDBRANCH  15  16
ENDBRANCH  14  15
ENDBRANCH  13  14
ENDBRANCH  10  13
ENDBRANCH   8   9
ENDBRANCH   4   8
ENDBRANCH   1   3
BRANCH   1  20
ATOM     20  O   UNL     1      -3.839  -4.344  -1.168  1.00  0.00    -0.460 OA
BRANCH  20  21
ATOM     21  C   UNL     1      -4.745  -3.952  -2.221  1.00  0.00     0.274 C 
BRANCH  21  22
ATOM     22  C   UNL     1      -6.122  -4.594  -2.033  1.00  0.00     0.275 C 
BRANCH  22  23
ATOM     23  O   UNL     1      -6.801  -4.059  -0.882  1.00  0.00    -0.458 OA
BRANCH  23  24
ATOM     24  C   UNL     1      -6.590  -4.737   0.269  1.00  0.00     0.338 C 
ATOM     25  O   UNL     1      -5.941  -5.756   0.428  1.00  0.00    -0.246 OA
BRANCH  24  26
ATOM     26  C   UNL     1      -7.151  -3.980   1.393  1.00  0.00     0.060 A 
ATOM     27  C   UNL     1      -6.258  -3.343   2.256  1.00  0.00     0.016 A 
ATOM     28  C   UNL     1      -8.519  -3.992   1.666  1.00  0.00     0.016 A 
ATOM     29  C   UNL     1      -6.719  -2.743   3.419  1.00  0.00     0.010 A 
ATOM     30  C   UNL     1      -8.986  -3.370   2.828  1.00  0.00     0.010 A 
ATOM     31  C   UNL     1      -8.085  -2.764   3.721  1.00  0.00    -0.014 A 
BRANCH  31  32
ATOM     32  C   UNL     1      -8.539  -2.199   5.012  1.00  0.00     0.031 A 
ATOM     33  C   UNL     1      -8.958  -3.114   6.124  1.00  0.00     0.074 A 
ATOM     34  C   UNL     1      -8.516  -0.867   5.199  1.00  0.00     0.049 A 
ATOM     35  N   UNL     1      -9.411  -2.815   7.314  1.00  0.00    -0.248 NA
ATOM     36  C   UNL     1      -8.858  -4.558   5.861  1.00  0.00     0.031 C 
ATOM     37  C   UNL     1      -8.093   0.118   4.204  1.00  0.00     0.029 A 
ATOM     38  N   UNL     1      -8.848  -0.117   6.297  1.00  0.00    -0.354 N 
ATOM     39  C   UNL     1      -9.673  -4.030   7.934  1.00  0.00     0.074 A 
ATOM     40  C   UNL     1      -9.342  -5.070   6.983  1.00  0.00     0.031 C 
ATOM     41  C   UNL     1      -8.184   1.346   4.739  1.00  0.00     0.029 A 
ATOM     42  C   UNL     1      -8.704   1.234   6.099  1.00  0.00     0.049 A 
ATOM     43  H   UNL     1      -9.160  -0.508   7.145  1.00  0.00     0.167 HD
ATOM     44  C   UNL     1     -10.145  -4.255   9.182  1.00  0.00     0.037 A 
ATOM     45  C   UNL     1      -8.978   2.265   6.917  1.00  0.00     0.037 A 
ATOM     46  C   UNL     1     -10.452  -3.219  10.133  1.00  0.00     0.049 A 
ATOM     47  C   UNL     1      -9.507   1.991   8.295  1.00  0.00     0.074 A 
ATOM     48  C   UNL     1     -10.929  -3.346  11.427  1.00  0.00     0.029 A 
ATOM     49  N   UNL     1     -10.305  -1.861   9.893  1.00  0.00    -0.354 N 
ATOM     50  N   UNL     1      -9.767   0.839   8.864  1.00  0.00    -0.248 NA
ATOM     51  C   UNL     1      -9.781   3.159   9.143  1.00  0.00     0.031 C 
ATOM     52  C   UNL     1     -11.095  -2.061  11.960  1.00  0.00     0.029 A 
ATOM     53  C   UNL     1     -10.691  -1.137  11.009  1.00  0.00     0.049 A 
ATOM     54  H   UNL     1      -9.974  -1.469   9.052  1.00  0.00     0.167 HD
ATOM     55  C   UNL     1     -10.232   1.140  10.136  1.00  0.00     0.074 A 
ATOM     56  C   UNL     1     -10.196   2.583  10.264  1.00  0.00     0.031 C 
ATOM     57  C   UNL     1     -10.658   0.299  11.110  1.00  0.00     0.037 A 
BRANCH  44  58
ATOM     58  C   UNL     1     -10.386  -5.681   9.573  1.00  0.00     0.057 A 
ATOM     59  C   UNL     1      -9.333  -6.553   9.879  1.00  0.00     0.134 A 
ATOM     60  C   UNL     1     -11.689  -6.188   9.649  1.00  0.00     0.134 A 
ATOM     61  F   UNL     1      -8.061  -6.134   9.807  1.00  0.00    -0.206 F 
ATOM     62  C   UNL     1      -9.568  -7.886  10.224  1.00  0.00     0.040 A 
ATOM     63  C   UNL     1     -11.938  -7.512  10.012  1.00  0.00     0.040 A 
ATOM     64  F   UNL     1     -12.741  -5.404   9.368  1.00  0.00    -0.206 F 
ATOM     65  C   UNL     1     -10.874  -8.367  10.295  1.00  0.00     0.006 A 
ENDBRANCH  44  58
BRANCH  45  66
ATOM     66  C   UNL     1      -8.769   3.652   6.439  1.00  0.00     0.057 A 
ATOM     67  C   UNL     1      -7.708   4.431   6.912  1.00  0.00     0.134 A 
ATOM     68  C   UNL     1      -9.615   4.221   5.479  1.00  0.00     0.134 A 
ATOM     69  F   UNL     1      -6.878   3.945   7.846  1.00  0.00    -0.206 F 
ATOM     70  C   UNL     1      -7.497   5.731   6.450  1.00  0.00     0.040 A 
ATOM     71  C   UNL     1      -9.404   5.511   4.994  1.00  0.00     0.040 A 
ATOM     72  F   UNL     1     -10.648   3.521   4.987  1.00  0.00    -0.206 F 
ATOM     73  C   UNL     1      -8.343   6.272   5.482  1.00  0.00     0.006 A 
ENDBRANCH  45  66
BRANCH  57  74
ATOM     74  C   UNL     1     -11.111   0.926  12.393  1.00  0.00     0.057 A 
ATOM     75  C   UNL     1     -12.351   1.569  12.494  1.00  0.00     0.134 A 
ATOM     76  C   UNL     1     -10.309   0.874  13.539  1.00  0.00     0.134 A 
ATOM     77  F   UNL     1     -13.158   1.663  11.426  1.00  0.00    -0.206 F 
ATOM     78  C   UNL     1     -12.769   2.159  13.688  1.00  0.00     0.040 A 
ATOM     79  C   UNL     1     -10.724   1.444  14.743  1.00  0.00     0.040 A 
ATOM     80  F   UNL     1      -9.113   0.268  13.506  1.00  0.00    -0.206 F 
ATOM     81  C   UNL     1     -11.955   2.094  14.818  1.00  0.00     0.006 A 
ENDBRANCH  57  74
ENDBRANCH  31  32
ENDBRANCH  24  26
ENDBRANCH  23  24
ENDBRANCH  22  23
ENDBRANCH  21  22
ENDBRANCH  20  21
ENDBRANCH   1  20
TORSDOF 17
