REMARK SMILES CC(C)(O)CCOc1ccc(C(=O)OCCOC(=O)c2ccc(-c3c4nc(c(-c5c(F)cccc5F)c5ccc([nH]5)c(-c5c(F)cccc5F)c5nc(c(-c6c(F)cccc6F)c6ccc3[nH]6)C=C5)C=C4)cc2)cc1
REMARK SMILES IDX 14 1 12 2 13 3 11 4 8 5 9 6 75 7 10 8 74 9 7 10 6 11 5 12
REMARK SMILES IDX 2 13 1 14 3 15 4 16 15 18 16 19 17 20 18 21 19 22 20 23
REMARK SMILES IDX 21 24 73 25 22 26 72 27 23 28 24 29 25 30 66 31 26 32 71 33
REMARK SMILES IDX 65 34 67 35 27 36 70 37 64 38 63 39 28 41 54 42 37 43 53 44
REMARK SMILES IDX 38 45 41 46 52 47 68 48 39 49 40 50 51 52 69 53 42 54 29 55
REMARK SMILES IDX 30 56 35 57 31 58 32 59 34 60 36 61 33 62 55 63 56 64 61 65
REMARK SMILES IDX 57 66 58 67 60 68 62 69 59 70 43 71 44 72 49 73 45 74 46 75
REMARK SMILES IDX 48 76 50 77 47 78
REMARK H PARENT 4 17 67 40 41 51
REMARK Flexibility Score: inf
ROOT
ATOM      1  O   UNL     1      -0.144  -4.005  -0.073  1.00  0.00    -0.458 OA
ENDROOT
BRANCH   1   2
ATOM      2  C   UNL     1      -1.038  -3.456   0.779  1.00  0.00     0.338 C 
ATOM      3  O   UNL     1      -2.054  -3.972   1.223  1.00  0.00    -0.246 OA
BRANCH   2   4
ATOM      4  C   UNL     1      -0.679  -2.065   1.089  1.00  0.00     0.060 A 
ATOM      5  C   UNL     1      -0.109   0.607   1.624  1.00  0.00     0.119 A 
ATOM      6  C   UNL     1       0.643  -0.400   2.235  1.00  0.00     0.047 A 
ATOM      7  C   UNL     1      -1.241   0.268   0.885  1.00  0.00     0.047 A 
ATOM      8  C   UNL     1       0.395  -1.737   1.923  1.00  0.00     0.019 A 
ATOM      9  C   UNL     1      -1.523  -1.068   0.607  1.00  0.00     0.019 A 
BRANCH   5  10
ATOM     10  O   UNL     1       0.422   1.862   1.723  1.00  0.00    -0.493 OA
BRANCH  10  11
ATOM     11  C   UNL     1       0.183   2.764   0.636  1.00  0.00     0.232 C 
BRANCH  11  12
ATOM     12  C   UNL     1       1.147   2.649  -0.568  1.00  0.00     0.076 C 
BRANCH  12  13
ATOM     13  C   UNL     1       1.036   1.418  -1.500  1.00  0.00     0.062 C 
ATOM     14  C   UNL     1       1.855   0.222  -0.995  1.00  0.00     0.042 C 
ATOM     15  C   UNL     1       1.542   1.748  -2.911  1.00  0.00     0.042 C 
BRANCH  13  16
ATOM     16  O   UNL     1      -0.339   1.078  -1.670  1.00  0.00    -0.390 OA
ATOM     17  H   UNL     1      -0.412   0.307  -2.253  1.00  0.00     0.211 HD
ENDBRANCH  13  16
ENDBRANCH  12  13
ENDBRANCH  11  12
ENDBRANCH  10  11
ENDBRANCH   5  10
ENDBRANCH   2   4
ENDBRANCH   1   2
BRANCH   1  18
ATOM     18  C   UNL     1      -0.471  -5.340  -0.510  1.00  0.00     0.275 C 
BRANCH  18  19
ATOM     19  C   UNL     1       0.350  -6.399   0.225  1.00  0.00     0.275 C 
BRANCH  19  20
ATOM     20  O   UNL     1       0.126  -6.340   1.645  1.00  0.00    -0.458 OA
BRANCH  20  21
ATOM     21  C   UNL     1       1.065  -5.643   2.321  1.00  0.00     0.338 C 
ATOM     22  O   UNL     1       2.075  -5.126   1.872  1.00  0.00    -0.246 OA
BRANCH  21  23
ATOM     23  C   UNL     1       0.681  -5.458   3.724  1.00  0.00     0.060 A 
ATOM     24  C   UNL     1      -0.059  -4.325   4.045  1.00  0.00     0.016 A 
ATOM     25  C   UNL     1       1.278  -6.212   4.729  1.00  0.00     0.016 A 
ATOM     26  C   UNL     1      -0.064  -3.840   5.341  1.00  0.00     0.010 A 
ATOM     27  C   UNL     1       1.139  -5.804   6.061  1.00  0.00     0.010 A 
ATOM     28  C   UNL     1       0.510  -4.585   6.376  1.00  0.00    -0.014 A 
BRANCH  28  29
ATOM     29  C   UNL     1       0.466  -4.058   7.767  1.00  0.00     0.031 A 
ATOM     30  C   UNL     1       1.738  -3.869   8.549  1.00  0.00     0.074 A 
ATOM     31  C   UNL     1      -0.717  -3.717   8.318  1.00  0.00     0.049 A 
ATOM     32  N   UNL     1       1.896  -3.597   9.820  1.00  0.00    -0.248 NA
ATOM     33  C   UNL     1       3.002  -4.023   7.811  1.00  0.00     0.031 C 
ATOM     34  C   UNL     1      -2.019  -3.790   7.649  1.00  0.00     0.029 A 
ATOM     35  N   UNL     1      -1.018  -3.229   9.565  1.00  0.00    -0.354 N 
ATOM     36  C   UNL     1       3.268  -3.607  10.044  1.00  0.00     0.074 A 
ATOM     37  C   UNL     1       3.899  -3.921   8.781  1.00  0.00     0.031 C 
ATOM     38  C   UNL     1      -2.967  -3.321   8.470  1.00  0.00     0.029 A 
ATOM     39  C   UNL     1      -2.363  -3.027   9.762  1.00  0.00     0.049 A 
ATOM     40  H   UNL     1      -0.338  -3.042  10.251  1.00  0.00     0.167 HD
ATOM     41  C   UNL     1       3.933  -3.377  11.202  1.00  0.00     0.037 A 
ATOM     42  C   UNL     1      -3.049  -2.702  10.872  1.00  0.00     0.037 A 
ATOM     43  C   UNL     1       3.290  -3.017  12.441  1.00  0.00     0.049 A 
ATOM     44  C   UNL     1      -2.294  -2.509  12.154  1.00  0.00     0.074 A 
ATOM     45  C   UNL     1       3.870  -2.751  13.669  1.00  0.00     0.029 A 
ATOM     46  N   UNL     1       1.920  -2.862  12.604  1.00  0.00    -0.354 N 
ATOM     47  N   UNL     1      -1.003  -2.577  12.370  1.00  0.00    -0.248 NA
ATOM     48  C   UNL     1      -3.092  -2.213  13.350  1.00  0.00     0.031 C 
ATOM     49  C   UNL     1       2.848  -2.487  14.587  1.00  0.00     0.029 A 
ATOM     50  C   UNL     1       1.636  -2.526  13.918  1.00  0.00     0.049 A 
ATOM     51  H   UNL     1       1.250  -2.975  11.892  1.00  0.00     0.167 HD
ATOM     52  C   UNL     1      -0.830  -2.308  13.720  1.00  0.00     0.074 A 
ATOM     53  C   UNL     1      -2.148  -2.060  14.267  1.00  0.00     0.031 C 
ATOM     54  C   UNL     1       0.317  -2.273  14.442  1.00  0.00     0.037 A 
BRANCH  41  55
ATOM     55  C   UNL     1       5.426  -3.550  11.197  1.00  0.00     0.057 A 
ATOM     56  C   UNL     1       6.286  -2.667  10.530  1.00  0.00     0.134 A 
ATOM     57  C   UNL     1       6.016  -4.609  11.902  1.00  0.00     0.134 A 
ATOM     58  F   UNL     1       5.791  -1.639   9.825  1.00  0.00    -0.206 F 
ATOM     59  C   UNL     1       7.671  -2.846  10.542  1.00  0.00     0.040 A 
ATOM     60  C   UNL     1       7.401  -4.781  11.947  1.00  0.00     0.040 A 
ATOM     61  F   UNL     1       5.256  -5.490  12.569  1.00  0.00    -0.206 F 
ATOM     62  C   UNL     1       8.233  -3.902  11.258  1.00  0.00     0.006 A 
ENDBRANCH  41  55
BRANCH  42  63
ATOM     63  C   UNL     1      -4.530  -2.596  10.827  1.00  0.00     0.057 A 
ATOM     64  C   UNL     1      -5.177  -1.371  11.024  1.00  0.00     0.134 A 
ATOM     65  C   UNL     1      -5.336  -3.716  10.579  1.00  0.00     0.134 A 
ATOM     66  F   UNL     1      -4.464  -0.266  11.285  1.00  0.00    -0.206 F 
ATOM     67  C   UNL     1      -6.569  -1.266  10.990  1.00  0.00     0.040 A 
ATOM     68  C   UNL     1      -6.726  -3.619  10.508  1.00  0.00     0.040 A 
ATOM     69  F   UNL     1      -4.780  -4.920  10.376  1.00  0.00    -0.206 F 
ATOM     70  C   UNL     1      -7.346  -2.391  10.723  1.00  0.00     0.006 A 
ENDBRANCH  42  63
BRANCH  54  71
ATOM     71  C   UNL     1       0.195  -1.900  15.890  1.00  0.00     0.057 A 
ATOM     72  C   UNL     1      -0.373  -2.762  16.836  1.00  0.00     0.134 A 
ATOM     73  C   UNL     1       0.676  -0.665  16.345  1.00  0.00     0.134 A 
ATOM     74  F   UNL     1      -0.867  -3.953  16.462  1.00  0.00    -0.206 F 
ATOM     75  C   UNL     1      -0.485  -2.398  18.178  1.00  0.00     0.040 A 
ATOM     76  C   UNL     1       0.598  -0.303  17.689  1.00  0.00     0.040 A 
ATOM     77  F   UNL     1       1.238   0.204  15.492  1.00  0.00    -0.206 F 
ATOM     78  C   UNL     1       0.008  -1.167  18.609  1.00  0.00     0.006 A 
ENDBRANCH  54  71
ENDBRANCH  28  29
ENDBRANCH  21  23
ENDBRANCH  20  21
ENDBRANCH  19  20
ENDBRANCH  18  19
ENDBRANCH   1  18
TORSDOF 16
