REMARK SMILES Cc1nsc(N(C)C(=O)[C@@H](C)CCC[C@H](C)[NH3+])c1C(=O)OCCOC(=O)c1ccc(-c2c3nc(c(-c4c(F)cccc4F)c4ccc([nH]4)c(-c4c(F)cccc4F)c4nc(c(-c5c(F)cccc5F)c5ccc2[nH]5)C=C4)C=C3)cc1
REMARK SMILES IDX 1 1 2 2 3 3 4 4 5 5 18 6 19 7 20 8 21 9 22 10 23 11 24 12
REMARK SMILES IDX 25 13 26 14 27 15 28 16 80 17 29 18 79 19 30 20 31 21 32 22
REMARK SMILES IDX 73 23 33 24 78 25 72 26 74 27 34 28 77 29 71 30 70 31 35 33
REMARK SMILES IDX 61 34 44 35 60 36 45 37 48 38 59 39 75 40 46 41 47 42 58 44
REMARK SMILES IDX 76 45 49 46 36 47 37 48 42 49 38 50 39 51 41 52 43 53 40 54
REMARK SMILES IDX 62 55 63 56 68 57 64 58 65 59 67 60 69 61 66 62 50 63 51 64
REMARK SMILES IDX 56 65 52 66 53 67 55 68 57 69 54 70 6 71 7 72 8 73 9 74
REMARK SMILES IDX 10 75 11 76 12 77 13 78 14 79 15 80 16 81 17 82
REMARK H PARENT 74 32 48 43 17 83 17 84 17 85
REMARK Flexibility Score: inf
ROOT
ATOM      1  C   UNL     1       6.425   2.899  13.586  1.00  0.00     0.069 C 
ATOM      2  C   UNL     1       5.070   2.494  13.103  1.00  0.00     0.068 A 
ATOM      3  N   UNL     1       4.511   1.451  13.707  1.00  0.00    -0.195 NA
ATOM      4  S   UNL     1       3.070   1.144  13.008  1.00  0.00    -0.017 S 
ATOM      5  C   UNL     1       3.113   2.401  11.818  1.00  0.00     0.133 A 
ATOM      6  C   UNL     1       4.279   3.144  12.062  1.00  0.00     0.117 A 
ENDROOT
BRANCH   6   7
ATOM      7  C   UNL     1       4.715   4.378  11.412  1.00  0.00     0.343 C 
ATOM      8  O   UNL     1       3.984   5.342  11.193  1.00  0.00    -0.246 OA
BRANCH   7   9
ATOM      9  O   UNL     1       6.053   4.361  11.148  1.00  0.00    -0.458 OA
BRANCH   9  10
ATOM     10  C   UNL     1       6.556   5.199  10.097  1.00  0.00     0.275 C 
BRANCH  10  11
ATOM     11  C   UNL     1       7.173   4.306   9.027  1.00  0.00     0.275 C 
BRANCH  11  12
ATOM     12  O   UNL     1       6.157   3.512   8.427  1.00  0.00    -0.458 OA
BRANCH  12  13
ATOM     13  C   UNL     1       5.883   2.325   9.016  1.00  0.00     0.338 C 
ATOM     14  O   UNL     1       6.373   1.861  10.030  1.00  0.00    -0.246 OA
BRANCH  13  15
ATOM     15  C   UNL     1       5.000   1.573   8.116  1.00  0.00     0.060 A 
ATOM     16  C   UNL     1       4.580   0.297   8.512  1.00  0.00     0.016 A 
ATOM     17  C   UNL     1       4.793   2.059   6.817  1.00  0.00     0.016 A 
ATOM     18  C   UNL     1       4.142  -0.576   7.542  1.00  0.00     0.010 A 
ATOM     19  C   UNL     1       4.397   1.185   5.849  1.00  0.00     0.010 A 
ATOM     20  C   UNL     1       4.157  -0.136   6.218  1.00  0.00    -0.014 A 
BRANCH  20  21
ATOM     21  C   UNL     1       4.013  -1.094   5.153  1.00  0.00     0.031 A 
ATOM     22  C   UNL     1       2.614  -1.353   4.734  1.00  0.00     0.074 A 
ATOM     23  C   UNL     1       5.129  -1.490   4.510  1.00  0.00     0.049 A 
ATOM     24  N   UNL     1       1.984  -2.479   4.711  1.00  0.00    -0.248 NA
ATOM     25  C   UNL     1       1.756  -0.191   4.436  1.00  0.00     0.031 C 
ATOM     26  C   UNL     1       6.506  -1.002   4.678  1.00  0.00     0.029 A 
ATOM     27  N   UNL     1       5.232  -2.328   3.451  1.00  0.00    -0.354 N 
ATOM     28  C   UNL     1       0.712  -2.201   4.213  1.00  0.00     0.074 A 
ATOM     29  C   UNL     1       0.577  -0.771   4.221  1.00  0.00     0.031 C 
ATOM     30  C   UNL     1       7.244  -1.367   3.605  1.00  0.00     0.029 A 
ATOM     31  C   UNL     1       6.431  -2.213   2.755  1.00  0.00     0.049 A 
ATOM     32  H   UNL     1       4.523  -2.961   3.196  1.00  0.00     0.167 HD
ATOM     33  C   UNL     1      -0.049  -3.169   3.633  1.00  0.00     0.037 A 
ATOM     34  C   UNL     1       6.622  -2.686   1.499  1.00  0.00     0.037 A 
ATOM     35  C   UNL     1       0.431  -4.478   3.994  1.00  0.00     0.049 A 
ATOM     36  C   UNL     1       5.550  -3.700   1.261  1.00  0.00     0.074 A 
ATOM     37  C   UNL     1       0.559  -5.156   5.191  1.00  0.00     0.029 A 
ATOM     38  N   UNL     1       1.244  -5.134   3.100  1.00  0.00    -0.354 N 
ATOM     39  N   UNL     1       5.463  -4.822   1.931  1.00  0.00    -0.248 NA
ATOM     40  C   UNL     1       4.297  -3.224   0.683  1.00  0.00     0.031 C 
ATOM     41  C   UNL     1       1.807  -5.835   5.089  1.00  0.00     0.029 A 
ATOM     42  C   UNL     1       2.321  -5.596   3.813  1.00  0.00     0.049 A 
ATOM     43  H   UNL     1       1.084  -5.250   2.136  1.00  0.00     0.167 HD
ATOM     44  C   UNL     1       4.107  -4.987   2.191  1.00  0.00     0.074 A 
ATOM     45  C   UNL     1       3.434  -3.989   1.359  1.00  0.00     0.031 C 
ATOM     46  C   UNL     1       3.656  -5.696   3.269  1.00  0.00     0.037 A 
BRANCH  33  47
ATOM     47  C   UNL     1      -0.977  -2.954   2.463  1.00  0.00     0.057 A 
ATOM     48  C   UNL     1      -1.722  -4.049   1.985  1.00  0.00     0.134 A 
ATOM     49  C   UNL     1      -0.940  -1.839   1.603  1.00  0.00     0.134 A 
ATOM     50  F   UNL     1      -1.859  -5.165   2.718  1.00  0.00    -0.206 F 
ATOM     51  C   UNL     1      -2.278  -4.077   0.701  1.00  0.00     0.040 A 
ATOM     52  C   UNL     1      -1.533  -1.839   0.338  1.00  0.00     0.040 A 
ATOM     53  F   UNL     1      -0.257  -0.725   1.889  1.00  0.00    -0.206 F 
ATOM     54  C   UNL     1      -2.167  -2.976  -0.135  1.00  0.00     0.006 A 
ENDBRANCH  33  47
BRANCH  34  55
ATOM     55  C   UNL     1       7.376  -2.007   0.418  1.00  0.00     0.057 A 
ATOM     56  C   UNL     1       7.815  -2.695  -0.718  1.00  0.00     0.134 A 
ATOM     57  C   UNL     1       7.496  -0.603   0.371  1.00  0.00     0.134 A 
ATOM     58  F   UNL     1       7.695  -4.028  -0.792  1.00  0.00    -0.206 F 
ATOM     59  C   UNL     1       8.347  -2.028  -1.833  1.00  0.00     0.040 A 
ATOM     60  C   UNL     1       8.032   0.073  -0.729  1.00  0.00     0.040 A 
ATOM     61  F   UNL     1       7.022   0.169   1.359  1.00  0.00    -0.206 F 
ATOM     62  C   UNL     1       8.454  -0.639  -1.842  1.00  0.00     0.006 A 
ENDBRANCH  34  55
BRANCH  46  63
ATOM     63  C   UNL     1       4.649  -6.433   4.126  1.00  0.00     0.057 A 
ATOM     64  C   UNL     1       5.601  -5.790   4.932  1.00  0.00     0.134 A 
ATOM     65  C   UNL     1       4.463  -7.802   4.343  1.00  0.00     0.134 A 
ATOM     66  F   UNL     1       5.773  -4.465   4.873  1.00  0.00    -0.206 F 
ATOM     67  C   UNL     1       6.345  -6.478   5.896  1.00  0.00     0.040 A 
ATOM     68  C   UNL     1       5.177  -8.496   5.324  1.00  0.00     0.040 A 
ATOM     69  F   UNL     1       3.522  -8.470   3.659  1.00  0.00    -0.206 F 
ATOM     70  C   UNL     1       6.123  -7.835   6.103  1.00  0.00     0.006 A 
ENDBRANCH  46  63
ENDBRANCH  20  21
ENDBRANCH  13  15
ENDBRANCH  12  13
ENDBRANCH  11  12
ENDBRANCH  10  11
ENDBRANCH   9  10
ENDBRANCH   7   9
ENDBRANCH   6   7
BRANCH   5  71
ATOM     71  N   UNL     1       2.044   2.393  10.861  1.00  0.00    -0.305 N 
ATOM     72  C   UNL     1       0.863   1.546  11.070  1.00  0.00     0.154 C 
BRANCH  71  73
ATOM     73  C   UNL     1       2.244   3.041   9.638  1.00  0.00     0.230 C 
ATOM     74  O   UNL     1       3.308   3.589   9.333  1.00  0.00    -0.274 OA
BRANCH  73  75
ATOM     75  C   UNL     1       1.150   3.094   8.547  1.00  0.00     0.076 C 
ATOM     76  C   UNL     1       0.702   1.748   7.976  1.00  0.00     0.018 C 
BRANCH  75  77
ATOM     77  C   UNL     1      -0.026   4.026   8.870  1.00  0.00     0.013 C 
BRANCH  77  78
ATOM     78  C   UNL     1       0.380   5.454   9.239  1.00  0.00     0.007 C 
BRANCH  78  79
ATOM     79  C   UNL     1       1.166   6.240   8.182  1.00  0.00     0.064 C 
BRANCH  79  80
ATOM     80  C   UNL     1       0.446   6.395   6.826  1.00  0.00     0.177 C 
ATOM     81  C   UNL     1       0.938   5.396   5.773  1.00  0.00     0.075 C 
BRANCH  80  82
ATOM     82  N   UNL     1       0.671   7.746   6.301  1.00  0.00    -0.355 N 
ATOM     83  H   UNL     1       1.668   7.886   6.139  1.00  0.00     0.344 HD
ATOM     84  H   UNL     1       0.336   8.434   6.976  1.00  0.00     0.344 HD
ATOM     85  H   UNL     1       0.165   7.858   5.422  1.00  0.00     0.344 HD
ENDBRANCH  80  82
ENDBRANCH  79  80
ENDBRANCH  78  79
ENDBRANCH  77  78
ENDBRANCH  75  77
ENDBRANCH  73  75
ENDBRANCH  71  73
ENDBRANCH   5  71
TORSDOF 19
