REMARK SMILES COc1ccc(C(=O)OCCOC(=O)c2ccc(-c3c4nc(c(-c5c(F)cccc5F)c5ccc([nH]5)c(-c5c(F)cccc5F)c5nc(c(-c6c(F)cccc6F)c6ccc3[nH]6)C=C5)C=C4)cc2)cc1C(F)(F)F
REMARK SMILES IDX 11 1 10 2 9 3 7 4 8 5 6 6 3 7 4 8 70 9 5 10 69 11 2 12 1 13
REMARK SMILES IDX 71 14 72 15 73 16 74 17 12 18 13 19 14 20 15 21 16 22 68 23
REMARK SMILES IDX 17 24 67 25 18 26 19 27 20 28 61 29 21 30 66 31 60 32 62 33
REMARK SMILES IDX 22 34 65 35 59 36 58 37 23 39 49 40 32 41 48 42 33 43 36 44
REMARK SMILES IDX 47 45 63 46 34 47 35 48 46 50 64 51 37 52 24 53 25 54 30 55
REMARK SMILES IDX 26 56 27 57 29 58 31 59 28 60 50 61 51 62 56 63 52 64 53 65
REMARK SMILES IDX 55 66 57 67 54 68 38 69 39 70 44 71 40 72 41 73 43 74 45 75
REMARK SMILES IDX 42 76
REMARK H PARENT 62 38 36 49
REMARK Flexibility Score: inf
ROOT
ATOM      1  C   UNL     1       3.336   0.647  -8.560  1.00  0.00     0.275 C 
ENDROOT
BRANCH   1   2
ATOM      2  C   UNL     1       3.619   1.709  -7.498  1.00  0.00     0.275 C 
BRANCH   2   3
ATOM      3  O   UNL     1       3.362   1.194  -6.175  1.00  0.00    -0.458 OA
BRANCH   3   4
ATOM      4  C   UNL     1       2.158   1.517  -5.643  1.00  0.00     0.338 C 
ATOM      5  O   UNL     1       1.288   2.194  -6.166  1.00  0.00    -0.246 OA
BRANCH   4   6
ATOM      6  C   UNL     1       1.975   0.868  -4.320  1.00  0.00     0.060 A 
ATOM      7  C   UNL     1       1.521  -0.274  -1.811  1.00  0.00     0.131 A 
ATOM      8  C   UNL     1       0.442   0.024  -2.646  1.00  0.00     0.048 A 
ATOM      9  C   UNL     1       2.838  -0.049  -2.226  1.00  0.00     0.098 A 
ATOM     10  C   UNL     1       0.668   0.624  -3.881  1.00  0.00     0.019 A 
ATOM     11  C   UNL     1       3.055   0.527  -3.496  1.00  0.00     0.032 A 
BRANCH   7  12
ATOM     12  O   UNL     1       1.261  -0.846  -0.597  1.00  0.00    -0.496 OA
ATOM     13  C   UNL     1       0.839   0.138   0.349  1.00  0.00     0.278 C 
ENDBRANCH   7  12
BRANCH   9  14
ATOM     14  C   UNL     1       4.011  -0.314  -1.319  1.00  0.00     0.419 C 
ATOM     15  F   UNL     1       5.160  -0.570  -2.010  1.00  0.00    -0.166 F 
ATOM     16  F   UNL     1       4.293   0.767  -0.537  1.00  0.00    -0.166 F 
ATOM     17  F   UNL     1       3.859  -1.363  -0.468  1.00  0.00    -0.166 F 
ENDBRANCH   9  14
ENDBRANCH   4   6
ENDBRANCH   3   4
ENDBRANCH   2   3
ENDBRANCH   1   2
BRANCH   1  18
ATOM     18  O   UNL     1       1.930   0.342  -8.573  1.00  0.00    -0.458 OA
BRANCH  18  19
ATOM     19  C   UNL     1       1.604  -0.965  -8.483  1.00  0.00     0.338 C 
ATOM     20  O   UNL     1       2.358  -1.926  -8.454  1.00  0.00    -0.246 OA
BRANCH  19  21
ATOM     21  C   UNL     1       0.141  -1.094  -8.414  1.00  0.00     0.060 A 
ATOM     22  C   UNL     1      -0.537  -0.607  -7.297  1.00  0.00     0.016 A 
ATOM     23  C   UNL     1      -0.547  -1.793  -9.404  1.00  0.00     0.016 A 
ATOM     24  C   UNL     1      -1.898  -0.860  -7.136  1.00  0.00     0.010 A 
ATOM     25  C   UNL     1      -1.926  -1.992  -9.273  1.00  0.00     0.010 A 
ATOM     26  C   UNL     1      -2.610  -1.555  -8.124  1.00  0.00    -0.014 A 
BRANCH  26  27
ATOM     27  C   UNL     1      -4.049  -1.882  -7.925  1.00  0.00     0.031 A 
ATOM     28  C   UNL     1      -4.488  -3.320  -7.836  1.00  0.00     0.074 A 
ATOM     29  C   UNL     1      -4.967  -0.903  -7.801  1.00  0.00     0.049 A 
ATOM     30  N   UNL     1      -5.699  -3.818  -7.821  1.00  0.00    -0.248 NA
ATOM     31  C   UNL     1      -3.422  -4.332  -7.764  1.00  0.00     0.031 C 
ATOM     32  C   UNL     1      -4.685   0.532  -7.823  1.00  0.00     0.029 A 
ATOM     33  N   UNL     1      -6.327  -0.972  -7.626  1.00  0.00    -0.354 N 
ATOM     34  C   UNL     1      -5.541  -5.198  -7.799  1.00  0.00     0.074 A 
ATOM     35  C   UNL     1      -4.117  -5.460  -7.794  1.00  0.00     0.031 C 
ATOM     36  C   UNL     1      -5.830   1.207  -7.634  1.00  0.00     0.029 A 
ATOM     37  C   UNL     1      -6.935   0.257  -7.549  1.00  0.00     0.049 A 
ATOM     38  H   UNL     1      -6.820  -1.822  -7.562  1.00  0.00     0.167 HD
ATOM     39  C   UNL     1      -6.495  -6.159  -7.787  1.00  0.00     0.037 A 
ATOM     40  C   UNL     1      -8.237   0.587  -7.454  1.00  0.00     0.037 A 
ATOM     41  C   UNL     1      -7.910  -5.904  -7.727  1.00  0.00     0.049 A 
ATOM     42  C   UNL     1      -9.278  -0.496  -7.443  1.00  0.00     0.074 A 
ATOM     43  C   UNL     1      -8.951  -6.816  -7.695  1.00  0.00     0.029 A 
ATOM     44  N   UNL     1      -8.482  -4.643  -7.669  1.00  0.00    -0.354 N 
ATOM     45  N   UNL     1      -9.117  -1.795  -7.486  1.00  0.00    -0.248 NA
ATOM     46  C   UNL     1     -10.683  -0.064  -7.393  1.00  0.00     0.031 C 
ATOM     47  C   UNL     1     -10.155  -6.105  -7.638  1.00  0.00     0.029 A 
ATOM     48  C   UNL     1      -9.861  -4.752  -7.606  1.00  0.00     0.049 A 
ATOM     49  H   UNL     1      -7.981  -3.795  -7.672  1.00  0.00     0.167 HD
ATOM     50  C   UNL     1     -10.396  -2.337  -7.468  1.00  0.00     0.074 A 
ATOM     51  C   UNL     1     -11.322  -1.226  -7.386  1.00  0.00     0.031 C 
ATOM     52  C   UNL     1     -10.768  -3.638  -7.526  1.00  0.00     0.037 A 
BRANCH  39  53
ATOM     53  C   UNL     1      -6.039  -7.584  -7.873  1.00  0.00     0.057 A 
ATOM     54  C   UNL     1      -5.480  -8.254  -6.779  1.00  0.00     0.134 A 
ATOM     55  C   UNL     1      -6.197  -8.305  -9.064  1.00  0.00     0.134 A 
ATOM     56  F   UNL     1      -5.289  -7.614  -5.615  1.00  0.00    -0.206 F 
ATOM     57  C   UNL     1      -5.077  -9.588  -6.871  1.00  0.00     0.040 A 
ATOM     58  C   UNL     1      -5.817  -9.644  -9.162  1.00  0.00     0.040 A 
ATOM     59  F   UNL     1      -6.731  -7.721 -10.148  1.00  0.00    -0.206 F 
ATOM     60  C   UNL     1      -5.251 -10.288  -8.064  1.00  0.00     0.006 A 
ENDBRANCH  39  53
BRANCH  40  61
ATOM     61  C   UNL     1      -8.633   2.016  -7.396  1.00  0.00     0.057 A 
ATOM     62  C   UNL     1      -9.127   2.581  -6.216  1.00  0.00     0.134 A 
ATOM     63  C   UNL     1      -8.522   2.848  -8.516  1.00  0.00     0.134 A 
ATOM     64  F   UNL     1      -9.280   1.826  -5.118  1.00  0.00    -0.206 F 
ATOM     65  C   UNL     1      -9.501   3.925  -6.152  1.00  0.00     0.040 A 
ATOM     66  C   UNL     1      -8.870   4.198  -8.460  1.00  0.00     0.040 A 
ATOM     67  F   UNL     1      -8.056   2.363  -9.677  1.00  0.00    -0.206 F 
ATOM     68  C   UNL     1      -9.364   4.739  -7.275  1.00  0.00     0.006 A 
ENDBRANCH  40  61
BRANCH  52  69
ATOM     69  C   UNL     1     -12.237  -3.928  -7.489  1.00  0.00     0.057 A 
ATOM     70  C   UNL     1     -13.049  -3.740  -8.614  1.00  0.00     0.134 A 
ATOM     71  C   UNL     1     -12.839  -4.429  -6.329  1.00  0.00     0.134 A 
ATOM     72  F   UNL     1     -12.531  -3.250  -9.751  1.00  0.00    -0.206 F 
ATOM     73  C   UNL     1     -14.414  -4.025  -8.582  1.00  0.00     0.040 A 
ATOM     74  C   UNL     1     -14.200  -4.735  -6.290  1.00  0.00     0.040 A 
ATOM     75  F   UNL     1     -12.114  -4.636  -5.220  1.00  0.00    -0.206 F 
ATOM     76  C   UNL     1     -14.992  -4.529  -7.418  1.00  0.00     0.006 A 
ENDBRANCH  52  69
ENDBRANCH  26  27
ENDBRANCH  19  21
ENDBRANCH  18  19
ENDBRANCH   1  18
TORSDOF 13
