REMARK SMILES C[N@@H+]1CCC[C@@H](C(=O)N[C@H](C(=O)OCCOC(=O)c2ccc(-c3c4nc(c(-c5c(F)cccc5F)c5ccc([nH]5)c(-c5c(F)cccc5F)c5nc(c(-c6c(F)cccc6F)c6ccc3[nH]6)C=C5)C=C4)cc2)c2ccccc2)C1
REMARK SMILES IDX 14 1 13 2 11 3 12 4 10 5 9 6 7 7 8 8 6 10 1 11 2 12 3 13
REMARK SMILES IDX 79 14 4 16 5 17 73 18 74 19 78 20 75 21 77 22 76 23 15 24
REMARK SMILES IDX 16 25 17 26 18 27 19 28 20 29 72 30 21 31 71 32 22 33 23 34
REMARK SMILES IDX 24 35 65 36 25 37 70 38 64 39 66 40 26 41 69 42 63 43 62 44
REMARK SMILES IDX 27 46 53 47 36 48 52 49 37 50 40 51 51 52 67 53 38 54 39 55
REMARK SMILES IDX 50 57 68 58 41 59 28 60 29 61 34 62 30 63 31 64 33 65 35 66
REMARK SMILES IDX 32 67 54 68 55 69 60 70 56 71 57 72 59 73 61 74 58 75 42 76
REMARK SMILES IDX 43 77 48 78 44 79 45 80 47 81 49 82 46 83
REMARK H PARENT 9 9 2 15 66 45 40 56
REMARK Flexibility Score: inf
ROOT
ATOM      1  C   UNL     1       2.488  -1.429   3.581  1.00  0.00     0.274 C 
ENDROOT
BRANCH   1   2
ATOM      2  O   UNL     1       2.068  -0.096   3.221  1.00  0.00    -0.460 OA
BRANCH   2   3
ATOM      3  C   UNL     1       0.977   0.010   2.426  1.00  0.00     0.333 C 
ATOM      4  O   UNL     1       0.379  -0.982   2.005  1.00  0.00    -0.249 OA
BRANCH   3   5
ATOM      5  C   UNL     1       0.572   1.446   2.015  1.00  0.00     0.223 C 
BRANCH   5   6
ATOM      6  N   UNL     1      -0.902   1.491   2.065  1.00  0.00    -0.339 N 
ATOM      7  C   UNL     1      -1.876   1.406   1.134  1.00  0.00     0.229 C 
ATOM      8  O   UNL     1      -3.034   1.392   1.573  1.00  0.00    -0.275 OA
ATOM      9  H   UNL     1      -1.252   1.609   2.977  1.00  0.00     0.164 HD
BRANCH   7  10
ATOM     10  C   UNL     1      -1.667   1.344  -0.378  1.00  0.00     0.133 C 
ATOM     11  C   UNL     1       1.193   3.510  -1.615  1.00  0.00     0.332 C 
ATOM     12  N   UNL     1       0.512   2.319  -1.119  1.00  0.00    -0.337 N 
ATOM     13  C   UNL     1       0.787   1.148  -1.954  1.00  0.00     0.262 C 
ATOM     14  C   UNL     1      -0.929   2.543  -0.979  1.00  0.00     0.275 C 
ATOM     15  H   UNL     1       0.888   2.125  -0.191  1.00  0.00     0.347 HD
ATOM     16  C   UNL     1       0.248  -0.115  -1.285  1.00  0.00     0.062 C 
ATOM     17  C   UNL     1      -1.229  -0.017  -0.922  1.00  0.00     0.025 C 
ENDBRANCH   7  10
ENDBRANCH   5   6
BRANCH   5  18
ATOM     18  C   UNL     1       1.118   2.700   2.709  1.00  0.00    -0.014 A 
ATOM     19  C   UNL     1       2.248   2.757   3.532  1.00  0.00     0.006 A 
ATOM     20  C   UNL     1       0.487   3.934   2.418  1.00  0.00     0.006 A 
ATOM     21  C   UNL     1       2.707   3.974   4.057  1.00  0.00     0.000 A 
ATOM     22  C   UNL     1       0.942   5.148   2.937  1.00  0.00     0.000 A 
ATOM     23  C   UNL     1       2.056   5.167   3.761  1.00  0.00     0.000 A 
ENDBRANCH   5  18
ENDBRANCH   3   5
ENDBRANCH   2   3
ENDBRANCH   1   2
BRANCH   1  24
ATOM     24  C   UNL     1       1.979  -1.828   4.967  1.00  0.00     0.275 C 
BRANCH  24  25
ATOM     25  O   UNL     1       0.555  -2.042   4.959  1.00  0.00    -0.458 OA
BRANCH  25  26
ATOM     26  C   UNL     1      -0.181  -1.002   5.408  1.00  0.00     0.338 C 
ATOM     27  O   UNL     1       0.223   0.068   5.827  1.00  0.00    -0.246 OA
BRANCH  26  28
ATOM     28  C   UNL     1      -1.611  -1.296   5.254  1.00  0.00     0.060 A 
ATOM     29  C   UNL     1      -2.217  -1.000   4.037  1.00  0.00     0.016 A 
ATOM     30  C   UNL     1      -2.381  -1.679   6.351  1.00  0.00     0.016 A 
ATOM     31  C   UNL     1      -3.602  -0.988   3.929  1.00  0.00     0.010 A 
ATOM     32  C   UNL     1      -3.774  -1.743   6.220  1.00  0.00     0.010 A 
ATOM     33  C   UNL     1      -4.397  -1.357   5.018  1.00  0.00    -0.014 A 
BRANCH  33  34
ATOM     34  C   UNL     1      -5.873  -1.243   4.918  1.00  0.00     0.031 A 
ATOM     35  C   UNL     1      -6.602  -0.252   5.781  1.00  0.00     0.074 A 
ATOM     36  C   UNL     1      -6.558  -1.968   4.014  1.00  0.00     0.049 A 
ATOM     37  N   UNL     1      -7.888  -0.115   5.980  1.00  0.00    -0.248 NA
ATOM     38  C   UNL     1      -5.772   0.708   6.526  1.00  0.00     0.031 C 
ATOM     39  C   UNL     1      -5.968  -2.892   3.044  1.00  0.00     0.029 A 
ATOM     40  N   UNL     1      -7.902  -2.018   3.747  1.00  0.00    -0.354 N 
ATOM     41  C   UNL     1      -8.017   0.898   6.921  1.00  0.00     0.074 A 
ATOM     42  C   UNL     1      -6.681   1.353   7.242  1.00  0.00     0.031 C 
ATOM     43  C   UNL     1      -6.939  -3.376   2.254  1.00  0.00     0.029 A 
ATOM     44  C   UNL     1      -8.225  -2.861   2.713  1.00  0.00     0.049 A 
ATOM     45  H   UNL     1      -8.572  -1.499   4.249  1.00  0.00     0.167 HD
ATOM     46  C   UNL     1      -9.150   1.394   7.474  1.00  0.00     0.037 A 
ATOM     47  C   UNL     1      -9.425  -3.201   2.209  1.00  0.00     0.037 A 
ATOM     48  C   UNL     1     -10.478   0.985   7.102  1.00  0.00     0.049 A 
ATOM     49  C   UNL     1     -10.669  -2.652   2.845  1.00  0.00     0.074 A 
ATOM     50  C   UNL     1     -11.691   1.395   7.627  1.00  0.00     0.029 A 
ATOM     51  N   UNL     1     -10.764   0.091   6.081  1.00  0.00    -0.354 N 
ATOM     52  N   UNL     1     -10.784  -1.798   3.832  1.00  0.00    -0.248 NA
ATOM     53  C   UNL     1     -11.951  -3.142   2.319  1.00  0.00     0.031 C 
ATOM     54  C   UNL     1     -12.713   0.739   6.928  1.00  0.00     0.029 A 
ATOM     55  C   UNL     1     -12.135  -0.060   5.955  1.00  0.00     0.049 A 
ATOM     56  H   UNL     1     -10.092  -0.368   5.527  1.00  0.00     0.167 HD
ATOM     57  C   UNL     1     -12.146  -1.649   4.049  1.00  0.00     0.074 A 
ATOM     58  C   UNL     1     -12.819  -2.485   3.075  1.00  0.00     0.031 C 
ATOM     59  C   UNL     1     -12.781  -0.897   4.979  1.00  0.00     0.037 A 
BRANCH  46  60
ATOM     60  C   UNL     1      -8.988   2.393   8.577  1.00  0.00     0.057 A 
ATOM     61  C   UNL     1      -8.649   3.729   8.331  1.00  0.00     0.134 A 
ATOM     62  C   UNL     1      -9.169   2.004   9.911  1.00  0.00     0.134 A 
ATOM     63  F   UNL     1      -8.441   4.158   7.078  1.00  0.00    -0.206 F 
ATOM     64  C   UNL     1      -8.475   4.638   9.377  1.00  0.00     0.040 A 
ATOM     65  C   UNL     1      -9.017   2.909  10.962  1.00  0.00     0.040 A 
ATOM     66  F   UNL     1      -9.494   0.738  10.212  1.00  0.00    -0.206 F 
ATOM     67  C   UNL     1      -8.662   4.229  10.696  1.00  0.00     0.006 A 
ENDBRANCH  46  60
BRANCH  47  68
ATOM     68  C   UNL     1      -9.504  -4.135   1.061  1.00  0.00     0.057 A 
ATOM     69  C   UNL     1      -9.864  -3.680  -0.211  1.00  0.00     0.134 A 
ATOM     70  C   UNL     1      -9.201  -5.495   1.202  1.00  0.00     0.134 A 
ATOM     71  F   UNL     1     -10.188  -2.392  -0.401  1.00  0.00    -0.206 F 
ATOM     72  C   UNL     1      -9.919  -4.543  -1.306  1.00  0.00     0.040 A 
ATOM     73  C   UNL     1      -9.233  -6.365   0.112  1.00  0.00     0.040 A 
ATOM     74  F   UNL     1      -8.851  -5.990   2.398  1.00  0.00    -0.206 F 
ATOM     75  C   UNL     1      -9.594  -5.890  -1.147  1.00  0.00     0.006 A 
ENDBRANCH  47  68
BRANCH  59  76
ATOM     76  C   UNL     1     -14.277  -0.940   4.975  1.00  0.00     0.057 A 
ATOM     77  C   UNL     1     -14.977  -2.012   5.540  1.00  0.00     0.134 A 
ATOM     78  C   UNL     1     -15.021   0.108   4.423  1.00  0.00     0.134 A 
ATOM     79  F   UNL     1     -14.316  -3.052   6.071  1.00  0.00    -0.206 F 
ATOM     80  C   UNL     1     -16.372  -2.046   5.545  1.00  0.00     0.040 A 
ATOM     81  C   UNL     1     -16.416   0.092   4.435  1.00  0.00     0.040 A 
ATOM     82  F   UNL     1     -14.406   1.163   3.869  1.00  0.00    -0.206 F 
ATOM     83  C   UNL     1     -17.095  -0.989   4.994  1.00  0.00     0.006 A 
ENDBRANCH  59  76
ENDBRANCH  33  34
ENDBRANCH  26  28
ENDBRANCH  25  26
ENDBRANCH  24  25
ENDBRANCH   1  24
TORSDOF 14
