REMARK SMILES CC[C@H](C)[C@@H](NC(=O)c1csc(NC(C)=O)n1)C(=O)OCCOC(=O)c1ccc(-c2c3nc(c(-c4c(F)cccc4F)c4ccc([nH]4)c(-c4c(F)cccc4F)c4nc(c(-c5c(F)cccc5F)c5ccc2[nH]5)C=C4)C=C3)cc1
REMARK SMILES IDX 21 1 20 2 18 3 19 4 5 5 3 6 4 7 2 8 1 9 6 10 7 11 8 13 9 14
REMARK SMILES IDX 10 15 17 16 11 17 12 18 13 19 14 20 15 22 16 23 22 24 23 25
REMARK SMILES IDX 24 26 25 27 26 28 27 29 79 30 28 31 78 32 29 33 30 34 31 35
REMARK SMILES IDX 72 36 32 37 77 38 71 39 73 40 33 41 76 42 70 43 69 44 34 46
REMARK SMILES IDX 60 47 43 48 59 49 44 50 47 51 58 52 74 53 45 54 46 55 57 57
REMARK SMILES IDX 75 58 48 59 35 60 36 61 41 62 37 63 38 64 40 65 42 66 39 67
REMARK SMILES IDX 61 68 62 69 67 70 63 71 64 72 66 73 68 74 65 75 49 76 50 77
REMARK SMILES IDX 55 78 51 79 52 80 54 81 56 82 53 83
REMARK H PARENT 6 12 13 21 73 45 47 56
REMARK Flexibility Score: inf
ROOT
ATOM      1  C   UNL     1       2.873   1.324   5.866  1.00  0.00     0.274 C 
ENDROOT
BRANCH   1   2
ATOM      2  O   UNL     1       2.533   0.529   4.708  1.00  0.00    -0.461 OA
BRANCH   2   3
ATOM      3  C   UNL     1       1.358  -0.151   4.780  1.00  0.00     0.329 C 
ATOM      4  O   UNL     1       0.514   0.027   5.652  1.00  0.00    -0.250 OA
BRANCH   3   5
ATOM      5  C   UNL     1       1.168  -1.193   3.658  1.00  0.00     0.195 C 
BRANCH   5   6
ATOM      6  C   UNL     1       1.387  -0.533   2.246  1.00  0.00     0.019 C 
ATOM      7  C   UNL     1       1.177  -1.520   1.085  1.00  0.00     0.010 C 
BRANCH   6   8
ATOM      8  C   UNL     1       0.542   0.739   1.993  1.00  0.00     0.002 C 
ATOM      9  C   UNL     1      -0.919   0.493   1.630  1.00  0.00     0.004 C 
ENDBRANCH   6   8
ENDBRANCH   5   6
BRANCH   5  10
ATOM     10  N   UNL     1       1.998  -2.417   3.768  1.00  0.00    -0.337 N 
ATOM     11  C   UNL     1       2.318  -3.268   4.798  1.00  0.00     0.271 C 
ATOM     12  H   UNL     1       2.411  -2.678   2.913  1.00  0.00     0.164 HD
ATOM     13  O   UNL     1       2.696  -4.400   4.494  1.00  0.00    -0.267 OA
BRANCH  11  14
ATOM     14  C   UNL     1       2.401  -2.783   6.168  1.00  0.00     0.141 A 
ATOM     15  C   UNL     1       3.538  -2.948   6.940  1.00  0.00     0.102 A 
ATOM     16  N   UNL     1       1.369  -2.134   6.821  1.00  0.00    -0.215 NA
ATOM     17  S   UNL     1       3.368  -2.108   8.421  1.00  0.00    -0.104 S 
ATOM     18  C   UNL     1       1.816  -1.608   7.939  1.00  0.00     0.190 A 
BRANCH  18  19
ATOM     19  N   UNL     1       1.083  -0.659   8.606  1.00  0.00    -0.302 N 
ATOM     20  C   UNL     1       1.550   0.211   9.563  1.00  0.00     0.223 C 
ATOM     21  H   UNL     1       0.128  -0.594   8.377  1.00  0.00     0.172 HD
ATOM     22  C   UNL     1       0.516   1.221   9.998  1.00  0.00     0.114 C 
ATOM     23  O   UNL     1       2.681   0.256  10.037  1.00  0.00    -0.275 OA
ENDBRANCH  18  19
ENDBRANCH  11  14
ENDBRANCH   5  10
ENDBRANCH   3   5
ENDBRANCH   2   3
ENDBRANCH   1   2
BRANCH   1  24
ATOM     24  C   UNL     1       2.196   2.699   5.948  1.00  0.00     0.275 C 
BRANCH  24  25
ATOM     25  O   UNL     1       0.783   2.594   6.220  1.00  0.00    -0.458 OA
BRANCH  25  26
ATOM     26  C   UNL     1      -0.035   3.070   5.261  1.00  0.00     0.338 C 
ATOM     27  O   UNL     1       0.289   3.685   4.244  1.00  0.00    -0.246 OA
BRANCH  26  28
ATOM     28  C   UNL     1      -1.426   2.665   5.504  1.00  0.00     0.060 A 
ATOM     29  C   UNL     1      -1.906   1.527   4.849  1.00  0.00     0.016 A 
ATOM     30  C   UNL     1      -2.302   3.479   6.219  1.00  0.00     0.016 A 
ATOM     31  C   UNL     1      -3.257   1.206   4.867  1.00  0.00     0.010 A 
ATOM     32  C   UNL     1      -3.664   3.155   6.246  1.00  0.00     0.010 A 
ATOM     33  C   UNL     1      -4.151   2.036   5.544  1.00  0.00    -0.014 A 
BRANCH  33  34
ATOM     34  C   UNL     1      -5.605   1.805   5.401  1.00  0.00     0.031 A 
ATOM     35  C   UNL     1      -6.396   2.686   4.478  1.00  0.00     0.074 A 
ATOM     36  C   UNL     1      -6.207   0.793   6.050  1.00  0.00     0.049 A 
ATOM     37  N   UNL     1      -7.691   2.769   4.318  1.00  0.00    -0.248 NA
ATOM     38  C   UNL     1      -5.620   3.592   3.615  1.00  0.00     0.031 C 
ATOM     39  C   UNL     1      -5.532  -0.193   6.892  1.00  0.00     0.029 A 
ATOM     40  N   UNL     1      -7.530   0.436   6.104  1.00  0.00    -0.354 N 
ATOM     41  C   UNL     1      -7.888   3.756   3.362  1.00  0.00     0.074 A 
ATOM     42  C   UNL     1      -6.581   4.241   2.974  1.00  0.00     0.031 C 
ATOM     43  C   UNL     1      -6.450  -1.034   7.397  1.00  0.00     0.029 A 
ATOM     44  C   UNL     1      -7.777  -0.612   6.955  1.00  0.00     0.049 A 
ATOM     45  H   UNL     1      -8.233   0.888   5.584  1.00  0.00     0.167 HD
ATOM     46  C   UNL     1      -9.057   4.219   2.861  1.00  0.00     0.037 A 
ATOM     47  C   UNL     1      -8.945  -1.139   7.365  1.00  0.00     0.037 A 
ATOM     48  C   UNL     1     -10.353   3.723   3.241  1.00  0.00     0.049 A 
ATOM     49  C   UNL     1     -10.235  -0.556   6.858  1.00  0.00     0.074 A 
ATOM     50  C   UNL     1     -11.600   4.144   2.813  1.00  0.00     0.029 A 
ATOM     51  N   UNL     1     -10.564   2.686   4.136  1.00  0.00    -0.354 N 
ATOM     52  N   UNL     1     -10.420   0.425   6.007  1.00  0.00    -0.248 NA
ATOM     53  C   UNL     1     -11.478  -1.141   7.380  1.00  0.00     0.031 C 
ATOM     54  C   UNL     1     -12.568   3.377   3.470  1.00  0.00     0.029 A 
ATOM     55  C   UNL     1     -11.922   2.459   4.282  1.00  0.00     0.049 A 
ATOM     56  H   UNL     1      -9.854   2.185   4.598  1.00  0.00     0.167 HD
ATOM     57  C   UNL     1     -11.796   0.567   5.883  1.00  0.00     0.074 A 
ATOM     58  C   UNL     1     -12.399  -0.438   6.735  1.00  0.00     0.031 C 
ATOM     59  C   UNL     1     -12.498   1.451   5.134  1.00  0.00     0.037 A 
BRANCH  46  60
ATOM     60  C   UNL     1      -8.982   5.349   1.882  1.00  0.00     0.057 A 
ATOM     61  C   UNL     1      -8.599   5.150   0.550  1.00  0.00     0.134 A 
ATOM     62  C   UNL     1      -9.309   6.652   2.277  1.00  0.00     0.134 A 
ATOM     63  F   UNL     1      -8.254   3.928   0.117  1.00  0.00    -0.206 F 
ATOM     64  C   UNL     1      -8.530   6.213  -0.353  1.00  0.00     0.040 A 
ATOM     65  C   UNL     1      -9.261   7.719   1.379  1.00  0.00     0.040 A 
ATOM     66  F   UNL     1      -9.680   6.907   3.540  1.00  0.00    -0.206 F 
ATOM     67  C   UNL     1      -8.866   7.501   0.061  1.00  0.00     0.006 A 
ENDBRANCH  46  60
BRANCH  47  68
ATOM     68  C   UNL     1      -8.951  -2.245   8.353  1.00  0.00     0.057 A 
ATOM     69  C   UNL     1      -9.319  -3.543   7.986  1.00  0.00     0.134 A 
ATOM     70  C   UNL     1      -8.597  -2.024   9.690  1.00  0.00     0.134 A 
ATOM     71  F   UNL     1      -9.691  -3.808   6.726  1.00  0.00    -0.206 F 
ATOM     72  C   UNL     1      -9.342  -4.584   8.916  1.00  0.00     0.040 A 
ATOM     73  C   UNL     1      -8.596  -3.059  10.625  1.00  0.00     0.040 A 
ATOM     74  F   UNL     1      -8.237  -0.800  10.102  1.00  0.00    -0.206 F 
ATOM     75  C   UNL     1      -8.974  -4.344  10.239  1.00  0.00     0.006 A 
ENDBRANCH  47  68
BRANCH  59  76
ATOM     76  C   UNL     1     -13.992   1.354   5.187  1.00  0.00     0.057 A 
ATOM     77  C   UNL     1     -14.720   1.847   6.275  1.00  0.00     0.134 A 
ATOM     78  C   UNL     1     -14.708   0.795   4.122  1.00  0.00     0.134 A 
ATOM     79  F   UNL     1     -14.088   2.381   7.331  1.00  0.00    -0.206 F 
ATOM     80  C   UNL     1     -16.113   1.775   6.309  1.00  0.00     0.040 A 
ATOM     81  C   UNL     1     -16.102   0.734   4.136  1.00  0.00     0.040 A 
ATOM     82  F   UNL     1     -14.066   0.311   3.048  1.00  0.00    -0.206 F 
ATOM     83  C   UNL     1     -16.808   1.222   5.234  1.00  0.00     0.006 A 
ENDBRANCH  59  76
ENDBRANCH  33  34
ENDBRANCH  26  28
ENDBRANCH  25  26
ENDBRANCH  24  25
ENDBRANCH   1  24
TORSDOF 16
