REMARK SMILES Cc1nn(C)c(N[C@@H]2C=C[C@H](C(=O)OCCOC(=O)c3ccc(-c4c5nc(c(-c6c(F)cccc6F)c6ccc([nH]6)c(-c6c(F)cccc6F)c6nc(c(-c7c(F)cccc7F)c7ccc4[nH]7)C=C6)C=C5)cc3)C2)c1C#N
REMARK SMILES IDX 15 1 14 2 12 3 13 4 11 5 8 6 9 7 74 8 10 9 7 10 6 12 1 13
REMARK SMILES IDX 2 14 3 15 75 16 4 17 5 18 76 19 77 20 16 21 17 22 18 23
REMARK SMILES IDX 19 24 20 25 21 26 73 27 22 28 72 29 23 30 24 31 25 32 66 33
REMARK SMILES IDX 26 34 71 35 65 36 67 37 27 38 70 39 64 40 63 41 28 43 54 44
REMARK SMILES IDX 37 45 53 46 38 47 41 48 52 49 68 50 39 51 40 52 51 54 69 55
REMARK SMILES IDX 42 56 29 57 30 58 35 59 31 60 32 61 34 62 36 63 33 64 55 65
REMARK SMILES IDX 56 66 61 67 57 68 58 69 60 70 62 71 59 72 43 73 44 74 49 75
REMARK SMILES IDX 45 76 46 77 48 78 50 79 47 80
REMARK H PARENT 7 11 67 42 41 53
REMARK Flexibility Score: inf
ROOT
ATOM      1  C   UNL     1      -1.287  10.692   3.170  1.00  0.00     0.274 C 
ENDROOT
BRANCH   1   2
ATOM      2  O   UNL     1      -1.620   9.276   3.001  1.00  0.00    -0.462 OA
BRANCH   2   3
ATOM      3  C   UNL     1      -0.581   8.384   3.120  1.00  0.00     0.312 C 
ATOM      4  O   UNL     1       0.507   8.683   3.604  1.00  0.00    -0.252 OA
BRANCH   3   5
ATOM      5  C   UNL     1      -0.870   6.980   2.564  1.00  0.00     0.124 C 
ATOM      6  C   UNL     1       0.367   6.385   0.490  1.00  0.00     0.104 C 
ATOM      7  C   UNL     1      -1.076   6.585   0.232  1.00  0.00    -0.006 C 
ATOM      8  C   UNL     1       0.446   6.358   2.024  1.00  0.00     0.048 C 
ATOM      9  C   UNL     1      -1.758   6.870   1.354  1.00  0.00    -0.014 C 
BRANCH   6  10
ATOM     10  N   UNL     1       1.327   7.249  -0.201  1.00  0.00    -0.363 N 
ATOM     11  H   UNL     1       2.093   6.729  -0.536  1.00  0.00     0.162 HD
BRANCH  10  12
ATOM     12  C   UNL     1       1.461   8.586  -0.514  1.00  0.00     0.142 A 
ATOM     13  C   UNL     1       3.221  11.800  -1.113  1.00  0.00     0.070 C 
ATOM     14  C   UNL     1       2.333  10.624  -0.963  1.00  0.00     0.079 A 
ATOM     15  N   UNL     1       1.051  10.842  -0.708  1.00  0.00    -0.175 NA
ATOM     16  C   UNL     1       2.597   9.238  -1.008  1.00  0.00     0.117 A 
ATOM     17  N   UNL     1       0.550   9.623  -0.437  1.00  0.00    -0.251 N 
ATOM     18  C   UNL     1      -0.691   9.697   0.251  1.00  0.00     0.176 C 
BRANCH  16  19
ATOM     19  C   UNL     1       3.834   8.647  -1.416  1.00  0.00     0.105 C 
ATOM     20  N   UNL     1       4.826   8.195  -1.787  1.00  0.00    -0.192 NA
ENDBRANCH  16  19
ENDBRANCH  10  12
ENDBRANCH   6  10
ENDBRANCH   3   5
ENDBRANCH   2   3
ENDBRANCH   1   2
BRANCH   1  21
ATOM     21  C   UNL     1      -1.464  11.282   4.558  1.00  0.00     0.275 C 
BRANCH  21  22
ATOM     22  O   UNL     1      -0.670  10.555   5.473  1.00  0.00    -0.458 OA
BRANCH  22  23
ATOM     23  C   UNL     1      -1.218   9.365   5.802  1.00  0.00     0.338 C 
ATOM     24  O   UNL     1      -2.341   8.969   5.530  1.00  0.00    -0.246 OA
BRANCH  23  25
ATOM     25  C   UNL     1      -0.273   8.617   6.637  1.00  0.00     0.060 A 
ATOM     26  C   UNL     1      -0.837   7.474   7.196  1.00  0.00     0.016 A 
ATOM     27  C   UNL     1       0.700   9.372   7.291  1.00  0.00     0.016 A 
ATOM     28  C   UNL     1      -0.839   7.406   8.565  1.00  0.00     0.010 A 
ATOM     29  C   UNL     1       0.728   9.278   8.651  1.00  0.00     0.010 A 
ATOM     30  C   UNL     1      -0.171   8.410   9.273  1.00  0.00    -0.014 A 
BRANCH  30  31
ATOM     31  C   UNL     1      -0.192   8.399  10.719  1.00  0.00     0.031 A 
ATOM     32  C   UNL     1       0.781   7.375  11.161  1.00  0.00     0.074 A 
ATOM     33  C   UNL     1      -0.884   9.293  11.458  1.00  0.00     0.049 A 
ATOM     34  N   UNL     1       0.520   6.144  11.467  1.00  0.00    -0.248 NA
ATOM     35  C   UNL     1       2.208   7.606  10.847  1.00  0.00     0.031 C 
ATOM     36  C   UNL     1      -1.696  10.433  11.009  1.00  0.00     0.029 A 
ATOM     37  N   UNL     1      -0.941   9.409  12.821  1.00  0.00    -0.354 N 
ATOM     38  C   UNL     1       1.774   5.584  11.695  1.00  0.00     0.074 A 
ATOM     39  C   UNL     1       2.691   6.365  10.928  1.00  0.00     0.031 C 
ATOM     40  C   UNL     1      -1.958  11.254  12.058  1.00  0.00     0.029 A 
ATOM     41  C   UNL     1      -1.454  10.640  13.271  1.00  0.00     0.049 A 
ATOM     42  H   UNL     1      -0.648   8.695  13.432  1.00  0.00     0.167 HD
ATOM     43  C   UNL     1       2.011   4.937  12.870  1.00  0.00     0.037 A 
ATOM     44  C   UNL     1      -1.403  11.081  14.560  1.00  0.00     0.037 A 
ATOM     45  C   UNL     1       0.750   4.592  13.488  1.00  0.00     0.049 A 
ATOM     46  C   UNL     1      -1.177   9.878  15.395  1.00  0.00     0.074 A 
ATOM     47  C   UNL     1      -0.293   3.734  13.214  1.00  0.00     0.029 A 
ATOM     48  N   UNL     1       0.258   5.593  14.287  1.00  0.00    -0.354 N 
ATOM     49  N   UNL     1      -2.064   8.932  15.530  1.00  0.00    -0.248 NA
ATOM     50  C   UNL     1       0.197   9.503  15.698  1.00  0.00     0.031 C 
ATOM     51  C   UNL     1      -1.466   4.361  13.735  1.00  0.00     0.029 A 
ATOM     52  C   UNL     1      -1.101   5.531  14.398  1.00  0.00     0.049 A 
ATOM     53  H   UNL     1       0.817   6.273  14.727  1.00  0.00     0.167 HD
ATOM     54  C   UNL     1      -1.324   7.764  15.489  1.00  0.00     0.074 A 
ATOM     55  C   UNL     1       0.058   8.174  15.738  1.00  0.00     0.031 C 
ATOM     56  C   UNL     1      -1.860   6.638  14.931  1.00  0.00     0.037 A 
BRANCH  43  57
ATOM     57  C   UNL     1       3.263   5.154  13.720  1.00  0.00     0.057 A 
ATOM     58  C   UNL     1       3.387   4.407  14.905  1.00  0.00     0.134 A 
ATOM     59  C   UNL     1       4.187   6.221  13.610  1.00  0.00     0.134 A 
ATOM     60  F   UNL     1       2.580   3.363  15.145  1.00  0.00    -0.206 F 
ATOM     61  C   UNL     1       4.294   4.743  15.921  1.00  0.00     0.040 A 
ATOM     62  C   UNL     1       5.117   6.543  14.601  1.00  0.00     0.040 A 
ATOM     63  F   UNL     1       4.218   7.080  12.589  1.00  0.00    -0.206 F 
ATOM     64  C   UNL     1       5.155   5.822  15.777  1.00  0.00     0.006 A 
ENDBRANCH  43  57
BRANCH  44  65
ATOM     65  C   UNL     1      -1.228  12.439  15.136  1.00  0.00     0.057 A 
ATOM     66  C   UNL     1      -1.514  12.716  16.486  1.00  0.00     0.134 A 
ATOM     67  C   UNL     1      -0.454  13.400  14.468  1.00  0.00     0.134 A 
ATOM     68  F   UNL     1      -2.208  11.841  17.229  1.00  0.00    -0.206 F 
ATOM     69  C   UNL     1      -1.031  13.863  17.138  1.00  0.00     0.040 A 
ATOM     70  C   UNL     1       0.039  14.546  15.108  1.00  0.00     0.040 A 
ATOM     71  F   UNL     1      -0.062  13.201  13.202  1.00  0.00    -0.206 F 
ATOM     72  C   UNL     1      -0.237  14.775  16.452  1.00  0.00     0.006 A 
ENDBRANCH  44  65
BRANCH  56  73
ATOM     73  C   UNL     1      -3.350   6.600  14.758  1.00  0.00     0.057 A 
ATOM     74  C   UNL     1      -4.075   7.362  13.829  1.00  0.00     0.134 A 
ATOM     75  C   UNL     1      -4.065   5.665  15.510  1.00  0.00     0.134 A 
ATOM     76  F   UNL     1      -3.460   8.227  13.012  1.00  0.00    -0.206 F 
ATOM     77  C   UNL     1      -5.459   7.216  13.683  1.00  0.00     0.040 A 
ATOM     78  C   UNL     1      -5.438   5.489  15.354  1.00  0.00     0.040 A 
ATOM     79  F   UNL     1      -3.423   4.872  16.383  1.00  0.00    -0.206 F 
ATOM     80  C   UNL     1      -6.143   6.273  14.445  1.00  0.00     0.006 A 
ENDBRANCH  56  73
ENDBRANCH  30  31
ENDBRANCH  23  25
ENDBRANCH  22  23
ENDBRANCH  21  22
ENDBRANCH   1  21
TORSDOF 14
