REMARK SMILES COc1ccc(Br)cc1S(=O)(=O)N(C)CC(=O)OCCOC(=O)c1ccc(-c2c3nc(c(-c4c(F)cccc4F)c4ccc([nH]4)c(-c4c(F)cccc4F)c4nc(c(-c5c(F)cccc5F)c5ccc2[nH]5)C=C4)C=C3)cc1
REMARK SMILES IDX 19 1 18 2 16 3 17 4 15 5 13 6 14 7 10 8 11 9 12 10 9 11 3 12
REMARK SMILES IDX 4 13 5 14 8 15 6 16 7 17 2 18 1 19 20 20 21 21 22 22 23 23
REMARK SMILES IDX 24 24 25 25 77 26 26 27 76 28 27 29 28 30 29 31 70 32 30 33
REMARK SMILES IDX 75 34 69 35 71 36 31 37 74 38 68 39 67 40 32 42 58 43 41 44
REMARK SMILES IDX 57 45 42 46 45 47 56 48 72 49 43 50 44 51 55 53 73 54 46 55
REMARK SMILES IDX 33 56 34 57 39 58 35 59 36 60 38 61 40 62 37 63 59 64 60 65
REMARK SMILES IDX 65 66 61 67 62 68 64 69 66 70 63 71 47 72 48 73 53 74 49 75
REMARK SMILES IDX 50 76 52 77 54 78 51 79
REMARK H PARENT 71 41 45 52
REMARK Flexibility Score: inf
ROOT
ATOM      1  C   UNL     1      -5.580  -0.496   2.266  1.00  0.00     0.274 C 
ENDROOT
BRANCH   1   2
ATOM      2  O   UNL     1      -4.283  -0.201   1.693  1.00  0.00    -0.461 OA
BRANCH   2   3
ATOM      3  C   UNL     1      -4.247   0.689   0.666  1.00  0.00     0.321 C 
ATOM      4  O   UNL     1      -5.254   1.145   0.128  1.00  0.00    -0.251 OA
BRANCH   3   5
ATOM      5  C   UNL     1      -2.855   1.002   0.155  1.00  0.00     0.224 C 
BRANCH   5   6
ATOM      6  N   UNL     1      -1.615   0.820   0.955  1.00  0.00    -0.190 NA
ATOM      7  C   UNL     1      -1.339  -0.568   1.346  1.00  0.00     0.125 C 
BRANCH   6   8
ATOM      8  S   UNL     1      -1.286   2.006   2.123  1.00  0.00     0.247 S 
ATOM      9  O   UNL     1      -1.623   1.431   3.412  1.00  0.00    -0.207 OA
ATOM     10  O   UNL     1      -1.800   3.277   1.656  1.00  0.00    -0.207 OA
BRANCH   8  11
ATOM     11  C   UNL     1       0.468   2.240   2.265  1.00  0.00     0.125 A 
ATOM     12  C   UNL     1       1.417   1.740   1.377  1.00  0.00     0.138 A 
ATOM     13  C   UNL     1       2.772   1.846   1.729  1.00  0.00     0.049 A 
ATOM     14  C   UNL     1       3.163   2.439   2.937  1.00  0.00     0.019 A 
ATOM     15  C   UNL     1       0.863   2.878   3.459  1.00  0.00     0.041 A 
ATOM     16  C   UNL     1       2.205   2.970   3.791  1.00  0.00     0.019 A 
ATOM     17  Br  UNL     1       2.719   3.791   5.411  1.00  0.00    -0.051 Br
BRANCH  12  18
ATOM     18  O   UNL     1       1.011   1.238   0.177  1.00  0.00    -0.495 OA
ATOM     19  C   UNL     1       1.770   0.143  -0.325  1.00  0.00     0.278 C 
ENDBRANCH  12  18
ENDBRANCH   8  11
ENDBRANCH   6   8
ENDBRANCH   5   6
ENDBRANCH   3   5
ENDBRANCH   2   3
ENDBRANCH   1   2
BRANCH   1  20
ATOM     20  C   UNL     1      -5.802   0.222   3.607  1.00  0.00     0.275 C 
BRANCH  20  21
ATOM     21  O   UNL     1      -6.227   1.594   3.433  1.00  0.00    -0.458 OA
BRANCH  21  22
ATOM     22  C   UNL     1      -5.194   2.424   3.195  1.00  0.00     0.338 C 
ATOM     23  O   UNL     1      -4.023   2.098   3.135  1.00  0.00    -0.246 OA
BRANCH  22  24
ATOM     24  C   UNL     1      -5.554   3.800   2.894  1.00  0.00     0.060 A 
ATOM     25  C   UNL     1      -5.176   4.292   1.641  1.00  0.00     0.016 A 
ATOM     26  C   UNL     1      -6.017   4.648   3.898  1.00  0.00     0.016 A 
ATOM     27  C   UNL     1      -5.279   5.648   1.375  1.00  0.00     0.010 A 
ATOM     28  C   UNL     1      -6.142   6.009   3.622  1.00  0.00     0.010 A 
ATOM     29  C   UNL     1      -5.783   6.509   2.358  1.00  0.00    -0.014 A 
BRANCH  29  30
ATOM     30  C   UNL     1      -6.049   7.917   2.007  1.00  0.00     0.031 A 
ATOM     31  C   UNL     1      -5.180   9.024   2.509  1.00  0.00     0.074 A 
ATOM     32  C   UNL     1      -7.109   8.165   1.218  1.00  0.00     0.049 A 
ATOM     33  N   UNL     1      -5.343  10.315   2.379  1.00  0.00    -0.248 NA
ATOM     34  C   UNL     1      -3.974   8.636   3.255  1.00  0.00     0.031 C 
ATOM     35  C   UNL     1      -7.992   7.140   0.653  1.00  0.00     0.029 A 
ATOM     36  N   UNL     1      -7.628   9.345   0.760  1.00  0.00    -0.354 N 
ATOM     37  C   UNL     1      -4.274  10.899   3.043  1.00  0.00     0.074 A 
ATOM     38  C   UNL     1      -3.469   9.820   3.579  1.00  0.00     0.031 C 
ATOM     39  C   UNL     1      -8.940   7.736  -0.082  1.00  0.00     0.029 A 
ATOM     40  C   UNL     1      -8.767   9.180   0.012  1.00  0.00     0.049 A 
ATOM     41  H   UNL     1      -7.225  10.223   0.947  1.00  0.00     0.167 HD
ATOM     42  C   UNL     1      -4.005  12.219   3.190  1.00  0.00     0.037 A 
ATOM     43  C   UNL     1      -9.602  10.095  -0.507  1.00  0.00     0.037 A 
ATOM     44  C   UNL     1      -4.817  13.274   2.638  1.00  0.00     0.049 A 
ATOM     45  C   UNL     1      -9.303  11.546  -0.291  1.00  0.00     0.074 A 
ATOM     46  C   UNL     1      -4.626  14.643   2.712  1.00  0.00     0.029 A 
ATOM     47  N   UNL     1      -5.981  13.074   1.907  1.00  0.00    -0.354 N 
ATOM     48  N   UNL     1      -8.299  12.092   0.352  1.00  0.00    -0.248 NA
ATOM     49  C   UNL     1     -10.254  12.507  -0.859  1.00  0.00     0.031 C 
ATOM     50  C   UNL     1      -5.693  15.271   2.059  1.00  0.00     0.029 A 
ATOM     51  C   UNL     1      -6.530  14.293   1.544  1.00  0.00     0.049 A 
ATOM     52  H   UNL     1      -6.361  12.194   1.680  1.00  0.00     0.167 HD
ATOM     53  C   UNL     1      -8.492  13.461   0.263  1.00  0.00     0.074 A 
ATOM     54  C   UNL     1      -9.700  13.661  -0.514  1.00  0.00     0.031 C 
ATOM     55  C   UNL     1      -7.741  14.463   0.782  1.00  0.00     0.037 A 
BRANCH  42  56
ATOM     56  C   UNL     1      -2.806  12.595   4.008  1.00  0.00     0.057 A 
ATOM     57  C   UNL     1      -1.500  12.453   3.522  1.00  0.00     0.134 A 
ATOM     58  C   UNL     1      -2.962  13.144   5.287  1.00  0.00     0.134 A 
ATOM     59  F   UNL     1      -1.280  11.926   2.308  1.00  0.00    -0.206 F 
ATOM     60  C   UNL     1      -0.393  12.828   4.286  1.00  0.00     0.040 A 
ATOM     61  C   UNL     1      -1.864  13.541   6.052  1.00  0.00     0.040 A 
ATOM     62  F   UNL     1      -4.186  13.312   5.810  1.00  0.00    -0.206 F 
ATOM     63  C   UNL     1      -0.574  13.379   5.553  1.00  0.00     0.006 A 
ENDBRANCH  42  56
BRANCH  43  64
ATOM     64  C   UNL     1     -10.803   9.646  -1.248  1.00  0.00     0.057 A 
ATOM     65  C   UNL     1     -10.887   9.778  -2.637  1.00  0.00     0.134 A 
ATOM     66  C   UNL     1     -11.872   9.026  -0.588  1.00  0.00     0.134 A 
ATOM     67  F   UNL     1      -9.899  10.374  -3.319  1.00  0.00    -0.206 F 
ATOM     68  C   UNL     1     -11.994   9.311  -3.346  1.00  0.00     0.040 A 
ATOM     69  C   UNL     1     -12.974   8.534  -1.287  1.00  0.00     0.040 A 
ATOM     70  F   UNL     1     -11.843   8.861   0.743  1.00  0.00    -0.206 F 
ATOM     71  C   UNL     1     -13.038   8.679  -2.671  1.00  0.00     0.006 A 
ENDBRANCH  43  64
BRANCH  55  72
ATOM     72  C   UNL     1      -8.212  15.858   0.510  1.00  0.00     0.057 A 
ATOM     73  C   UNL     1      -9.309  16.405   1.186  1.00  0.00     0.134 A 
ATOM     74  C   UNL     1      -7.557  16.663  -0.429  1.00  0.00     0.134 A 
ATOM     75  F   UNL     1      -9.988  15.675   2.083  1.00  0.00    -0.206 F 
ATOM     76  C   UNL     1      -9.752  17.701   0.921  1.00  0.00     0.040 A 
ATOM     77  C   UNL     1      -7.978  17.967  -0.687  1.00  0.00     0.040 A 
ATOM     78  F   UNL     1      -6.498  16.195  -1.108  1.00  0.00    -0.206 F 
ATOM     79  C   UNL     1      -9.083  18.488  -0.015  1.00  0.00     0.006 A 
ENDBRANCH  55  72
ENDBRANCH  29  30
ENDBRANCH  22  24
ENDBRANCH  21  22
ENDBRANCH  20  21
ENDBRANCH   1  20
TORSDOF 15
