REMARK SMILES CO[C@@H]1C[C@@H](C(=O)OCCOC(=O)c2ccc(-c3c4nc(c(-c5c(F)cccc5F)c5ccc([nH]5)c(-c5c(F)cccc5F)c5nc(c(-c6c(F)cccc6F)c6ccc3[nH]6)C=C5)C=C4)cc2)N(S(=O)(=O)/C=C/c2ccccc2)C1
REMARK SMILES IDX 9 1 8 2 6 3 7 4 5 5 3 6 4 7 80 8 68 9 2 10 1 11 69 12 70 13
REMARK SMILES IDX 71 14 72 15 73 16 74 17 75 18 79 19 76 20 78 21 77 22 10 23
REMARK SMILES IDX 11 24 12 25 13 26 14 27 15 28 67 29 16 30 66 31 17 32 18 33
REMARK SMILES IDX 19 34 60 35 20 36 65 37 59 38 61 39 21 40 64 41 58 42 57 43
REMARK SMILES IDX 22 45 48 46 31 47 47 48 32 49 35 50 46 51 62 52 33 53 34 54
REMARK SMILES IDX 45 56 63 57 36 58 23 59 24 60 29 61 25 62 26 63 28 64 30 65
REMARK SMILES IDX 27 66 49 67 50 68 55 69 51 70 52 71 54 72 56 73 53 74 37 75
REMARK SMILES IDX 38 76 43 77 39 78 40 79 42 80 44 81 41 82
REMARK H PARENT 61 44 35 55
REMARK Flexibility Score: inf
ROOT
ATOM      1  C   UNL     1       6.542   3.502   1.635  1.00  0.00     0.274 C 
ENDROOT
BRANCH   1   2
ATOM      2  O   UNL     1       5.404   2.631   1.508  1.00  0.00    -0.461 OA
BRANCH   2   3
ATOM      3  C   UNL     1       4.378   2.758   2.409  1.00  0.00     0.324 C 
ATOM      4  O   UNL     1       4.309   3.603   3.289  1.00  0.00    -0.250 OA
BRANCH   3   5
ATOM      5  C   UNL     1       3.388   1.642   2.184  1.00  0.00     0.185 C 
ATOM      6  C   UNL     1       1.323   0.552   2.181  1.00  0.00     0.135 C 
ATOM      7  C   UNL     1       1.937   1.887   2.593  1.00  0.00     0.065 C 
ATOM      8  C   UNL     1       2.410  -0.480   2.580  1.00  0.00     0.135 C 
ATOM      9  N   UNL     1       3.700   0.301   2.776  1.00  0.00    -0.181 NA
BRANCH   6  10
ATOM     10  O   UNL     1       1.052   0.719   0.781  1.00  0.00    -0.380 OA
ATOM     11  C   UNL     1       1.009  -0.452  -0.010  1.00  0.00     0.195 C 
ENDBRANCH   6  10
BRANCH   9  12
ATOM     12  S   UNL     1       4.231   0.222   4.416  1.00  0.00     0.237 S 
ATOM     13  O   UNL     1       3.161   0.781   5.214  1.00  0.00    -0.207 OA
ATOM     14  O   UNL     1       4.606  -1.166   4.622  1.00  0.00    -0.207 OA
BRANCH  12  15
ATOM     15  C   UNL     1       5.629   1.214   4.649  1.00  0.00     0.123 C 
ATOM     16  C   UNL     1       6.820   0.843   4.160  1.00  0.00     0.021 C 
BRANCH  16  17
ATOM     17  C   UNL     1       8.072   1.607   4.305  1.00  0.00    -0.025 A 
ATOM     18  C   UNL     1       8.114   2.996   4.497  1.00  0.00     0.008 A 
ATOM     19  C   UNL     1       9.286   0.927   4.138  1.00  0.00     0.008 A 
ATOM     20  C   UNL     1       9.324   3.695   4.431  1.00  0.00     0.001 A 
ATOM     21  C   UNL     1      10.500   1.619   4.115  1.00  0.00     0.001 A 
ATOM     22  C   UNL     1      10.517   3.006   4.235  1.00  0.00     0.000 A 
ENDBRANCH  16  17
ENDBRANCH  12  15
ENDBRANCH   9  12
ENDBRANCH   3   5
ENDBRANCH   2   3
ENDBRANCH   1   2
BRANCH   1  23
ATOM     23  C   UNL     1       6.584   4.601   0.576  1.00  0.00     0.275 C 
BRANCH  23  24
ATOM     24  O   UNL     1       5.655   5.639   0.924  1.00  0.00    -0.458 OA
BRANCH  24  25
ATOM     25  C   UNL     1       4.392   5.382   0.531  1.00  0.00     0.338 C 
ATOM     26  O   UNL     1       4.029   4.484  -0.222  1.00  0.00    -0.246 OA
BRANCH  25  27
ATOM     27  C   UNL     1       3.436   6.225   1.262  1.00  0.00     0.060 A 
ATOM     28  C   UNL     1       2.209   5.631   1.573  1.00  0.00     0.016 A 
ATOM     29  C   UNL     1       3.671   7.570   1.556  1.00  0.00     0.016 A 
ATOM     30  C   UNL     1       1.176   6.385   2.098  1.00  0.00     0.010 A 
ATOM     31  C   UNL     1       2.625   8.341   2.065  1.00  0.00     0.010 A 
ATOM     32  C   UNL     1       1.361   7.758   2.272  1.00  0.00    -0.014 A 
BRANCH  32  33
ATOM     33  C   UNL     1       0.153   8.599   2.381  1.00  0.00     0.031 A 
ATOM     34  C   UNL     1      -0.357   9.255   1.128  1.00  0.00     0.074 A 
ATOM     35  C   UNL     1      -0.529   8.673   3.535  1.00  0.00     0.049 A 
ATOM     36  N   UNL     1      -1.362  10.072   0.965  1.00  0.00    -0.248 NA
ATOM     37  C   UNL     1       0.370   8.942  -0.117  1.00  0.00     0.031 C 
ATOM     38  C   UNL     1      -0.167   7.989   4.775  1.00  0.00     0.029 A 
ATOM     39  N   UNL     1      -1.677   9.352   3.842  1.00  0.00    -0.354 N 
ATOM     40  C   UNL     1      -1.368  10.393  -0.387  1.00  0.00     0.074 A 
ATOM     41  C   UNL     1      -0.261   9.697  -1.001  1.00  0.00     0.031 C 
ATOM     42  C   UNL     1      -1.078   8.288   5.716  1.00  0.00     0.029 A 
ATOM     43  C   UNL     1      -2.057   9.214   5.152  1.00  0.00     0.049 A 
ATOM     44  H   UNL     1      -2.180   9.887   3.186  1.00  0.00     0.167 HD
ATOM     45  C   UNL     1      -2.228  11.197  -1.055  1.00  0.00     0.037 A 
ATOM     46  C   UNL     1      -3.072   9.795   5.817  1.00  0.00     0.037 A 
ATOM     47  C   UNL     1      -3.338  11.861  -0.429  1.00  0.00     0.049 A 
ATOM     48  C   UNL     1      -3.987  10.723   5.065  1.00  0.00     0.074 A 
ATOM     49  C   UNL     1      -4.261  12.723  -0.990  1.00  0.00     0.029 A 
ATOM     50  N   UNL     1      -3.678  11.721   0.910  1.00  0.00    -0.354 N 
ATOM     51  N   UNL     1      -3.957  11.068   3.799  1.00  0.00    -0.248 NA
ATOM     52  C   UNL     1      -5.077  11.341   5.830  1.00  0.00     0.031 C 
ATOM     53  C   UNL     1      -5.143  13.129   0.018  1.00  0.00     0.029 A 
ATOM     54  C   UNL     1      -4.795  12.484   1.196  1.00  0.00     0.049 A 
ATOM     55  H   UNL     1      -3.194  11.161   1.560  1.00  0.00     0.167 HD
ATOM     56  C   UNL     1      -5.037  11.920   3.609  1.00  0.00     0.074 A 
ATOM     57  C   UNL     1      -5.707  12.029   4.889  1.00  0.00     0.031 C 
ATOM     58  C   UNL     1      -5.441  12.556   2.481  1.00  0.00     0.037 A 
BRANCH  45  59
ATOM     59  C   UNL     1      -1.964  11.427  -2.514  1.00  0.00     0.057 A 
ATOM     60  C   UNL     1      -2.174  10.433  -3.478  1.00  0.00     0.134 A 
ATOM     61  C   UNL     1      -1.481  12.665  -2.960  1.00  0.00     0.134 A 
ATOM     62  F   UNL     1      -2.610   9.216  -3.116  1.00  0.00    -0.206 F 
ATOM     63  C   UNL     1      -1.892  10.652  -4.828  1.00  0.00     0.040 A 
ATOM     64  C   UNL     1      -1.220  12.905  -4.310  1.00  0.00     0.040 A 
ATOM     65  F   UNL     1      -1.252  13.660  -2.090  1.00  0.00    -0.206 F 
ATOM     66  C   UNL     1      -1.419  11.894  -5.248  1.00  0.00     0.006 A 
ENDBRANCH  45  59
BRANCH  46  67
ATOM     67  C   UNL     1      -3.259   9.529   7.264  1.00  0.00     0.057 A 
ATOM     68  C   UNL     1      -4.355   8.799   7.737  1.00  0.00     0.134 A 
ATOM     69  C   UNL     1      -2.338   9.994   8.212  1.00  0.00     0.134 A 
ATOM     70  F   UNL     1      -5.282   8.344   6.881  1.00  0.00    -0.206 F 
ATOM     71  C   UNL     1      -4.536   8.550   9.098  1.00  0.00     0.040 A 
ATOM     72  C   UNL     1      -2.493   9.730   9.574  1.00  0.00     0.040 A 
ATOM     73  F   UNL     1      -1.264  10.698   7.825  1.00  0.00    -0.206 F 
ATOM     74  C   UNL     1      -3.598   9.011  10.021  1.00  0.00     0.006 A 
ENDBRANCH  46  67
BRANCH  58  75
ATOM     75  C   UNL     1      -6.689  13.379   2.580  1.00  0.00     0.057 A 
ATOM     76  C   UNL     1      -6.709  14.617   3.234  1.00  0.00     0.134 A 
ATOM     77  C   UNL     1      -7.878  12.937   1.986  1.00  0.00     0.134 A 
ATOM     78  F   UNL     1      -5.604  15.088   3.831  1.00  0.00    -0.206 F 
ATOM     79  C   UNL     1      -7.878  15.375   3.317  1.00  0.00     0.040 A 
ATOM     80  C   UNL     1      -9.045  13.697   2.040  1.00  0.00     0.040 A 
ATOM     81  F   UNL     1      -7.919  11.764   1.335  1.00  0.00    -0.206 F 
ATOM     82  C   UNL     1      -9.049  14.917   2.714  1.00  0.00     0.006 A 
ENDBRANCH  58  75
ENDBRANCH  32  33
ENDBRANCH  25  27
ENDBRANCH  24  25
ENDBRANCH  23  24
ENDBRANCH   1  23
TORSDOF 15
