REMARK SMILES COCC[N@H+](C)[C@H](C)[C@@H](C)C(=O)OCCOC(=O)c1ccc(-c2c3nc(c(-c4c(F)cccc4F)c4ccc([nH]4)c(-c4c(F)cccc4F)c4nc(c(-c5c(F)cccc5F)c5ccc2[nH]5)C=C4)C=C3)cc1
REMARK SMILES IDX 13 1 11 2 12 3 9 4 10 5 7 6 8 7 5 8 6 9 4 11 3 12 2 13 1 14
REMARK SMILES IDX 14 15 15 16 16 17 17 18 18 19 19 20 20 21 72 22 21 23 71 24
REMARK SMILES IDX 22 25 23 26 24 27 65 28 25 29 70 30 64 31 66 32 26 33 69 34
REMARK SMILES IDX 63 35 62 36 27 38 53 39 36 40 52 41 37 42 40 43 51 44 67 45
REMARK SMILES IDX 38 46 39 47 50 49 68 50 41 51 28 52 29 53 34 54 30 55 31 56
REMARK SMILES IDX 33 57 35 58 32 59 54 60 55 61 60 62 56 63 57 64 59 65 61 66
REMARK SMILES IDX 58 67 42 68 43 69 48 70 44 71 45 72 47 73 49 74 46 75
REMARK H PARENT 5 10 66 37 40 48
REMARK Flexibility Score: inf
ROOT
ATOM      1  O   UNL     1       0.767  -0.980  -2.276  1.00  0.00    -0.462 OA
ENDROOT
BRANCH   1   2
ATOM      2  C   UNL     1       1.164   0.061  -1.507  1.00  0.00     0.314 C 
ATOM      3  O   UNL     1       1.443   1.171  -1.959  1.00  0.00    -0.252 OA
BRANCH   2   4
ATOM      4  C   UNL     1       1.350  -0.245  -0.026  1.00  0.00     0.154 C 
ATOM      5  C   UNL     1       2.873  -0.139   0.180  1.00  0.00     0.026 C 
BRANCH   4   6
ATOM      6  C   UNL     1       0.716  -1.562   0.538  1.00  0.00     0.194 C 
ATOM      7  C   UNL     1       1.589  -2.186   1.654  1.00  0.00     0.076 C 
BRANCH   6   8
ATOM      8  N   UNL     1      -0.649  -1.505   1.119  1.00  0.00    -0.333 N 
ATOM      9  C   UNL     1      -0.863  -0.475   2.141  1.00  0.00     0.333 C 
ATOM     10  H   UNL     1      -0.620  -2.421   1.568  1.00  0.00     0.348 HD
BRANCH   8  11
ATOM     11  C   UNL     1      -1.816  -1.575   0.223  1.00  0.00     0.291 C 
BRANCH  11  12
ATOM     12  C   UNL     1      -1.882  -2.629  -0.902  1.00  0.00     0.221 C 
BRANCH  12  13
ATOM     13  O   UNL     1      -2.167  -3.956  -0.456  1.00  0.00    -0.379 OA
ATOM     14  C   UNL     1      -1.026  -4.654   0.008  1.00  0.00     0.195 C 
ENDBRANCH  12  13
ENDBRANCH  11  12
ENDBRANCH   8  11
ENDBRANCH   6   8
ENDBRANCH   4   6
ENDBRANCH   2   4
ENDBRANCH   1   2
BRANCH   1  15
ATOM     15  C   UNL     1       0.768  -0.715  -3.697  1.00  0.00     0.274 C 
BRANCH  15  16
ATOM     16  C   UNL     1      -0.570  -0.172  -4.202  1.00  0.00     0.275 C 
BRANCH  16  17
ATOM     17  O   UNL     1      -0.965   1.000  -3.464  1.00  0.00    -0.458 OA
BRANCH  17  18
ATOM     18  C   UNL     1      -2.070   0.848  -2.706  1.00  0.00     0.338 C 
ATOM     19  O   UNL     1      -2.802  -0.132  -2.658  1.00  0.00    -0.246 OA
BRANCH  18  20
ATOM     20  C   UNL     1      -2.334   2.026  -1.870  1.00  0.00     0.060 A 
ATOM     21  C   UNL     1      -1.479   2.356  -0.819  1.00  0.00     0.016 A 
ATOM     22  C   UNL     1      -3.555   2.686  -2.018  1.00  0.00     0.016 A 
ATOM     23  C   UNL     1      -1.860   3.317   0.112  1.00  0.00     0.010 A 
ATOM     24  C   UNL     1      -3.911   3.694  -1.121  1.00  0.00     0.010 A 
ATOM     25  C   UNL     1      -3.071   4.007  -0.043  1.00  0.00    -0.014 A 
BRANCH  25  26
ATOM     26  C   UNL     1      -3.382   5.132   0.866  1.00  0.00     0.031 A 
ATOM     27  C   UNL     1      -4.476   5.044   1.887  1.00  0.00     0.074 A 
ATOM     28  C   UNL     1      -2.631   6.243   0.760  1.00  0.00     0.049 A 
ATOM     29  N   UNL     1      -4.877   5.955   2.737  1.00  0.00    -0.248 NA
ATOM     30  C   UNL     1      -5.219   3.778   1.963  1.00  0.00     0.031 C 
ATOM     31  C   UNL     1      -1.540   6.426  -0.201  1.00  0.00     0.029 A 
ATOM     32  N   UNL     1      -2.652   7.413   1.469  1.00  0.00    -0.354 N 
ATOM     33  C   UNL     1      -5.937   5.387   3.431  1.00  0.00     0.074 A 
ATOM     34  C   UNL     1      -6.115   4.049   2.905  1.00  0.00     0.031 C 
ATOM     35  C   UNL     1      -0.965   7.618   0.011  1.00  0.00     0.029 A 
ATOM     36  C   UNL     1      -1.683   8.303   1.078  1.00  0.00     0.049 A 
ATOM     37  H   UNL     1      -3.298   7.598   2.189  1.00  0.00     0.167 HD
ATOM     38  C   UNL     1      -6.693   5.943   4.409  1.00  0.00     0.037 A 
ATOM     39  C   UNL     1      -1.410   9.543   1.520  1.00  0.00     0.037 A 
ATOM     40  C   UNL     1      -6.497   7.274   4.931  1.00  0.00     0.049 A 
ATOM     41  C   UNL     1      -2.248  10.121   2.616  1.00  0.00     0.074 A 
ATOM     42  C   UNL     1      -7.208   7.927   5.923  1.00  0.00     0.029 A 
ATOM     43  N   UNL     1      -5.513   8.153   4.503  1.00  0.00    -0.354 N 
ATOM     44  N   UNL     1      -3.257   9.579   3.252  1.00  0.00    -0.248 NA
ATOM     45  C   UNL     1      -1.917  11.484   3.049  1.00  0.00     0.031 C 
ATOM     46  C   UNL     1      -6.672   9.212   6.075  1.00  0.00     0.029 A 
ATOM     47  C   UNL     1      -5.605   9.347   5.202  1.00  0.00     0.049 A 
ATOM     48  H   UNL     1      -4.846   7.958   3.805  1.00  0.00     0.167 HD
ATOM     49  C   UNL     1      -3.691  10.535   4.157  1.00  0.00     0.074 A 
ATOM     50  C   UNL     1      -2.810  11.679   4.009  1.00  0.00     0.031 C 
ATOM     51  C   UNL     1      -4.731  10.478   5.023  1.00  0.00     0.037 A 
BRANCH  38  52
ATOM     52  C   UNL     1      -7.827   5.130   4.957  1.00  0.00     0.057 A 
ATOM     53  C   UNL     1      -7.619   4.073   5.852  1.00  0.00     0.134 A 
ATOM     54  C   UNL     1      -9.152   5.442   4.623  1.00  0.00     0.134 A 
ATOM     55  F   UNL     1      -6.375   3.716   6.204  1.00  0.00    -0.206 F 
ATOM     56  C   UNL     1      -8.688   3.349   6.386  1.00  0.00     0.040 A 
ATOM     57  C   UNL     1     -10.229   4.738   5.164  1.00  0.00     0.040 A 
ATOM     58  F   UNL     1      -9.420   6.447   3.775  1.00  0.00    -0.206 F 
ATOM     59  C   UNL     1      -9.998   3.685   6.047  1.00  0.00     0.006 A 
ENDBRANCH  38  52
BRANCH  39  60
ATOM     60  C   UNL     1      -0.291  10.298   0.910  1.00  0.00     0.057 A 
ATOM     61  C   UNL     1       0.905  10.499   1.604  1.00  0.00     0.134 A 
ATOM     62  C   UNL     1      -0.370  10.777  -0.403  1.00  0.00     0.134 A 
ATOM     63  F   UNL     1       1.032  10.071   2.869  1.00  0.00    -0.206 F 
ATOM     64  C   UNL     1       1.988  11.149   1.013  1.00  0.00     0.040 A 
ATOM     65  C   UNL     1       0.713  11.408  -1.015  1.00  0.00     0.040 A 
ATOM     66  F   UNL     1      -1.488  10.601  -1.122  1.00  0.00    -0.206 F 
ATOM     67  C   UNL     1       1.897  11.597  -0.304  1.00  0.00     0.006 A 
ENDBRANCH  39  60
BRANCH  51  68
ATOM     68  C   UNL     1      -4.960  11.695   5.864  1.00  0.00     0.057 A 
ATOM     69  C   UNL     1      -5.531  12.856   5.327  1.00  0.00     0.134 A 
ATOM     70  C   UNL     1      -4.593  11.714   7.214  1.00  0.00     0.134 A 
ATOM     71  F   UNL     1      -5.886  12.903   4.034  1.00  0.00    -0.206 F 
ATOM     72  C   UNL     1      -5.703  14.006   6.098  1.00  0.00     0.040 A 
ATOM     73  C   UNL     1      -4.778  12.852   8.000  1.00  0.00     0.040 A 
ATOM     74  F   UNL     1      -4.043  10.633   7.786  1.00  0.00    -0.206 F 
ATOM     75  C   UNL     1      -5.326  14.004   7.440  1.00  0.00     0.006 A 
ENDBRANCH  51  68
ENDBRANCH  25  26
ENDBRANCH  18  20
ENDBRANCH  17  18
ENDBRANCH  16  17
ENDBRANCH  15  16
ENDBRANCH   1  15
TORSDOF 16
