REMARK SMILES Cc1nc(N2CCCC[C@H]2C(=O)OCCOC(=O)c2ccc(-c3c4nc(c(-c5c(F)cccc5F)c5ccc([nH]5)c(-c5c(F)cccc5F)c5nc(c(-c6c(F)cccc6F)c6ccc3[nH]6)C=C5)C=C4)cc2)c2oc3ccccc3c2n1
REMARK SMILES IDX 15 1 14 2 13 3 11 4 12 5 10 6 5 7 6 8 7 9 9 10 8 11 4 12
REMARK SMILES IDX 1 13 2 14 3 15 82 16 81 17 73 18 80 19 74 20 75 21 79 22
REMARK SMILES IDX 76 23 78 24 77 25 16 26 17 27 18 28 19 29 20 30 72 31 21 32
REMARK SMILES IDX 71 33 22 34 23 35 24 36 65 37 25 38 70 39 64 40 66 41 26 42
REMARK SMILES IDX 69 43 63 44 62 45 27 47 53 48 36 49 52 50 37 51 40 52 51 53
REMARK SMILES IDX 67 54 38 55 39 56 50 58 68 59 41 60 28 61 29 62 34 63 30 64
REMARK SMILES IDX 31 65 33 66 35 67 32 68 54 69 55 70 60 71 56 72 57 73 59 74
REMARK SMILES IDX 61 75 58 76 42 77 43 78 48 79 44 80 45 81 47 82 49 83 46 84
REMARK H PARENT 66 46 40 57
REMARK Flexibility Score: inf
ROOT
ATOM      1  C   UNL     1      -3.008  -2.442   7.084  1.00  0.00     0.275 C 
ENDROOT
BRANCH   1   2
ATOM      2  C   UNL     1      -2.408  -2.335   5.687  1.00  0.00     0.274 C 
BRANCH   2   3
ATOM      3  O   UNL     1      -1.530  -1.192   5.600  1.00  0.00    -0.461 OA
BRANCH   3   4
ATOM      4  C   UNL     1      -1.949  -0.160   4.806  1.00  0.00     0.328 C 
ATOM      5  O   UNL     1      -3.024  -0.145   4.218  1.00  0.00    -0.250 OA
BRANCH   4   6
ATOM      6  C   UNL     1      -0.861   0.928   4.710  1.00  0.00     0.194 C 
ATOM      7  N   UNL     1      -1.249   2.027   3.813  1.00  0.00    -0.340 N 
ATOM      8  C   UNL     1      -2.253   2.980   4.260  1.00  0.00     0.119 C 
ATOM      9  C   UNL     1      -1.788   3.651   5.545  1.00  0.00     0.022 C 
ATOM     10  C   UNL     1      -0.432   1.538   6.058  1.00  0.00     0.037 C 
ATOM     11  C   UNL     1      -1.358   2.632   6.598  1.00  0.00     0.005 C 
BRANCH   7  12
ATOM     12  C   UNL     1      -0.481   2.254   2.696  1.00  0.00     0.176 A 
ATOM     13  C   UNL     1       1.048   0.211   0.029  1.00  0.00     0.090 C 
ATOM     14  C   UNL     1       0.680   1.423   0.830  1.00  0.00     0.128 A 
ATOM     15  N   UNL     1      -0.039   1.204   1.957  1.00  0.00    -0.212 NA
ATOM     16  N   UNL     1       1.092   2.615   0.354  1.00  0.00    -0.229 NA
ATOM     17  C   UNL     1       0.704   3.661   1.121  1.00  0.00     0.123 A 
ATOM     18  C   UNL     1      -0.071   3.508   2.256  1.00  0.00     0.196 A 
ATOM     19  C   UNL     1       0.969   5.053   1.005  1.00  0.00     0.047 A 
ATOM     20  O   UNL     1      -0.292   4.714   2.850  1.00  0.00    -0.450 OA
ATOM     21  C   UNL     1       0.346   5.646   2.098  1.00  0.00     0.137 A 
ATOM     22  C   UNL     1       1.676   5.881   0.114  1.00  0.00     0.014 A 
ATOM     23  C   UNL     1       0.380   7.007   2.385  1.00  0.00     0.048 A 
ATOM     24  C   UNL     1       1.725   7.260   0.373  1.00  0.00     0.001 A 
ATOM     25  C   UNL     1       1.092   7.810   1.491  1.00  0.00     0.004 A 
ENDBRANCH   7  12
ENDBRANCH   4   6
ENDBRANCH   3   4
ENDBRANCH   2   3
ENDBRANCH   1   2
BRANCH   1  26
ATOM     26  O   UNL     1      -3.957  -1.382   7.268  1.00  0.00    -0.458 OA
BRANCH  26  27
ATOM     27  C   UNL     1      -3.580  -0.383   8.088  1.00  0.00     0.338 C 
ATOM     28  O   UNL     1      -2.578  -0.309   8.787  1.00  0.00    -0.246 OA
BRANCH  27  29
ATOM     29  C   UNL     1      -4.577   0.683   7.984  1.00  0.00     0.060 A 
ATOM     30  C   UNL     1      -5.327   1.054   9.097  1.00  0.00     0.016 A 
ATOM     31  C   UNL     1      -4.706   1.364   6.772  1.00  0.00     0.016 A 
ATOM     32  C   UNL     1      -6.231   2.106   8.975  1.00  0.00     0.010 A 
ATOM     33  C   UNL     1      -5.539   2.464   6.675  1.00  0.00     0.010 A 
ATOM     34  C   UNL     1      -6.329   2.820   7.768  1.00  0.00    -0.014 A 
BRANCH  34  35
ATOM     35  C   UNL     1      -7.340   3.885   7.670  1.00  0.00     0.031 A 
ATOM     36  C   UNL     1      -6.788   5.250   7.335  1.00  0.00     0.074 A 
ATOM     37  C   UNL     1      -8.508   3.533   7.091  1.00  0.00     0.049 A 
ATOM     38  N   UNL     1      -6.476   5.697   6.152  1.00  0.00    -0.248 NA
ATOM     39  C   UNL     1      -6.377   6.143   8.425  1.00  0.00     0.031 C 
ATOM     40  C   UNL     1      -8.644   2.744   5.861  1.00  0.00     0.029 A 
ATOM     41  N   UNL     1      -9.790   3.946   7.380  1.00  0.00    -0.354 N 
ATOM     42  C   UNL     1      -5.838   6.921   6.330  1.00  0.00     0.074 A 
ATOM     43  C   UNL     1      -5.790   7.146   7.757  1.00  0.00     0.031 C 
ATOM     44  C   UNL     1      -9.905   2.856   5.410  1.00  0.00     0.029 A 
ATOM     45  C   UNL     1     -10.680   3.661   6.346  1.00  0.00     0.049 A 
ATOM     46  H   UNL     1     -10.047   4.390   8.220  1.00  0.00     0.167 HD
ATOM     47  C   UNL     1      -5.402   7.718   5.317  1.00  0.00     0.037 A 
ATOM     48  C   UNL     1     -11.716   4.472   5.998  1.00  0.00     0.037 A 
ATOM     49  C   UNL     1      -5.673   7.260   3.992  1.00  0.00     0.049 A 
ATOM     50  C   UNL     1     -11.000   5.468   5.114  1.00  0.00     0.074 A 
ATOM     51  C   UNL     1      -5.016   6.587   2.987  1.00  0.00     0.029 A 
ATOM     52  N   UNL     1      -6.916   7.531   3.472  1.00  0.00    -0.354 N 
ATOM     53  N   UNL     1     -10.651   5.301   3.863  1.00  0.00    -0.248 NA
ATOM     54  C   UNL     1     -10.309   6.568   5.793  1.00  0.00     0.031 C 
ATOM     55  C   UNL     1      -6.048   6.090   2.130  1.00  0.00     0.029 A 
ATOM     56  C   UNL     1      -7.265   6.452   2.705  1.00  0.00     0.049 A 
ATOM     57  H   UNL     1      -7.452   8.344   3.622  1.00  0.00     0.167 HD
ATOM     58  C   UNL     1      -9.508   6.088   3.688  1.00  0.00     0.074 A 
ATOM     59  C   UNL     1      -9.381   6.874   4.898  1.00  0.00     0.031 C 
ATOM     60  C   UNL     1      -8.609   5.921   2.672  1.00  0.00     0.037 A 
BRANCH  47  61
ATOM     61  C   UNL     1      -4.857   9.084   5.482  1.00  0.00     0.057 A 
ATOM     62  C   UNL     1      -3.496   9.332   5.662  1.00  0.00     0.134 A 
ATOM     63  C   UNL     1      -5.688  10.177   5.196  1.00  0.00     0.134 A 
ATOM     64  F   UNL     1      -2.646   8.326   5.919  1.00  0.00    -0.206 F 
ATOM     65  C   UNL     1      -2.974  10.622   5.521  1.00  0.00     0.040 A 
ATOM     66  C   UNL     1      -5.179  11.465   5.041  1.00  0.00     0.040 A 
ATOM     67  F   UNL     1      -7.004   9.990   5.000  1.00  0.00    -0.206 F 
ATOM     68  C   UNL     1      -3.814  11.688   5.191  1.00  0.00     0.006 A 
ENDBRANCH  47  61
BRANCH  48  69
ATOM     69  C   UNL     1     -12.644   4.829   7.114  1.00  0.00     0.057 A 
ATOM     70  C   UNL     1     -13.034   6.120   7.481  1.00  0.00     0.134 A 
ATOM     71  C   UNL     1     -13.177   3.783   7.897  1.00  0.00     0.134 A 
ATOM     72  F   UNL     1     -12.698   7.187   6.745  1.00  0.00    -0.206 F 
ATOM     73  C   UNL     1     -13.781   6.369   8.639  1.00  0.00     0.040 A 
ATOM     74  C   UNL     1     -13.941   4.015   9.044  1.00  0.00     0.040 A 
ATOM     75  F   UNL     1     -12.951   2.502   7.566  1.00  0.00    -0.206 F 
ATOM     76  C   UNL     1     -14.219   5.317   9.437  1.00  0.00     0.006 A 
ENDBRANCH  48  69
BRANCH  60  77
ATOM     77  C   UNL     1      -8.966   4.928   1.623  1.00  0.00     0.057 A 
ATOM     78  C   UNL     1      -8.263   3.722   1.489  1.00  0.00     0.134 A 
ATOM     79  C   UNL     1      -9.959   5.207   0.681  1.00  0.00     0.134 A 
ATOM     80  F   UNL     1      -7.307   3.380   2.368  1.00  0.00    -0.206 F 
ATOM     81  C   UNL     1      -8.499   2.853   0.424  1.00  0.00     0.040 A 
ATOM     82  C   UNL     1     -10.225   4.330  -0.372  1.00  0.00     0.040 A 
ATOM     83  F   UNL     1     -10.657   6.351   0.744  1.00  0.00    -0.206 F 
ATOM     84  C   UNL     1      -9.482   3.158  -0.512  1.00  0.00     0.006 A 
ENDBRANCH  60  77
ENDBRANCH  34  35
ENDBRANCH  27  29
ENDBRANCH  26  27
ENDBRANCH   1  26
TORSDOF 12
