REMARK SMILES Cc1ccc(-c2c[nH]c(=O)cc2C(=O)OCCOC(=O)c2ccc(-c3c4nc(c(-c5c(F)cccc5F)c5ccc([nH]5)c(-c5c(F)cccc5F)c5nc(c(-c6c(F)cccc6F)c6ccc3[nH]6)C=C5)C=C4)cc2)cc1Cl
REMARK SMILES IDX 17 1 16 2 15 3 13 4 14 5 12 6 6 7 7 8 8 9 11 10 9 11 10 13
REMARK SMILES IDX 5 14 1 15 2 16 3 17 76 18 4 19 75 20 77 21 18 22 19 23 20 24
REMARK SMILES IDX 21 25 22 26 74 27 23 28 73 29 24 30 25 31 26 32 67 33 27 34
REMARK SMILES IDX 72 35 66 36 68 37 28 38 71 39 65 40 64 41 29 43 55 44 38 45
REMARK SMILES IDX 54 46 39 47 42 48 53 49 69 50 40 51 41 52 52 54 70 55 43 56
REMARK SMILES IDX 30 57 31 58 36 59 32 60 33 61 35 62 37 63 34 64 56 65 57 66
REMARK SMILES IDX 62 67 58 68 59 69 61 70 63 71 60 72 44 73 45 74 50 75 46 76
REMARK SMILES IDX 47 77 49 78 51 79 48 80
REMARK H PARENT 8 12 68 42 42 53
REMARK Flexibility Score: inf
ROOT
ATOM      1  C   UNL     1      -5.201  -0.290  -4.305  1.00  0.00     0.275 C 
ENDROOT
BRANCH   1   2
ATOM      2  C   UNL     1      -4.935  -1.792  -4.328  1.00  0.00     0.275 C 
BRANCH   2   3
ATOM      3  O   UNL     1      -4.977  -2.324  -2.985  1.00  0.00    -0.458 OA
BRANCH   3   4
ATOM      4  C   UNL     1      -3.795  -2.767  -2.487  1.00  0.00     0.339 C 
ATOM      5  O   UNL     1      -2.732  -2.804  -3.090  1.00  0.00    -0.246 OA
BRANCH   4   6
ATOM      6  C   UNL     1      -3.951  -3.269  -1.101  1.00  0.00     0.074 A 
ATOM      7  C   UNL     1      -3.188  -2.741   0.040  1.00  0.00     0.013 A 
ATOM      8  C   UNL     1      -3.188  -3.455   1.178  1.00  0.00     0.095 A 
ATOM      9  N   UNL     1      -3.919  -4.616   1.277  1.00  0.00    -0.328 N 
ATOM     10  C   UNL     1      -4.680  -4.393  -1.006  1.00  0.00     0.087 A 
ATOM     11  C   UNL     1      -4.689  -5.138   0.268  1.00  0.00     0.248 A 
ATOM     12  H   UNL     1      -3.887  -5.106   2.131  1.00  0.00     0.169 HD
ATOM     13  O   UNL     1      -5.318  -6.183   0.381  1.00  0.00    -0.270 OA
BRANCH   7  14
ATOM     14  C   UNL     1      -2.269  -1.595  -0.056  1.00  0.00    -0.015 A 
ATOM     15  C   UNL     1       0.946   2.130  -1.775  1.00  0.00     0.046 C 
ATOM     16  C   UNL     1      -0.057   1.079  -1.423  1.00  0.00    -0.032 A 
ATOM     17  C   UNL     1      -1.511   1.569  -0.498  1.00  0.00     0.005 A 
ATOM     18  C   UNL     1       0.251  -0.632  -1.619  1.00  0.00     0.044 A 
ATOM     19  C   UNL     1      -2.704   0.132   0.287  1.00  0.00     0.009 A 
ATOM     20  C   UNL     1      -0.793  -1.910  -0.982  1.00  0.00     0.029 A 
ATOM     21  Cl  UNL     1       1.727  -1.138  -2.363  1.00  0.00    -0.084 Cl
ENDBRANCH   7  14
ENDBRANCH   4   6
ENDBRANCH   3   4
ENDBRANCH   2   3
ENDBRANCH   1   2
BRANCH   1  22
ATOM     22  O   UNL     1      -4.148   0.353  -3.565  1.00  0.00    -0.458 OA
BRANCH  22  23
ATOM     23  C   UNL     1      -4.510   0.740  -2.328  1.00  0.00     0.338 C 
ATOM     24  O   UNL     1      -5.628   0.730  -1.837  1.00  0.00    -0.246 OA
BRANCH  23  25
ATOM     25  C   UNL     1      -3.343   1.094  -1.521  1.00  0.00     0.060 A 
ATOM     26  C   UNL     1      -1.931  -0.012  -1.436  1.00  0.00     0.016 A 
ATOM     27  C   UNL     1      -3.657   2.143  -0.150  1.00  0.00     0.016 A 
ATOM     28  C   UNL     1      -0.832  -0.022   0.264  1.00  0.00     0.010 A 
ATOM     29  C   UNL     1      -2.644   2.180   1.307  1.00  0.00     0.010 A 
ATOM     30  C   UNL     1      -1.226   1.148   1.581  1.00  0.00    -0.014 A 
BRANCH  30  31
ATOM     31  C   UNL     1      -0.237   1.491   2.699  1.00  0.00     0.031 A 
ATOM     32  C   UNL     1      -0.704   2.208   3.962  1.00  0.00     0.074 A 
ATOM     33  C   UNL     1       1.107   1.345   2.561  1.00  0.00     0.049 A 
ATOM     34  N   UNL     1      -0.013   2.909   4.835  1.00  0.00    -0.248 NA
ATOM     35  C   UNL     1      -2.142   2.177   4.256  1.00  0.00     0.031 C 
ATOM     36  C   UNL     1       1.812   0.719   1.453  1.00  0.00     0.029 A 
ATOM     37  N   UNL     1       2.156   1.766   3.363  1.00  0.00    -0.354 N 
ATOM     38  C   UNL     1      -0.943   3.462   5.714  1.00  0.00     0.074 A 
ATOM     39  C   UNL     1      -2.248   3.094   5.208  1.00  0.00     0.031 C 
ATOM     40  C   UNL     1       3.131   0.780   1.617  1.00  0.00     0.029 A 
ATOM     41  C   UNL     1       3.404   1.523   2.821  1.00  0.00     0.049 A 
ATOM     42  H   UNL     1       2.025   2.198   4.237  1.00  0.00     0.167 HD
ATOM     43  C   UNL     1      -0.747   4.154   6.868  1.00  0.00     0.037 A 
ATOM     44  C   UNL     1       4.656   1.854   3.182  1.00  0.00     0.037 A 
ATOM     45  C   UNL     1       0.546   4.398   7.462  1.00  0.00     0.049 A 
ATOM     46  C   UNL     1       4.866   2.575   4.463  1.00  0.00     0.074 A 
ATOM     47  C   UNL     1       0.840   4.967   8.691  1.00  0.00     0.029 A 
ATOM     48  N   UNL     1       1.761   4.053   6.889  1.00  0.00    -0.354 N 
ATOM     49  N   UNL     1       3.968   3.066   5.275  1.00  0.00    -0.248 NA
ATOM     50  C   UNL     1       6.254   2.743   4.903  1.00  0.00     0.031 C 
ATOM     51  C   UNL     1       2.230   4.983   8.853  1.00  0.00     0.029 A 
ATOM     52  C   UNL     1       2.803   4.392   7.741  1.00  0.00     0.049 A 
ATOM     53  H   UNL     1       1.869   3.629   6.007  1.00  0.00     0.167 HD
ATOM     54  C   UNL     1       4.678   3.558   6.356  1.00  0.00     0.074 A 
ATOM     55  C   UNL     1       6.080   3.306   6.090  1.00  0.00     0.031 C 
ATOM     56  C   UNL     1       4.197   4.146   7.476  1.00  0.00     0.037 A 
BRANCH  43  57
ATOM     57  C   UNL     1      -1.970   4.653   7.603  1.00  0.00     0.057 A 
ATOM     58  C   UNL     1      -2.904   3.777   8.177  1.00  0.00     0.134 A 
ATOM     59  C   UNL     1      -2.213   6.026   7.752  1.00  0.00     0.134 A 
ATOM     60  F   UNL     1      -2.736   2.449   8.084  1.00  0.00    -0.206 F 
ATOM     61  C   UNL     1      -4.062   4.242   8.806  1.00  0.00     0.040 A 
ATOM     62  C   UNL     1      -3.348   6.504   8.416  1.00  0.00     0.040 A 
ATOM     63  F   UNL     1      -1.352   6.929   7.261  1.00  0.00    -0.206 F 
ATOM     64  C   UNL     1      -4.285   5.611   8.928  1.00  0.00     0.006 A 
ENDBRANCH  43  57
BRANCH  44  65
ATOM     65  C   UNL     1       5.799   1.417   2.333  1.00  0.00     0.057 A 
ATOM     66  C   UNL     1       6.593   0.328   2.711  1.00  0.00     0.134 A 
ATOM     67  C   UNL     1       6.060   2.003   1.087  1.00  0.00     0.134 A 
ATOM     68  F   UNL     1       6.387  -0.278   3.890  1.00  0.00    -0.206 F 
ATOM     69  C   UNL     1       7.611  -0.157   1.889  1.00  0.00     0.040 A 
ATOM     70  C   UNL     1       7.060   1.512   0.244  1.00  0.00     0.040 A 
ATOM     71  F   UNL     1       5.311   3.026   0.649  1.00  0.00    -0.206 F 
ATOM     72  C   UNL     1       7.841   0.431   0.647  1.00  0.00     0.006 A 
ENDBRANCH  44  65
BRANCH  56  73
ATOM     73  C   UNL     1       5.208   4.506   8.519  1.00  0.00     0.057 A 
ATOM     74  C   UNL     1       6.112   5.560   8.342  1.00  0.00     0.134 A 
ATOM     75  C   UNL     1       5.298   3.762   9.702  1.00  0.00     0.134 A 
ATOM     76  F   UNL     1       6.094   6.289   7.216  1.00  0.00    -0.206 F 
ATOM     77  C   UNL     1       7.092   5.844   9.293  1.00  0.00     0.040 A 
ATOM     78  C   UNL     1       6.255   4.054  10.673  1.00  0.00     0.040 A 
ATOM     79  F   UNL     1       4.465   2.735   9.928  1.00  0.00    -0.206 F 
ATOM     80  C   UNL     1       7.162   5.091  10.465  1.00  0.00     0.006 A 
ENDBRANCH  56  73
ENDBRANCH  30  31
ENDBRANCH  23  25
ENDBRANCH  22  23
ENDBRANCH   1  22
TORSDOF 12
