REMARK SMILES O=C(C[C@@H]1C[N@@H+]([C@H]2CCO[C@]3(CCOC3)C2)CCO1)OCCOC(=O)c1ccc(-c2c3nc(c(-c4c(F)cccc4F)c4ccc([nH]4)c(-c4c(F)cccc4F)c4nc(c(-c5c(F)cccc5F)c5ccc2[nH]5)C=C4)C=C3)cc1
REMARK SMILES IDX 21 1 20 2 2 3 1 4 3 5 4 6 5 7 19 8 6 9 18 10 17 11 7 13 8 14
REMARK SMILES IDX 16 15 9 16 11 17 10 18 12 19 15 20 13 21 14 22 22 23 23 24
REMARK SMILES IDX 24 25 25 26 26 27 27 28 79 29 28 30 78 31 29 32 30 33 31 34
REMARK SMILES IDX 72 35 32 36 77 37 71 38 73 39 33 40 76 41 70 42 69 43 34 45
REMARK SMILES IDX 60 46 43 47 59 48 44 49 47 50 58 51 74 52 45 53 46 54 57 56
REMARK SMILES IDX 75 57 48 58 35 59 36 60 41 61 37 62 38 63 40 64 42 65 39 66
REMARK SMILES IDX 61 67 62 68 67 69 63 70 64 71 66 72 68 73 65 74 49 75 50 76
REMARK SMILES IDX 55 77 51 78 52 79 54 80 56 81 53 82
REMARK H PARENT 6 12 73 44 47 55
REMARK Flexibility Score: inf
ROOT
ATOM      1  C   UNL     1       4.307   0.700   5.855  1.00  0.00     0.274 C 
ENDROOT
BRANCH   1   2
ATOM      2  O   UNL     1       4.536  -0.153   6.997  1.00  0.00    -0.462 OA
BRANCH   2   3
ATOM      3  C   UNL     1       5.576  -0.998   7.165  1.00  0.00     0.308 C 
ATOM      4  O   UNL     1       5.448  -1.997   7.869  1.00  0.00    -0.252 OA
BRANCH   3   5
ATOM      5  C   UNL     1       6.906  -0.671   6.545  1.00  0.00     0.160 C 
BRANCH   5   6
ATOM      6  C   UNL     1       7.112  -1.058   5.091  1.00  0.00     0.184 C 
ATOM      7  C   UNL     1       6.306  -2.286   4.633  1.00  0.00     0.295 C 
ATOM      8  O   UNL     1       8.521  -1.286   4.887  1.00  0.00    -0.366 OA
ATOM      9  N   UNL     1       6.523  -2.630   3.215  1.00  0.00    -0.328 N 
ATOM     10  C   UNL     1       8.799  -1.520   3.500  1.00  0.00     0.222 C 
ATOM     11  C   UNL     1       7.967  -2.684   2.929  1.00  0.00     0.291 C 
ATOM     12  H   UNL     1       6.179  -3.576   3.053  1.00  0.00     0.348 HD
BRANCH   9  13
ATOM     13  C   UNL     1       5.655  -1.923   2.255  1.00  0.00     0.189 C 
ATOM     14  C   UNL     1       6.086  -0.521   1.805  1.00  0.00     0.093 C 
ATOM     15  C   UNL     1       5.432  -2.810   1.011  1.00  0.00     0.103 C 
ATOM     16  C   UNL     1       5.091   0.038   0.802  1.00  0.00     0.167 C 
ATOM     17  C   UNL     1       4.537  -2.129  -0.045  1.00  0.00     0.099 C 
ATOM     18  O   UNL     1       5.006  -0.810  -0.334  1.00  0.00    -0.372 OA
ATOM     19  C   UNL     1       3.054  -2.144   0.309  1.00  0.00     0.066 C 
ATOM     20  C   UNL     1       4.525  -2.939  -1.341  1.00  0.00     0.195 C 
ATOM     21  C   UNL     1       2.527  -3.434  -0.295  1.00  0.00     0.163 C 
ATOM     22  O   UNL     1       3.526  -3.950  -1.180  1.00  0.00    -0.378 OA
ENDBRANCH   9  13
ENDBRANCH   5   6
ENDBRANCH   3   5
ENDBRANCH   2   3
ENDBRANCH   1   2
BRANCH   1  23
ATOM     23  C   UNL     1       4.341   2.176   6.239  1.00  0.00     0.275 C 
BRANCH  23  24
ATOM     24  O   UNL     1       5.706   2.589   6.415  1.00  0.00    -0.458 OA
BRANCH  24  25
ATOM     25  C   UNL     1       6.128   2.692   7.701  1.00  0.00     0.338 C 
ATOM     26  O   UNL     1       5.451   2.588   8.704  1.00  0.00    -0.246 OA
BRANCH  25  27
ATOM     27  C   UNL     1       7.608   2.739   7.703  1.00  0.00     0.060 A 
ATOM     28  C   UNL     1       8.275   1.997   8.685  1.00  0.00     0.016 A 
ATOM     29  C   UNL     1       8.331   3.424   6.719  1.00  0.00     0.016 A 
ATOM     30  C   UNL     1       9.667   1.945   8.690  1.00  0.00     0.010 A 
ATOM     31  C   UNL     1       9.727   3.381   6.733  1.00  0.00     0.010 A 
ATOM     32  C   UNL     1      10.400   2.654   7.728  1.00  0.00    -0.014 A 
BRANCH  32  33
ATOM     33  C   UNL     1      11.869   2.748   7.870  1.00  0.00     0.031 A 
ATOM     34  C   UNL     1      12.440   3.888   8.664  1.00  0.00     0.074 A 
ATOM     35  C   UNL     1      12.680   1.814   7.343  1.00  0.00     0.049 A 
ATOM     36  N   UNL     1      13.680   4.120   9.009  1.00  0.00    -0.248 NA
ATOM     37  C   UNL     1      11.482   4.902   9.133  1.00  0.00     0.031 C 
ATOM     38  C   UNL     1      12.250   0.662   6.552  1.00  0.00     0.029 A 
ATOM     39  N   UNL     1      14.045   1.693   7.404  1.00  0.00    -0.354 N 
ATOM     40  C   UNL     1      13.646   5.281   9.769  1.00  0.00     0.074 A 
ATOM     41  C   UNL     1      12.273   5.740   9.786  1.00  0.00     0.031 C 
ATOM     42  C   UNL     1      13.336  -0.046   6.193  1.00  0.00     0.029 A 
ATOM     43  C   UNL     1      14.532   0.601   6.731  1.00  0.00     0.049 A 
ATOM     44  H   UNL     1      14.622   2.330   7.884  1.00  0.00     0.167 HD
ATOM     45  C   UNL     1      14.661   5.898  10.416  1.00  0.00     0.037 A 
ATOM     46  C   UNL     1      15.799   0.173   6.576  1.00  0.00     0.037 A 
ATOM     47  C   UNL     1      16.032   5.468  10.373  1.00  0.00     0.049 A 
ATOM     48  C   UNL     1      16.922   0.915   7.253  1.00  0.00     0.074 A 
ATOM     49  C   UNL     1      17.134   6.034  10.989  1.00  0.00     0.029 A 
ATOM     50  N   UNL     1      16.488   4.369   9.663  1.00  0.00    -0.354 N 
ATOM     51  N   UNL     1      16.871   1.977   8.021  1.00  0.00    -0.248 NA
ATOM     52  C   UNL     1      18.280   0.387   7.053  1.00  0.00     0.031 C 
ATOM     53  C   UNL     1      18.265   5.296  10.622  1.00  0.00     0.029 A 
ATOM     54  C   UNL     1      17.860   4.250   9.809  1.00  0.00     0.049 A 
ATOM     55  H   UNL     1      15.921   3.764   9.133  1.00  0.00     0.167 HD
ATOM     56  C   UNL     1      18.180   2.225   8.416  1.00  0.00     0.074 A 
ATOM     57  C   UNL     1      19.001   1.196   7.815  1.00  0.00     0.031 C 
ATOM     58  C   UNL     1      18.660   3.217   9.206  1.00  0.00     0.037 A 
BRANCH  45  59
ATOM     59  C   UNL     1      14.313   7.107  11.227  1.00  0.00     0.057 A 
ATOM     60  C   UNL     1      13.652   6.990  12.457  1.00  0.00     0.134 A 
ATOM     61  C   UNL     1      14.652   8.392  10.790  1.00  0.00     0.134 A 
ATOM     62  F   UNL     1      13.284   5.786  12.920  1.00  0.00    -0.206 F 
ATOM     63  C   UNL     1      13.327   8.114  13.218  1.00  0.00     0.040 A 
ATOM     64  C   UNL     1      14.348   9.521  11.551  1.00  0.00     0.040 A 
ATOM     65  F   UNL     1      15.282   8.569   9.619  1.00  0.00    -0.206 F 
ATOM     66  C   UNL     1      13.681   9.384  12.767  1.00  0.00     0.006 A 
ENDBRANCH  45  59
BRANCH  46  67
ATOM     67  C   UNL     1      16.090  -1.026   5.751  1.00  0.00     0.057 A 
ATOM     68  C   UNL     1      16.521  -2.222   6.334  1.00  0.00     0.134 A 
ATOM     69  C   UNL     1      15.995  -0.983   4.355  1.00  0.00     0.134 A 
ATOM     70  F   UNL     1      16.657  -2.314   7.665  1.00  0.00    -0.206 F 
ATOM     71  C   UNL     1      16.874  -3.327   5.557  1.00  0.00     0.040 A 
ATOM     72  C   UNL     1      16.325  -2.087   3.567  1.00  0.00     0.040 A 
ATOM     73  F   UNL     1      15.589   0.136   3.738  1.00  0.00    -0.206 F 
ATOM     74  C   UNL     1      16.775  -3.260   4.169  1.00  0.00     0.006 A 
ENDBRANCH  46  67
BRANCH  58  75
ATOM     75  C   UNL     1      20.135   3.221   9.480  1.00  0.00     0.057 A 
ATOM     76  C   UNL     1      21.065   3.599   8.502  1.00  0.00     0.134 A 
ATOM     77  C   UNL     1      20.628   2.873  10.743  1.00  0.00     0.134 A 
ATOM     78  F   UNL     1      20.657   3.932   7.269  1.00  0.00    -0.206 F 
ATOM     79  C   UNL     1      22.435   3.607   8.765  1.00  0.00     0.040 A 
ATOM     80  C   UNL     1      21.995   2.900  11.025  1.00  0.00     0.040 A 
ATOM     81  F   UNL     1      19.790   2.511  11.726  1.00  0.00    -0.206 F 
ATOM     82  C   UNL     1      22.903   3.261  10.032  1.00  0.00     0.006 A 
ENDBRANCH  58  75
ENDBRANCH  32  33
ENDBRANCH  25  27
ENDBRANCH  24  25
ENDBRANCH  23  24
ENDBRANCH   1  23
TORSDOF 13
