REMARK SMILES CC(=O)c1c[nH]c(C(=O)N[C@H]2C=C[C@H](C(=O)OCCOC(=O)c3ccc(-c4c5nc(c(-c6c(F)cccc6F)c6ccc([nH]6)c(-c6c(F)cccc6F)c6nc(c(-c7c(F)cccc7F)c7ccc4[nH]7)C=C6)C=C5)cc3)C2)c1
REMARK SMILES IDX 18 1 17 2 15 3 16 4 14 5 11 6 12 7 77 8 13 9 10 10 8 11 9 12
REMARK SMILES IDX 7 14 4 15 5 16 78 17 6 18 2 20 1 21 3 22 19 23 20 24 21 25
REMARK SMILES IDX 22 26 23 27 24 28 76 29 25 30 75 31 26 32 27 33 28 34 69 35
REMARK SMILES IDX 29 36 74 37 68 38 70 39 30 40 73 41 67 42 66 43 31 45 57 46
REMARK SMILES IDX 40 47 56 48 41 49 44 50 55 51 71 52 42 53 43 54 54 56 72 57
REMARK SMILES IDX 45 58 32 59 33 60 38 61 34 62 35 63 37 64 39 65 36 66 58 67
REMARK SMILES IDX 59 68 64 69 60 70 61 71 63 72 65 73 62 74 46 75 47 76 52 77
REMARK SMILES IDX 48 78 49 79 51 80 53 81 50 82
REMARK H PARENT 10 13 6 19 70 44 44 55
REMARK Flexibility Score: inf
ROOT
ATOM      1  C   UNL     1      -5.729  -0.596   2.629  1.00  0.00     0.274 C 
ENDROOT
BRANCH   1   2
ATOM      2  O   UNL     1      -4.516  -1.143   3.180  1.00  0.00    -0.462 OA
BRANCH   2   3
ATOM      3  C   UNL     1      -4.341  -2.499   3.063  1.00  0.00     0.312 C 
ATOM      4  O   UNL     1      -5.099  -3.238   2.461  1.00  0.00    -0.252 OA
BRANCH   3   5
ATOM      5  C   UNL     1      -3.058  -2.952   3.778  1.00  0.00     0.124 C 
ATOM      6  C   UNL     1      -2.157  -4.864   2.520  1.00  0.00     0.106 C 
ATOM      7  C   UNL     1      -2.791  -5.289   3.819  1.00  0.00    -0.006 C 
ATOM      8  C   UNL     1      -1.962  -3.369   2.793  1.00  0.00     0.048 C 
ATOM      9  C   UNL     1      -3.275  -4.245   4.507  1.00  0.00    -0.014 C 
BRANCH   6  10
ATOM     10  N   UNL     1      -1.016  -5.737   2.279  1.00  0.00    -0.345 N 
ATOM     11  C   UNL     1       0.208  -5.654   1.670  1.00  0.00     0.268 C 
ATOM     12  O   UNL     1       0.855  -6.701   1.595  1.00  0.00    -0.268 OA
ATOM     13  H   UNL     1      -1.166  -6.633   2.659  1.00  0.00     0.164 HD
BRANCH  11  14
ATOM     14  C   UNL     1       0.781  -4.404   1.246  1.00  0.00     0.105 A 
ATOM     15  C   UNL     1       1.203  -2.210   0.883  1.00  0.00     0.035 A 
ATOM     16  C   UNL     1       2.400  -2.832   1.167  1.00  0.00     0.094 A 
ATOM     17  C   UNL     1       0.252  -3.246   0.723  1.00  0.00     0.045 A 
ATOM     18  N   UNL     1       2.144  -4.176   1.303  1.00  0.00    -0.356 N 
ATOM     19  H   UNL     1       2.829  -4.873   1.424  1.00  0.00     0.166 HD
BRANCH  15  20
ATOM     20  C   UNL     1       0.921  -0.784   0.882  1.00  0.00     0.161 C 
ATOM     21  C   UNL     1       1.314   0.025  -0.318  1.00  0.00     0.093 C 
ATOM     22  O   UNL     1       0.354  -0.262   1.841  1.00  0.00    -0.294 OA
ENDBRANCH  15  20
ENDBRANCH  11  14
ENDBRANCH   6  10
ENDBRANCH   3   5
ENDBRANCH   2   3
ENDBRANCH   1   2
BRANCH   1  23
ATOM     23  C   UNL     1      -5.582  -0.010   1.220  1.00  0.00     0.275 C 
BRANCH  23  24
ATOM     24  O   UNL     1      -5.398  -0.994   0.194  1.00  0.00    -0.458 OA
BRANCH  24  25
ATOM     25  C   UNL     1      -4.105  -1.335   0.048  1.00  0.00     0.338 C 
ATOM     26  O   UNL     1      -3.174  -1.038   0.784  1.00  0.00    -0.246 OA
BRANCH  25  27
ATOM     27  C   UNL     1      -3.830  -1.979  -1.231  1.00  0.00     0.060 A 
ATOM     28  C   UNL     1      -2.856  -2.977  -1.218  1.00  0.00     0.016 A 
ATOM     29  C   UNL     1      -4.191  -1.319  -2.408  1.00  0.00     0.016 A 
ATOM     30  C   UNL     1      -2.089  -3.187  -2.344  1.00  0.00     0.010 A 
ATOM     31  C   UNL     1      -3.457  -1.568  -3.559  1.00  0.00     0.010 A 
ATOM     32  C   UNL     1      -2.373  -2.459  -3.505  1.00  0.00    -0.014 A 
BRANCH  32  33
ATOM     33  C   UNL     1      -1.645  -2.838  -4.727  1.00  0.00     0.031 A 
ATOM     34  C   UNL     1      -2.163  -4.175  -5.264  1.00  0.00     0.074 A 
ATOM     35  C   UNL     1      -0.648  -2.009  -5.159  1.00  0.00     0.049 A 
ATOM     36  N   UNL     1      -1.570  -5.049  -6.013  1.00  0.00    -0.248 NA
ATOM     37  C   UNL     1      -3.510  -4.658  -4.835  1.00  0.00     0.031 C 
ATOM     38  C   UNL     1      -0.231  -0.767  -4.474  1.00  0.00     0.029 A 
ATOM     39  N   UNL     1       0.217  -2.031  -6.238  1.00  0.00    -0.354 N 
ATOM     40  C   UNL     1      -2.523  -6.040  -6.321  1.00  0.00     0.074 A 
ATOM     41  C   UNL     1      -3.633  -5.837  -5.444  1.00  0.00     0.031 C 
ATOM     42  C   UNL     1       0.820  -0.199  -5.106  1.00  0.00     0.029 A 
ATOM     43  C   UNL     1       1.174  -0.983  -6.275  1.00  0.00     0.049 A 
ATOM     44  H   UNL     1       0.172  -2.727  -6.933  1.00  0.00     0.167 HD
ATOM     45  C   UNL     1      -2.425  -6.852  -7.410  1.00  0.00     0.037 A 
ATOM     46  C   UNL     1       2.186  -0.765  -7.175  1.00  0.00     0.037 A 
ATOM     47  C   UNL     1      -1.241  -6.555  -8.139  1.00  0.00     0.049 A 
ATOM     48  C   UNL     1       1.948  -1.704  -8.280  1.00  0.00     0.074 A 
ATOM     49  C   UNL     1       0.084  -6.762  -7.863  1.00  0.00     0.029 A 
ATOM     50  N   UNL     1      -1.360  -5.620  -9.140  1.00  0.00    -0.354 N 
ATOM     51  N   UNL     1       0.970  -1.603  -9.130  1.00  0.00    -0.248 NA
ATOM     52  C   UNL     1       2.840  -2.857  -8.444  1.00  0.00     0.031 C 
ATOM     53  C   UNL     1       0.709  -5.617  -8.391  1.00  0.00     0.029 A 
ATOM     54  C   UNL     1      -0.213  -4.870  -9.138  1.00  0.00     0.049 A 
ATOM     55  H   UNL     1      -2.128  -5.509  -9.747  1.00  0.00     0.167 HD
ATOM     56  C   UNL     1       0.927  -2.863  -9.674  1.00  0.00     0.074 A 
ATOM     57  C   UNL     1       2.237  -3.446  -9.475  1.00  0.00     0.031 C 
ATOM     58  C   UNL     1      -0.259  -3.524  -9.668  1.00  0.00     0.037 A 
BRANCH  45  59
ATOM     59  C   UNL     1      -3.434  -7.726  -8.085  1.00  0.00     0.057 A 
ATOM     60  C   UNL     1      -2.958  -8.754  -8.929  1.00  0.00     0.134 A 
ATOM     61  C   UNL     1      -4.781  -7.380  -8.233  1.00  0.00     0.134 A 
ATOM     62  F   UNL     1      -1.686  -9.178  -8.848  1.00  0.00    -0.206 F 
ATOM     63  C   UNL     1      -3.739  -9.314  -9.940  1.00  0.00     0.040 A 
ATOM     64  C   UNL     1      -5.587  -7.970  -9.214  1.00  0.00     0.040 A 
ATOM     65  F   UNL     1      -5.334  -6.396  -7.513  1.00  0.00    -0.206 F 
ATOM     66  C   UNL     1      -5.057  -8.907 -10.097  1.00  0.00     0.006 A 
ENDBRANCH  45  59
BRANCH  46  67
ATOM     67  C   UNL     1       3.420   0.102  -7.326  1.00  0.00     0.057 A 
ATOM     68  C   UNL     1       3.943   0.966  -6.363  1.00  0.00     0.134 A 
ATOM     69  C   UNL     1       4.255  -0.046  -8.473  1.00  0.00     0.134 A 
ATOM     70  F   UNL     1       3.257   1.282  -5.260  1.00  0.00    -0.206 F 
ATOM     71  C   UNL     1       5.226   1.543  -6.480  1.00  0.00     0.040 A 
ATOM     72  C   UNL     1       5.552   0.467  -8.575  1.00  0.00     0.040 A 
ATOM     73  F   UNL     1       3.857  -0.727  -9.558  1.00  0.00    -0.206 F 
ATOM     74  C   UNL     1       6.053   1.257  -7.562  1.00  0.00     0.006 A 
ENDBRANCH  46  67
BRANCH  58  75
ATOM     75  C   UNL     1      -1.473  -2.612  -9.760  1.00  0.00     0.057 A 
ATOM     76  C   UNL     1      -1.598  -1.707 -10.826  1.00  0.00     0.134 A 
ATOM     77  C   UNL     1      -2.458  -2.499  -8.770  1.00  0.00     0.134 A 
ATOM     78  F   UNL     1      -0.731  -1.747 -11.850  1.00  0.00    -0.206 F 
ATOM     79  C   UNL     1      -2.604  -0.730 -10.873  1.00  0.00     0.040 A 
ATOM     80  C   UNL     1      -3.473  -1.532  -8.799  1.00  0.00     0.040 A 
ATOM     81  F   UNL     1      -2.476  -3.328  -7.731  1.00  0.00    -0.206 F 
ATOM     82  C   UNL     1      -3.542  -0.632  -9.851  1.00  0.00     0.006 A 
ENDBRANCH  58  75
ENDBRANCH  32  33
ENDBRANCH  25  27
ENDBRANCH  24  25
ENDBRANCH  23  24
ENDBRANCH   1  23
TORSDOF 14
