REMARK SMILES COc1ccc(NC2=[NH+]C(=O)/C(=C\c3ccccc3C(=O)OCCOC(=O)c3ccc(-c4c5nc(c(-c6c(F)cccc6F)c6ccc([nH]6)c(-c6c(F)cccc6F)c6nc(c(-c7c(F)cccc7F)c7ccc4[nH]7)C=C6)C=C5)cc3)S2)cc1
REMARK SMILES IDX 23 1 22 2 20 3 21 4 19 5 14 6 15 7 16 8 18 9 17 10 13 11
REMARK SMILES IDX 7 12 8 13 9 15 82 16 10 17 12 19 11 20 6 21 3 22 4 23 84 24
REMARK SMILES IDX 5 25 83 26 2 27 1 28 24 29 25 30 26 31 27 32 28 33 29 34
REMARK SMILES IDX 81 35 30 36 80 37 31 38 32 39 33 40 74 41 34 42 79 43 73 44
REMARK SMILES IDX 75 45 35 46 78 47 72 48 71 49 36 51 62 52 45 53 61 54 46 55
REMARK SMILES IDX 49 56 60 57 76 58 47 59 48 60 59 62 77 63 50 64 37 65 38 66
REMARK SMILES IDX 43 67 39 68 40 69 42 70 44 71 41 72 63 73 64 74 69 75 65 76
REMARK SMILES IDX 66 77 68 78 70 79 67 80 51 81 52 82 57 83 53 84 54 85 56 86
REMARK SMILES IDX 58 87 55 88
REMARK H PARENT 7 14 9 18 75 50 49 61
REMARK Flexibility Score: inf
ROOT
ATOM      1  C   UNL     1      -0.920   3.245   7.542  1.00  0.00     0.275 C 
ENDROOT
BRANCH   1   2
ATOM      2  O   UNL     1      -1.474   2.500   8.648  1.00  0.00    -0.458 OA
BRANCH   2   3
ATOM      3  C   UNL     1      -1.161   2.938   9.894  1.00  0.00     0.338 C 
ATOM      4  O   UNL     1      -0.580   3.980  10.152  1.00  0.00    -0.246 OA
BRANCH   3   5
ATOM      5  C   UNL     1      -1.720   2.043  10.954  1.00  0.00     0.067 A 
ATOM      6  C   UNL     1      -1.896   0.647  10.833  1.00  0.00    -0.010 A 
ATOM      7  C   UNL     1      -2.511  -0.050  11.890  1.00  0.00     0.009 A 
ATOM      8  C   UNL     1      -2.920   0.611  13.051  1.00  0.00     0.001 A 
ATOM      9  C   UNL     1      -2.092   2.683  12.152  1.00  0.00     0.016 A 
ATOM     10  C   UNL     1      -2.705   1.977  13.186  1.00  0.00     0.001 A 
BRANCH   6  11
ATOM     11  C   UNL     1      -1.528  -0.151   9.652  1.00  0.00     0.033 C 
ATOM     12  N   UNL     1       2.143   0.100   6.236  1.00  0.00    -0.235 N 
ATOM     13  C   UNL     1       1.437   0.015   7.397  1.00  0.00     0.322 C 
ATOM     14  H   UNL     1       3.121   0.044   6.342  1.00  0.00     0.313 HD
ATOM     15  N   UNL     1       1.842   0.579   8.490  1.00  0.00    -0.199 N 
ATOM     16  S   UNL     1      -0.046  -0.911   7.531  1.00  0.00     0.006 SA
ATOM     17  C   UNL     1       0.951   0.442   9.532  1.00  0.00     0.346 C 
ATOM     18  H   UNL     1       2.699   1.058   8.568  1.00  0.00     0.316 HD
ATOM     19  C   UNL     1      -0.318  -0.208   9.080  1.00  0.00     0.110 C 
ATOM     20  O   UNL     1       1.155   0.820  10.674  1.00  0.00    -0.240 OA
BRANCH  12  21
ATOM     21  C   UNL     1       1.701   0.256   4.910  1.00  0.00     0.125 A 
ATOM     22  C   UNL     1       0.955   0.530   2.194  1.00  0.00     0.119 A 
ATOM     23  C   UNL     1       0.018   0.708   3.207  1.00  0.00     0.051 A 
ATOM     24  C   UNL     1       2.271   0.226   2.530  1.00  0.00     0.051 A 
ATOM     25  C   UNL     1       0.384   0.555   4.550  1.00  0.00     0.055 A 
ATOM     26  C   UNL     1       2.635   0.084   3.875  1.00  0.00     0.055 A 
BRANCH  22  27
ATOM     27  O   UNL     1       0.493   0.727   0.923  1.00  0.00    -0.497 OA
ATOM     28  C   UNL     1       1.111  -0.080  -0.074  1.00  0.00     0.278 C 
ENDBRANCH  22  27
ENDBRANCH  12  21
ENDBRANCH   6  11
ENDBRANCH   3   5
ENDBRANCH   2   3
ENDBRANCH   1   2
BRANCH   1  29
ATOM     29  C   UNL     1      -2.019   3.907   6.713  1.00  0.00     0.275 C 
BRANCH  29  30
ATOM     30  O   UNL     1      -2.602   4.983   7.467  1.00  0.00    -0.458 OA
BRANCH  30  31
ATOM     31  C   UNL     1      -3.844   4.749   7.943  1.00  0.00     0.338 C 
ATOM     32  O   UNL     1      -4.581   3.810   7.700  1.00  0.00    -0.246 OA
BRANCH  31  33
ATOM     33  C   UNL     1      -4.134   5.746   8.980  1.00  0.00     0.060 A 
ATOM     34  C   UNL     1      -3.836   5.392  10.294  1.00  0.00     0.016 A 
ATOM     35  C   UNL     1      -4.777   6.949   8.697  1.00  0.00     0.016 A 
ATOM     36  C   UNL     1      -4.205   6.220  11.344  1.00  0.00     0.010 A 
ATOM     37  C   UNL     1      -5.125   7.799   9.755  1.00  0.00     0.010 A 
ATOM     38  C   UNL     1      -4.867   7.428  11.089  1.00  0.00    -0.014 A 
BRANCH  38  39
ATOM     39  C   UNL     1      -5.367   8.228  12.239  1.00  0.00     0.031 A 
ATOM     40  C   UNL     1      -6.848   8.352  12.475  1.00  0.00     0.074 A 
ATOM     41  C   UNL     1      -4.502   8.765  13.120  1.00  0.00     0.049 A 
ATOM     42  N   UNL     1      -7.487   9.041  13.387  1.00  0.00    -0.248 NA
ATOM     43  C   UNL     1      -7.726   7.605  11.562  1.00  0.00     0.031 C 
ATOM     44  C   UNL     1      -3.043   8.671  13.039  1.00  0.00     0.029 A 
ATOM     45  N   UNL     1      -4.725   9.474  14.274  1.00  0.00    -0.354 N 
ATOM     46  C   UNL     1      -8.839   8.848  13.129  1.00  0.00     0.074 A 
ATOM     47  C   UNL     1      -8.928   7.984  11.971  1.00  0.00     0.031 C 
ATOM     48  C   UNL     1      -2.505   9.261  14.117  1.00  0.00     0.029 A 
ATOM     49  C   UNL     1      -3.574   9.829  14.934  1.00  0.00     0.049 A 
ATOM     50  H   UNL     1      -5.625   9.706  14.598  1.00  0.00     0.167 HD
ATOM     51  C   UNL     1      -9.908   9.344  13.797  1.00  0.00     0.037 A 
ATOM     52  C   UNL     1      -3.397  10.549  16.058  1.00  0.00     0.037 A 
ATOM     53  C   UNL     1      -9.818  10.163  14.978  1.00  0.00     0.049 A 
ATOM     54  C   UNL     1      -4.600  11.095  16.776  1.00  0.00     0.074 A 
ATOM     55  C   UNL     1     -10.844  10.715  15.726  1.00  0.00     0.029 A 
ATOM     56  N   UNL     1      -8.632  10.531  15.594  1.00  0.00    -0.354 N 
ATOM     57  N   UNL     1      -5.871  10.952  16.489  1.00  0.00    -0.248 NA
ATOM     58  C   UNL     1      -4.341  11.914  17.968  1.00  0.00     0.031 C 
ATOM     59  C   UNL     1     -10.276  11.443  16.779  1.00  0.00     0.029 A 
ATOM     60  C   UNL     1      -8.899  11.309  16.710  1.00  0.00     0.049 A 
ATOM     61  H   UNL     1      -7.732  10.278  15.285  1.00  0.00     0.167 HD
ATOM     62  C   UNL     1      -6.563  11.656  17.465  1.00  0.00     0.074 A 
ATOM     63  C   UNL     1      -5.571  12.198  18.371  1.00  0.00     0.031 C 
ATOM     64  C   UNL     1      -7.899  11.845  17.596  1.00  0.00     0.037 A 
BRANCH  51  65
ATOM     65  C   UNL     1     -11.269   9.042  13.241  1.00  0.00     0.057 A 
ATOM     66  C   UNL     1     -11.850   7.772  13.334  1.00  0.00     0.134 A 
ATOM     67  C   UNL     1     -12.016  10.050  12.616  1.00  0.00     0.134 A 
ATOM     68  F   UNL     1     -11.181   6.758  13.905  1.00  0.00    -0.206 F 
ATOM     69  C   UNL     1     -13.116   7.508  12.806  1.00  0.00     0.040 A 
ATOM     70  C   UNL     1     -13.292   9.805  12.107  1.00  0.00     0.040 A 
ATOM     71  F   UNL     1     -11.520  11.290  12.495  1.00  0.00    -0.206 F 
ATOM     72  C   UNL     1     -13.843   8.528  12.195  1.00  0.00     0.006 A 
ENDBRANCH  51  65
BRANCH  52  73
ATOM     73  C   UNL     1      -2.027  10.818  16.562  1.00  0.00     0.057 A 
ATOM     74  C   UNL     1      -1.568  10.254  17.758  1.00  0.00     0.134 A 
ATOM     75  C   UNL     1      -1.146  11.654  15.865  1.00  0.00     0.134 A 
ATOM     76  F   UNL     1      -2.374   9.466  18.486  1.00  0.00    -0.206 F 
ATOM     77  C   UNL     1      -0.288  10.520  18.249  1.00  0.00     0.040 A 
ATOM     78  C   UNL     1       0.145  11.907  16.329  1.00  0.00     0.040 A 
ATOM     79  F   UNL     1      -1.526  12.228  14.714  1.00  0.00    -0.206 F 
ATOM     80  C   UNL     1       0.575  11.343  17.528  1.00  0.00     0.006 A 
ENDBRANCH  52  73
BRANCH  64  81
ATOM     81  C   UNL     1      -8.354  12.657  18.773  1.00  0.00     0.057 A 
ATOM     82  C   UNL     1      -8.164  14.044  18.829  1.00  0.00     0.134 A 
ATOM     83  C   UNL     1      -8.987  12.045  19.862  1.00  0.00     0.134 A 
ATOM     84  F   UNL     1      -7.551  14.688  17.824  1.00  0.00    -0.206 F 
ATOM     85  C   UNL     1      -8.557  14.789  19.942  1.00  0.00     0.040 A 
ATOM     86  C   UNL     1      -9.407  12.783  20.969  1.00  0.00     0.040 A 
ATOM     87  F   UNL     1      -9.207  10.722  19.867  1.00  0.00    -0.206 F 
ATOM     88  C   UNL     1      -9.184  14.158  21.015  1.00  0.00     0.006 A 
ENDBRANCH  64  81
ENDBRANCH  38  39
ENDBRANCH  31  33
ENDBRANCH  30  31
ENDBRANCH  29  30
ENDBRANCH   1  29
TORSDOF 14
