REMARK SMILES COCC[C@]1(C(=O)OCCOC(=O)c2ccc(-c3c4nc(c(-c5c(F)cccc5F)c5ccc([nH]5)c(-c5c(F)cccc5F)c5nc(c(-c6c(F)cccc6F)c6ccc3[nH]6)C=C5)C=C4)cc2)CCCN(C(=O)Cc2c(C)nc(C)[nH]c2=O)C1
REMARK SMILES IDX 9 1 8 2 6 3 7 4 5 5 68 6 84 7 69 8 71 9 70 10 4 11 3 12 2 13
REMARK SMILES IDX 1 14 72 15 73 16 74 17 75 18 76 19 82 20 77 21 78 22 81 23
REMARK SMILES IDX 83 24 79 25 80 27 10 28 11 29 12 30 13 31 14 32 15 33 67 34
REMARK SMILES IDX 16 35 66 36 17 37 18 38 19 39 60 40 20 41 65 42 59 43 61 44
REMARK SMILES IDX 21 45 64 46 58 47 57 48 22 50 48 51 31 52 47 53 32 54 35 55
REMARK SMILES IDX 46 56 62 57 33 58 34 59 45 61 63 62 36 63 23 64 24 65 29 66
REMARK SMILES IDX 25 67 26 68 28 69 30 70 27 71 49 72 50 73 55 74 51 75 52 76
REMARK SMILES IDX 54 77 56 78 53 79 37 80 38 81 43 82 39 83 40 84 42 85 44 86
REMARK SMILES IDX 41 87
REMARK H PARENT 81 26 61 49 35 60
REMARK Flexibility Score: inf
ROOT
ATOM      1  C   UNL     1       1.175   1.258   2.103  1.00  0.00     0.274 C 
ENDROOT
BRANCH   1   2
ATOM      2  O   UNL     1       0.926   1.752   0.775  1.00  0.00    -0.462 OA
BRANCH   2   3
ATOM      3  C   UNL     1       1.992   1.845  -0.065  1.00  0.00     0.314 C 
ATOM      4  O   UNL     1       3.135   1.529   0.241  1.00  0.00    -0.252 OA
BRANCH   3   5
ATOM      5  C   UNL     1       1.582   2.380  -1.443  1.00  0.00     0.088 C 
ATOM      6  C   UNL     1       0.345   3.326  -1.265  1.00  0.00     0.022 C 
ATOM      7  C   UNL     1       2.770   3.210  -2.001  1.00  0.00     0.138 C 
ATOM      8  C   UNL     1       0.063   4.263  -2.441  1.00  0.00     0.023 C 
ATOM      9  N   UNL     1       2.348   4.004  -3.168  1.00  0.00    -0.341 N 
ATOM     10  C   UNL     1       1.333   4.995  -2.854  1.00  0.00     0.119 C 
BRANCH   5  11
ATOM     11  C   UNL     1       1.259   1.225  -2.429  1.00  0.00     0.049 C 
BRANCH  11  12
ATOM     12  C   UNL     1       2.111  -0.045  -2.341  1.00  0.00     0.161 C 
BRANCH  12  13
ATOM     13  O   UNL     1       1.389  -1.062  -1.648  1.00  0.00    -0.385 OA
ATOM     14  C   UNL     1       2.004  -1.525  -0.459  1.00  0.00     0.194 C 
ENDBRANCH  12  13
ENDBRANCH  11  12
ENDBRANCH   5  11
BRANCH   9  15
ATOM     15  C   UNL     1       2.706   3.593  -4.447  1.00  0.00     0.227 C 
ATOM     16  O   UNL     1       3.486   2.649  -4.614  1.00  0.00    -0.275 OA
BRANCH  15  17
ATOM     17  C   UNL     1       2.142   4.316  -5.678  1.00  0.00     0.143 C 
BRANCH  17  18
ATOM     18  C   UNL     1       0.657   4.175  -5.910  1.00  0.00     0.048 A 
ATOM     19  C   UNL     1      -0.064   3.046  -6.082  1.00  0.00     0.049 A 
ATOM     20  C   UNL     1      -0.105   5.452  -5.992  1.00  0.00     0.254 A 
ATOM     21  C   UNL     1       0.531   1.663  -6.148  1.00  0.00     0.067 C 
ATOM     22  N   UNL     1      -1.439   3.022  -6.204  1.00  0.00    -0.240 NA
ATOM     23  N   UNL     1      -1.455   5.346  -6.102  1.00  0.00    -0.311 N 
ATOM     24  O   UNL     1       0.436   6.552  -5.944  1.00  0.00    -0.269 OA
ATOM     25  C   UNL     1      -2.076   4.143  -6.200  1.00  0.00     0.105 A 
ATOM     26  H   UNL     1      -1.999   6.167  -6.111  1.00  0.00     0.171 HD
ATOM     27  C   UNL     1      -3.575   4.172  -6.297  1.00  0.00     0.087 C 
ENDBRANCH  17  18
ENDBRANCH  15  17
ENDBRANCH   9  15
ENDBRANCH   3   5
ENDBRANCH   2   3
ENDBRANCH   1   2
BRANCH   1  28
ATOM     28  C   UNL     1      -0.133   0.734   2.701  1.00  0.00     0.275 C 
BRANCH  28  29
ATOM     29  O   UNL     1      -0.691  -0.305   1.870  1.00  0.00    -0.458 OA
BRANCH  29  30
ATOM     30  C   UNL     1      -1.601   0.118   0.956  1.00  0.00     0.338 C 
ATOM     31  O   UNL     1      -2.076   1.239   0.853  1.00  0.00    -0.246 OA
BRANCH  30  32
ATOM     32  C   UNL     1      -1.825  -0.947  -0.040  1.00  0.00     0.060 A 
ATOM     33  C   UNL     1      -1.734  -0.592  -1.388  1.00  0.00     0.016 A 
ATOM     34  C   UNL     1      -2.115  -2.263   0.318  1.00  0.00     0.016 A 
ATOM     35  C   UNL     1      -1.827  -1.559  -2.386  1.00  0.00     0.010 A 
ATOM     36  C   UNL     1      -2.296  -3.221  -0.687  1.00  0.00     0.010 A 
ATOM     37  C   UNL     1      -2.140  -2.877  -2.043  1.00  0.00    -0.014 A 
BRANCH  37  38
ATOM     38  C   UNL     1      -2.503  -3.850  -3.100  1.00  0.00     0.031 A 
ATOM     39  C   UNL     1      -3.914  -3.845  -3.610  1.00  0.00     0.074 A 
ATOM     40  C   UNL     1      -1.611  -4.728  -3.590  1.00  0.00     0.049 A 
ATOM     41  N   UNL     1      -4.522  -4.705  -4.383  1.00  0.00    -0.248 NA
ATOM     42  C   UNL     1      -4.752  -2.708  -3.193  1.00  0.00     0.031 C 
ATOM     43  C   UNL     1      -0.186  -4.759  -3.272  1.00  0.00     0.029 A 
ATOM     44  N   UNL     1      -1.788  -5.781  -4.455  1.00  0.00    -0.354 N 
ATOM     45  C   UNL     1      -5.816  -4.223  -4.532  1.00  0.00     0.074 A 
ATOM     46  C   UNL     1      -5.905  -2.993  -3.777  1.00  0.00     0.031 C 
ATOM     47  C   UNL     1       0.377  -5.805  -3.905  1.00  0.00     0.029 A 
ATOM     48  C   UNL     1      -0.658  -6.544  -4.628  1.00  0.00     0.049 A 
ATOM     49  H   UNL     1      -2.642  -5.971  -4.908  1.00  0.00     0.167 HD
ATOM     50  C   UNL     1      -6.844  -4.768  -5.221  1.00  0.00     0.037 A 
ATOM     51  C   UNL     1      -0.498  -7.727  -5.257  1.00  0.00     0.037 A 
ATOM     52  C   UNL     1      -6.761  -6.008  -5.942  1.00  0.00     0.049 A 
ATOM     53  C   UNL     1      -1.692  -8.387  -5.907  1.00  0.00     0.074 A 
ATOM     54  C   UNL     1      -7.760  -6.673  -6.630  1.00  0.00     0.029 A 
ATOM     55  N   UNL     1      -5.612  -6.775  -6.055  1.00  0.00    -0.354 N 
ATOM     56  N   UNL     1      -2.925  -7.952  -6.011  1.00  0.00    -0.248 NA
ATOM     57  C   UNL     1      -1.476  -9.710  -6.513  1.00  0.00     0.031 C 
ATOM     58  C   UNL     1      -7.227  -7.870  -7.117  1.00  0.00     0.029 A 
ATOM     59  C   UNL     1      -5.882  -7.918  -6.786  1.00  0.00     0.049 A 
ATOM     60  H   UNL     1      -4.736  -6.541  -5.673  1.00  0.00     0.167 HD
ATOM     61  C   UNL     1      -3.616  -8.922  -6.729  1.00  0.00     0.074 A 
ATOM     62  C   UNL     1      -2.668  -9.974  -7.031  1.00  0.00     0.031 C 
ATOM     63  C   UNL     1      -4.917  -8.938  -7.109  1.00  0.00     0.037 A 
BRANCH  50  64
ATOM     64  C   UNL     1      -8.161  -4.057  -5.157  1.00  0.00     0.057 A 
ATOM     65  C   UNL     1      -8.387  -2.847  -5.825  1.00  0.00     0.134 A 
ATOM     66  C   UNL     1      -9.217  -4.593  -4.409  1.00  0.00     0.134 A 
ATOM     67  F   UNL     1      -7.409  -2.270  -6.538  1.00  0.00    -0.206 F 
ATOM     68  C   UNL     1      -9.611  -2.183  -5.731  1.00  0.00     0.040 A 
ATOM     69  C   UNL     1     -10.453  -3.952  -4.330  1.00  0.00     0.040 A 
ATOM     70  F   UNL     1      -9.064  -5.747  -3.743  1.00  0.00    -0.206 F 
ATOM     71  C   UNL     1     -10.650  -2.739  -4.986  1.00  0.00     0.006 A 
ENDBRANCH  50  64
BRANCH  51  72
ATOM     72  C   UNL     1       0.825  -8.407  -5.262  1.00  0.00     0.057 A 
ATOM     73  C   UNL     1       1.536  -8.605  -6.451  1.00  0.00     0.134 A 
ATOM     74  C   UNL     1       1.383  -8.926  -4.087  1.00  0.00     0.134 A 
ATOM     75  F   UNL     1       1.041  -8.163  -7.616  1.00  0.00    -0.206 F 
ATOM     76  C   UNL     1       2.742  -9.311  -6.476  1.00  0.00     0.040 A 
ATOM     77  C   UNL     1       2.601  -9.609  -4.092  1.00  0.00     0.040 A 
ATOM     78  F   UNL     1       0.750  -8.782  -2.914  1.00  0.00    -0.206 F 
ATOM     79  C   UNL     1       3.280  -9.811  -5.292  1.00  0.00     0.006 A 
ENDBRANCH  51  72
BRANCH  63  80
ATOM     80  C   UNL     1      -5.391 -10.081  -7.958  1.00  0.00     0.057 A 
ATOM     81  C   UNL     1      -5.618 -11.358  -7.433  1.00  0.00     0.134 A 
ATOM     82  C   UNL     1      -5.724  -9.865  -9.303  1.00  0.00     0.134 A 
ATOM     83  F   UNL     1      -5.313 -11.633  -6.156  1.00  0.00    -0.206 F 
ATOM     84  C   UNL     1      -6.155 -12.382  -8.217  1.00  0.00     0.040 A 
ATOM     85  C   UNL     1      -6.285 -10.872 -10.089  1.00  0.00     0.040 A 
ATOM     86  F   UNL     1      -5.542  -8.660  -9.864  1.00  0.00    -0.206 F 
ATOM     87  C   UNL     1      -6.502 -12.136  -9.545  1.00  0.00     0.006 A 
ENDBRANCH  63  80
ENDBRANCH  37  38
ENDBRANCH  30  32
ENDBRANCH  29  30
ENDBRANCH  28  29
ENDBRANCH   1  28
TORSDOF 17
