REMARK SMILES CN(CC(N)=O)c1ccccc1/C=C/C(=O)OCCOC(=O)c1ccc(-c2c3nc(c(-c4c(F)cccc4F)c4ccc([nH]4)c(-c4c(F)cccc4F)c4nc(c(-c5c(F)cccc5F)c5ccc2[nH]5)C=C4)C=C3)cc1
REMARK SMILES IDX 18 1 17 2 15 3 16 4 14 5 13 6 12 7 7 8 8 9 9 10 11 11 10 12
REMARK SMILES IDX 2 13 1 14 3 15 4 16 5 17 6 18 19 21 20 22 21 23 22 24 23 25
REMARK SMILES IDX 24 26 76 27 25 28 75 29 26 30 27 31 28 32 69 33 29 34 74 35
REMARK SMILES IDX 68 36 70 37 30 38 73 39 67 40 66 41 31 43 57 44 40 45 56 46
REMARK SMILES IDX 41 47 44 48 55 49 71 50 42 51 43 52 54 54 72 55 45 56 32 57
REMARK SMILES IDX 33 58 38 59 34 60 35 61 37 62 39 63 36 64 58 65 59 66 64 67
REMARK SMILES IDX 60 68 61 69 63 70 65 71 62 72 46 73 47 74 52 75 48 76 49 77
REMARK SMILES IDX 51 78 53 79 50 80
REMARK H PARENT 5 19 5 20 70 42 44 53
REMARK Flexibility Score: inf
ROOT
ATOM      1  C   UNL     1       6.099   0.812   1.228  1.00  0.00     0.275 C 
ENDROOT
BRANCH   1   2
ATOM      2  O   UNL     1       5.008   0.422   0.374  1.00  0.00    -0.459 OA
BRANCH   2   3
ATOM      3  C   UNL     1       5.013   0.959  -0.868  1.00  0.00     0.330 C 
ATOM      4  O   UNL     1       5.809   1.782  -1.298  1.00  0.00    -0.247 OA
BRANCH   3   5
ATOM      5  C   UNL     1       3.932   0.432  -1.720  1.00  0.00     0.094 C 
ATOM      6  C   UNL     1       3.207  -0.670  -1.469  1.00  0.00     0.018 C 
BRANCH   6   7
ATOM      7  C   UNL     1       2.192  -1.145  -2.426  1.00  0.00    -0.002 A 
ATOM      8  C   UNL     1       0.845  -1.371  -2.061  1.00  0.00     0.044 A 
ATOM      9  C   UNL     1      -0.035  -1.803  -3.073  1.00  0.00     0.026 A 
ATOM     10  C   UNL     1       0.392  -2.053  -4.379  1.00  0.00     0.002 A 
ATOM     11  C   UNL     1       2.619  -1.430  -3.741  1.00  0.00     0.010 A 
ATOM     12  C   UNL     1       1.726  -1.882  -4.710  1.00  0.00     0.001 A 
BRANCH   8  13
ATOM     13  N   UNL     1       0.350  -1.179  -0.778  1.00  0.00    -0.365 N 
ATOM     14  C   UNL     1       0.486   0.103  -0.111  1.00  0.00     0.144 C 
BRANCH  13  15
ATOM     15  C   UNL     1      -0.279  -2.289  -0.055  1.00  0.00     0.215 C 
BRANCH  15  16
ATOM     16  C   UNL     1      -1.782  -2.404  -0.335  1.00  0.00     0.236 C 
ATOM     17  N   UNL     1      -2.177  -3.544  -0.984  1.00  0.00    -0.368 N 
ATOM     18  O   UNL     1      -2.611  -1.553  -0.024  1.00  0.00    -0.273 OA
ATOM     19  H   UNL     1      -1.511  -4.225  -1.233  1.00  0.00     0.159 HD
ATOM     20  H   UNL     1      -3.128  -3.682  -1.202  1.00  0.00     0.159 HD
ENDBRANCH  15  16
ENDBRANCH  13  15
ENDBRANCH   8  13
ENDBRANCH   6   7
ENDBRANCH   3   5
ENDBRANCH   2   3
ENDBRANCH   1   2
BRANCH   1  21
ATOM     21  C   UNL     1       7.148  -0.298   1.326  1.00  0.00     0.275 C 
BRANCH  21  22
ATOM     22  O   UNL     1       7.816  -0.513   0.069  1.00  0.00    -0.458 OA
BRANCH  22  23
ATOM     23  C   UNL     1       7.247  -1.447  -0.732  1.00  0.00     0.338 C 
ATOM     24  O   UNL     1       6.275  -2.139  -0.485  1.00  0.00    -0.246 OA
BRANCH  23  25
ATOM     25  C   UNL     1       7.916  -1.447  -2.044  1.00  0.00     0.060 A 
ATOM     26  C   UNL     1       7.122  -1.310  -3.187  1.00  0.00     0.016 A 
ATOM     27  C   UNL     1       9.294  -1.647  -2.158  1.00  0.00     0.016 A 
ATOM     28  C   UNL     1       7.702  -1.377  -4.452  1.00  0.00     0.010 A 
ATOM     29  C   UNL     1       9.875  -1.717  -3.428  1.00  0.00     0.010 A 
ATOM     30  C   UNL     1       9.082  -1.594  -4.582  1.00  0.00    -0.014 A 
BRANCH  30  31
ATOM     31  C   UNL     1       9.686  -1.729  -5.929  1.00  0.00     0.031 A 
ATOM     32  C   UNL     1      10.067  -3.085  -6.450  1.00  0.00     0.074 A 
ATOM     33  C   UNL     1       9.884  -0.636  -6.688  1.00  0.00     0.049 A 
ATOM     34  N   UNL     1      10.645  -3.406  -7.579  1.00  0.00    -0.248 NA
ATOM     35  C   UNL     1       9.757  -4.232  -5.583  1.00  0.00     0.031 C 
ATOM     36  C   UNL     1       9.533   0.732  -6.305  1.00  0.00     0.029 A 
ATOM     37  N   UNL     1      10.435  -0.504  -7.938  1.00  0.00    -0.354 N 
ATOM     38  C   UNL     1      10.776  -4.788  -7.558  1.00  0.00     0.074 A 
ATOM     39  C   UNL     1      10.239  -5.244  -6.293  1.00  0.00     0.031 C 
ATOM     40  C   UNL     1       9.879   1.565  -7.300  1.00  0.00     0.029 A 
ATOM     41  C   UNL     1      10.506   0.796  -8.372  1.00  0.00     0.049 A 
ATOM     42  H   UNL     1      10.750  -1.270  -8.472  1.00  0.00     0.167 HD
ATOM     43  C   UNL     1      11.292  -5.603  -8.509  1.00  0.00     0.037 A 
ATOM     44  C   UNL     1      11.036   1.311  -9.498  1.00  0.00     0.037 A 
ATOM     45  C   UNL     1      11.822  -5.150  -9.769  1.00  0.00     0.049 A 
ATOM     46  C   UNL     1      11.657   0.390 -10.511  1.00  0.00     0.074 A 
ATOM     47  C   UNL     1      12.343  -5.904 -10.807  1.00  0.00     0.029 A 
ATOM     48  N   UNL     1      11.904  -3.822 -10.160  1.00  0.00    -0.354 N 
ATOM     49  N   UNL     1      11.755  -0.917 -10.491  1.00  0.00    -0.248 NA
ATOM     50  C   UNL     1      12.245   1.017 -11.704  1.00  0.00     0.031 C 
ATOM     51  C   UNL     1      12.779  -5.029 -11.808  1.00  0.00     0.029 A 
ATOM     52  C   UNL     1      12.489  -3.734 -11.413  1.00  0.00     0.049 A 
ATOM     53  H   UNL     1      11.592  -3.056  -9.627  1.00  0.00     0.167 HD
ATOM     54  C   UNL     1      12.392  -1.271 -11.673  1.00  0.00     0.074 A 
ATOM     55  C   UNL     1      12.647  -0.041 -12.395  1.00  0.00     0.031 C 
ATOM     56  C   UNL     1      12.734  -2.503 -12.121  1.00  0.00     0.037 A 
BRANCH  43  57
ATOM     57  C   UNL     1      11.328  -7.073  -8.213  1.00  0.00     0.057 A 
ATOM     58  C   UNL     1      10.169  -7.859  -8.229  1.00  0.00     0.134 A 
ATOM     59  C   UNL     1      12.543  -7.717  -7.946  1.00  0.00     0.134 A 
ATOM     60  F   UNL     1       8.972  -7.300  -8.466  1.00  0.00    -0.206 F 
ATOM     61  C   UNL     1      10.214  -9.230  -7.969  1.00  0.00     0.040 A 
ATOM     62  C   UNL     1      12.604  -9.091  -7.707  1.00  0.00     0.040 A 
ATOM     63  F   UNL     1      13.691  -7.023  -7.922  1.00  0.00    -0.206 F 
ATOM     64  C   UNL     1      11.435  -9.850  -7.713  1.00  0.00     0.006 A 
ENDBRANCH  43  57
BRANCH  44  65
ATOM     65  C   UNL     1      11.014   2.777  -9.723  1.00  0.00     0.057 A 
ATOM     66  C   UNL     1      10.200   3.346 -10.708  1.00  0.00     0.134 A 
ATOM     67  C   UNL     1      11.815   3.641  -8.967  1.00  0.00     0.134 A 
ATOM     68  F   UNL     1       9.429   2.565 -11.480  1.00  0.00    -0.206 F 
ATOM     69  C   UNL     1      10.191   4.721 -10.943  1.00  0.00     0.040 A 
ATOM     70  C   UNL     1      11.799   5.021  -9.175  1.00  0.00     0.040 A 
ATOM     71  F   UNL     1      12.619   3.156  -8.009  1.00  0.00    -0.206 F 
ATOM     72  C   UNL     1      10.989   5.564 -10.171  1.00  0.00     0.006 A 
ENDBRANCH  44  65
BRANCH  56  73
ATOM     73  C   UNL     1      13.395  -2.586 -13.465  1.00  0.00     0.057 A 
ATOM     74  C   UNL     1      14.727  -2.202 -13.657  1.00  0.00     0.134 A 
ATOM     75  C   UNL     1      12.700  -3.091 -14.572  1.00  0.00     0.134 A 
ATOM     76  F   UNL     1      15.443  -1.697 -12.640  1.00  0.00    -0.206 F 
ATOM     77  C   UNL     1      15.341  -2.299 -14.907  1.00  0.00     0.040 A 
ATOM     78  C   UNL     1      13.309  -3.214 -15.821  1.00  0.00     0.040 A 
ATOM     79  F   UNL     1      11.423  -3.483 -14.453  1.00  0.00    -0.206 F 
ATOM     80  C   UNL     1      14.633  -2.813 -15.992  1.00  0.00     0.006 A 
ENDBRANCH  56  73
ENDBRANCH  30  31
ENDBRANCH  23  25
ENDBRANCH  22  23
ENDBRANCH  21  22
ENDBRANCH   1  21
TORSDOF 15
