REMARK SMILES CC[C@](C)([NH3+])C(=O)N1CC[NH+]([C@H](C)C(=O)OCCOC(=O)c2ccc(-c3c4nc(c(-c5c(F)cccc5F)c5ccc([nH]5)c(-c5c(F)cccc5F)c5nc(c(-c6c(F)cccc6F)c6ccc3[nH]6)C=C5)C=C4)cc2)CC1
REMARK SMILES IDX 17 1 16 2 14 3 15 4 12 5 13 6 11 7 6 8 7 9 8 10 9 11 77 12
REMARK SMILES IDX 10 13 76 14 3 16 4 17 2 18 1 19 5 20 18 24 19 25 20 26 21 27
REMARK SMILES IDX 22 28 23 29 75 30 24 31 74 32 25 33 26 34 27 35 68 36 28 37
REMARK SMILES IDX 73 38 67 39 69 40 29 41 72 42 66 43 65 44 30 46 56 47 39 48
REMARK SMILES IDX 55 49 40 50 43 51 54 52 70 53 41 54 42 55 53 57 71 58 44 59
REMARK SMILES IDX 31 60 32 61 37 62 33 63 34 64 36 65 38 66 35 67 57 68 58 69
REMARK SMILES IDX 63 70 59 71 60 72 62 73 64 74 61 75 45 76 46 77 51 78 47 79
REMARK SMILES IDX 48 80 50 81 52 82 49 83
REMARK H PARENT 11 15 5 21 5 22 5 23 69 45 43 56
REMARK Flexibility Score: inf
ROOT
ATOM      1  C   UNL     1       7.609   5.858  -3.869  1.00  0.00     0.274 C 
ENDROOT
BRANCH   1   2
ATOM      2  O   UNL     1       6.442   5.599  -3.066  1.00  0.00    -0.458 OA
BRANCH   2   3
ATOM      3  C   UNL     1       6.233   6.441  -2.016  1.00  0.00     0.364 C 
ATOM      4  O   UNL     1       6.991   7.353  -1.698  1.00  0.00    -0.245 OA
BRANCH   3   5
ATOM      5  C   UNL     1       4.931   6.123  -1.254  1.00  0.00     0.292 C 
ATOM      6  C   UNL     1       3.863   5.452  -2.128  1.00  0.00     0.088 C 
BRANCH   5   7
ATOM      7  N   UNL     1       5.241   5.454   0.033  1.00  0.00    -0.321 N 
ATOM      8  C   UNL     1       3.895   2.341   2.292  1.00  0.00     0.283 C 
ATOM      9  O   UNL     1       4.465   1.242   2.363  1.00  0.00    -0.268 OA
ATOM     10  N   UNL     1       4.652   3.469   2.029  1.00  0.00    -0.326 N 
ATOM     11  C   UNL     1       5.867   3.326   1.231  1.00  0.00     0.181 C 
ATOM     12  C   UNL     1       4.351   4.865   2.319  1.00  0.00     0.181 C 
ATOM     13  C   UNL     1       5.647   4.041  -0.121  1.00  0.00     0.284 C 
ATOM     14  C   UNL     1       4.148   5.647   1.013  1.00  0.00     0.284 C 
ATOM     15  H   UNL     1       6.068   5.914   0.413  1.00  0.00     0.348 HD
BRANCH   8  16
ATOM     16  C   UNL     1       2.324   2.377   2.226  1.00  0.00     0.171 C 
ATOM     17  C   UNL     1       1.774   1.076   2.842  1.00  0.00     0.090 C 
BRANCH  16  18
ATOM     18  C   UNL     1       1.860   2.514   0.751  1.00  0.00     0.075 C 
ATOM     19  C   UNL     1       2.419   1.472  -0.214  1.00  0.00     0.011 C 
ENDBRANCH  16  18
BRANCH  16  20
ATOM     20  N   UNL     1       1.726   3.487   3.008  1.00  0.00    -0.345 N 
ATOM     21  H   UNL     1       2.020   3.413   3.982  1.00  0.00     0.345 HD
ATOM     22  H   UNL     1       0.709   3.431   2.955  1.00  0.00     0.345 HD
ATOM     23  H   UNL     1       2.038   4.380   2.625  1.00  0.00     0.345 HD
ENDBRANCH  16  20
ENDBRANCH   8  16
ENDBRANCH   5   7
ENDBRANCH   3   5
ENDBRANCH   2   3
ENDBRANCH   1   2
BRANCH   1  24
ATOM     24  C   UNL     1       7.257   6.640  -5.139  1.00  0.00     0.275 C 
BRANCH  24  25
ATOM     25  O   UNL     1       6.833   7.984  -4.839  1.00  0.00    -0.458 OA
BRANCH  25  26
ATOM     26  C   UNL     1       5.496   8.152  -4.725  1.00  0.00     0.338 C 
ATOM     27  O   UNL     1       4.628   7.313  -4.898  1.00  0.00    -0.246 OA
BRANCH  26  28
ATOM     28  C   UNL     1       5.202   9.491  -4.189  1.00  0.00     0.060 A 
ATOM     29  C   UNL     1       4.557   9.564  -2.953  1.00  0.00     0.016 A 
ATOM     30  C   UNL     1       5.474  10.651  -4.914  1.00  0.00     0.016 A 
ATOM     31  C   UNL     1       4.191  10.793  -2.421  1.00  0.00     0.010 A 
ATOM     32  C   UNL     1       5.096  11.891  -4.384  1.00  0.00     0.010 A 
ATOM     33  C   UNL     1       4.448  11.966  -3.138  1.00  0.00    -0.014 A 
BRANCH  33  34
ATOM     34  C   UNL     1       3.981  13.259  -2.587  1.00  0.00     0.031 A 
ATOM     35  C   UNL     1       2.750  13.908  -3.146  1.00  0.00     0.074 A 
ATOM     36  C   UNL     1       4.628  13.812  -1.545  1.00  0.00     0.049 A 
ATOM     37  N   UNL     1       2.202  15.052  -2.827  1.00  0.00    -0.248 NA
ATOM     38  C   UNL     1       2.039  13.170  -4.201  1.00  0.00     0.031 C 
ATOM     39  C   UNL     1       5.801  13.241  -0.881  1.00  0.00     0.029 A 
ATOM     40  N   UNL     1       4.385  14.973  -0.859  1.00  0.00    -0.354 N 
ATOM     41  C   UNL     1       1.094  15.182  -3.653  1.00  0.00     0.074 A 
ATOM     42  C   UNL     1       1.053  14.005  -4.495  1.00  0.00     0.031 C 
ATOM     43  C   UNL     1       6.171  14.053   0.123  1.00  0.00     0.029 A 
ATOM     44  C   UNL     1       5.290  15.217   0.144  1.00  0.00     0.049 A 
ATOM     45  H   UNL     1       3.633  15.575  -1.065  1.00  0.00     0.167 HD
ATOM     46  C   UNL     1       0.193  16.192  -3.702  1.00  0.00     0.037 A 
ATOM     47  C   UNL     1       5.408  16.273   0.971  1.00  0.00     0.037 A 
ATOM     48  C   UNL     1       0.230  17.355  -2.854  1.00  0.00     0.049 A 
ATOM     49  C   UNL     1       4.426  17.405   0.859  1.00  0.00     0.074 A 
ATOM     50  C   UNL     1      -0.637  18.434  -2.828  1.00  0.00     0.029 A 
ATOM     51  N   UNL     1       1.188  17.589  -1.879  1.00  0.00    -0.354 N 
ATOM     52  N   UNL     1       3.394  17.529   0.060  1.00  0.00    -0.248 NA
ATOM     53  C   UNL     1       4.630  18.548   1.760  1.00  0.00     0.031 C 
ATOM     54  C   UNL     1      -0.183  19.337  -1.859  1.00  0.00     0.029 A 
ATOM     55  C   UNL     1       0.944  18.802  -1.256  1.00  0.00     0.049 A 
ATOM     56  H   UNL     1       1.932  16.982  -1.661  1.00  0.00     0.167 HD
ATOM     57  C   UNL     1       2.820  18.754   0.367  1.00  0.00     0.074 A 
ATOM     58  C   UNL     1       3.606  19.326   1.442  1.00  0.00     0.031 C 
ATOM     59  C   UNL     1       1.742  19.356  -0.192  1.00  0.00     0.037 A 
BRANCH  46  60
ATOM     60  C   UNL     1      -0.891  16.096  -4.734  1.00  0.00     0.057 A 
ATOM     61  C   UNL     1      -1.973  15.219  -4.592  1.00  0.00     0.134 A 
ATOM     62  C   UNL     1      -0.859  16.909  -5.874  1.00  0.00     0.134 A 
ATOM     63  F   UNL     1      -2.052  14.402  -3.531  1.00  0.00    -0.206 F 
ATOM     64  C   UNL     1      -2.978  15.141  -5.559  1.00  0.00     0.040 A 
ATOM     65  C   UNL     1      -1.868  16.854  -6.837  1.00  0.00     0.040 A 
ATOM     66  F   UNL     1       0.150  17.771  -6.068  1.00  0.00    -0.206 F 
ATOM     67  C   UNL     1      -2.929  15.964  -6.683  1.00  0.00     0.006 A 
ENDBRANCH  46  60
BRANCH  47  68
ATOM     68  C   UNL     1       6.513  16.320   1.959  1.00  0.00     0.057 A 
ATOM     69  C   UNL     1       6.266  16.196   3.330  1.00  0.00     0.134 A 
ATOM     70  C   UNL     1       7.842  16.495   1.554  1.00  0.00     0.134 A 
ATOM     71  F   UNL     1       5.010  16.051   3.779  1.00  0.00    -0.206 F 
ATOM     72  C   UNL     1       7.299  16.256   4.266  1.00  0.00     0.040 A 
ATOM     73  C   UNL     1       8.887  16.533   2.477  1.00  0.00     0.040 A 
ATOM     74  F   UNL     1       8.142  16.621   0.253  1.00  0.00    -0.206 F 
ATOM     75  C   UNL     1       8.616  16.419   3.839  1.00  0.00     0.006 A 
ENDBRANCH  47  68
BRANCH  59  76
ATOM     76  C   UNL     1       1.347  20.691   0.364  1.00  0.00     0.057 A 
ATOM     77  C   UNL     1       2.083  21.849   0.085  1.00  0.00     0.134 A 
ATOM     78  C   UNL     1       0.212  20.821   1.174  1.00  0.00     0.134 A 
ATOM     79  F   UNL     1       3.188  21.787  -0.672  1.00  0.00    -0.206 F 
ATOM     80  C   UNL     1       1.717  23.088   0.614  1.00  0.00     0.040 A 
ATOM     81  C   UNL     1      -0.176  22.058   1.690  1.00  0.00     0.040 A 
ATOM     82  F   UNL     1      -0.539  19.750   1.472  1.00  0.00    -0.206 F 
ATOM     83  C   UNL     1       0.582  23.195   1.415  1.00  0.00     0.006 A 
ENDBRANCH  59  76
ENDBRANCH  33  34
ENDBRANCH  26  28
ENDBRANCH  25  26
ENDBRANCH  24  25
ENDBRANCH   1  24
TORSDOF 15
