REMARK SMILES Cc1cscc1C(=O)N[C@H](C(=O)OCCOC(=O)c1ccc(-c2c3nc(c(-c4c(F)cccc4F)c4ccc([nH]4)c(-c4c(F)cccc4F)c4nc(c(-c5c(F)cccc5F)c5ccc2[nH]5)C=C4)C=C3)cc1)c1ccccc1
REMARK SMILES IDX 14 1 13 2 11 3 12 4 10 5 9 6 7 7 8 8 6 10 1 11 2 12 3 13
REMARK SMILES IDX 4 14 5 15 73 16 74 17 78 18 75 19 77 20 76 21 15 22 16 23
REMARK SMILES IDX 17 24 18 25 19 26 20 27 72 28 21 29 71 30 22 31 23 32 24 33
REMARK SMILES IDX 65 34 25 35 70 36 64 37 66 38 26 39 69 40 63 41 62 42 27 44
REMARK SMILES IDX 53 45 36 46 52 47 37 48 40 49 51 50 67 51 38 52 39 53 50 55
REMARK SMILES IDX 68 56 41 57 28 58 29 59 34 60 30 61 31 62 33 63 35 64 32 65
REMARK SMILES IDX 54 66 55 67 60 68 56 69 57 70 59 71 61 72 58 73 42 74 43 75
REMARK SMILES IDX 48 76 44 77 45 78 47 79 49 80 46 81
REMARK H PARENT 9 9 66 43 40 54
REMARK Flexibility Score: inf
ROOT
ATOM      1  C   UNL     1       0.404   1.778   0.215  1.00  0.00     0.274 C 
ENDROOT
BRANCH   1   2
ATOM      2  O   UNL     1       1.704   1.160   0.259  1.00  0.00    -0.460 OA
BRANCH   2   3
ATOM      3  C   UNL     1       2.315   1.015  -0.950  1.00  0.00     0.333 C 
ATOM      4  O   UNL     1       1.738   1.173  -2.023  1.00  0.00    -0.249 OA
BRANCH   3   5
ATOM      5  C   UNL     1       3.794   0.607  -0.839  1.00  0.00     0.223 C 
BRANCH   5   6
ATOM      6  N   UNL     1       4.666   1.128  -1.901  1.00  0.00    -0.335 N 
ATOM      7  C   UNL     1       5.242   2.255  -2.395  1.00  0.00     0.253 C 
ATOM      8  O   UNL     1       6.010   1.993  -3.333  1.00  0.00    -0.269 OA
ATOM      9  H   UNL     1       4.936   0.372  -2.471  1.00  0.00     0.165 HD
BRANCH   7  10
ATOM     10  C   UNL     1       5.108   3.662  -1.964  1.00  0.00     0.053 A 
ATOM     11  C   UNL     1       2.941   3.970  -0.500  1.00  0.00     0.046 C 
ATOM     12  C   UNL     1       4.169   4.433  -1.170  1.00  0.00    -0.028 A 
ATOM     13  C   UNL     1       4.501   5.779  -1.114  1.00  0.00     0.069 A 
ATOM     14  S   UNL     1       5.888   6.168  -2.001  1.00  0.00    -0.151 S 
ATOM     15  C   UNL     1       6.063   4.546  -2.474  1.00  0.00     0.079 A 
ENDBRANCH   7  10
ENDBRANCH   5   6
BRANCH   5  16
ATOM     16  C   UNL     1       4.428   0.480   0.542  1.00  0.00    -0.014 A 
ATOM     17  C   UNL     1       4.020  -0.577   1.384  1.00  0.00     0.006 A 
ATOM     18  C   UNL     1       5.437   1.331   1.010  1.00  0.00     0.006 A 
ATOM     19  C   UNL     1       4.582  -0.760   2.650  1.00  0.00     0.000 A 
ATOM     20  C   UNL     1       5.996   1.150   2.282  1.00  0.00     0.000 A 
ATOM     21  C   UNL     1       5.566   0.111   3.103  1.00  0.00     0.000 A 
ENDBRANCH   5  16
ENDBRANCH   3   5
ENDBRANCH   2   3
ENDBRANCH   1   2
BRANCH   1  22
ATOM     22  C   UNL     1       0.103   2.411   1.573  1.00  0.00     0.275 C 
BRANCH  22  23
ATOM     23  O   UNL     1       1.198   3.265   1.967  1.00  0.00    -0.458 OA
BRANCH  23  24
ATOM     24  C   UNL     1       1.473   3.274   3.292  1.00  0.00     0.338 C 
ATOM     25  O   UNL     1       0.855   2.688   4.174  1.00  0.00    -0.246 OA
BRANCH  24  26
ATOM     26  C   UNL     1       2.624   4.152   3.579  1.00  0.00     0.060 A 
ATOM     27  C   UNL     1       3.844   3.969   2.927  1.00  0.00     0.016 A 
ATOM     28  C   UNL     1       2.519   5.096   4.601  1.00  0.00     0.016 A 
ATOM     29  C   UNL     1       4.972   4.697   3.313  1.00  0.00     0.010 A 
ATOM     30  C   UNL     1       3.641   5.845   4.974  1.00  0.00     0.010 A 
ATOM     31  C   UNL     1       4.885   5.626   4.358  1.00  0.00    -0.014 A 
BRANCH  31  32
ATOM     32  C   UNL     1       6.110   6.266   4.906  1.00  0.00     0.031 A 
ATOM     33  C   UNL     1       6.627   5.828   6.250  1.00  0.00     0.074 A 
ATOM     34  C   UNL     1       6.780   7.203   4.210  1.00  0.00     0.049 A 
ATOM     35  N   UNL     1       7.575   6.347   6.987  1.00  0.00    -0.248 NA
ATOM     36  C   UNL     1       5.990   4.638   6.837  1.00  0.00     0.031 C 
ATOM     37  C   UNL     1       6.449   7.651   2.858  1.00  0.00     0.029 A 
ATOM     38  N   UNL     1       7.885   7.944   4.549  1.00  0.00    -0.354 N 
ATOM     39  C   UNL     1       7.626   5.571   8.139  1.00  0.00     0.074 A 
ATOM     40  C   UNL     1       6.615   4.544   8.002  1.00  0.00     0.031 C 
ATOM     41  C   UNL     1       7.338   8.585   2.479  1.00  0.00     0.029 A 
ATOM     42  C   UNL     1       8.259   8.847   3.583  1.00  0.00     0.049 A 
ATOM     43  H   UNL     1       8.364   7.839   5.403  1.00  0.00     0.167 HD
ATOM     44  C   UNL     1       8.435   5.707   9.217  1.00  0.00     0.037 A 
ATOM     45  C   UNL     1       9.211   9.800   3.602  1.00  0.00     0.037 A 
ATOM     46  C   UNL     1       9.450   6.718   9.346  1.00  0.00     0.049 A 
ATOM     47  C   UNL     1      10.047   9.986   4.841  1.00  0.00     0.074 A 
ATOM     48  C   UNL     1      10.295   6.966  10.415  1.00  0.00     0.029 A 
ATOM     49  N   UNL     1       9.764   7.647   8.366  1.00  0.00    -0.354 N 
ATOM     50  N   UNL     1      10.037   9.297   5.957  1.00  0.00    -0.248 NA
ATOM     51  C   UNL     1      11.012  11.096   4.832  1.00  0.00     0.031 C 
ATOM     52  C   UNL     1      11.097   8.066  10.092  1.00  0.00     0.029 A 
ATOM     53  C   UNL     1      10.778   8.478   8.808  1.00  0.00     0.049 A 
ATOM     54  H   UNL     1       9.329   7.706   7.484  1.00  0.00     0.167 HD
ATOM     55  C   UNL     1      10.996   9.881   6.775  1.00  0.00     0.074 A 
ATOM     56  C   UNL     1      11.584  10.969   6.021  1.00  0.00     0.031 C 
ATOM     57  C   UNL     1      11.353   9.553   8.041  1.00  0.00     0.037 A 
BRANCH  44  58
ATOM     58  C   UNL     1       8.211   4.767  10.364  1.00  0.00     0.057 A 
ATOM     59  C   UNL     1       8.608   3.425  10.316  1.00  0.00     0.134 A 
ATOM     60  C   UNL     1       7.590   5.217  11.536  1.00  0.00     0.134 A 
ATOM     61  F   UNL     1       9.190   2.926   9.215  1.00  0.00    -0.206 F 
ATOM     62  C   UNL     1       8.374   2.558  11.386  1.00  0.00     0.040 A 
ATOM     63  C   UNL     1       7.370   4.366  12.620  1.00  0.00     0.040 A 
ATOM     64  F   UNL     1       7.188   6.492  11.646  1.00  0.00    -0.206 F 
ATOM     65  C   UNL     1       7.757   3.030  12.544  1.00  0.00     0.006 A 
ENDBRANCH  44  58
BRANCH  45  66
ATOM     66  C   UNL     1       9.398  10.690   2.427  1.00  0.00     0.057 A 
ATOM     67  C   UNL     1      10.561  10.633   1.650  1.00  0.00     0.134 A 
ATOM     68  C   UNL     1       8.427  11.632   2.064  1.00  0.00     0.134 A 
ATOM     69  F   UNL     1      11.542   9.775   1.965  1.00  0.00    -0.206 F 
ATOM     70  C   UNL     1      10.755  11.485   0.560  1.00  0.00     0.040 A 
ATOM     71  C   UNL     1       8.595  12.471   0.961  1.00  0.00     0.040 A 
ATOM     72  F   UNL     1       7.293  11.742   2.772  1.00  0.00    -0.206 F 
ATOM     73  C   UNL     1       9.766  12.402   0.209  1.00  0.00     0.006 A 
ENDBRANCH  45  66
BRANCH  57  74
ATOM     74  C   UNL     1      12.441  10.364   8.679  1.00  0.00     0.057 A 
ATOM     75  C   UNL     1      12.209  11.661   9.153  1.00  0.00     0.134 A 
ATOM     76  C   UNL     1      13.723   9.828   8.855  1.00  0.00     0.134 A 
ATOM     77  F   UNL     1      11.006  12.235   9.003  1.00  0.00    -0.206 F 
ATOM     78  C   UNL     1      13.220  12.404   9.766  1.00  0.00     0.040 A 
ATOM     79  C   UNL     1      14.735  10.553   9.485  1.00  0.00     0.040 A 
ATOM     80  F   UNL     1      14.006   8.588   8.430  1.00  0.00    -0.206 F 
ATOM     81  C   UNL     1      14.486  11.847   9.938  1.00  0.00     0.006 A 
ENDBRANCH  57  74
ENDBRANCH  31  32
ENDBRANCH  24  26
ENDBRANCH  23  24
ENDBRANCH  22  23
ENDBRANCH   1  22
TORSDOF 14
