REMARK SMILES CCNC(=O)NC(=O)[C@@H](C)[N@H+](C)CC(=O)OCCOC(=O)c1ccc(-c2c3nc(c(-c4c(F)cccc4F)c4ccc([nH]4)c(-c4c(F)cccc4F)c4nc(c(-c5c(F)cccc5F)c5ccc2[nH]5)C=C4)C=C3)cc1
REMARK SMILES IDX 17 1 16 2 14 3 15 4 13 5 11 6 12 7 9 9 10 10 7 11 3 12 4 13
REMARK SMILES IDX 5 15 6 16 8 18 2 19 1 20 18 21 19 22 20 23 21 24 22 25 23 26
REMARK SMILES IDX 75 27 24 28 74 29 25 30 26 31 27 32 68 33 28 34 73 35 67 36
REMARK SMILES IDX 69 37 29 38 72 39 66 40 65 41 30 43 56 44 39 45 55 46 40 47
REMARK SMILES IDX 43 48 54 49 70 50 41 51 42 52 53 54 71 55 44 56 31 57 32 58
REMARK SMILES IDX 37 59 33 60 34 61 36 62 38 63 35 64 57 65 58 66 63 67 59 68
REMARK SMILES IDX 60 69 62 70 64 71 61 72 45 73 46 74 51 75 47 76 48 77 50 78
REMARK SMILES IDX 52 79 49 80
REMARK H PARENT 11 8 3 14 6 17 69 42 43 53
REMARK Flexibility Score: inf
ROOT
ATOM      1  C   UNL     1       3.651  -0.260  -1.962  1.00  0.00     0.274 C 
ENDROOT
BRANCH   1   2
ATOM      2  O   UNL     1       2.501   0.580  -1.678  1.00  0.00    -0.458 OA
BRANCH   2   3
ATOM      3  C   UNL     1       2.517   1.823  -2.254  1.00  0.00     0.361 C 
ATOM      4  O   UNL     1       3.488   2.258  -2.870  1.00  0.00    -0.245 OA
BRANCH   3   5
ATOM      5  C   UNL     1       1.188   2.620  -2.165  1.00  0.00     0.386 C 
BRANCH   5   6
ATOM      6  N   UNL     1       0.352   2.340  -0.947  1.00  0.00    -0.318 N 
ATOM      7  C   UNL     1       0.913   3.149   0.150  1.00  0.00     0.333 C 
ATOM      8  H   UNL     1       0.385   1.341  -0.742  1.00  0.00     0.349 HD
BRANCH   6   9
ATOM      9  C   UNL     1      -1.106   2.664  -1.140  1.00  0.00     0.271 C 
ATOM     10  C   UNL     1      -2.022   2.304   0.057  1.00  0.00     0.086 C 
BRANCH   9  11
ATOM     11  C   UNL     1      -1.790   1.967  -2.340  1.00  0.00     0.285 C 
ATOM     12  N   UNL     1       0.072  -0.584  -1.588  1.00  0.00    -0.338 N 
ATOM     13  C   UNL     1      -0.466   0.083  -2.627  1.00  0.00     0.321 C 
ATOM     14  H   UNL     1       0.956  -0.977  -1.775  1.00  0.00     0.165 HD
ATOM     15  O   UNL     1       0.143   0.173  -3.692  1.00  0.00    -0.248 OA
ATOM     16  N   UNL     1      -1.691   0.613  -2.505  1.00  0.00    -0.273 N 
ATOM     17  H   UNL     1      -2.495   0.045  -2.533  1.00  0.00     0.175 HD
ATOM     18  O   UNL     1      -2.514   2.603  -3.113  1.00  0.00    -0.268 OA
BRANCH  12  19
ATOM     19  C   UNL     1      -0.412  -0.827  -0.249  1.00  0.00     0.114 C 
ATOM     20  C   UNL     1       0.711  -1.159   0.719  1.00  0.00     0.027 C 
ENDBRANCH  12  19
ENDBRANCH   9  11
ENDBRANCH   6   9
ENDBRANCH   5   6
ENDBRANCH   3   5
ENDBRANCH   2   3
ENDBRANCH   1   2
BRANCH   1  21
ATOM     21  C   UNL     1       3.359  -1.747  -1.659  1.00  0.00     0.275 C 
BRANCH  21  22
ATOM     22  O   UNL     1       2.279  -2.196  -2.507  1.00  0.00    -0.458 OA
BRANCH  22  23
ATOM     23  C   UNL     1       1.580  -3.310  -2.150  1.00  0.00     0.338 C 
ATOM     24  O   UNL     1       1.832  -4.039  -1.204  1.00  0.00    -0.246 OA
BRANCH  23  25
ATOM     25  C   UNL     1       0.364  -3.438  -3.017  1.00  0.00     0.060 A 
ATOM     26  C   UNL     1       0.206  -2.616  -4.131  1.00  0.00     0.016 A 
ATOM     27  C   UNL     1      -0.677  -4.316  -2.691  1.00  0.00     0.016 A 
ATOM     28  C   UNL     1      -0.990  -2.601  -4.851  1.00  0.00     0.010 A 
ATOM     29  C   UNL     1      -1.819  -4.410  -3.516  1.00  0.00     0.010 A 
ATOM     30  C   UNL     1      -1.973  -3.573  -4.634  1.00  0.00    -0.014 A 
BRANCH  30  31
ATOM     31  C   UNL     1      -3.027  -3.804  -5.675  1.00  0.00     0.031 A 
ATOM     32  C   UNL     1      -4.495  -3.875  -5.346  1.00  0.00     0.074 A 
ATOM     33  C   UNL     1      -2.645  -4.003  -6.957  1.00  0.00     0.049 A 
ATOM     34  N   UNL     1      -5.482  -4.335  -6.078  1.00  0.00    -0.248 NA
ATOM     35  C   UNL     1      -4.913  -3.366  -4.033  1.00  0.00     0.031 C 
ATOM     36  C   UNL     1      -1.268  -3.930  -7.457  1.00  0.00     0.029 A 
ATOM     37  N   UNL     1      -3.374  -4.312  -8.083  1.00  0.00    -0.354 N 
ATOM     38  C   UNL     1      -6.627  -4.228  -5.298  1.00  0.00     0.074 A 
ATOM     39  C   UNL     1      -6.215  -3.632  -4.041  1.00  0.00     0.031 C 
ATOM     40  C   UNL     1      -1.256  -4.128  -8.778  1.00  0.00     0.029 A 
ATOM     41  C   UNL     1      -2.597  -4.492  -9.204  1.00  0.00     0.049 A 
ATOM     42  H   UNL     1      -4.355  -4.397  -8.085  1.00  0.00     0.167 HD
ATOM     43  C   UNL     1      -7.894  -4.609  -5.599  1.00  0.00     0.037 A 
ATOM     44  C   UNL     1      -2.886  -4.978 -10.425  1.00  0.00     0.037 A 
ATOM     45  C   UNL     1      -8.305  -5.163  -6.869  1.00  0.00     0.049 A 
ATOM     46  C   UNL     1      -4.274  -5.450 -10.714  1.00  0.00     0.074 A 
ATOM     47  C   UNL     1      -9.566  -5.585  -7.260  1.00  0.00     0.029 A 
ATOM     48  N   UNL     1      -7.470  -5.359  -7.959  1.00  0.00    -0.354 N 
ATOM     49  N   UNL     1      -5.325  -5.436  -9.934  1.00  0.00    -0.248 NA
ATOM     50  C   UNL     1      -4.510  -6.035 -12.040  1.00  0.00     0.031 C 
ATOM     51  C   UNL     1      -9.486  -6.068  -8.571  1.00  0.00     0.029 A 
ATOM     52  C   UNL     1      -8.185  -5.906  -9.014  1.00  0.00     0.049 A 
ATOM     53  H   UNL     1      -6.510  -5.141  -7.980  1.00  0.00     0.167 HD
ATOM     54  C   UNL     1      -6.350  -6.003 -10.674  1.00  0.00     0.074 A 
ATOM     55  C   UNL     1      -5.799  -6.335 -11.972  1.00  0.00     0.031 C 
ATOM     56  C   UNL     1      -7.632  -6.231 -10.303  1.00  0.00     0.037 A 
BRANCH  43  57
ATOM     57  C   UNL     1      -8.938  -4.496  -4.524  1.00  0.00     0.057 A 
ATOM     58  C   UNL     1      -9.493  -3.270  -4.142  1.00  0.00     0.134 A 
ATOM     59  C   UNL     1      -9.448  -5.651  -3.912  1.00  0.00     0.134 A 
ATOM     60  F   UNL     1      -9.051  -2.126  -4.684  1.00  0.00    -0.206 F 
ATOM     61  C   UNL     1     -10.504  -3.194  -3.179  1.00  0.00     0.040 A 
ATOM     62  C   UNL     1     -10.473  -5.590  -2.966  1.00  0.00     0.040 A 
ATOM     63  F   UNL     1      -8.972  -6.862  -4.242  1.00  0.00    -0.206 F 
ATOM     64  C   UNL     1     -11.001  -4.357  -2.594  1.00  0.00     0.006 A 
ENDBRANCH  43  57
BRANCH  44  65
ATOM     65  C   UNL     1      -1.801  -5.115 -11.430  1.00  0.00     0.057 A 
ATOM     66  C   UNL     1      -1.758  -4.298 -12.563  1.00  0.00     0.134 A 
ATOM     67  C   UNL     1      -0.757  -6.034 -11.255  1.00  0.00     0.134 A 
ATOM     68  F   UNL     1      -2.741  -3.417 -12.798  1.00  0.00    -0.206 F 
ATOM     69  C   UNL     1      -0.713  -4.385 -13.484  1.00  0.00     0.040 A 
ATOM     70  C   UNL     1       0.310  -6.109 -12.149  1.00  0.00     0.040 A 
ATOM     71  F   UNL     1      -0.738  -6.841 -10.183  1.00  0.00    -0.206 F 
ATOM     72  C   UNL     1       0.332  -5.284 -13.271  1.00  0.00     0.006 A 
ENDBRANCH  44  65
BRANCH  56  73
ATOM     73  C   UNL     1      -8.536  -6.834 -11.335  1.00  0.00     0.057 A 
ATOM     74  C   UNL     1      -8.464  -8.191 -11.675  1.00  0.00     0.134 A 
ATOM     75  C   UNL     1      -9.495  -6.050 -11.986  1.00  0.00     0.134 A 
ATOM     76  F   UNL     1      -7.551  -8.989 -11.101  1.00  0.00    -0.206 F 
ATOM     77  C   UNL     1      -9.306  -8.743 -12.642  1.00  0.00     0.040 A 
ATOM     78  C   UNL     1     -10.355  -6.595 -12.940  1.00  0.00     0.040 A 
ATOM     79  F   UNL     1      -9.612  -4.744 -11.705  1.00  0.00    -0.206 F 
ATOM     80  C   UNL     1     -10.259  -7.945 -13.273  1.00  0.00     0.006 A 
ENDBRANCH  56  73
ENDBRANCH  30  31
ENDBRANCH  23  25
ENDBRANCH  22  23
ENDBRANCH  21  22
ENDBRANCH   1  21
TORSDOF 15
