REMARK SMILES Cc1ccc(S(=O)(=O)n2cc(C(=O)C(=O)NCC(=O)NCC(=O)OCCOC(=O)c3ccc(-c4c5nc(c(-c6c(F)cccc6F)c6ccc([nH]6)c(-c6c(F)cccc6F)c6nc(c(-c7c(F)cccc7F)c7ccc4[nH]7)C=C6)C=C5)cc3)c3ccccc32)cc1
REMARK SMILES IDX 22 1 23 2 21 3 20 4 18 5 19 6 17 8 16 9 14 10 15 11 12 13
REMARK SMILES IDX 13 14 11 15 9 16 10 17 89 18 84 19 88 20 85 21 87 22 86 23
REMARK SMILES IDX 6 24 7 25 8 26 5 27 1 28 2 29 3 30 91 31 4 32 90 33 24 34
REMARK SMILES IDX 25 35 26 36 27 37 28 38 29 39 30 40 31 41 83 42 32 43 82 44
REMARK SMILES IDX 33 45 34 46 35 47 76 48 36 49 81 50 75 51 77 52 37 53 80 54
REMARK SMILES IDX 74 55 73 56 38 58 64 59 47 60 63 61 48 62 51 63 62 64 78 65
REMARK SMILES IDX 49 66 50 67 61 69 79 70 52 71 39 72 40 73 45 74 41 75 42 76
REMARK SMILES IDX 44 77 46 78 43 79 65 80 66 81 71 82 67 83 68 84 70 85 72 86
REMARK SMILES IDX 69 87 53 88 54 89 59 90 55 91 56 92 58 93 60 94 57 95
REMARK H PARENT 20 7 16 12 77 57 51 68
REMARK Flexibility Score: inf
ROOT
ATOM      1  C   UNL     1     -10.172   2.252   1.279  1.00  0.00     0.325 C 
ATOM      2  O   UNL     1     -10.541   1.629   0.249  1.00  0.00    -0.250 OA
ENDROOT
BRANCH   1   3
ATOM      3  C   UNL     1      -9.338   4.265   1.534  1.00  0.00     0.238 C 
BRANCH   3   4
ATOM      4  N   UNL     1      -9.947   5.706   2.033  1.00  0.00    -0.344 N 
ATOM      5  C   UNL     1      -9.463   6.875   2.513  1.00  0.00     0.239 C 
ATOM      6  O   UNL     1     -10.303   7.763   2.706  1.00  0.00    -0.273 OA
ATOM      7  H   UNL     1     -10.929   5.725   1.963  1.00  0.00     0.164 HD
BRANCH   5   8
ATOM      8  C   UNL     1      -7.990   7.200   2.678  1.00  0.00     0.216 C 
BRANCH   8   9
ATOM      9  N   UNL     1      -7.142   6.108   3.085  1.00  0.00    -0.340 N 
ATOM     10  C   UNL     1      -6.105   5.492   2.419  1.00  0.00     0.292 C 
ATOM     11  O   UNL     1      -5.337   4.845   3.119  1.00  0.00    -0.265 OA
ATOM     12  H   UNL     1      -7.333   5.746   3.980  1.00  0.00     0.164 HD
BRANCH  10  13
ATOM     13  C   UNL     1      -5.865   5.652   0.880  1.00  0.00     0.252 C 
ATOM     14  O   UNL     1      -6.242   6.717   0.397  1.00  0.00    -0.283 OA
BRANCH  13  15
ATOM     15  C   UNL     1      -5.118   4.691   0.006  1.00  0.00     0.054 A 
ATOM     16  N   UNL     1      -4.009   2.922  -0.802  1.00  0.00    -0.240 N 
ATOM     17  C   UNL     1      -5.088   3.306  -0.042  1.00  0.00     0.117 A 
ATOM     18  C   UNL     1      -3.735   3.901  -1.702  1.00  0.00     0.065 A 
ATOM     19  C   UNL     1      -4.407   5.032  -1.214  1.00  0.00     0.012 A 
ATOM     20  C   UNL     1      -2.989   3.880  -2.884  1.00  0.00     0.028 A 
ATOM     21  C   UNL     1      -4.316   6.209  -1.974  1.00  0.00     0.011 A 
ATOM     22  C   UNL     1      -2.964   5.048  -3.632  1.00  0.00     0.002 A 
ATOM     23  C   UNL     1      -3.620   6.192  -3.188  1.00  0.00     0.001 A 
BRANCH  16  24
ATOM     24  S   UNL     1      -3.369   1.360  -0.834  1.00  0.00     0.268 S 
ATOM     25  O   UNL     1      -3.701   0.848  -2.147  1.00  0.00    -0.201 OA
ATOM     26  O   UNL     1      -3.797   0.778   0.418  1.00  0.00    -0.201 OA
BRANCH  24  27
ATOM     27  C   UNL     1      -1.602   1.449  -0.734  1.00  0.00     0.088 A 
ATOM     28  C   UNL     1       2.639   1.110  -0.112  1.00  0.00     0.044 C 
ATOM     29  C   UNL     1       1.177   1.294  -0.398  1.00  0.00    -0.051 A 
ATOM     30  C   UNL     1       0.488   0.279  -1.060  1.00  0.00     0.005 A 
ATOM     31  C   UNL     1       0.466   2.418   0.044  1.00  0.00     0.005 A 
ATOM     32  C   UNL     1      -0.891   0.353  -1.228  1.00  0.00     0.022 A 
ATOM     33  C   UNL     1      -0.926   2.500  -0.119  1.00  0.00     0.022 A 
ENDBRANCH  24  27
ENDBRANCH  16  24
ENDBRANCH  13  15
ENDBRANCH  10  13
ENDBRANCH   8   9
ENDBRANCH   5   8
ENDBRANCH   3   4
ENDBRANCH   1   3
BRANCH   1  34
ATOM     34  O   UNL     1     -10.501   1.404   2.387  1.00  0.00    -0.461 OA
BRANCH  34  35
ATOM     35  C   UNL     1     -11.680   0.598   2.269  1.00  0.00     0.274 C 
BRANCH  35  36
ATOM     36  C   UNL     1     -12.928   1.486   2.384  1.00  0.00     0.275 C 
BRANCH  36  37
ATOM     37  O   UNL     1     -13.226   2.325   1.229  1.00  0.00    -0.458 OA
BRANCH  37  38
ATOM     38  C   UNL     1     -12.853   3.627   1.072  1.00  0.00     0.338 C 
ATOM     39  O   UNL     1     -13.526   4.466   0.495  1.00  0.00    -0.246 OA
BRANCH  38  40
ATOM     40  C   UNL     1     -11.418   3.885   1.289  1.00  0.00     0.060 A 
ATOM     41  C   UNL     1     -10.392   3.751  -0.196  1.00  0.00     0.016 A 
ATOM     42  C   UNL     1     -10.706   3.535   2.914  1.00  0.00     0.016 A 
ATOM     43  C   UNL     1      -8.733   2.997  -0.059  1.00  0.00     0.010 A 
ATOM     44  C   UNL     1      -9.043   2.838   3.039  1.00  0.00     0.010 A 
ATOM     45  C   UNL     1      -8.114   2.453   1.539  1.00  0.00    -0.014 A 
BRANCH  45  46
ATOM     46  C   UNL     1      -7.399   1.145   1.730  1.00  0.00     0.031 A 
ATOM     47  C   UNL     1      -6.374   1.067   2.795  1.00  0.00     0.074 A 
ATOM     48  C   UNL     1      -7.740   0.019   1.070  1.00  0.00     0.049 A 
ATOM     49  N   UNL     1      -6.140   0.173   3.695  1.00  0.00    -0.248 NA
ATOM     50  C   UNL     1      -5.467   2.185   2.868  1.00  0.00     0.031 C 
ATOM     51  C   UNL     1      -7.393  -1.350   1.435  1.00  0.00     0.029 A 
ATOM     52  N   UNL     1      -8.374  -0.109  -0.163  1.00  0.00    -0.354 N 
ATOM     53  C   UNL     1      -4.988   0.592   4.352  1.00  0.00     0.074 A 
ATOM     54  C   UNL     1      -4.718   1.936   3.920  1.00  0.00     0.031 C 
ATOM     55  C   UNL     1      -7.622  -2.160   0.393  1.00  0.00     0.029 A 
ATOM     56  C   UNL     1      -7.974  -1.330  -0.738  1.00  0.00     0.049 A 
ATOM     57  H   UNL     1      -8.995   0.541  -0.563  1.00  0.00     0.167 HD
ATOM     58  C   UNL     1      -3.883  -0.169   4.540  1.00  0.00     0.037 A 
ATOM     59  C   UNL     1      -7.324  -1.350  -1.937  1.00  0.00     0.037 A 
ATOM     60  C   UNL     1      -3.837  -1.305   3.631  1.00  0.00     0.049 A 
ATOM     61  C   UNL     1      -5.859  -1.748  -1.804  1.00  0.00     0.074 A 
ATOM     62  C   UNL     1      -4.533  -2.499   3.612  1.00  0.00     0.029 A 
ATOM     63  N   UNL     1      -3.315  -1.164   2.342  1.00  0.00    -0.354 N 
ATOM     64  N   UNL     1      -5.239  -1.924  -0.660  1.00  0.00    -0.248 NA
ATOM     65  C   UNL     1      -4.967  -1.950  -2.938  1.00  0.00     0.031 C 
ATOM     66  C   UNL     1      -4.412  -3.078   2.316  1.00  0.00     0.029 A 
ATOM     67  C   UNL     1      -3.580  -2.284   1.545  1.00  0.00     0.049 A 
ATOM     68  H   UNL     1      -2.819  -0.372   2.032  1.00  0.00     0.167 HD
ATOM     69  C   UNL     1      -3.914  -2.228  -0.863  1.00  0.00     0.074 A 
ATOM     70  C   UNL     1      -3.800  -2.210  -2.319  1.00  0.00     0.031 C 
ATOM     71  C   UNL     1      -3.027  -2.415   0.178  1.00  0.00     0.037 A 
BRANCH  58  72
ATOM     72  C   UNL     1      -3.038   0.161   5.762  1.00  0.00     0.057 A 
ATOM     73  C   UNL     1      -2.164  -0.803   6.273  1.00  0.00     0.134 A 
ATOM     74  C   UNL     1      -3.160   1.327   6.576  1.00  0.00     0.134 A 
ATOM     75  F   UNL     1      -1.918  -1.934   5.598  1.00  0.00    -0.206 F 
ATOM     76  C   UNL     1      -1.546  -0.669   7.528  1.00  0.00     0.040 A 
ATOM     77  C   UNL     1      -2.515   1.488   7.808  1.00  0.00     0.040 A 
ATOM     78  F   UNL     1      -3.946   2.366   6.259  1.00  0.00    -0.206 F 
ATOM     79  C   UNL     1      -1.734   0.467   8.309  1.00  0.00     0.006 A 
ENDBRANCH  58  72
BRANCH  59  80
ATOM     80  C   UNL     1      -7.979  -0.417  -2.908  1.00  0.00     0.057 A 
ATOM     81  C   UNL     1      -9.333  -0.693  -3.204  1.00  0.00     0.134 A 
ATOM     82  C   UNL     1      -7.564   0.906  -3.071  1.00  0.00     0.134 A 
ATOM     83  F   UNL     1      -9.794  -1.952  -3.129  1.00  0.00    -0.206 F 
ATOM     84  C   UNL     1     -10.271   0.326  -3.393  1.00  0.00     0.040 A 
ATOM     85  C   UNL     1      -8.489   1.929  -3.341  1.00  0.00     0.040 A 
ATOM     86  F   UNL     1      -6.307   1.271  -2.793  1.00  0.00    -0.206 F 
ATOM     87  C   UNL     1      -9.853   1.649  -3.412  1.00  0.00     0.006 A 
ENDBRANCH  59  80
BRANCH  71  88
ATOM     88  C   UNL     1      -1.530  -2.730   0.025  1.00  0.00     0.057 A 
ATOM     89  C   UNL     1      -0.926  -3.289  -1.115  1.00  0.00     0.134 A 
ATOM     90  C   UNL     1      -0.611  -2.467   1.072  1.00  0.00     0.134 A 
ATOM     91  F   UNL     1      -1.649  -3.780  -2.129  1.00  0.00    -0.206 F 
ATOM     92  C   UNL     1       0.469  -3.405  -1.270  1.00  0.00     0.040 A 
ATOM     93  C   UNL     1       0.777  -2.627   0.952  1.00  0.00     0.040 A 
ATOM     94  F   UNL     1      -0.998  -2.016   2.270  1.00  0.00    -0.206 F 
ATOM     95  C   UNL     1       1.329  -3.062  -0.238  1.00  0.00     0.006 A 
ENDBRANCH  71  88
ENDBRANCH  45  46
ENDBRANCH  38  40
ENDBRANCH  37  38
ENDBRANCH  36  37
ENDBRANCH  35  36
ENDBRANCH  34  35
ENDBRANCH   1  34
TORSDOF 18
