REMARK SMILES CCOC(=O)C1=NN(c2ccc(OC(F)(F)F)cc2)[C@@](C)(C(=O)OCCOC(=O)c2ccc(-c3c4nc(c(-c5c(F)cccc5F)c5ccc([nH]5)c(-c5c(F)cccc5F)c5nc(c(-c6c(F)cccc6F)c6ccc3[nH]6)C=C5)C=C4)cc2)C1
REMARK SMILES IDX 25 1 24 2 22 3 23 4 20 5 6 6 7 7 84 8 8 9 21 10 4 11 5 12
REMARK SMILES IDX 3 13 2 14 1 15 9 16 10 17 19 18 11 19 18 20 12 21 13 22
REMARK SMILES IDX 14 23 15 24 16 25 17 26 26 27 27 28 28 29 29 30 30 31 31 32
REMARK SMILES IDX 83 33 32 34 82 35 33 36 34 37 35 38 76 39 36 40 81 41 75 42
REMARK SMILES IDX 77 43 37 44 80 45 74 46 73 47 38 49 64 50 47 51 63 52 48 53
REMARK SMILES IDX 51 54 62 55 78 56 49 57 50 58 61 60 79 61 52 62 39 63 40 64
REMARK SMILES IDX 45 65 41 66 42 67 44 68 46 69 43 70 65 71 66 72 71 73 67 74
REMARK SMILES IDX 68 75 70 76 72 77 69 78 53 79 54 80 59 81 55 82 56 83 58 84
REMARK SMILES IDX 60 85 57 86
REMARK H PARENT 77 48 51 59
REMARK Flexibility Score: inf
ROOT
ATOM      1  C   UNL     1       6.607  -3.392  -6.220  1.00  0.00     0.274 C 
ENDROOT
BRANCH   1   2
ATOM      2  O   UNL     1       5.415  -3.967  -5.641  1.00  0.00    -0.460 OA
BRANCH   2   3
ATOM      3  C   UNL     1       5.375  -4.075  -4.285  1.00  0.00     0.334 C 
ATOM      4  O   UNL     1       6.297  -3.739  -3.543  1.00  0.00    -0.249 OA
BRANCH   3   5
ATOM      5  C   UNL     1       4.080  -4.715  -3.739  1.00  0.00     0.163 C 
ATOM      6  C   UNL     1       2.442  -3.108  -3.459  1.00  0.00     0.149 C 
ATOM      7  N   UNL     1       2.162  -3.636  -4.609  1.00  0.00    -0.169 NA
ATOM      8  C   UNL     1       3.474  -3.815  -2.642  1.00  0.00     0.108 C 
ATOM      9  N   UNL     1       2.983  -4.725  -4.729  1.00  0.00    -0.248 N 
ATOM     10  C   UNL     1       4.481  -6.065  -3.157  1.00  0.00     0.050 C 
BRANCH   6  11
ATOM     11  C   UNL     1       1.716  -1.899  -2.926  1.00  0.00     0.354 C 
ATOM     12  O   UNL     1       1.759  -0.819  -3.478  1.00  0.00    -0.245 OA
BRANCH  11  13
ATOM     13  O   UNL     1       1.039  -2.251  -1.814  1.00  0.00    -0.461 OA
BRANCH  13  14
ATOM     14  C   UNL     1       0.175  -1.243  -1.263  1.00  0.00     0.230 C 
ATOM     15  C   UNL     1       0.529  -1.029   0.195  1.00  0.00     0.049 C 
ENDBRANCH  13  14
ENDBRANCH  11  13
ENDBRANCH   6  11
BRANCH   9  16
ATOM     16  C   UNL     1       2.687  -5.655  -5.709  1.00  0.00     0.061 A 
ATOM     17  C   UNL     1       2.410  -5.242  -7.019  1.00  0.00     0.032 A 
ATOM     18  C   UNL     1       2.546  -7.017  -5.431  1.00  0.00     0.032 A 
ATOM     19  C   UNL     1       2.055  -6.160  -8.015  1.00  0.00     0.049 A 
ATOM     20  C   UNL     1       2.184  -7.942  -6.418  1.00  0.00     0.049 A 
ATOM     21  C   UNL     1       1.948  -7.520  -7.721  1.00  0.00     0.129 A 
BRANCH  21  22
ATOM     22  O   UNL     1       1.590  -8.313  -8.773  1.00  0.00    -0.406 OA
BRANCH  22  23
ATOM     23  C   UNL     1       1.571  -9.713  -8.553  1.00  0.00     0.573 C 
ATOM     24  F   UNL     1       2.777 -10.161  -8.140  1.00  0.00    -0.132 F 
ATOM     25  F   UNL     1       0.631 -10.053  -7.645  1.00  0.00    -0.132 F 
ATOM     26  F   UNL     1       1.272 -10.333  -9.716  1.00  0.00    -0.132 F 
ENDBRANCH  22  23
ENDBRANCH  21  22
ENDBRANCH   9  16
ENDBRANCH   3   5
ENDBRANCH   2   3
ENDBRANCH   1   2
BRANCH   1  27
ATOM     27  C   UNL     1       6.384  -1.919  -6.557  1.00  0.00     0.275 C 
BRANCH  27  28
ATOM     28  O   UNL     1       6.160  -1.202  -5.333  1.00  0.00    -0.458 OA
BRANCH  28  29
ATOM     29  C   UNL     1       5.322  -0.141  -5.409  1.00  0.00     0.338 C 
ATOM     30  O   UNL     1       4.845   0.339  -6.422  1.00  0.00    -0.246 OA
BRANCH  29  31
ATOM     31  C   UNL     1       5.038   0.358  -4.041  1.00  0.00     0.060 A 
ATOM     32  C   UNL     1       5.031  -0.514  -2.954  1.00  0.00     0.016 A 
ATOM     33  C   UNL     1       4.672   1.690  -3.848  1.00  0.00     0.016 A 
ATOM     34  C   UNL     1       4.528  -0.102  -1.720  1.00  0.00     0.010 A 
ATOM     35  C   UNL     1       4.280   2.132  -2.576  1.00  0.00     0.010 A 
ATOM     36  C   UNL     1       4.137   1.228  -1.509  1.00  0.00    -0.014 A 
BRANCH  36  37
ATOM     37  C   UNL     1       3.501   1.631  -0.216  1.00  0.00     0.031 A 
ATOM     38  C   UNL     1       2.131   2.272  -0.204  1.00  0.00     0.074 A 
ATOM     39  C   UNL     1       4.093   1.353   0.966  1.00  0.00     0.049 A 
ATOM     40  N   UNL     1       1.456   2.764   0.808  1.00  0.00    -0.248 NA
ATOM     41  C   UNL     1       1.423   2.369  -1.490  1.00  0.00     0.031 C 
ATOM     42  C   UNL     1       5.389   0.695   1.135  1.00  0.00     0.029 A 
ATOM     43  N   UNL     1       3.662   1.562   2.256  1.00  0.00    -0.354 N 
ATOM     44  C   UNL     1       0.277   3.271   0.272  1.00  0.00     0.074 A 
ATOM     45  C   UNL     1       0.329   3.037  -1.154  1.00  0.00     0.031 C 
ATOM     46  C   UNL     1       5.612   0.485   2.441  1.00  0.00     0.029 A 
ATOM     47  C   UNL     1       4.526   1.081   3.211  1.00  0.00     0.049 A 
ATOM     48  H   UNL     1       2.815   2.013   2.474  1.00  0.00     0.167 HD
ATOM     49  C   UNL     1      -0.764   3.864   0.905  1.00  0.00     0.037 A 
ATOM     50  C   UNL     1       4.477   1.137   4.556  1.00  0.00     0.037 A 
ATOM     51  C   UNL     1      -0.861   4.057   2.328  1.00  0.00     0.049 A 
ATOM     52  C   UNL     1       3.343   1.855   5.230  1.00  0.00     0.074 A 
ATOM     53  C   UNL     1      -1.878   4.660   3.049  1.00  0.00     0.029 A 
ATOM     54  N   UNL     1       0.082   3.631   3.248  1.00  0.00    -0.354 N 
ATOM     55  N   UNL     1       2.280   2.402   4.698  1.00  0.00    -0.248 NA
ATOM     56  C   UNL     1       3.423   1.990   6.692  1.00  0.00     0.031 C 
ATOM     57  C   UNL     1      -1.541   4.617   4.407  1.00  0.00     0.029 A 
ATOM     58  C   UNL     1      -0.328   3.961   4.531  1.00  0.00     0.049 A 
ATOM     59  H   UNL     1       0.919   3.164   3.025  1.00  0.00     0.167 HD
ATOM     60  C   UNL     1       1.566   2.949   5.756  1.00  0.00     0.074 A 
ATOM     61  C   UNL     1       2.300   2.639   6.965  1.00  0.00     0.031 C 
ATOM     62  C   UNL     1       0.412   3.657   5.726  1.00  0.00     0.037 A 
BRANCH  49  63
ATOM     63  C   UNL     1      -1.893   4.365   0.054  1.00  0.00     0.057 A 
ATOM     64  C   UNL     1      -2.841   3.496  -0.499  1.00  0.00     0.134 A 
ATOM     65  C   UNL     1      -2.060   5.738  -0.171  1.00  0.00     0.134 A 
ATOM     66  F   UNL     1      -2.726   2.170  -0.331  1.00  0.00    -0.206 F 
ATOM     67  C   UNL     1      -3.911   3.975  -1.257  1.00  0.00     0.040 A 
ATOM     68  C   UNL     1      -3.136   6.229  -0.910  1.00  0.00     0.040 A 
ATOM     69  F   UNL     1      -1.188   6.622   0.337  1.00  0.00    -0.206 F 
ATOM     70  C   UNL     1      -4.064   5.346  -1.458  1.00  0.00     0.006 A 
ENDBRANCH  49  63
BRANCH  50  71
ATOM     71  C   UNL     1       5.567   0.535   5.366  1.00  0.00     0.057 A 
ATOM     72  C   UNL     1       5.337  -0.590   6.166  1.00  0.00     0.134 A 
ATOM     73  C   UNL     1       6.858   1.076   5.370  1.00  0.00     0.134 A 
ATOM     74  F   UNL     1       4.113  -1.135   6.228  1.00  0.00    -0.206 F 
ATOM     75  C   UNL     1       6.350  -1.152   6.945  1.00  0.00     0.040 A 
ATOM     76  C   UNL     1       7.887   0.508   6.121  1.00  0.00     0.040 A 
ATOM     77  F   UNL     1       7.141   2.157   4.628  1.00  0.00    -0.206 F 
ATOM     78  C   UNL     1       7.632  -0.607   6.916  1.00  0.00     0.006 A 
ENDBRANCH  50  71
BRANCH  62  79
ATOM     79  C   UNL     1      -0.127   4.134   7.041  1.00  0.00     0.057 A 
ATOM     80  C   UNL     1       0.457   5.208   7.725  1.00  0.00     0.134 A 
ATOM     81  C   UNL     1      -1.240   3.520   7.627  1.00  0.00     0.134 A 
ATOM     82  F   UNL     1       1.536   5.828   7.222  1.00  0.00    -0.206 F 
ATOM     83  C   UNL     1      -0.032   5.638   8.959  1.00  0.00     0.040 A 
ATOM     84  C   UNL     1      -1.750   3.953   8.851  1.00  0.00     0.040 A 
ATOM     85  F   UNL     1      -1.847   2.489   7.020  1.00  0.00    -0.206 F 
ATOM     86  C   UNL     1      -1.141   5.011   9.524  1.00  0.00     0.006 A 
ENDBRANCH  62  79
ENDBRANCH  36  37
ENDBRANCH  29  31
ENDBRANCH  28  29
ENDBRANCH  27  28
ENDBRANCH   1  27
TORSDOF 17
