REMARK SMILES O=C(OCCOC(=O)c1cn(C2CC2)c2cc(N3CC[NH2+]CC3)ccc2c1=O)c1ccc(-c2c3nc(c(-c4c(F)cccc4F)c4ccc([nH]4)c(-c4c(F)cccc4F)c4nc(c(-c5c(F)cccc5F)c5ccc2[nH]5)C=C4)C=C3)cc1
REMARK SMILES IDX 4 1 3 2 2 3 1 4 29 5 30 6 82 7 31 8 81 9 32 10 33 11 34 12
REMARK SMILES IDX 75 13 35 14 80 15 74 16 76 17 36 18 79 19 73 20 72 21 37 23
REMARK SMILES IDX 63 24 46 25 62 26 47 27 50 28 61 29 77 30 48 31 49 32 60 34
REMARK SMILES IDX 78 35 51 36 38 37 39 38 44 39 40 40 41 41 43 42 45 43 42 44
REMARK SMILES IDX 64 45 65 46 70 47 66 48 67 49 69 50 71 51 68 52 52 53 53 54
REMARK SMILES IDX 58 55 54 56 55 57 57 58 59 59 56 60 5 61 6 62 7 63 8 64 9 65
REMARK SMILES IDX 10 66 27 67 11 68 26 69 28 70 15 71 25 72 16 73 24 74 17 75
REMARK SMILES IDX 12 76 13 77 14 78 18 79 19 80 23 81 20 82 22 83 21 84
REMARK H PARENT 76 22 50 33 21 85 21 86
REMARK Flexibility Score: inf
ROOT
ATOM      1  C   UNL     1       4.330   0.855   0.963  1.00  0.00     0.275 C 
ENDROOT
BRANCH   1   2
ATOM      2  O   UNL     1       3.377   1.080  -0.089  1.00  0.00    -0.458 OA
BRANCH   2   3
ATOM      3  C   UNL     1       3.348   0.542  -1.333  1.00  0.00     0.338 C 
ATOM      4  O   UNL     1       2.749   1.130  -2.230  1.00  0.00    -0.246 OA
BRANCH   3   5
ATOM      5  C   UNL     1       3.869  -0.830  -1.629  1.00  0.00     0.060 A 
ATOM      6  C   UNL     1       3.114  -1.596  -2.529  1.00  0.00     0.016 A 
ATOM      7  C   UNL     1       5.045  -1.394  -1.130  1.00  0.00     0.016 A 
ATOM      8  C   UNL     1       3.477  -2.913  -2.835  1.00  0.00     0.010 A 
ATOM      9  C   UNL     1       5.412  -2.713  -1.441  1.00  0.00     0.010 A 
ATOM     10  C   UNL     1       4.619  -3.502  -2.275  1.00  0.00    -0.014 A 
BRANCH  10  11
ATOM     11  C   UNL     1       5.076  -4.835  -2.743  1.00  0.00     0.031 A 
ATOM     12  C   UNL     1       5.224  -6.045  -1.865  1.00  0.00     0.074 A 
ATOM     13  C   UNL     1       5.489  -4.936  -4.017  1.00  0.00     0.049 A 
ATOM     14  N   UNL     1       5.302  -7.307  -2.221  1.00  0.00    -0.248 NA
ATOM     15  C   UNL     1       5.329  -5.834  -0.418  1.00  0.00     0.031 C 
ATOM     16  C   UNL     1       5.554  -3.834  -4.976  1.00  0.00     0.029 A 
ATOM     17  N   UNL     1       6.002  -6.009  -4.694  1.00  0.00    -0.354 N 
ATOM     18  C   UNL     1       5.284  -8.034  -1.041  1.00  0.00     0.074 A 
ATOM     19  C   UNL     1       5.384  -7.082   0.033  1.00  0.00     0.031 C 
ATOM     20  C   UNL     1       6.131  -4.274  -6.101  1.00  0.00     0.029 A 
ATOM     21  C   UNL     1       6.489  -5.678  -5.928  1.00  0.00     0.049 A 
ATOM     22  H   UNL     1       6.017  -6.924  -4.332  1.00  0.00     0.167 HD
ATOM     23  C   UNL     1       5.179  -9.374  -0.869  1.00  0.00     0.037 A 
ATOM     24  C   UNL     1       7.194  -6.412  -6.803  1.00  0.00     0.037 A 
ATOM     25  C   UNL     1       5.554 -10.318  -1.882  1.00  0.00     0.049 A 
ATOM     26  C   UNL     1       7.449  -7.857  -6.513  1.00  0.00     0.074 A 
ATOM     27  C   UNL     1       5.651 -11.695  -1.801  1.00  0.00     0.029 A 
ATOM     28  N   UNL     1       6.075  -9.948  -3.111  1.00  0.00    -0.354 N 
ATOM     29  N   UNL     1       7.049  -8.580  -5.495  1.00  0.00    -0.248 NA
ATOM     30  C   UNL     1       8.242  -8.593  -7.504  1.00  0.00     0.031 C 
ATOM     31  C   UNL     1       6.392 -12.133  -2.910  1.00  0.00     0.029 A 
ATOM     32  C   UNL     1       6.656 -11.042  -3.724  1.00  0.00     0.049 A 
ATOM     33  H   UNL     1       6.037  -9.041  -3.491  1.00  0.00     0.167 HD
ATOM     34  C   UNL     1       7.534  -9.861  -5.722  1.00  0.00     0.074 A 
ATOM     35  C   UNL     1       8.240  -9.815  -6.989  1.00  0.00     0.031 C 
ATOM     36  C   UNL     1       7.400 -10.975  -4.957  1.00  0.00     0.037 A 
BRANCH  23  37
ATOM     37  C   UNL     1       4.737  -9.875   0.473  1.00  0.00     0.057 A 
ATOM     38  C   UNL     1       5.637 -10.385   1.413  1.00  0.00     0.134 A 
ATOM     39  C   UNL     1       3.376  -9.886   0.816  1.00  0.00     0.134 A 
ATOM     40  F   UNL     1       6.948 -10.431   1.140  1.00  0.00    -0.206 F 
ATOM     41  C   UNL     1       5.205 -10.854   2.658  1.00  0.00     0.040 A 
ATOM     42  C   UNL     1       2.933 -10.335   2.063  1.00  0.00     0.040 A 
ATOM     43  F   UNL     1       2.452  -9.450  -0.053  1.00  0.00    -0.206 F 
ATOM     44  C   UNL     1       3.852 -10.818   2.991  1.00  0.00     0.006 A 
ENDBRANCH  23  37
BRANCH  24  45
ATOM     45  C   UNL     1       7.711  -5.736  -8.013  1.00  0.00     0.057 A 
ATOM     46  C   UNL     1       8.720  -4.767  -7.916  1.00  0.00     0.134 A 
ATOM     47  C   UNL     1       7.125  -5.946  -9.262  1.00  0.00     0.134 A 
ATOM     48  F   UNL     1       9.302  -4.509  -6.734  1.00  0.00    -0.206 F 
ATOM     49  C   UNL     1       9.104  -4.004  -9.017  1.00  0.00     0.040 A 
ATOM     50  C   UNL     1       7.516  -5.205 -10.377  1.00  0.00     0.040 A 
ATOM     51  F   UNL     1       6.156  -6.861  -9.407  1.00  0.00    -0.206 F 
ATOM     52  C   UNL     1       8.498  -4.222 -10.252  1.00  0.00     0.006 A 
ENDBRANCH  24  45
BRANCH  36  53
ATOM     53  C   UNL     1       8.059 -12.225  -5.454  1.00  0.00     0.057 A 
ATOM     54  C   UNL     1       7.292 -13.312  -5.889  1.00  0.00     0.134 A 
ATOM     55  C   UNL     1       9.454 -12.360  -5.488  1.00  0.00     0.134 A 
ATOM     56  F   UNL     1       5.952 -13.253  -5.869  1.00  0.00    -0.206 F 
ATOM     57  C   UNL     1       7.888 -14.487  -6.347  1.00  0.00     0.040 A 
ATOM     58  C   UNL     1      10.061 -13.518  -5.974  1.00  0.00     0.040 A 
ATOM     59  F   UNL     1      10.245 -11.352  -5.090  1.00  0.00    -0.206 F 
ATOM     60  C   UNL     1       9.277 -14.587  -6.401  1.00  0.00     0.006 A 
ENDBRANCH  36  53
ENDBRANCH  10  11
ENDBRANCH   3   5
ENDBRANCH   2   3
ENDBRANCH   1   2
BRANCH   1  61
ATOM     61  C   UNL     1       3.898  -0.203   1.979  1.00  0.00     0.275 C 
BRANCH  61  62
ATOM     62  O   UNL     1       3.379  -1.387   1.358  1.00  0.00    -0.458 OA
BRANCH  62  63
ATOM     63  C   UNL     1       2.021  -1.454   1.238  1.00  0.00     0.343 C 
ATOM     64  O   UNL     1       1.228  -0.645   1.699  1.00  0.00    -0.246 OA
BRANCH  63  65
ATOM     65  C   UNL     1       1.656  -2.647   0.458  1.00  0.00     0.124 A 
ATOM     66  C   UNL     1       2.210  -3.825   0.769  1.00  0.00     0.106 A 
ATOM     67  C   UNL     1       0.686  -2.633  -0.657  1.00  0.00     0.203 A 
ATOM     68  N   UNL     1       1.984  -5.032   0.135  1.00  0.00    -0.343 N 
ATOM     69  C   UNL     1       0.641  -3.840  -1.528  1.00  0.00     0.047 A 
ATOM     70  O   UNL     1       0.009  -1.648  -0.925  1.00  0.00    -0.288 OA
ATOM     71  C   UNL     1       1.290  -5.021  -1.119  1.00  0.00     0.054 A 
ATOM     72  C   UNL     1       0.039  -3.738  -2.790  1.00  0.00     0.016 A 
ATOM     73  C   UNL     1       1.287  -6.102  -2.024  1.00  0.00     0.053 A 
ATOM     74  C   UNL     1       0.097  -4.812  -3.680  1.00  0.00     0.027 A 
ATOM     75  C   UNL     1       0.710  -6.012  -3.313  1.00  0.00     0.039 A 
BRANCH  68  76
ATOM     76  C   UNL     1       2.284  -6.291   0.861  1.00  0.00     0.087 C 
ATOM     77  C   UNL     1       3.084  -6.413   2.143  1.00  0.00     0.027 C 
ATOM     78  C   UNL     1       1.599  -6.574   2.176  1.00  0.00     0.027 C 
ENDBRANCH  68  76
BRANCH  75  79
ATOM     79  N   UNL     1       0.750  -7.098  -4.166  1.00  0.00    -0.360 N 
ATOM     80  C   UNL     1      -0.035  -8.286  -3.808  1.00  0.00     0.178 C 
ATOM     81  C   UNL     1       1.141  -6.990  -5.580  1.00  0.00     0.178 C 
ATOM     82  C   UNL     1      -1.220  -8.454  -4.790  1.00  0.00     0.282 C 
ATOM     83  C   UNL     1      -0.047  -7.282  -6.530  1.00  0.00     0.282 C 
ATOM     84  N   UNL     1      -0.802  -8.514  -6.208  1.00  0.00    -0.343 N 
ATOM     85  H   UNL     1      -1.625  -8.579  -6.807  1.00  0.00     0.346 HD
ATOM     86  H   UNL     1      -0.215  -9.334  -6.364  1.00  0.00     0.346 HD
ENDBRANCH  75  79
ENDBRANCH  63  65
ENDBRANCH  62  63
ENDBRANCH  61  62
ENDBRANCH   1  61
TORSDOF 13
