REMARK SMILES O=C(OCCOC(=O)[C@@H]1CCCC[C@H]1C(=O)Nc1cnn(Cc2ccc(Cl)c(Cl)c2)c1)c1ccc(-c2c3nc(c(-c4c(F)cccc4F)c4ccc([nH]4)c(-c4c(F)cccc4F)c4nc(c(-c5c(F)cccc5F)c5ccc2[nH]5)C=C4)C=C3)cc1
REMARK SMILES IDX 5 1 4 2 3 3 2 4 1 5 32 6 33 7 85 8 34 9 84 10 35 11 36 12
REMARK SMILES IDX 37 13 78 14 38 15 83 16 77 17 79 18 39 19 82 20 76 21 75 22
REMARK SMILES IDX 40 24 66 25 49 26 65 27 50 28 53 29 64 30 80 31 51 32 52 33
REMARK SMILES IDX 63 35 81 36 54 37 41 38 42 39 47 40 43 41 44 42 46 43 48 44
REMARK SMILES IDX 45 45 67 46 68 47 73 48 69 49 70 50 72 51 74 52 71 53 55 54
REMARK SMILES IDX 56 55 61 56 57 57 58 58 60 59 62 60 59 61 6 62 7 63 8 64
REMARK SMILES IDX 9 65 10 66 14 67 11 68 13 69 12 70 15 71 16 72 17 73 18 75
REMARK SMILES IDX 19 76 31 77 20 78 21 79 22 80 23 81 24 82 30 83 25 84 28 85
REMARK SMILES IDX 26 86 29 87 27 88
REMARK H PARENT 79 23 53 34 17 74
REMARK Flexibility Score: inf
ROOT
ATOM      1  C   UNL     1       4.880   1.635  -0.307  1.00  0.00     0.274 C 
ENDROOT
BRANCH   1   2
ATOM      2  C   UNL     1       5.234   0.428  -1.192  1.00  0.00     0.275 C 
BRANCH   2   3
ATOM      3  O   UNL     1       4.151  -0.356  -1.701  1.00  0.00    -0.458 OA
BRANCH   3   4
ATOM      4  C   UNL     1       3.061  -0.472  -0.933  1.00  0.00     0.338 C 
ATOM      5  O   UNL     1       2.001   0.103  -1.167  1.00  0.00    -0.246 OA
BRANCH   4   6
ATOM      6  C   UNL     1       3.149  -1.528   0.096  1.00  0.00     0.060 A 
ATOM      7  C   UNL     1       4.282  -1.871   0.860  1.00  0.00     0.016 A 
ATOM      8  C   UNL     1       1.929  -2.124   0.365  1.00  0.00     0.016 A 
ATOM      9  C   UNL     1       4.200  -2.843   1.860  1.00  0.00     0.010 A 
ATOM     10  C   UNL     1       1.835  -2.994   1.418  1.00  0.00     0.010 A 
ATOM     11  C   UNL     1       2.967  -3.426   2.127  1.00  0.00    -0.014 A 
BRANCH  11  12
ATOM     12  C   UNL     1       2.765  -4.438   3.172  1.00  0.00     0.031 A 
ATOM     13  C   UNL     1       3.182  -4.139   4.598  1.00  0.00     0.074 A 
ATOM     14  C   UNL     1       1.906  -5.445   2.880  1.00  0.00     0.049 A 
ATOM     15  N   UNL     1       3.650  -4.935   5.510  1.00  0.00    -0.248 NA
ATOM     16  C   UNL     1       3.055  -2.768   5.098  1.00  0.00     0.031 C 
ATOM     17  C   UNL     1       1.230  -5.764   1.605  1.00  0.00     0.029 A 
ATOM     18  N   UNL     1       1.331  -6.331   3.725  1.00  0.00    -0.354 N 
ATOM     19  C   UNL     1       3.691  -4.209   6.713  1.00  0.00     0.074 A 
ATOM     20  C   UNL     1       3.301  -2.867   6.402  1.00  0.00     0.031 C 
ATOM     21  C   UNL     1       0.158  -6.550   1.836  1.00  0.00     0.029 A 
ATOM     22  C   UNL     1       0.217  -6.982   3.215  1.00  0.00     0.049 A 
ATOM     23  H   UNL     1       1.675  -6.500   4.632  1.00  0.00     0.167 HD
ATOM     24  C   UNL     1       3.960  -4.778   7.920  1.00  0.00     0.037 A 
ATOM     25  C   UNL     1      -0.593  -7.838   3.877  1.00  0.00     0.037 A 
ATOM     26  C   UNL     1       4.718  -5.984   7.760  1.00  0.00     0.049 A 
ATOM     27  C   UNL     1       0.180  -8.320   5.049  1.00  0.00     0.074 A 
ATOM     28  C   UNL     1       5.957  -6.250   7.207  1.00  0.00     0.029 A 
ATOM     29  N   UNL     1       4.055  -7.185   7.763  1.00  0.00    -0.354 N 
ATOM     30  N   UNL     1       1.277  -9.023   4.939  1.00  0.00    -0.248 NA
ATOM     31  C   UNL     1       0.024  -7.585   6.296  1.00  0.00     0.031 C 
ATOM     32  C   UNL     1       5.727  -7.391   6.383  1.00  0.00     0.029 A 
ATOM     33  C   UNL     1       4.407  -7.801   6.586  1.00  0.00     0.049 A 
ATOM     34  H   UNL     1       3.454  -7.533   8.461  1.00  0.00     0.167 HD
ATOM     35  C   UNL     1       2.129  -8.512   5.906  1.00  0.00     0.074 A 
ATOM     36  C   UNL     1       1.279  -7.662   6.747  1.00  0.00     0.031 C 
ATOM     37  C   UNL     1       3.490  -8.579   5.786  1.00  0.00     0.037 A 
BRANCH  24  38
ATOM     38  C   UNL     1       3.302  -4.397   9.220  1.00  0.00     0.057 A 
ATOM     39  C   UNL     1       3.769  -4.945  10.429  1.00  0.00     0.134 A 
ATOM     40  C   UNL     1       2.036  -3.782   9.287  1.00  0.00     0.134 A 
ATOM     41  F   UNL     1       4.968  -5.545  10.495  1.00  0.00    -0.206 F 
ATOM     42  C   UNL     1       2.989  -4.971  11.593  1.00  0.00     0.040 A 
ATOM     43  C   UNL     1       1.263  -3.772  10.454  1.00  0.00     0.040 A 
ATOM     44  F   UNL     1       1.450  -3.251   8.206  1.00  0.00    -0.206 F 
ATOM     45  C   UNL     1       1.723  -4.401  11.602  1.00  0.00     0.006 A 
ENDBRANCH  24  38
BRANCH  25  46
ATOM     46  C   UNL     1      -2.050  -8.013   3.715  1.00  0.00     0.057 A 
ATOM     47  C   UNL     1      -2.696  -9.181   4.131  1.00  0.00     0.134 A 
ATOM     48  C   UNL     1      -2.883  -6.931   3.373  1.00  0.00     0.134 A 
ATOM     49  F   UNL     1      -1.982 -10.251   4.509  1.00  0.00    -0.206 F 
ATOM     50  C   UNL     1      -4.092  -9.267   4.221  1.00  0.00     0.040 A 
ATOM     51  C   UNL     1      -4.278  -7.002   3.457  1.00  0.00     0.040 A 
ATOM     52  F   UNL     1      -2.365  -5.743   3.023  1.00  0.00    -0.206 F 
ATOM     53  C   UNL     1      -4.888  -8.171   3.894  1.00  0.00     0.006 A 
ENDBRANCH  25  46
BRANCH  37  54
ATOM     54  C   UNL     1       4.088  -9.305   4.604  1.00  0.00     0.057 A 
ATOM     55  C   UNL     1       3.944  -8.895   3.269  1.00  0.00     0.134 A 
ATOM     56  C   UNL     1       5.019 -10.319   4.831  1.00  0.00     0.134 A 
ATOM     57  F   UNL     1       3.177  -7.858   2.942  1.00  0.00    -0.206 F 
ATOM     58  C   UNL     1       4.651  -9.479   2.213  1.00  0.00     0.040 A 
ATOM     59  C   UNL     1       5.758 -10.896   3.791  1.00  0.00     0.040 A 
ATOM     60  F   UNL     1       5.280 -10.725   6.083  1.00  0.00    -0.206 F 
ATOM     61  C   UNL     1       5.570 -10.482   2.475  1.00  0.00     0.006 A 
ENDBRANCH  37  54
ENDBRANCH  11  12
ENDBRANCH   4   6
ENDBRANCH   3   4
ENDBRANCH   2   3
ENDBRANCH   1   2
BRANCH   1  62
ATOM     62  O   UNL     1       4.141   1.328   0.909  1.00  0.00    -0.462 OA
BRANCH  62  63
ATOM     63  C   UNL     1       2.972   2.025   1.069  1.00  0.00     0.309 C 
ATOM     64  O   UNL     1       2.494   2.760   0.210  1.00  0.00    -0.252 OA
BRANCH  63  65
ATOM     65  C   UNL     1       2.409   2.032   2.490  1.00  0.00     0.111 C 
ATOM     66  C   UNL     1       3.166   3.171   3.196  1.00  0.00     0.016 C 
ATOM     67  C   UNL     1       2.377   0.707   3.280  1.00  0.00     0.093 C 
ATOM     68  C   UNL     1       2.782   3.318   4.655  1.00  0.00     0.001 C 
ATOM     69  C   UNL     1       2.281   0.905   4.819  1.00  0.00     0.014 C 
ATOM     70  C   UNL     1       3.117   2.035   5.382  1.00  0.00     0.001 C 
BRANCH  67  71
ATOM     71  C   UNL     1       1.207  -0.240   2.955  1.00  0.00     0.228 C 
ATOM     72  O   UNL     1       1.065  -1.321   3.530  1.00  0.00    -0.274 OA
ATOM     73  N   UNL     1       0.207   0.141   2.106  1.00  0.00    -0.323 N 
ATOM     74  H   UNL     1       0.255   0.017   1.130  1.00  0.00     0.170 HD
BRANCH  73  75
ATOM     75  C   UNL     1      -0.884   0.720   2.742  1.00  0.00     0.079 A 
ATOM     76  C   UNL     1      -1.385   2.021   2.631  1.00  0.00     0.161 A 
ATOM     77  C   UNL     1      -1.671   0.100   3.685  1.00  0.00     0.135 A 
ATOM     78  N   UNL     1      -2.392   2.237   3.481  1.00  0.00    -0.179 NA
ATOM     79  N   UNL     1      -2.464   1.087   4.193  1.00  0.00    -0.266 N 
BRANCH  79  80
ATOM     80  C   UNL     1      -3.340   0.980   5.355  1.00  0.00     0.179 C 
BRANCH  80  81
ATOM     81  C   UNL     1      -2.832   1.712   6.585  1.00  0.00    -0.025 A 
ATOM     82  C   UNL     1      -2.342   3.026   6.521  1.00  0.00     0.007 A 
ATOM     83  C   UNL     1      -2.964   1.121   7.854  1.00  0.00     0.027 A 
ATOM     84  C   UNL     1      -1.999   3.730   7.678  1.00  0.00     0.022 A 
ATOM     85  C   UNL     1      -2.632   1.828   9.019  1.00  0.00     0.060 A 
ATOM     86  C   UNL     1      -2.155   3.139   8.931  1.00  0.00     0.059 A 
ATOM     87  Cl  UNL     1      -2.867   1.031  10.535  1.00  0.00    -0.083 Cl
ATOM     88  Cl  UNL     1      -1.771   4.088  10.322  1.00  0.00    -0.083 Cl
ENDBRANCH  80  81
ENDBRANCH  79  80
ENDBRANCH  73  75
ENDBRANCH  67  71
ENDBRANCH  63  65
ENDBRANCH  62  63
ENDBRANCH   1  62
TORSDOF 15
