REMARK SMILES C[NH+](C)C(C)(C)CNC(=O)N[C@H]1CCCCC[C@@H]1C(=O)OCCOC(=O)c1ccc(-c2c3nc(c(-c4c(F)cccc4F)c4ccc([nH]4)c(-c4c(F)cccc4F)c4nc(c(-c5c(F)cccc5F)c5ccc2[nH]5)C=C4)C=C3)cc1
REMARK SMILES IDX 21 1 19 2 20 3 18 4 12 5 11 6 8 7 9 8 10 10 7 12 4 13 5 14
REMARK SMILES IDX 6 15 2 16 1 17 3 18 13 20 14 21 17 23 16 24 15 25 22 27
REMARK SMILES IDX 23 28 24 29 25 30 26 31 27 32 28 33 80 34 29 35 79 36 30 37
REMARK SMILES IDX 31 38 32 39 73 40 33 41 78 42 72 43 74 44 34 45 77 46 71 47
REMARK SMILES IDX 70 48 35 50 61 51 44 52 60 53 45 54 48 55 59 56 75 57 46 58
REMARK SMILES IDX 47 59 58 61 76 62 49 63 36 64 37 65 42 66 38 67 39 68 41 69
REMARK SMILES IDX 43 70 40 71 62 72 63 73 68 74 64 75 65 76 67 77 69 78 66 79
REMARK SMILES IDX 50 80 51 81 56 82 52 83 53 84 55 85 57 86 54 87
REMARK H PARENT 8 9 11 11 2 19 74 49 48 60
REMARK Flexibility Score: 100.00
ROOT
ATOM      1  O   UNL     1       0.168  -0.058  -2.555  1.00  0.00    -0.462 OA
ENDROOT
BRANCH   1   2
ATOM      2  C   UNL     1      -0.385   0.905  -3.346  1.00  0.00     0.311 C 
ATOM      3  O   UNL     1      -0.750   0.726  -4.501  1.00  0.00    -0.252 OA
BRANCH   2   4
ATOM      4  C   UNL     1      -0.443   2.243  -2.611  1.00  0.00     0.121 C 
BRANCH   4   5
ATOM      5  C   UNL     1      -1.557   3.107  -3.218  1.00  0.00     0.098 C 
BRANCH   5   6
ATOM      6  N   UNL     1      -2.908   3.115  -2.595  1.00  0.00    -0.335 N 
ATOM      7  N   UNL     1      -3.399   2.301  -0.393  1.00  0.00    -0.332 N 
ATOM      8  C   UNL     1      -3.652   2.939  -1.520  1.00  0.00     0.315 C 
ATOM      9  H   UNL     1      -4.085   2.524   0.277  1.00  0.00     0.165 HD
ATOM     10  O   UNL     1      -4.782   3.441  -1.597  1.00  0.00    -0.249 OA
ATOM     11  H   UNL     1      -3.531   3.368  -3.314  1.00  0.00     0.165 HD
BRANCH   7  12
ATOM     12  C   UNL     1      -2.438   1.378   0.179  1.00  0.00     0.185 C 
BRANCH  12  13
ATOM     13  C   UNL     1      -1.714   1.836   1.524  1.00  0.00     0.109 C 
ATOM     14  C   UNL     1      -0.237   1.381   1.406  1.00  0.00     0.080 C 
ATOM     15  C   UNL     1      -2.353   0.987   2.661  1.00  0.00     0.080 C 
BRANCH  13  16
ATOM     16  N   UNL     1      -1.857   3.257   1.978  1.00  0.00    -0.334 N 
ATOM     17  C   UNL     1      -0.882   3.704   2.977  1.00  0.00     0.333 C 
ATOM     18  C   UNL     1      -1.958   4.273   0.939  1.00  0.00     0.333 C 
ATOM     19  H   UNL     1      -2.772   3.186   2.422  1.00  0.00     0.348 HD
ENDBRANCH  13  16
ENDBRANCH  12  13
ENDBRANCH   7  12
ENDBRANCH   5   6
BRANCH   5  20
ATOM     20  C   UNL     1      -1.155   4.549  -3.601  1.00  0.00     0.026 C 
BRANCH  20  21
ATOM     21  C   UNL     1      -0.764   5.460  -2.447  1.00  0.00     0.002 CG0
ATOM     22  G   UNL     1       0.689   5.332  -2.008  1.00  0.00     0.000 G0
ENDBRANCH  20  21
ENDBRANCH   5  20
ENDBRANCH   4   5
BRANCH   4  23
ATOM     23  C   UNL     1       0.975   2.839  -2.597  1.00  0.00     0.017 C 
BRANCH  23  24
ATOM     24  C   UNL     1       1.147   3.951  -1.563  1.00  0.00     0.001 C 
BRANCH  24  25
ATOM     25  C   UNL     1       0.689   5.332  -2.008  1.00  0.00     0.000 CG0
ATOM     26  G   UNL     1      -0.764   5.460  -2.447  1.00  0.00     0.000 G0
ENDBRANCH  24  25
ENDBRANCH  23  24
ENDBRANCH   4  23
ENDBRANCH   2   4
ENDBRANCH   1   2
BRANCH   1  27
ATOM     27  C   UNL     1       0.213  -1.385  -3.120  1.00  0.00     0.274 C 
BRANCH  27  28
ATOM     28  C   UNL     1      -0.682  -2.297  -2.292  1.00  0.00     0.275 C 
BRANCH  28  29
ATOM     29  O   UNL     1      -2.031  -1.804  -2.350  1.00  0.00    -0.458 OA
BRANCH  29  30
ATOM     30  C   UNL     1      -2.840  -2.259  -1.365  1.00  0.00     0.338 C 
ATOM     31  O   UNL     1      -2.527  -3.060  -0.493  1.00  0.00    -0.246 OA
BRANCH  30  32
ATOM     32  C   UNL     1      -4.184  -1.639  -1.454  1.00  0.00     0.060 A 
ATOM     33  C   UNL     1      -4.394  -0.419  -2.099  1.00  0.00     0.016 A 
ATOM     34  C   UNL     1      -5.253  -2.259  -0.799  1.00  0.00     0.016 A 
ATOM     35  C   UNL     1      -5.646   0.204  -2.029  1.00  0.00     0.010 A 
ATOM     36  C   UNL     1      -6.523  -1.667  -0.799  1.00  0.00     0.010 A 
ATOM     37  C   UNL     1      -6.734  -0.412  -1.393  1.00  0.00    -0.014 A 
BRANCH  37  38
ATOM     38  C   UNL     1      -8.078   0.240  -1.327  1.00  0.00     0.031 A 
ATOM     39  C   UNL     1      -8.766   0.442   0.002  1.00  0.00     0.074 A 
ATOM     40  C   UNL     1      -8.716   0.641  -2.446  1.00  0.00     0.049 A 
ATOM     41  N   UNL     1     -10.024   0.710   0.255  1.00  0.00    -0.248 NA
ATOM     42  C   UNL     1      -7.931   0.307   1.205  1.00  0.00     0.031 C 
ATOM     43  C   UNL     1      -8.175   0.583  -3.805  1.00  0.00     0.029 A 
ATOM     44  N   UNL     1      -9.972   1.177  -2.616  1.00  0.00    -0.354 N 
ATOM     45  C   UNL     1     -10.144   0.711   1.640  1.00  0.00     0.074 A 
ATOM     46  C   UNL     1      -8.829   0.425   2.175  1.00  0.00     0.031 C 
ATOM     47  C   UNL     1      -9.073   1.096  -4.660  1.00  0.00     0.029 A 
ATOM     48  C   UNL     1     -10.293   1.421  -3.929  1.00  0.00     0.049 A 
ATOM     49  H   UNL     1     -10.582   1.367  -1.867  1.00  0.00     0.167 HD
ATOM     50  C   UNL     1     -11.250   0.923   2.394  1.00  0.00     0.037 A 
ATOM     51  C   UNL     1     -11.449   1.809  -4.500  1.00  0.00     0.037 A 
ATOM     52  C   UNL     1     -12.543   1.281   1.870  1.00  0.00     0.049 A 
ATOM     53  C   UNL     1     -12.670   2.009  -3.650  1.00  0.00     0.074 A 
ATOM     54  C   UNL     1     -13.722   1.510   2.562  1.00  0.00     0.029 A 
ATOM     55  N   UNL     1     -12.821   1.496   0.530  1.00  0.00    -0.354 N 
ATOM     56  N   UNL     1     -12.801   1.895  -2.352  1.00  0.00    -0.248 NA
ATOM     57  C   UNL     1     -13.915   2.361  -4.350  1.00  0.00     0.031 C 
ATOM     58  C   UNL     1     -14.719   1.841   1.637  1.00  0.00     0.029 A 
ATOM     59  C   UNL     1     -14.151   1.853   0.374  1.00  0.00     0.049 A 
ATOM     60  H   UNL     1     -12.170   1.407  -0.203  1.00  0.00     0.167 HD
ATOM     61  C   UNL     1     -14.133   2.171  -2.078  1.00  0.00     0.074 A 
ATOM     62  C   UNL     1     -14.769   2.475  -3.343  1.00  0.00     0.031 C 
ATOM     63  C   UNL     1     -14.773   2.165  -0.885  1.00  0.00     0.037 A 
BRANCH  50  64
ATOM     64  C   UNL     1     -11.129   0.743   3.879  1.00  0.00     0.057 A 
ATOM     65  C   UNL     1     -10.508   1.692   4.698  1.00  0.00     0.134 A 
ATOM     66  C   UNL     1     -11.711  -0.369   4.504  1.00  0.00     0.134 A 
ATOM     67  F   UNL     1      -9.924   2.774   4.162  1.00  0.00    -0.206 F 
ATOM     68  C   UNL     1     -10.459   1.536   6.085  1.00  0.00     0.040 A 
ATOM     69  C   UNL     1     -11.688  -0.525   5.891  1.00  0.00     0.040 A 
ATOM     70  F   UNL     1     -12.332  -1.311   3.777  1.00  0.00    -0.206 F 
ATOM     71  C   UNL     1     -11.058   0.429   6.686  1.00  0.00     0.006 A 
ENDBRANCH  50  64
BRANCH  51  72
ATOM     72  C   UNL     1     -11.524   1.976  -5.974  1.00  0.00     0.057 A 
ATOM     73  C   UNL     1     -11.675   3.241  -6.551  1.00  0.00     0.134 A 
ATOM     74  C   UNL     1     -11.447   0.876  -6.837  1.00  0.00     0.134 A 
ATOM     75  F   UNL     1     -11.786   4.329  -5.774  1.00  0.00    -0.206 F 
ATOM     76  C   UNL     1     -11.752   3.407  -7.934  1.00  0.00     0.040 A 
ATOM     77  C   UNL     1     -11.494   1.030  -8.223  1.00  0.00     0.040 A 
ATOM     78  F   UNL     1     -11.305  -0.364  -6.345  1.00  0.00    -0.206 F 
ATOM     79  C   UNL     1     -11.652   2.299  -8.775  1.00  0.00     0.006 A 
ENDBRANCH  51  72
BRANCH  63  80
ATOM     80  C   UNL     1     -16.226   2.534  -0.885  1.00  0.00     0.057 A 
ATOM     81  C   UNL     1     -17.211   1.645  -1.330  1.00  0.00     0.134 A 
ATOM     82  C   UNL     1     -16.644   3.783  -0.409  1.00  0.00     0.134 A 
ATOM     83  F   UNL     1     -16.873   0.439  -1.810  1.00  0.00    -0.206 F 
ATOM     84  C   UNL     1     -18.563   1.993  -1.320  1.00  0.00     0.040 A 
ATOM     85  C   UNL     1     -17.994   4.135  -0.376  1.00  0.00     0.040 A 
ATOM     86  F   UNL     1     -15.748   4.677   0.036  1.00  0.00    -0.206 F 
ATOM     87  C   UNL     1     -18.957   3.240  -0.837  1.00  0.00     0.006 A 
ENDBRANCH  63  80
ENDBRANCH  37  38
ENDBRANCH  30  32
ENDBRANCH  29  30
ENDBRANCH  28  29
ENDBRANCH  27  28
ENDBRANCH   1  27
TORSDOF 15
