REMARK SMILES O=C(OCCOC(=O)[C@H]1CC2(CC[NH+](C(=O)C3CC3)CC2)CN1C(=O)CCn1cccn1)c1ccc(-c2c3nc(c(-c4c(F)cccc4F)c4ccc([nH]4)c(-c4c(F)cccc4F)c4nc(c(-c5c(F)cccc5F)c5ccc2[nH]5)C=C4)C=C3)cc1
REMARK SMILES IDX 5 1 4 2 3 3 2 4 1 5 33 6 34 7 86 8 35 9 85 10 36 11 37 12
REMARK SMILES IDX 38 13 79 14 39 15 84 16 78 17 80 18 40 19 83 20 77 21 76 22
REMARK SMILES IDX 41 24 67 25 50 26 66 27 51 28 54 29 65 30 81 31 52 32 53 33
REMARK SMILES IDX 64 35 82 36 55 37 42 38 43 39 48 40 44 41 45 42 47 43 49 44
REMARK SMILES IDX 46 45 68 46 69 47 74 48 70 49 71 50 73 51 75 52 72 53 56 54
REMARK SMILES IDX 57 55 62 56 58 57 59 58 61 59 63 60 60 61 6 62 7 63 8 64
REMARK SMILES IDX 9 65 10 66 23 67 11 68 22 69 12 70 21 71 13 72 20 73 14 74
REMARK SMILES IDX 24 76 25 77 26 78 27 79 28 80 29 81 32 82 30 83 31 84 15 85
REMARK SMILES IDX 16 86 17 87 18 88 19 89
REMARK H PARENT 80 23 54 34 14 75
REMARK Flexibility Score: inf
ROOT
ATOM      1  C   UNL     1       0.880  -0.740  -1.362  1.00  0.00     0.274 C 
ENDROOT
BRANCH   1   2
ATOM      2  C   UNL     1       1.468  -1.027  -2.764  1.00  0.00     0.275 C 
BRANCH   2   3
ATOM      3  O   UNL     1       2.884  -1.090  -2.737  1.00  0.00    -0.458 OA
BRANCH   3   4
ATOM      4  C   UNL     1       3.422  -2.331  -2.625  1.00  0.00     0.338 C 
ATOM      5  O   UNL     1       2.948  -3.391  -2.958  1.00  0.00    -0.246 OA
BRANCH   4   6
ATOM      6  C   UNL     1       4.654  -2.168  -1.822  1.00  0.00     0.060 A 
ATOM      7  C   UNL     1       5.203  -0.899  -1.628  1.00  0.00     0.016 A 
ATOM      8  C   UNL     1       5.210  -3.292  -1.200  1.00  0.00     0.016 A 
ATOM      9  C   UNL     1       6.369  -0.779  -0.911  1.00  0.00     0.010 A 
ATOM     10  C   UNL     1       6.338  -3.159  -0.410  1.00  0.00     0.010 A 
ATOM     11  C   UNL     1       6.953  -1.919  -0.337  1.00  0.00    -0.014 A 
BRANCH  11  12
ATOM     12  C   UNL     1       8.234  -1.733   0.317  1.00  0.00     0.031 A 
ATOM     13  C   UNL     1       8.250  -0.623   1.302  1.00  0.00     0.074 A 
ATOM     14  C   UNL     1       9.340  -2.406  -0.054  1.00  0.00     0.049 A 
ATOM     15  N   UNL     1       8.649   0.586   1.080  1.00  0.00    -0.248 NA
ATOM     16  C   UNL     1       7.550  -0.795   2.579  1.00  0.00     0.031 C 
ATOM     17  C   UNL     1       9.489  -3.617  -0.863  1.00  0.00     0.029 A 
ATOM     18  N   UNL     1      10.626  -2.084   0.248  1.00  0.00    -0.354 N 
ATOM     19  C   UNL     1       8.417   1.297   2.250  1.00  0.00     0.074 A 
ATOM     20  C   UNL     1       7.612   0.441   3.083  1.00  0.00     0.031 C 
ATOM     21  C   UNL     1      10.771  -4.049  -0.800  1.00  0.00     0.029 A 
ATOM     22  C   UNL     1      11.560  -3.047  -0.108  1.00  0.00     0.049 A 
ATOM     23  H   UNL     1      10.874  -1.237   0.684  1.00  0.00     0.167 HD
ATOM     24  C   UNL     1       9.090   2.454   2.495  1.00  0.00     0.037 A 
ATOM     25  C   UNL     1      12.888  -3.000   0.165  1.00  0.00     0.037 A 
ATOM     26  C   UNL     1       9.643   2.994   1.276  1.00  0.00     0.049 A 
ATOM     27  C   UNL     1      13.238  -1.566   0.353  1.00  0.00     0.074 A 
ATOM     28  C   UNL     1       9.103   3.491   0.106  1.00  0.00     0.029 A 
ATOM     29  N   UNL     1      10.954   2.697   0.988  1.00  0.00    -0.354 N 
ATOM     30  N   UNL     1      13.209  -0.697  -0.622  1.00  0.00    -0.248 NA
ATOM     31  C   UNL     1      13.103  -1.009   1.692  1.00  0.00     0.031 C 
ATOM     32  C   UNL     1       9.953   2.998  -0.927  1.00  0.00     0.029 A 
ATOM     33  C   UNL     1      11.007   2.308  -0.326  1.00  0.00     0.049 A 
ATOM     34  H   UNL     1      11.715   2.753   1.610  1.00  0.00     0.167 HD
ATOM     35  C   UNL     1      12.633   0.439  -0.069  1.00  0.00     0.074 A 
ATOM     36  C   UNL     1      12.633   0.202   1.375  1.00  0.00     0.031 C 
ATOM     37  C   UNL     1      11.947   1.336  -0.836  1.00  0.00     0.037 A 
BRANCH  24  38
ATOM     38  C   UNL     1       9.596   2.869   3.853  1.00  0.00     0.057 A 
ATOM     39  C   UNL     1      10.275   4.096   3.983  1.00  0.00     0.134 A 
ATOM     40  C   UNL     1       9.739   1.988   4.942  1.00  0.00     0.134 A 
ATOM     41  F   UNL     1      10.208   5.027   3.019  1.00  0.00    -0.206 F 
ATOM     42  C   UNL     1      11.125   4.372   5.060  1.00  0.00     0.040 A 
ATOM     43  C   UNL     1      10.552   2.271   6.042  1.00  0.00     0.040 A 
ATOM     44  F   UNL     1       9.189   0.769   4.962  1.00  0.00    -0.206 F 
ATOM     45  C   UNL     1      11.280   3.449   6.086  1.00  0.00     0.006 A 
ENDBRANCH  24  38
BRANCH  25  46
ATOM     46  C   UNL     1      13.718  -4.105   0.700  1.00  0.00     0.057 A 
ATOM     47  C   UNL     1      15.117  -4.024   0.719  1.00  0.00     0.134 A 
ATOM     48  C   UNL     1      13.150  -5.142   1.463  1.00  0.00     0.134 A 
ATOM     49  F   UNL     1      15.749  -3.042   0.061  1.00  0.00    -0.206 F 
ATOM     50  C   UNL     1      15.905  -4.911   1.468  1.00  0.00     0.040 A 
ATOM     51  C   UNL     1      13.923  -6.032   2.214  1.00  0.00     0.040 A 
ATOM     52  F   UNL     1      11.819  -5.268   1.575  1.00  0.00    -0.206 F 
ATOM     53  C   UNL     1      15.307  -5.912   2.229  1.00  0.00     0.006 A 
ENDBRANCH  25  46
BRANCH  37  54
ATOM     54  C   UNL     1      11.996   1.181  -2.330  1.00  0.00     0.057 A 
ATOM     55  C   UNL     1      11.417   0.112  -3.032  1.00  0.00     0.134 A 
ATOM     56  C   UNL     1      12.476   2.252  -3.091  1.00  0.00     0.134 A 
ATOM     57  F   UNL     1      10.851  -0.915  -2.385  1.00  0.00    -0.206 F 
ATOM     58  C   UNL     1      11.339   0.106  -4.430  1.00  0.00     0.040 A 
ATOM     59  C   UNL     1      12.378   2.271  -4.484  1.00  0.00     0.040 A 
ATOM     60  F   UNL     1      12.992   3.332  -2.484  1.00  0.00    -0.206 F 
ATOM     61  C   UNL     1      11.812   1.193  -5.159  1.00  0.00     0.006 A 
ENDBRANCH  37  54
ENDBRANCH  11  12
ENDBRANCH   4   6
ENDBRANCH   3   4
ENDBRANCH   2   3
ENDBRANCH   1   2
BRANCH   1  62
ATOM     62  O   UNL     1       1.763  -0.841  -0.207  1.00  0.00    -0.461 OA
BRANCH  62  63
ATOM     63  C   UNL     1       1.991  -2.130   0.154  1.00  0.00     0.328 C 
ATOM     64  O   UNL     1       1.645  -3.041  -0.569  1.00  0.00    -0.250 OA
BRANCH  63  65
ATOM     65  C   UNL     1       2.755  -2.354   1.454  1.00  0.00     0.195 C 
ATOM     66  C   UNL     1       2.045  -2.127   2.797  1.00  0.00     0.046 C 
ATOM     67  N   UNL     1       3.435  -3.647   1.722  1.00  0.00    -0.328 N 
ATOM     68  C   UNL     1       3.018  -2.740   3.875  1.00  0.00     0.001 C 
ATOM     69  C   UNL     1       4.101  -3.442   3.014  1.00  0.00     0.128 C 
ATOM     70  C   UNL     1       2.348  -3.806   4.769  1.00  0.00     0.071 C 
ATOM     71  C   UNL     1       3.602  -1.661   4.811  1.00  0.00     0.071 C 
ATOM     72  C   UNL     1       1.321  -3.233   5.737  1.00  0.00     0.270 C 
ATOM     73  C   UNL     1       2.548  -1.105   5.782  1.00  0.00     0.270 C 
ATOM     74  N   UNL     1       1.885  -2.165   6.551  1.00  0.00    -0.272 N 
ATOM     75  H   UNL     1       1.621  -1.770   5.688  1.00  0.00     0.356 HD
BRANCH  67  76
ATOM     76  C   UNL     1       3.057  -4.958   1.410  1.00  0.00     0.225 C 
ATOM     77  O   UNL     1       3.422  -5.879   2.160  1.00  0.00    -0.275 OA
BRANCH  76  78
ATOM     78  C   UNL     1       2.412  -5.403   0.089  1.00  0.00     0.124 C 
BRANCH  78  79
ATOM     79  C   UNL     1       0.901  -5.548  -0.195  1.00  0.00     0.154 C 
BRANCH  79  80
ATOM     80  N   UNL     1      -0.077  -4.761   0.521  1.00  0.00    -0.272 N 
ATOM     81  C   UNL     1      -0.347  -4.788   1.859  1.00  0.00     0.108 A 
ATOM     82  N   UNL     1      -0.917  -3.937  -0.152  1.00  0.00    -0.182 NA
ATOM     83  C   UNL     1      -1.236  -3.759   2.084  1.00  0.00     0.042 A 
ATOM     84  C   UNL     1      -1.537  -3.255   0.809  1.00  0.00     0.135 A 
ENDBRANCH  79  80
ENDBRANCH  78  79
ENDBRANCH  76  78
ENDBRANCH  67  76
BRANCH  74  85
ATOM     85  C   UNL     1       1.734  -1.964   7.929  1.00  0.00     0.315 C 
ATOM     86  O   UNL     1       2.183  -0.948   8.461  1.00  0.00    -0.231 OA
BRANCH  85  87
ATOM     87  C   UNL     1       1.076  -2.922   8.875  1.00  0.00     0.119 C 
ATOM     88  C   UNL     1       0.051  -3.994   8.651  1.00  0.00     0.019 C 
ATOM     89  C   UNL     1       1.483  -4.375   8.922  1.00  0.00     0.019 C 
ENDBRANCH  85  87
ENDBRANCH  74  85
ENDBRANCH  63  65
ENDBRANCH  62  63
ENDBRANCH   1  62
TORSDOF 17
