REMARK SMILES Cc1[nH]c2ccccc2c1[C@@H](C(=O)OCCOC(=O)c1ccc(-c2c3nc(c(-c4c(F)cccc4F)c4ccc([nH]4)c(-c4c(F)cccc4F)c4nc(c(-c5c(F)cccc5F)c5ccc2[nH]5)C=C4)C=C3)cc1)[NH+]1CCCC1
REMARK SMILES IDX 16 1 15 2 14 3 12 4 13 5 11 6 10 7 1 8 2 9 3 10 4 11 9 13
REMARK SMILES IDX 5 14 8 15 6 16 7 17 74 18 75 19 78 20 76 22 77 23 17 24
REMARK SMILES IDX 18 25 19 26 20 27 21 28 73 29 22 30 72 31 23 32 24 33 25 34
REMARK SMILES IDX 66 35 26 36 71 37 65 38 67 39 27 40 70 41 64 42 63 43 28 45
REMARK SMILES IDX 54 46 37 47 53 48 38 49 41 50 52 51 68 52 39 53 40 54 51 56
REMARK SMILES IDX 69 57 42 58 29 59 30 60 35 61 31 62 32 63 34 64 36 65 33 66
REMARK SMILES IDX 55 67 56 68 61 69 57 70 58 71 60 72 62 73 59 74 43 75 44 76
REMARK SMILES IDX 49 77 45 78 46 79 48 80 50 81 47 82
REMARK H PARENT 3 12 74 21 67 44 41 55
REMARK Flexibility Score: inf
ROOT
ATOM      1  C   UNL     1       0.374  -4.138  -3.409  1.00  0.00     0.275 C 
ENDROOT
BRANCH   1   2
ATOM      2  C   UNL     1      -1.002  -3.508  -3.202  1.00  0.00     0.274 C 
BRANCH   2   3
ATOM      3  O   UNL     1      -1.006  -2.585  -2.092  1.00  0.00    -0.457 OA
BRANCH   3   4
ATOM      4  C   UNL     1      -1.460  -3.091  -0.908  1.00  0.00     0.370 C 
ATOM      5  O   UNL     1      -1.777  -4.272  -0.764  1.00  0.00    -0.245 OA
BRANCH   4   6
ATOM      6  C   UNL     1      -1.721  -2.024   0.169  1.00  0.00     0.328 C 
BRANCH   6   7
ATOM      7  C   UNL     1      -1.233  -0.613  -0.090  1.00  0.00     0.049 A 
ATOM      8  C   UNL     1      -3.549   0.636  -0.110  1.00  0.00     0.065 C 
ATOM      9  C   UNL     1      -2.068   0.503  -0.161  1.00  0.00     0.022 A 
ATOM     10  N   UNL     1      -1.280   1.619  -0.252  1.00  0.00    -0.358 N 
ATOM     11  C   UNL     1       0.045   1.275  -0.287  1.00  0.00     0.046 A 
ATOM     12  H   UNL     1      -1.620   2.542  -0.288  1.00  0.00     0.166 HD
ATOM     13  C   UNL     1       0.112  -0.120  -0.287  1.00  0.00     0.009 A 
ATOM     14  C   UNL     1       1.176   2.101  -0.321  1.00  0.00     0.027 A 
ATOM     15  C   UNL     1       1.392  -0.705  -0.416  1.00  0.00     0.011 A 
ATOM     16  C   UNL     1       2.428   1.489  -0.378  1.00  0.00     0.002 A 
ATOM     17  C   UNL     1       2.537   0.105  -0.444  1.00  0.00     0.001 A 
ENDBRANCH   6   7
BRANCH   6  18
ATOM     18  N   UNL     1      -1.473  -2.539   1.545  1.00  0.00    -0.319 N 
ATOM     19  C   UNL     1      -2.251  -1.885   2.596  1.00  0.00     0.263 C 
ATOM     20  C   UNL     1      -0.105  -2.573   2.044  1.00  0.00     0.263 C 
ATOM     21  H   UNL     1      -1.773  -3.498   1.373  1.00  0.00     0.349 HD
ATOM     22  C   UNL     1      -1.325  -0.864   3.236  1.00  0.00     0.067 C 
ATOM     23  C   UNL     1       0.079  -1.378   2.967  1.00  0.00     0.067 C 
ENDBRANCH   6  18
ENDBRANCH   4   6
ENDBRANCH   3   4
ENDBRANCH   2   3
ENDBRANCH   1   2
BRANCH   1  24
ATOM     24  O   UNL     1       0.766  -4.840  -2.218  1.00  0.00    -0.458 OA
BRANCH  24  25
ATOM     25  C   UNL     1       2.027  -4.621  -1.781  1.00  0.00     0.338 C 
ATOM     26  O   UNL     1       2.903  -4.008  -2.367  1.00  0.00    -0.246 OA
BRANCH  25  27
ATOM     27  C   UNL     1       2.212  -5.178  -0.417  1.00  0.00     0.060 A 
ATOM     28  C   UNL     1       1.134  -5.385   0.440  1.00  0.00     0.016 A 
ATOM     29  C   UNL     1       3.508  -5.387   0.063  1.00  0.00     0.016 A 
ATOM     30  C   UNL     1       1.351  -5.681   1.786  1.00  0.00     0.010 A 
ATOM     31  C   UNL     1       3.716  -5.778   1.394  1.00  0.00     0.010 A 
ATOM     32  C   UNL     1       2.642  -5.882   2.293  1.00  0.00    -0.014 A 
BRANCH  32  33
ATOM     33  C   UNL     1       2.865  -6.141   3.750  1.00  0.00     0.031 A 
ATOM     34  C   UNL     1       3.847  -5.305   4.540  1.00  0.00     0.074 A 
ATOM     35  C   UNL     1       2.179  -7.103   4.401  1.00  0.00     0.049 A 
ATOM     36  N   UNL     1       4.348  -5.522   5.732  1.00  0.00    -0.248 NA
ATOM     37  C   UNL     1       4.345  -4.077   3.901  1.00  0.00     0.031 C 
ATOM     38  C   UNL     1       1.158  -7.971   3.813  1.00  0.00     0.029 A 
ATOM     39  N   UNL     1       2.224  -7.498   5.718  1.00  0.00    -0.354 N 
ATOM     40  C   UNL     1       5.283  -4.515   5.944  1.00  0.00     0.074 A 
ATOM     41  C   UNL     1       5.263  -3.671   4.768  1.00  0.00     0.031 C 
ATOM     42  C   UNL     1       0.622  -8.738   4.774  1.00  0.00     0.029 A 
ATOM     43  C   UNL     1       1.339  -8.504   6.022  1.00  0.00     0.049 A 
ATOM     44  H   UNL     1       2.833  -7.099   6.380  1.00  0.00     0.167 HD
ATOM     45  C   UNL     1       6.090  -4.319   7.015  1.00  0.00     0.037 A 
ATOM     46  C   UNL     1       1.147  -9.203   7.157  1.00  0.00     0.037 A 
ATOM     47  C   UNL     1       6.043  -5.094   8.229  1.00  0.00     0.049 A 
ATOM     48  C   UNL     1       2.031  -8.953   8.341  1.00  0.00     0.074 A 
ATOM     49  C   UNL     1       6.816  -4.957   9.371  1.00  0.00     0.029 A 
ATOM     50  N   UNL     1       5.149  -6.123   8.477  1.00  0.00    -0.354 N 
ATOM     51  N   UNL     1       3.002  -8.084   8.477  1.00  0.00    -0.248 NA
ATOM     52  C   UNL     1       1.817  -9.808   9.517  1.00  0.00     0.031 C 
ATOM     53  C   UNL     1       6.401  -5.915  10.303  1.00  0.00     0.029 A 
ATOM     54  C   UNL     1       5.348  -6.626   9.753  1.00  0.00     0.049 A 
ATOM     55  H   UNL     1       4.473  -6.449   7.840  1.00  0.00     0.167 HD
ATOM     56  C   UNL     1       3.525  -8.297   9.745  1.00  0.00     0.074 A 
ATOM     57  C   UNL     1       2.739  -9.352  10.352  1.00  0.00     0.031 C 
ATOM     58  C   UNL     1       4.573  -7.684  10.344  1.00  0.00     0.037 A 
BRANCH  45  59
ATOM     59  C   UNL     1       7.129  -3.240   6.921  1.00  0.00     0.057 A 
ATOM     60  C   UNL     1       6.814  -1.882   7.043  1.00  0.00     0.134 A 
ATOM     61  C   UNL     1       8.482  -3.580   6.778  1.00  0.00     0.134 A 
ATOM     62  F   UNL     1       5.538  -1.489   7.170  1.00  0.00    -0.206 F 
ATOM     63  C   UNL     1       7.807  -0.900   7.015  1.00  0.00     0.040 A 
ATOM     64  C   UNL     1       9.484  -2.610   6.772  1.00  0.00     0.040 A 
ATOM     65  F   UNL     1       8.852  -4.865   6.665  1.00  0.00    -0.206 F 
ATOM     66  C   UNL     1       9.147  -1.264   6.889  1.00  0.00     0.006 A 
ENDBRANCH  45  59
BRANCH  46  67
ATOM     67  C   UNL     1       0.098 -10.251   7.203  1.00  0.00     0.057 A 
ATOM     68  C   UNL     1      -1.068 -10.071   7.954  1.00  0.00     0.134 A 
ATOM     69  C   UNL     1       0.225 -11.442   6.478  1.00  0.00     0.134 A 
ATOM     70  F   UNL     1      -1.231  -8.963   8.692  1.00  0.00    -0.206 F 
ATOM     71  C   UNL     1      -2.075 -11.036   7.979  1.00  0.00     0.040 A 
ATOM     72  C   UNL     1      -0.785 -12.403   6.472  1.00  0.00     0.040 A 
ATOM     73  F   UNL     1       1.321 -11.673   5.741  1.00  0.00    -0.206 F 
ATOM     74  C   UNL     1      -1.939 -12.202   7.226  1.00  0.00     0.006 A 
ENDBRANCH  46  67
BRANCH  58  75
ATOM     75  C   UNL     1       4.921  -8.140  11.727  1.00  0.00     0.057 A 
ATOM     76  C   UNL     1       5.578  -9.357  11.953  1.00  0.00     0.134 A 
ATOM     77  C   UNL     1       4.593  -7.362  12.843  1.00  0.00     0.134 A 
ATOM     78  F   UNL     1       5.906 -10.153  10.924  1.00  0.00    -0.206 F 
ATOM     79  C   UNL     1       5.872  -9.797  13.244  1.00  0.00     0.040 A 
ATOM     80  C   UNL     1       4.898  -7.783  14.139  1.00  0.00     0.040 A 
ATOM     81  F   UNL     1       3.967  -6.186  12.693  1.00  0.00    -0.206 F 
ATOM     82  C   UNL     1       5.533  -9.007  14.342  1.00  0.00     0.006 A 
ENDBRANCH  58  75
ENDBRANCH  32  33
ENDBRANCH  25  27
ENDBRANCH  24  25
ENDBRANCH   1  24
TORSDOF 13
