REMARK SMILES Cc1cc(C(=O)N[C@@H]2C(=O)N3C(C(=O)OCCOC(=O)c4ccc(-c5c6nc(c(-c7c(F)cccc7F)c7ccc([nH]7)c(-c7c(F)cccc7F)c7nc(c(-c8c(F)cccc8F)c8ccc5[nH]8)C=C7)C=C6)cc4)=C(CSc4nnc(C)s4)CS[C@H]23)n(C)n1
REMARK SMILES IDX 16 1 15 2 13 3 14 4 12 5 8 6 9 7 86 8 10 9 11 10 85 11 84 12
REMARK SMILES IDX 75 13 7 14 5 15 6 16 4 18 1 19 2 20 3 21 89 22 87 23 88 24
REMARK SMILES IDX 76 25 77 26 78 27 79 28 83 29 80 30 81 31 82 32 17 33 18 34
REMARK SMILES IDX 19 35 20 36 21 37 22 38 74 39 23 40 73 41 24 42 25 43 26 44
REMARK SMILES IDX 67 45 27 46 72 47 66 48 68 49 28 50 71 51 65 52 64 53 29 55
REMARK SMILES IDX 55 56 38 57 54 58 39 59 42 60 53 61 69 62 40 63 41 64 52 66
REMARK SMILES IDX 70 67 43 68 30 69 31 70 36 71 32 72 33 73 35 74 37 75 34 76
REMARK SMILES IDX 56 77 57 78 62 79 58 80 59 81 61 82 63 83 60 84 44 85 45 86
REMARK SMILES IDX 50 87 46 88 47 89 49 90 51 91 48 92
REMARK H PARENT 7 17 68 54 42 65
REMARK Flexibility Score: inf
ROOT
ATOM      1  C   UNL     1      -3.857   0.692  -3.374  1.00  0.00     0.275 C 
ENDROOT
BRANCH   1   2
ATOM      2  O   UNL     1      -3.976  -0.676  -2.934  1.00  0.00    -0.457 OA
BRANCH   2   3
ATOM      3  C   UNL     1      -2.840  -1.401  -2.903  1.00  0.00     0.355 C 
ATOM      4  O   UNL     1      -1.726  -1.000  -3.220  1.00  0.00    -0.244 OA
BRANCH   3   5
ATOM      5  C   UNL     1      -3.053  -2.822  -2.471  1.00  0.00     0.132 C 
ATOM      6  C   UNL     1      -0.839  -4.276  -0.331  1.00  0.00     0.206 C 
ATOM      7  C   UNL     1      -1.956  -3.181  -0.261  1.00  0.00     0.253 C 
ATOM      8  C   UNL     1      -1.596  -4.651  -1.651  1.00  0.00     0.181 C 
ATOM      9  O   UNL     1      -2.515  -2.536   0.597  1.00  0.00    -0.272 OA
ATOM     10  N   UNL     1      -2.108  -3.293  -1.607  1.00  0.00    -0.289 N 
ATOM     11  S   UNL     1      -3.003  -5.786  -1.502  1.00  0.00    -0.129 SA
ATOM     12  C   UNL     1      -3.824  -5.178  -2.992  1.00  0.00     0.106 C 
ATOM     13  C   UNL     1      -3.859  -3.665  -3.160  1.00  0.00    -0.019 C 
BRANCH   6  14
ATOM     14  N   UNL     1      -0.728  -5.217   0.801  1.00  0.00    -0.336 N 
ATOM     15  C   UNL     1      -0.189  -6.485   0.838  1.00  0.00     0.270 C 
ATOM     16  O   UNL     1      -0.120  -7.041   1.931  1.00  0.00    -0.268 OA
ATOM     17  H   UNL     1      -1.092  -4.891   1.655  1.00  0.00     0.164 HD
BRANCH  15  18
ATOM     18  C   UNL     1       0.188  -7.116  -0.403  1.00  0.00     0.126 A 
ATOM     19  C   UNL     1       0.501  -7.373  -4.028  1.00  0.00     0.069 C 
ATOM     20  C   UNL     1       0.472  -7.556  -2.558  1.00  0.00     0.060 A 
ATOM     21  C   UNL     1       0.759  -6.605  -1.557  1.00  0.00     0.059 A 
ATOM     22  N   UNL     1       0.056  -8.704  -2.024  1.00  0.00    -0.178 NA
ATOM     23  N   UNL     1      -0.005  -8.447  -0.698  1.00  0.00    -0.263 N 
ATOM     24  C   UNL     1      -0.334  -9.543   0.183  1.00  0.00     0.174 C 
ENDBRANCH  15  18
ENDBRANCH   6  14
BRANCH  13  25
ATOM     25  C   UNL     1      -4.788  -3.241  -4.276  1.00  0.00     0.111 C 
BRANCH  25  26
ATOM     26  S   UNL     1      -6.322  -2.409  -3.807  1.00  0.00    -0.089 SA
BRANCH  26  27
ATOM     27  C   UNL     1      -6.695  -2.986  -2.206  1.00  0.00     0.174 A 
ATOM     28  N   UNL     1      -6.627  -4.253  -1.865  1.00  0.00    -0.132 NA
ATOM     29  S   UNL     1      -7.293  -1.955  -0.975  1.00  0.00    -0.091 S 
ATOM     30  N   UNL     1      -7.054  -4.466  -0.568  1.00  0.00    -0.143 NA
ATOM     31  C   UNL     1      -7.460  -3.353   0.009  1.00  0.00     0.115 A 
ATOM     32  C   UNL     1      -8.060  -3.275   1.365  1.00  0.00     0.081 C 
ENDBRANCH  26  27
ENDBRANCH  25  26
ENDBRANCH  13  25
ENDBRANCH   3   5
ENDBRANCH   2   3
ENDBRANCH   1   2
BRANCH   1  33
ATOM     33  C   UNL     1      -4.018   1.638  -2.191  1.00  0.00     0.275 C 
BRANCH  33  34
ATOM     34  O   UNL     1      -2.883   1.501  -1.319  1.00  0.00    -0.458 OA
BRANCH  34  35
ATOM     35  C   UNL     1      -3.103   0.746  -0.218  1.00  0.00     0.338 C 
ATOM     36  O   UNL     1      -4.163   0.269   0.148  1.00  0.00    -0.246 OA
BRANCH  35  37
ATOM     37  C   UNL     1      -1.836   0.555   0.505  1.00  0.00     0.060 A 
ATOM     38  C   UNL     1      -0.834  -0.230  -0.059  1.00  0.00     0.016 A 
ATOM     39  C   UNL     1      -1.722   0.999   1.819  1.00  0.00     0.016 A 
ATOM     40  C   UNL     1       0.199  -0.707   0.743  1.00  0.00     0.010 A 
ATOM     41  C   UNL     1      -0.603   0.634   2.576  1.00  0.00     0.010 A 
ATOM     42  C   UNL     1       0.346  -0.269   2.067  1.00  0.00    -0.014 A 
BRANCH  42  43
ATOM     43  C   UNL     1       1.469  -0.773   2.913  1.00  0.00     0.031 A 
ATOM     44  C   UNL     1       1.203  -1.367   4.276  1.00  0.00     0.074 A 
ATOM     45  C   UNL     1       2.740  -0.706   2.464  1.00  0.00     0.049 A 
ATOM     46  N   UNL     1       2.051  -1.649   5.235  1.00  0.00    -0.248 NA
ATOM     47  C   UNL     1      -0.198  -1.667   4.612  1.00  0.00     0.031 C 
ATOM     48  C   UNL     1       3.153  -0.200   1.154  1.00  0.00     0.029 A 
ATOM     49  N   UNL     1       3.923  -1.071   3.059  1.00  0.00    -0.354 N 
ATOM     50  C   UNL     1       1.282  -2.087   6.309  1.00  0.00     0.074 A 
ATOM     51  C   UNL     1      -0.100  -2.036   5.882  1.00  0.00     0.031 C 
ATOM     52  C   UNL     1       4.478  -0.338   1.022  1.00  0.00     0.029 A 
ATOM     53  C   UNL     1       5.027  -0.819   2.282  1.00  0.00     0.049 A 
ATOM     54  H   UNL     1       3.975  -1.475   3.956  1.00  0.00     0.167 HD
ATOM     55  C   UNL     1       1.694  -2.488   7.537  1.00  0.00     0.037 A 
ATOM     56  C   UNL     1       6.342  -0.896   2.560  1.00  0.00     0.037 A 
ATOM     57  C   UNL     1       3.078  -2.599   7.932  1.00  0.00     0.049 A 
ATOM     58  C   UNL     1       6.774  -1.308   3.935  1.00  0.00     0.074 A 
ATOM     59  C   UNL     1       3.598  -3.024   9.143  1.00  0.00     0.029 A 
ATOM     60  N   UNL     1       4.160  -2.300   7.119  1.00  0.00    -0.354 N 
ATOM     61  N   UNL     1       6.037  -1.654   4.962  1.00  0.00    -0.248 NA
ATOM     62  C   UNL     1       8.219  -1.317   4.197  1.00  0.00     0.031 C 
ATOM     63  C   UNL     1       4.993  -2.936   9.078  1.00  0.00     0.029 A 
ATOM     64  C   UNL     1       5.345  -2.511   7.808  1.00  0.00     0.049 A 
ATOM     65  H   UNL     1       4.097  -1.984   6.188  1.00  0.00     0.167 HD
ATOM     66  C   UNL     1       6.927  -1.932   5.989  1.00  0.00     0.074 A 
ATOM     67  C   UNL     1       8.259  -1.737   5.453  1.00  0.00     0.031 C 
ATOM     68  C   UNL     1       6.664  -2.310   7.264  1.00  0.00     0.037 A 
BRANCH  55  69
ATOM     69  C   UNL     1       0.641  -2.798   8.566  1.00  0.00     0.057 A 
ATOM     70  C   UNL     1      -0.176  -3.933   8.491  1.00  0.00     0.134 A 
ATOM     71  C   UNL     1       0.476  -1.962   9.680  1.00  0.00     0.134 A 
ATOM     72  F   UNL     1      -0.079  -4.773   7.450  1.00  0.00    -0.206 F 
ATOM     73  C   UNL     1      -1.136  -4.210   9.469  1.00  0.00     0.040 A 
ATOM     74  C   UNL     1      -0.459  -2.243  10.678  1.00  0.00     0.040 A 
ATOM     75  F   UNL     1       1.232  -0.862   9.824  1.00  0.00    -0.206 F 
ATOM     76  C   UNL     1      -1.274  -3.367  10.570  1.00  0.00     0.006 A 
ENDBRANCH  55  69
BRANCH  56  77
ATOM     77  C   UNL     1       7.336  -0.515   1.524  1.00  0.00     0.057 A 
ATOM     78  C   UNL     1       8.175  -1.470   0.940  1.00  0.00     0.134 A 
ATOM     79  C   UNL     1       7.450   0.807   1.072  1.00  0.00     0.134 A 
ATOM     80  F   UNL     1       8.129  -2.747   1.345  1.00  0.00    -0.206 F 
ATOM     81  C   UNL     1       9.093  -1.124  -0.053  1.00  0.00     0.040 A 
ATOM     82  C   UNL     1       8.339   1.160   0.057  1.00  0.00     0.040 A 
ATOM     83  F   UNL     1       6.670   1.769   1.587  1.00  0.00    -0.206 F 
ATOM     84  C   UNL     1       9.168   0.193  -0.505  1.00  0.00     0.006 A 
ENDBRANCH  56  77
BRANCH  68  85
ATOM     85  C   UNL     1       7.845  -2.572   8.151  1.00  0.00     0.057 A 
ATOM     86  C   UNL     1       8.651  -1.534   8.636  1.00  0.00     0.134 A 
ATOM     87  C   UNL     1       8.172  -3.879   8.534  1.00  0.00     0.134 A 
ATOM     88  F   UNL     1       8.402  -0.261   8.293  1.00  0.00    -0.206 F 
ATOM     89  C   UNL     1       9.758  -1.790   9.448  1.00  0.00     0.040 A 
ATOM     90  C   UNL     1       9.259  -4.144   9.367  1.00  0.00     0.040 A 
ATOM     91  F   UNL     1       7.438  -4.917   8.109  1.00  0.00    -0.206 F 
ATOM     92  C   UNL     1      10.061  -3.098   9.820  1.00  0.00     0.006 A 
ENDBRANCH  68  85
ENDBRANCH  42  43
ENDBRANCH  35  37
ENDBRANCH  34  35
ENDBRANCH  33  34
ENDBRANCH   1  33
TORSDOF 16
