REMARK SMILES Cc1c[nH]c(C[N@H+]2C[C@@H]3CN(S(C)(=O)=O)C[C@]3(C(=O)OCCOC(=O)c3ccc(-c4c5nc(c(-c6c(F)cccc6F)c6ccc([nH]6)c(-c6c(F)cccc6F)c6nc(c(-c7c(F)cccc7F)c7ccc4[nH]7)C=C6)C=C5)cc3)C2)n1
REMARK SMILES IDX 21 1 20 2 18 3 19 4 17 5 7 6 8 7 80 8 9 10 10 11 16 12 11 13
REMARK SMILES IDX 6 14 5 15 1 16 2 17 3 18 81 19 4 20 12 22 13 23 14 24 15 25
REMARK SMILES IDX 22 26 23 27 24 28 25 29 26 30 27 31 79 32 28 33 78 34 29 35
REMARK SMILES IDX 30 36 31 37 72 38 32 39 77 40 71 41 73 42 33 43 76 44 70 45
REMARK SMILES IDX 69 46 34 48 60 49 43 50 59 51 44 52 47 53 58 54 74 55 45 56
REMARK SMILES IDX 46 57 57 59 75 60 48 61 35 62 36 63 41 64 37 65 38 66 40 67
REMARK SMILES IDX 42 68 39 69 61 70 62 71 67 72 63 73 64 74 66 75 68 76 65 77
REMARK SMILES IDX 49 78 50 79 55 80 51 81 52 82 54 83 56 84 53 85
REMARK H PARENT 7 9 4 21 73 47 47 58
REMARK Flexibility Score: inf
ROOT
ATOM      1  C   UNL     1      -0.328   7.464   2.223  1.00  0.00     0.274 C 
ENDROOT
BRANCH   1   2
ATOM      2  O   UNL     1      -0.968   6.329   2.868  1.00  0.00    -0.461 OA
BRANCH   2   3
ATOM      3  C   UNL     1      -0.975   5.168   2.142  1.00  0.00     0.319 C 
ATOM      4  O   UNL     1      -0.689   5.211   0.952  1.00  0.00    -0.251 OA
BRANCH   3   5
ATOM      5  C   UNL     1      -1.488   3.879   2.985  1.00  0.00     0.140 C 
ATOM      6  N   UNL     1      -2.799   2.060   1.704  1.00  0.00    -0.327 N 
ATOM      7  C   UNL     1      -2.387   1.454   2.938  1.00  0.00     0.268 C 
ATOM      8  C   UNL     1      -1.971   3.265   1.573  1.00  0.00     0.283 C 
ATOM      9  H   UNL     1      -3.796   2.270   1.741  1.00  0.00     0.348 HD
ATOM     10  C   UNL     1      -1.202   2.310   3.345  1.00  0.00     0.084 C 
ATOM     11  C   UNL     1      -0.987   2.114   4.841  1.00  0.00     0.113 C 
ATOM     12  C   UNL     1      -0.253   4.139   3.977  1.00  0.00     0.127 C 
ATOM     13  N   UNL     1      -0.581   3.441   5.250  1.00  0.00    -0.200 NA
BRANCH   6  14
ATOM     14  C   UNL     1      -2.707   1.185   0.514  1.00  0.00     0.338 C 
BRANCH  14  15
ATOM     15  C   UNL     1      -1.488   0.303   0.390  1.00  0.00     0.161 A 
ATOM     16  C   UNL     1       1.968  -0.588   0.539  1.00  0.00     0.068 C 
ATOM     17  C   UNL     1       0.496  -0.550   0.390  1.00  0.00     0.056 A 
ATOM     18  C   UNL     1      -0.345  -1.555  -0.028  1.00  0.00     0.107 A 
ATOM     19  N   UNL     1      -0.225   0.595   0.648  1.00  0.00    -0.233 NA
ATOM     20  N   UNL     1      -1.593  -1.002  -0.032  1.00  0.00    -0.344 N 
ATOM     21  H   UNL     1      -2.425  -1.460  -0.292  1.00  0.00     0.167 HD
ENDBRANCH  14  15
ENDBRANCH   6  14
BRANCH  13  22
ATOM     22  S   UNL     1      -1.535   4.226   6.412  1.00  0.00     0.211 S 
ATOM     23  C   UNL     1      -3.114   4.441   5.598  1.00  0.00     0.176 C 
ATOM     24  O   UNL     1      -1.736   3.307   7.506  1.00  0.00    -0.213 OA
ATOM     25  O   UNL     1      -0.979   5.548   6.633  1.00  0.00    -0.213 OA
ENDBRANCH  13  22
ENDBRANCH   3   5
ENDBRANCH   2   3
ENDBRANCH   1   2
BRANCH   1  26
ATOM     26  C   UNL     1       1.210   7.346   2.089  1.00  0.00     0.275 C 
BRANCH  26  27
ATOM     27  O   UNL     1       1.610   6.486   0.993  1.00  0.00    -0.458 OA
BRANCH  27  28
ATOM     28  C   UNL     1       2.449   5.459   1.287  1.00  0.00     0.338 C 
ATOM     29  O   UNL     1       2.951   5.214   2.370  1.00  0.00    -0.246 OA
BRANCH  28  30
ATOM     30  C   UNL     1       2.608   4.559   0.122  1.00  0.00     0.060 A 
ATOM     31  C   UNL     1       1.609   3.624  -0.118  1.00  0.00     0.016 A 
ATOM     32  C   UNL     1       3.776   4.503  -0.635  1.00  0.00     0.016 A 
ATOM     33  C   UNL     1       1.730   2.669  -1.119  1.00  0.00     0.010 A 
ATOM     34  C   UNL     1       3.894   3.551  -1.669  1.00  0.00     0.010 A 
ATOM     35  C   UNL     1       2.865   2.624  -1.927  1.00  0.00    -0.014 A 
BRANCH  35  36
ATOM     36  C   UNL     1       2.962   1.571  -2.979  1.00  0.00     0.031 A 
ATOM     37  C   UNL     1       4.044   0.527  -2.915  1.00  0.00     0.074 A 
ATOM     38  C   UNL     1       2.026   1.484  -3.949  1.00  0.00     0.049 A 
ATOM     39  N   UNL     1       4.367  -0.388  -3.794  1.00  0.00    -0.248 NA
ATOM     40  C   UNL     1       4.858   0.493  -1.690  1.00  0.00     0.031 C 
ATOM     41  C   UNL     1       0.849   2.348  -4.071  1.00  0.00     0.029 A 
ATOM     42  N   UNL     1       1.908   0.620  -5.013  1.00  0.00    -0.354 N 
ATOM     43  C   UNL     1       5.439  -1.083  -3.246  1.00  0.00     0.074 A 
ATOM     44  C   UNL     1       5.708  -0.489  -1.954  1.00  0.00     0.031 C 
ATOM     45  C   UNL     1       0.120   1.957  -5.127  1.00  0.00     0.029 A 
ATOM     46  C   UNL     1       0.830   0.891  -5.823  1.00  0.00     0.049 A 
ATOM     47  H   UNL     1       2.535  -0.120  -5.179  1.00  0.00     0.167 HD
ATOM     48  C   UNL     1       6.138  -2.114  -3.778  1.00  0.00     0.037 A 
ATOM     49  C   UNL     1       0.483   0.392  -7.026  1.00  0.00     0.037 A 
ATOM     50  C   UNL     1       5.863  -2.703  -5.063  1.00  0.00     0.049 A 
ATOM     51  C   UNL     1       1.369  -0.634  -7.672  1.00  0.00     0.074 A 
ATOM     52  C   UNL     1       6.536  -3.729  -5.705  1.00  0.00     0.029 A 
ATOM     53  N   UNL     1       4.833  -2.313  -5.906  1.00  0.00    -0.354 N 
ATOM     54  N   UNL     1       2.426  -1.236  -7.183  1.00  0.00    -0.248 NA
ATOM     55  C   UNL     1       1.040  -1.023  -9.051  1.00  0.00     0.031 C 
ATOM     56  C   UNL     1       5.949  -3.919  -6.961  1.00  0.00     0.029 A 
ATOM     57  C   UNL     1       4.878  -3.049  -7.080  1.00  0.00     0.049 A 
ATOM     58  H   UNL     1       4.169  -1.616  -5.701  1.00  0.00     0.167 HD
ATOM     59  C   UNL     1       2.887  -2.073  -8.190  1.00  0.00     0.074 A 
ATOM     60  C   UNL     1       1.979  -1.923  -9.308  1.00  0.00     0.031 C 
ATOM     61  C   UNL     1       3.972  -2.885  -8.188  1.00  0.00     0.037 A 
BRANCH  48  62
ATOM     62  C   UNL     1       7.316  -2.624  -3.000  1.00  0.00     0.057 A 
ATOM     63  C   UNL     1       7.172  -3.395  -1.841  1.00  0.00     0.134 A 
ATOM     64  C   UNL     1       8.620  -2.352  -3.438  1.00  0.00     0.134 A 
ATOM     65  F   UNL     1       5.953  -3.679  -1.360  1.00  0.00    -0.206 F 
ATOM     66  C   UNL     1       8.283  -3.860  -1.132  1.00  0.00     0.040 A 
ATOM     67  C   UNL     1       9.737  -2.830  -2.752  1.00  0.00     0.040 A 
ATOM     68  F   UNL     1       8.828  -1.622  -4.545  1.00  0.00    -0.206 F 
ATOM     69  C   UNL     1       9.570  -3.581  -1.591  1.00  0.00     0.006 A 
ENDBRANCH  48  62
BRANCH  49  70
ATOM     70  C   UNL     1      -0.704   0.933  -7.742  1.00  0.00     0.057 A 
ATOM     71  C   UNL     1      -1.824   0.138  -8.007  1.00  0.00     0.134 A 
ATOM     72  C   UNL     1      -0.741   2.263  -8.186  1.00  0.00     0.134 A 
ATOM     73  F   UNL     1      -1.840  -1.151  -7.638  1.00  0.00    -0.206 F 
ATOM     74  C   UNL     1      -2.937   0.645  -8.683  1.00  0.00     0.040 A 
ATOM     75  C   UNL     1      -1.859   2.791  -8.833  1.00  0.00     0.040 A 
ATOM     76  F   UNL     1       0.304   3.077  -7.977  1.00  0.00    -0.206 F 
ATOM     77  C   UNL     1      -2.960   1.978  -9.088  1.00  0.00     0.006 A 
ENDBRANCH  49  70
BRANCH  61  78
ATOM     78  C   UNL     1       4.230  -3.685  -9.430  1.00  0.00     0.057 A 
ATOM     79  C   UNL     1       4.729  -3.090 -10.596  1.00  0.00     0.134 A 
ATOM     80  C   UNL     1       4.023  -5.070  -9.447  1.00  0.00     0.134 A 
ATOM     81  F   UNL     1       4.933  -1.765 -10.650  1.00  0.00    -0.206 F 
ATOM     82  C   UNL     1       5.000  -3.844 -11.739  1.00  0.00     0.040 A 
ATOM     83  C   UNL     1       4.314  -5.837 -10.575  1.00  0.00     0.040 A 
ATOM     84  F   UNL     1       3.551  -5.701  -8.361  1.00  0.00    -0.206 F 
ATOM     85  C   UNL     1       4.801  -5.223 -11.727  1.00  0.00     0.006 A 
ENDBRANCH  61  78
ENDBRANCH  35  36
ENDBRANCH  28  30
ENDBRANCH  27  28
ENDBRANCH  26  27
ENDBRANCH   1  26
TORSDOF 14
