REMARK SMILES CC(C)(C)N(CC(=O)OCCOC(=O)c1ccc(-c2c3nc(c(-c4c(F)cccc4F)c4ccc([nH]4)c(-c4c(F)cccc4F)c4nc(c(-c5c(F)cccc5F)c5ccc2[nH]5)C=C4)C=C3)cc1)C(=O)N1CC[C@H](C[NH3+])C1
REMARK SMILES IDX 9 1 7 2 8 3 6 4 5 5 2 6 1 7 3 8 4 9 69 10 70 11 71 12 72 13
REMARK SMILES IDX 77 14 73 15 74 16 75 17 76 18 10 22 11 23 12 24 13 25 14 26
REMARK SMILES IDX 15 27 16 28 68 29 17 30 67 31 18 32 19 33 20 34 61 35 21 36
REMARK SMILES IDX 66 37 60 38 62 39 22 40 65 41 59 42 58 43 23 45 49 46 32 47
REMARK SMILES IDX 48 48 33 49 36 50 47 51 63 52 34 53 35 54 46 56 64 57 37 58
REMARK SMILES IDX 24 59 25 60 30 61 26 62 27 63 29 64 31 65 28 66 50 67 51 68
REMARK SMILES IDX 56 69 52 70 53 71 55 72 57 73 54 74 38 75 39 76 44 77 40 78
REMARK SMILES IDX 41 79 43 80 45 81 42 82
REMARK H PARENT 76 19 76 20 76 21 62 44 36 55
REMARK Flexibility Score: inf
ROOT
ATOM      1  O   UNL     1       3.612  -2.361  -1.937  1.00  0.00    -0.461 OA
ENDROOT
BRANCH   1   2
ATOM      2  C   UNL     1       3.011  -1.141  -2.021  1.00  0.00     0.325 C 
ATOM      3  O   UNL     1       3.610  -0.070  -2.015  1.00  0.00    -0.250 OA
BRANCH   2   4
ATOM      4  C   UNL     1       1.515  -1.234  -2.352  1.00  0.00     0.244 C 
BRANCH   4   5
ATOM      5  N   UNL     1       0.679  -2.165  -1.584  1.00  0.00    -0.309 N 
BRANCH   5   6
ATOM      6  C   UNL     1       0.275  -1.737  -0.188  1.00  0.00     0.037 C 
ATOM      7  C   UNL     1       0.907  -0.397   0.286  1.00  0.00     0.034 C 
ATOM      8  C   UNL     1       0.736  -2.809   0.817  1.00  0.00     0.034 C 
ATOM      9  C   UNL     1      -1.254  -1.512  -0.080  1.00  0.00     0.034 C 
ENDBRANCH   5   6
BRANCH   5  10
ATOM     10  C   UNL     1       0.062  -3.287  -2.145  1.00  0.00     0.320 C 
ATOM     11  O   UNL     1      -0.902  -3.833  -1.605  1.00  0.00    -0.248 OA
BRANCH  10  12
ATOM     12  N   UNL     1       0.486  -3.777  -3.361  1.00  0.00    -0.324 N 
ATOM     13  C   UNL     1       1.850  -4.087  -3.712  1.00  0.00     0.122 C 
ATOM     14  C   UNL     1      -0.410  -4.636  -4.131  1.00  0.00     0.130 C 
ATOM     15  C   UNL     1       1.775  -4.597  -5.131  1.00  0.00     0.033 C 
ATOM     16  C   UNL     1       0.446  -5.334  -5.203  1.00  0.00     0.065 C 
BRANCH  16  17
ATOM     17  C   UNL     1      -0.201  -5.233  -6.582  1.00  0.00     0.264 C 
BRANCH  17  18
ATOM     18  N   UNL     1       0.638  -5.721  -7.671  1.00  0.00    -0.357 N 
ATOM     19  H   UNL     1       1.485  -5.154  -7.728  1.00  0.00     0.344 HD
ATOM     20  H   UNL     1       0.126  -5.656  -8.550  1.00  0.00     0.344 HD
ATOM     21  H   UNL     1       0.892  -6.693  -7.495  1.00  0.00     0.344 HD
ENDBRANCH  17  18
ENDBRANCH  16  17
ENDBRANCH  10  12
ENDBRANCH   5  10
ENDBRANCH   4   5
ENDBRANCH   2   4
ENDBRANCH   1   2
BRANCH   1  22
ATOM     22  C   UNL     1       5.043  -2.381  -2.122  1.00  0.00     0.274 C 
BRANCH  22  23
ATOM     23  C   UNL     1       5.424  -3.266  -3.324  1.00  0.00     0.275 C 
BRANCH  23  24
ATOM     24  O   UNL     1       4.683  -3.026  -4.543  1.00  0.00    -0.458 OA
BRANCH  24  25
ATOM     25  C   UNL     1       4.661  -1.776  -5.055  1.00  0.00     0.338 C 
ATOM     26  O   UNL     1       5.276  -0.806  -4.655  1.00  0.00    -0.246 OA
BRANCH  25  27
ATOM     27  C   UNL     1       3.605  -1.724  -6.093  1.00  0.00     0.060 A 
ATOM     28  C   UNL     1       2.515  -0.869  -5.894  1.00  0.00     0.016 A 
ATOM     29  C   UNL     1       3.669  -2.516  -7.245  1.00  0.00     0.016 A 
ATOM     30  C   UNL     1       1.475  -0.817  -6.830  1.00  0.00     0.010 A 
ATOM     31  C   UNL     1       2.655  -2.418  -8.212  1.00  0.00     0.010 A 
ATOM     32  C   UNL     1       1.558  -1.552  -8.024  1.00  0.00    -0.014 A 
BRANCH  32  33
ATOM     33  C   UNL     1       0.744  -1.137  -9.200  1.00  0.00     0.031 A 
ATOM     34  C   UNL     1      -0.479  -1.844  -9.688  1.00  0.00     0.074 A 
ATOM     35  C   UNL     1       1.177  -0.054  -9.868  1.00  0.00     0.049 A 
ATOM     36  N   UNL     1      -0.995  -1.889 -10.889  1.00  0.00    -0.248 NA
ATOM     37  C   UNL     1      -1.232  -2.602  -8.694  1.00  0.00     0.031 C 
ATOM     38  C   UNL     1       2.290   0.799  -9.448  1.00  0.00     0.029 A 
ATOM     39  N   UNL     1       0.740   0.505 -11.036  1.00  0.00    -0.354 N 
ATOM     40  C   UNL     1      -2.059  -2.785 -10.819  1.00  0.00     0.074 A 
ATOM     41  C   UNL     1      -2.119  -3.245  -9.446  1.00  0.00     0.031 C 
ATOM     42  C   UNL     1       2.462   1.767 -10.354  1.00  0.00     0.029 A 
ATOM     43  C   UNL     1       1.525   1.550 -11.449  1.00  0.00     0.049 A 
ATOM     44  H   UNL     1      -0.053   0.191 -11.528  1.00  0.00     0.167 HD
ATOM     45  C   UNL     1      -2.916  -3.148 -11.807  1.00  0.00     0.037 A 
ATOM     46  C   UNL     1       1.533   2.224 -12.610  1.00  0.00     0.037 A 
ATOM     47  C   UNL     1      -2.994  -2.467 -13.080  1.00  0.00     0.049 A 
ATOM     48  C   UNL     1       0.541   1.860 -13.667  1.00  0.00     0.074 A 
ATOM     49  C   UNL     1      -3.889  -2.672 -14.118  1.00  0.00     0.029 A 
ATOM     50  N   UNL     1      -2.196  -1.393 -13.453  1.00  0.00    -0.354 N 
ATOM     51  N   UNL     1      -0.343   0.892 -13.666  1.00  0.00    -0.248 NA
ATOM     52  C   UNL     1       0.543   2.683 -14.880  1.00  0.00     0.031 C 
ATOM     53  C   UNL     1      -3.631  -1.726 -15.116  1.00  0.00     0.029 A 
ATOM     54  C   UNL     1      -2.595  -0.912 -14.690  1.00  0.00     0.049 A 
ATOM     55  H   UNL     1      -1.456  -1.027 -12.917  1.00  0.00     0.167 HD
ATOM     56  C   UNL     1      -1.017   0.997 -14.873  1.00  0.00     0.074 A 
ATOM     57  C   UNL     1      -0.447   2.134 -15.570  1.00  0.00     0.031 C 
ATOM     58  C   UNL     1      -2.016   0.223 -15.361  1.00  0.00     0.037 A 
BRANCH  45  59
ATOM     59  C   UNL     1      -3.850  -4.311 -11.586  1.00  0.00     0.057 A 
ATOM     60  C   UNL     1      -4.946  -4.265 -10.718  1.00  0.00     0.134 A 
ATOM     61  C   UNL     1      -3.702  -5.474 -12.361  1.00  0.00     0.134 A 
ATOM     62  F   UNL     1      -5.162  -3.185  -9.952  1.00  0.00    -0.206 F 
ATOM     63  C   UNL     1      -5.843  -5.333 -10.610  1.00  0.00     0.040 A 
ATOM     64  C   UNL     1      -4.610  -6.534 -12.287  1.00  0.00     0.040 A 
ATOM     65  F   UNL     1      -2.689  -5.586 -13.234  1.00  0.00    -0.206 F 
ATOM     66  C   UNL     1      -5.683  -6.468 -11.404  1.00  0.00     0.006 A 
ENDBRANCH  45  59
BRANCH  46  67
ATOM     67  C   UNL     1       2.541   3.288 -12.802  1.00  0.00     0.057 A 
ATOM     68  C   UNL     1       2.181   4.636 -12.734  1.00  0.00     0.134 A 
ATOM     69  C   UNL     1       3.900   2.980 -12.946  1.00  0.00     0.134 A 
ATOM     70  F   UNL     1       0.893   4.984 -12.597  1.00  0.00    -0.206 F 
ATOM     71  C   UNL     1       3.140   5.646 -12.803  1.00  0.00     0.040 A 
ATOM     72  C   UNL     1       4.871   3.979 -12.989  1.00  0.00     0.040 A 
ATOM     73  F   UNL     1       4.304   1.702 -12.988  1.00  0.00    -0.206 F 
ATOM     74  C   UNL     1       4.490   5.317 -12.919  1.00  0.00     0.006 A 
ENDBRANCH  46  67
BRANCH  58  75
ATOM     75  C   UNL     1      -2.572   0.610 -16.697  1.00  0.00     0.057 A 
ATOM     76  C   UNL     1      -1.870   0.366 -17.883  1.00  0.00     0.134 A 
ATOM     77  C   UNL     1      -3.826   1.227 -16.796  1.00  0.00     0.134 A 
ATOM     78  F   UNL     1      -0.657  -0.206 -17.849  1.00  0.00    -0.206 F 
ATOM     79  C   UNL     1      -2.385   0.746 -19.123  1.00  0.00     0.040 A 
ATOM     80  C   UNL     1      -4.361   1.590 -18.032  1.00  0.00     0.040 A 
ATOM     81  F   UNL     1      -4.549   1.483 -15.696  1.00  0.00    -0.206 F 
ATOM     82  C   UNL     1      -3.636   1.356 -19.199  1.00  0.00     0.006 A 
ENDBRANCH  58  75
ENDBRANCH  32  33
ENDBRANCH  25  27
ENDBRANCH  24  25
ENDBRANCH  23  24
ENDBRANCH  22  23
ENDBRANCH   1  22
TORSDOF 17
