REMARK SMILES O=C(Cn1c2ccccc2c(=O)c2ccccc21)N[C@@H](Cc1ccccc1)C(=O)OCCOC(=O)c1ccc(-c2c3nc(c(-c4c(F)cccc4F)c4ccc([nH]4)c(-c4c(F)cccc4F)c4nc(c(-c5c(F)cccc5F)c5ccc2[nH]5)C=C4)C=C3)cc1
REMARK SMILES IDX 31 1 30 2 28 3 29 4 20 5 19 6 1 7 2 8 3 10 4 11 5 12 18 13
REMARK SMILES IDX 6 14 10 15 13 16 17 17 7 18 9 19 11 20 14 21 16 22 8 23
REMARK SMILES IDX 12 24 15 25 21 26 22 27 23 28 27 29 24 30 26 31 25 32 32 33
REMARK SMILES IDX 33 34 34 35 35 36 36 37 37 38 89 39 38 40 88 41 39 42 40 43
REMARK SMILES IDX 41 44 82 45 42 46 87 47 81 48 83 49 43 50 86 51 80 52 79 53
REMARK SMILES IDX 44 55 70 56 53 57 69 58 54 59 57 60 68 61 84 62 55 63 56 64
REMARK SMILES IDX 67 66 85 67 58 68 45 69 46 70 51 71 47 72 48 73 50 74 52 75
REMARK SMILES IDX 49 76 71 77 72 78 77 79 73 80 74 81 76 82 78 83 75 84 59 85
REMARK SMILES IDX 60 86 65 87 61 88 62 89 64 90 66 91 63 92
REMARK H PARENT 19 9 83 54 57 65
REMARK Flexibility Score: inf
ROOT
ATOM      1  C   UNL     1       4.330  -4.848  -1.906  1.00  0.00     0.274 C 
ENDROOT
BRANCH   1   2
ATOM      2  O   UNL     1       4.151  -3.418  -1.857  1.00  0.00    -0.461 OA
BRANCH   2   3
ATOM      3  C   UNL     1       3.081  -2.929  -2.544  1.00  0.00     0.329 C 
ATOM      4  O   UNL     1       2.389  -3.596  -3.311  1.00  0.00    -0.250 OA
BRANCH   3   5
ATOM      5  C   UNL     1       2.874  -1.419  -2.354  1.00  0.00     0.196 C 
BRANCH   5   6
ATOM      6  N   UNL     1       3.449  -0.791  -1.146  1.00  0.00    -0.341 N 
ATOM      7  O   UNL     1       1.443   0.077  -0.475  1.00  0.00    -0.273 OA
ATOM      8  C   UNL     1       2.651  -0.075  -0.271  1.00  0.00     0.240 C 
ATOM      9  H   UNL     1       4.411  -0.884  -0.962  1.00  0.00     0.164 HD
BRANCH   8  10
ATOM     10  C   UNL     1       3.336   0.688   0.874  1.00  0.00     0.222 C 
BRANCH  10  11
ATOM     11  N   UNL     1       4.042  -0.103   1.904  1.00  0.00    -0.331 N 
ATOM     12  C   UNL     1       5.139   0.506   2.566  1.00  0.00     0.053 A 
ATOM     13  C   UNL     1       3.508  -1.292   2.435  1.00  0.00     0.053 A 
ATOM     14  C   UNL     1       5.344   1.894   2.620  1.00  0.00     0.027 A 
ATOM     15  C   UNL     1       6.020  -0.301   3.313  1.00  0.00     0.046 A 
ATOM     16  C   UNL     1       4.372  -2.192   3.094  1.00  0.00     0.046 A 
ATOM     17  C   UNL     1       2.146  -1.610   2.438  1.00  0.00     0.027 A 
ATOM     18  C   UNL     1       6.371   2.445   3.399  1.00  0.00     0.002 A 
ATOM     19  C   UNL     1       7.062   0.241   4.075  1.00  0.00     0.014 A 
ATOM     20  C   UNL     1       5.761  -1.757   3.363  1.00  0.00     0.197 A 
ATOM     21  C   UNL     1       3.933  -3.421   3.599  1.00  0.00     0.014 A 
ATOM     22  C   UNL     1       1.685  -2.813   2.999  1.00  0.00     0.002 A 
ATOM     23  C   UNL     1       7.228   1.621   4.126  1.00  0.00     0.001 A 
ATOM     24  O   UNL     1       6.630  -2.548   3.711  1.00  0.00    -0.288 OA
ATOM     25  C   UNL     1       2.580  -3.735   3.541  1.00  0.00     0.001 A 
ENDBRANCH  10  11
ENDBRANCH   8  10
ENDBRANCH   5   6
BRANCH   5  26
ATOM     26  C   UNL     1       3.275  -0.688  -3.651  1.00  0.00     0.072 C 
BRANCH  26  27
ATOM     27  C   UNL     1       4.737  -0.822  -4.013  1.00  0.00    -0.045 A 
ATOM     28  C   UNL     1       5.640   0.200  -3.700  1.00  0.00     0.004 A 
ATOM     29  C   UNL     1       5.214  -1.983  -4.641  1.00  0.00     0.004 A 
ATOM     30  C   UNL     1       6.998   0.049  -3.983  1.00  0.00     0.000 A 
ATOM     31  C   UNL     1       6.574  -2.141  -4.903  1.00  0.00     0.000 A 
ATOM     32  C   UNL     1       7.466  -1.125  -4.572  1.00  0.00     0.000 A 
ENDBRANCH  26  27
ENDBRANCH   5  26
ENDBRANCH   3   5
ENDBRANCH   2   3
ENDBRANCH   1   2
BRANCH   1  33
ATOM     33  C   UNL     1       3.822  -5.535  -0.628  1.00  0.00     0.275 C 
BRANCH  33  34
ATOM     34  O   UNL     1       2.383  -5.521  -0.504  1.00  0.00    -0.458 OA
BRANCH  34  35
ATOM     35  C   UNL     1       1.894  -4.342  -0.057  1.00  0.00     0.338 C 
ATOM     36  O   UNL     1       2.552  -3.347   0.185  1.00  0.00    -0.246 OA
BRANCH  35  37
ATOM     37  C   UNL     1       0.426  -4.320   0.016  1.00  0.00     0.060 A 
ATOM     38  C   UNL     1      -0.302  -5.363   0.589  1.00  0.00     0.016 A 
ATOM     39  C   UNL     1      -0.221  -3.154  -0.412  1.00  0.00     0.016 A 
ATOM     40  C   UNL     1      -1.690  -5.241   0.709  1.00  0.00     0.010 A 
ATOM     41  C   UNL     1      -1.600  -3.033  -0.296  1.00  0.00     0.010 A 
ATOM     42  C   UNL     1      -2.343  -4.083   0.252  1.00  0.00    -0.014 A 
BRANCH  42  43
ATOM     43  C   UNL     1      -3.816  -3.985   0.291  1.00  0.00     0.031 A 
ATOM     44  C   UNL     1      -4.604  -4.310  -0.942  1.00  0.00     0.074 A 
ATOM     45  C   UNL     1      -4.435  -3.577   1.412  1.00  0.00     0.049 A 
ATOM     46  N   UNL     1      -5.900  -4.398  -1.095  1.00  0.00    -0.248 NA
ATOM     47  C   UNL     1      -3.831  -4.558  -2.169  1.00  0.00     0.031 C 
ATOM     48  C   UNL     1      -3.765  -3.167   2.646  1.00  0.00     0.029 A 
ATOM     49  N   UNL     1      -5.769  -3.437   1.689  1.00  0.00    -0.354 N 
ATOM     50  C   UNL     1      -6.096  -4.745  -2.425  1.00  0.00     0.074 A 
ATOM     51  C   UNL     1      -4.793  -4.786  -3.051  1.00  0.00     0.031 C 
ATOM     52  C   UNL     1      -4.697  -2.835   3.557  1.00  0.00     0.029 A 
ATOM     53  C   UNL     1      -6.022  -3.014   2.970  1.00  0.00     0.049 A 
ATOM     54  H   UNL     1      -6.479  -3.622   1.032  1.00  0.00     0.167 HD
ATOM     55  C   UNL     1      -7.258  -5.030  -3.057  1.00  0.00     0.037 A 
ATOM     56  C   UNL     1      -7.196  -2.817   3.597  1.00  0.00     0.037 A 
ATOM     57  C   UNL     1      -8.553  -4.956  -2.436  1.00  0.00     0.049 A 
ATOM     58  C   UNL     1      -8.477  -3.114   2.866  1.00  0.00     0.074 A 
ATOM     59  C   UNL     1      -9.790  -5.266  -2.970  1.00  0.00     0.029 A 
ATOM     60  N   UNL     1      -8.773  -4.520  -1.137  1.00  0.00    -0.354 N 
ATOM     61  N   UNL     1      -8.649  -3.561   1.645  1.00  0.00    -0.248 NA
ATOM     62  C   UNL     1      -9.726  -2.895   3.608  1.00  0.00     0.031 C 
ATOM     63  C   UNL     1     -10.764  -4.985  -2.003  1.00  0.00     0.029 A 
ATOM     64  C   UNL     1     -10.128  -4.531  -0.858  1.00  0.00     0.049 A 
ATOM     65  H   UNL     1      -8.068  -4.244  -0.507  1.00  0.00     0.167 HD
ATOM     66  C   UNL     1     -10.020  -3.704   1.481  1.00  0.00     0.074 A 
ATOM     67  C   UNL     1     -10.633  -3.305   2.732  1.00  0.00     0.031 C 
ATOM     68  C   UNL     1     -10.712  -4.130   0.396  1.00  0.00     0.037 A 
BRANCH  55  69
ATOM     69  C   UNL     1      -7.162  -5.459  -4.490  1.00  0.00     0.057 A 
ATOM     70  C   UNL     1      -7.566  -4.613  -5.528  1.00  0.00     0.134 A 
ATOM     71  C   UNL     1      -6.658  -6.720  -4.839  1.00  0.00     0.134 A 
ATOM     72  F   UNL     1      -8.057  -3.394  -5.262  1.00  0.00    -0.206 F 
ATOM     73  C   UNL     1      -7.465  -5.003  -6.865  1.00  0.00     0.040 A 
ATOM     74  C   UNL     1      -6.534  -7.113  -6.172  1.00  0.00     0.040 A 
ATOM     75  F   UNL     1      -6.240  -7.571  -3.889  1.00  0.00    -0.206 F 
ATOM     76  C   UNL     1      -6.940  -6.253  -7.190  1.00  0.00     0.006 A 
ENDBRANCH  55  69
BRANCH  56  77
ATOM     77  C   UNL     1      -7.220  -2.373   5.011  1.00  0.00     0.057 A 
ATOM     78  C   UNL     1      -6.910  -1.057   5.370  1.00  0.00     0.134 A 
ATOM     79  C   UNL     1      -7.575  -3.258   6.036  1.00  0.00     0.134 A 
ATOM     80  F   UNL     1      -6.560  -0.164   4.434  1.00  0.00    -0.206 F 
ATOM     81  C   UNL     1      -6.955  -0.635   6.700  1.00  0.00     0.040 A 
ATOM     82  C   UNL     1      -7.641  -2.845   7.367  1.00  0.00     0.040 A 
ATOM     83  F   UNL     1      -7.900  -4.527   5.748  1.00  0.00    -0.206 F 
ATOM     84  C   UNL     1      -7.327  -1.529   7.702  1.00  0.00     0.006 A 
ENDBRANCH  56  77
BRANCH  68  85
ATOM     85  C   UNL     1     -12.203  -4.202   0.529  1.00  0.00     0.057 A 
ATOM     86  C   UNL     1     -12.849  -5.439   0.648  1.00  0.00     0.134 A 
ATOM     87  C   UNL     1     -12.998  -3.051   0.512  1.00  0.00     0.134 A 
ATOM     88  F   UNL     1     -12.142  -6.579   0.665  1.00  0.00    -0.206 F 
ATOM     89  C   UNL     1     -14.238  -5.527   0.745  1.00  0.00     0.040 A 
ATOM     90  C   UNL     1     -14.387  -3.125   0.629  1.00  0.00     0.040 A 
ATOM     91  F   UNL     1     -12.435  -1.837   0.416  1.00  0.00    -0.206 F 
ATOM     92  C   UNL     1     -15.010  -4.366   0.741  1.00  0.00     0.006 A 
ENDBRANCH  68  85
ENDBRANCH  42  43
ENDBRANCH  35  37
ENDBRANCH  34  35
ENDBRANCH  33  34
ENDBRANCH   1  33
TORSDOF 16
