REMARK SMILES O=C(Cc1ccn(-c2ccccc2F)c1)OCCOC(=O)c1ccc(-c2c3nc(c(-c4c(F)cccc4F)c4ccc([nH]4)c(-c4c(F)cccc4F)c4nc(c(-c5c(F)cccc5F)c5ccc2[nH]5)C=C4)C=C3)cc1
REMARK SMILES IDX 17 1 16 2 2 3 1 4 3 5 4 6 5 7 15 8 6 9 7 10 8 11 9 12 13 13
REMARK SMILES IDX 10 14 12 15 14 16 11 17 18 18 19 19 20 20 21 21 22 22 23 23
REMARK SMILES IDX 75 24 24 25 74 26 25 27 26 28 27 29 68 30 28 31 73 32 67 33
REMARK SMILES IDX 69 34 29 35 72 36 66 37 65 38 30 40 56 41 39 42 55 43 40 44
REMARK SMILES IDX 43 45 54 46 70 47 41 48 42 49 53 51 71 52 44 53 31 54 32 55
REMARK SMILES IDX 37 56 33 57 34 58 36 59 38 60 35 61 57 62 58 63 63 64 59 65
REMARK SMILES IDX 60 66 62 67 64 68 61 69 45 70 46 71 51 72 47 73 48 74 50 75
REMARK SMILES IDX 52 76 49 77
REMARK H PARENT 69 39 43 50
REMARK Flexibility Score: inf
ROOT
ATOM      1  C   UNL     1       4.025   1.316  -1.138  1.00  0.00     0.274 C 
ENDROOT
BRANCH   1   2
ATOM      2  O   UNL     1       2.630   0.966  -1.121  1.00  0.00    -0.462 OA
BRANCH   2   3
ATOM      3  C   UNL     1       2.096  -0.231  -0.775  1.00  0.00     0.310 C 
ATOM      4  O   UNL     1       0.954  -0.507  -1.146  1.00  0.00    -0.252 OA
BRANCH   3   5
ATOM      5  C   UNL     1       2.840  -1.172   0.146  1.00  0.00     0.159 C 
BRANCH   5   6
ATOM      6  C   UNL     1       3.758  -2.155  -0.482  1.00  0.00    -0.019 A 
ATOM      7  C   UNL     1       5.135  -2.015  -0.789  1.00  0.00     0.024 A 
ATOM      8  C   UNL     1       3.447  -3.477  -0.726  1.00  0.00     0.095 A 
ATOM      9  C   UNL     1       5.590  -3.229  -1.247  1.00  0.00     0.091 A 
ATOM     10  N   UNL     1       4.559  -4.143  -1.185  1.00  0.00    -0.321 N 
BRANCH  10  11
ATOM     11  C   UNL     1       4.643  -5.527  -1.464  1.00  0.00     0.081 A 
ATOM     12  C   UNL     1       5.874  -6.189  -1.359  1.00  0.00     0.030 A 
ATOM     13  C   UNL     1       3.499  -6.252  -1.810  1.00  0.00     0.147 A 
ATOM     14  C   UNL     1       5.941  -7.566  -1.580  1.00  0.00     0.002 A 
ATOM     15  C   UNL     1       3.574  -7.619  -2.049  1.00  0.00     0.041 A 
ATOM     16  F   UNL     1       2.310  -5.658  -1.980  1.00  0.00    -0.205 F 
ATOM     17  C   UNL     1       4.794  -8.279  -1.927  1.00  0.00     0.003 A 
ENDBRANCH  10  11
ENDBRANCH   5   6
ENDBRANCH   3   5
ENDBRANCH   2   3
ENDBRANCH   1   2
BRANCH   1  18
ATOM     18  C   UNL     1       4.529   2.057   0.094  1.00  0.00     0.275 C 
BRANCH  18  19
ATOM     19  O   UNL     1       4.287   1.338   1.292  1.00  0.00    -0.458 OA
BRANCH  19  20
ATOM     20  C   UNL     1       3.050   1.551   1.803  1.00  0.00     0.338 C 
ATOM     21  O   UNL     1       2.125   2.140   1.287  1.00  0.00    -0.246 OA
BRANCH  20  22
ATOM     22  C   UNL     1       3.017   1.068   3.182  1.00  0.00     0.060 A 
ATOM     23  C   UNL     1       1.767   1.106   3.803  1.00  0.00     0.016 A 
ATOM     24  C   UNL     1       4.224   1.035   3.890  1.00  0.00     0.016 A 
ATOM     25  C   UNL     1       1.733   1.387   5.144  1.00  0.00     0.010 A 
ATOM     26  C   UNL     1       4.192   1.385   5.213  1.00  0.00     0.010 A 
ATOM     27  C   UNL     1       2.947   1.608   5.805  1.00  0.00    -0.014 A 
BRANCH  27  28
ATOM     28  C   UNL     1       2.888   1.909   7.227  1.00  0.00     0.031 A 
ATOM     29  C   UNL     1       2.843   0.568   7.994  1.00  0.00     0.074 A 
ATOM     30  C   UNL     1       2.825   3.250   7.522  1.00  0.00     0.049 A 
ATOM     31  N   UNL     1       2.313   0.291   9.139  1.00  0.00    -0.248 NA
ATOM     32  C   UNL     1       3.395  -0.679   7.370  1.00  0.00     0.031 C 
ATOM     33  C   UNL     1       2.935   4.364   6.537  1.00  0.00     0.029 A 
ATOM     34  N   UNL     1       2.651   3.968   8.684  1.00  0.00    -0.354 N 
ATOM     35  C   UNL     1       2.678  -1.032   9.477  1.00  0.00     0.074 A 
ATOM     36  C   UNL     1       3.221  -1.621   8.299  1.00  0.00     0.031 C 
ATOM     37  C   UNL     1       2.711   5.565   7.121  1.00  0.00     0.029 A 
ATOM     38  C   UNL     1       2.459   5.375   8.535  1.00  0.00     0.049 A 
ATOM     39  H   UNL     1       2.658   3.535   9.568  1.00  0.00     0.167 HD
ATOM     40  C   UNL     1       2.653  -1.478  10.767  1.00  0.00     0.037 A 
ATOM     41  C   UNL     1       2.066   6.287   9.487  1.00  0.00     0.037 A 
ATOM     42  C   UNL     1       2.124  -0.450  11.598  1.00  0.00     0.049 A 
ATOM     43  C   UNL     1       2.084   5.516  10.735  1.00  0.00     0.074 A 
ATOM     44  C   UNL     1       0.860   0.071  11.689  1.00  0.00     0.029 A 
ATOM     45  N   UNL     1       3.035   0.453  12.091  1.00  0.00    -0.354 N 
ATOM     46  N   UNL     1       3.161   5.108  11.336  1.00  0.00    -0.248 NA
ATOM     47  C   UNL     1       0.805   5.036  11.270  1.00  0.00     0.031 C 
ATOM     48  C   UNL     1       1.109   1.457  11.726  1.00  0.00     0.029 A 
ATOM     49  C   UNL     1       2.462   1.694  11.998  1.00  0.00     0.049 A 
ATOM     50  H   UNL     1       3.931   0.248  12.444  1.00  0.00     0.167 HD
ATOM     51  C   UNL     1       2.689   4.052  12.073  1.00  0.00     0.074 A 
ATOM     52  C   UNL     1       1.266   4.267  12.250  1.00  0.00     0.031 C 
ATOM     53  C   UNL     1       3.320   2.851  12.004  1.00  0.00     0.037 A 
BRANCH  40  54
ATOM     54  C   UNL     1       3.302  -2.640  11.458  1.00  0.00     0.057 A 
ATOM     55  C   UNL     1       4.522  -3.200  11.069  1.00  0.00     0.134 A 
ATOM     56  C   UNL     1       2.882  -2.931  12.778  1.00  0.00     0.134 A 
ATOM     57  F   UNL     1       5.024  -3.007   9.843  1.00  0.00    -0.206 F 
ATOM     58  C   UNL     1       5.327  -3.906  11.975  1.00  0.00     0.040 A 
ATOM     59  C   UNL     1       3.699  -3.584  13.701  1.00  0.00     0.040 A 
ATOM     60  F   UNL     1       1.696  -2.499  13.239  1.00  0.00    -0.206 F 
ATOM     61  C   UNL     1       4.941  -4.053  13.305  1.00  0.00     0.006 A 
ENDBRANCH  40  54
BRANCH  41  62
ATOM     62  C   UNL     1       1.534   7.704   9.604  1.00  0.00     0.057 A 
ATOM     63  C   UNL     1       0.942   8.138  10.829  1.00  0.00     0.134 A 
ATOM     64  C   UNL     1       1.442   8.650   8.582  1.00  0.00     0.134 A 
ATOM     65  F   UNL     1       1.096   7.456  11.973  1.00  0.00    -0.206 F 
ATOM     66  C   UNL     1       0.150   9.283  10.966  1.00  0.00     0.040 A 
ATOM     67  C   UNL     1       0.699   9.847   8.725  1.00  0.00     0.040 A 
ATOM     68  F   UNL     1       2.068   8.469   7.413  1.00  0.00    -0.206 F 
ATOM     69  C   UNL     1       0.004  10.137   9.897  1.00  0.00     0.006 A 
ENDBRANCH  41  62
BRANCH  53  70
ATOM     70  C   UNL     1       4.784   2.901  11.599  1.00  0.00     0.057 A 
ATOM     71  C   UNL     1       5.319   2.343  10.427  1.00  0.00     0.134 A 
ATOM     72  C   UNL     1       5.697   3.618  12.383  1.00  0.00     0.134 A 
ATOM     73  F   UNL     1       4.565   1.614   9.610  1.00  0.00    -0.206 F 
ATOM     74  C   UNL     1       6.659   2.501  10.039  1.00  0.00     0.040 A 
ATOM     75  C   UNL     1       7.041   3.784  12.016  1.00  0.00     0.040 A 
ATOM     76  F   UNL     1       5.299   4.170  13.539  1.00  0.00    -0.206 F 
ATOM     77  C   UNL     1       7.528   3.230  10.837  1.00  0.00     0.006 A 
ENDBRANCH  53  70
ENDBRANCH  27  28
ENDBRANCH  20  22
ENDBRANCH  19  20
ENDBRANCH  18  19
ENDBRANCH   1  18
TORSDOF 13
