REMARK SMILES O=C(OCCOC(=O)[C@H]1C[C@@H](C(=O)N2CCCC2)C[N@@H+](Cc2cccnc2)C1)c1ccc(-c2c3nc(c(-c4c(F)cccc4F)c4ccc([nH]4)c(-c4c(F)cccc4F)c4nc(c(-c5c(F)cccc5F)c5ccc2[nH]5)C=C4)C=C3)cc1
REMARK SMILES IDX 4 1 3 2 2 3 1 4 29 5 30 6 82 7 31 8 81 9 32 10 33 11 34 12
REMARK SMILES IDX 75 13 35 14 80 15 74 16 76 17 36 18 79 19 73 20 72 21 37 23
REMARK SMILES IDX 63 24 46 25 62 26 47 27 50 28 61 29 77 30 48 31 49 32 60 34
REMARK SMILES IDX 78 35 51 36 38 37 39 38 44 39 40 40 41 41 43 42 45 43 42 44
REMARK SMILES IDX 64 45 65 46 70 47 66 48 67 49 69 50 71 51 68 52 52 53 53 54
REMARK SMILES IDX 58 55 54 56 55 57 57 58 59 59 56 60 5 61 6 62 7 63 8 64 9 65
REMARK SMILES IDX 10 66 28 67 11 68 20 69 19 70 12 72 13 73 14 74 15 75 18 76
REMARK SMILES IDX 16 77 17 78 21 79 22 80 23 81 27 82 24 83 26 84 25 85
REMARK H PARENT 76 22 50 33 20 71
REMARK Flexibility Score: inf
ROOT
ATOM      1  C   UNL     1       1.835   2.201   6.325  1.00  0.00     0.275 C 
ENDROOT
BRANCH   1   2
ATOM      2  O   UNL     1       1.406   0.906   6.740  1.00  0.00    -0.458 OA
BRANCH   2   3
ATOM      3  C   UNL     1       0.490   0.106   6.154  1.00  0.00     0.338 C 
ATOM      4  O   UNL     1       0.362  -1.030   6.593  1.00  0.00    -0.246 OA
BRANCH   3   5
ATOM      5  C   UNL     1      -0.275   0.473   4.909  1.00  0.00     0.060 A 
ATOM      6  C   UNL     1      -0.402   1.706   4.261  1.00  0.00     0.016 A 
ATOM      7  C   UNL     1      -0.828  -0.629   4.264  1.00  0.00     0.016 A 
ATOM      8  C   UNL     1      -0.892   1.795   2.942  1.00  0.00     0.010 A 
ATOM      9  C   UNL     1      -1.222  -0.558   2.932  1.00  0.00     0.010 A 
ATOM     10  C   UNL     1      -1.246   0.647   2.234  1.00  0.00    -0.014 A 
BRANCH  10  11
ATOM     11  C   UNL     1      -1.654   0.664   0.801  1.00  0.00     0.031 A 
ATOM     12  C   UNL     1      -2.945  -0.004   0.381  1.00  0.00     0.074 A 
ATOM     13  C   UNL     1      -0.826   1.148  -0.152  1.00  0.00     0.049 A 
ATOM     14  N   UNL     1      -3.475  -0.107  -0.811  1.00  0.00    -0.248 NA
ATOM     15  C   UNL     1      -3.700  -0.730   1.420  1.00  0.00     0.031 C 
ATOM     16  C   UNL     1       0.545   1.628   0.055  1.00  0.00     0.029 A 
ATOM     17  N   UNL     1      -1.016   1.301  -1.506  1.00  0.00    -0.354 N 
ATOM     18  C   UNL     1      -4.601  -0.903  -0.643  1.00  0.00     0.074 A 
ATOM     19  C   UNL     1      -4.561  -1.424   0.698  1.00  0.00     0.031 C 
ATOM     20  C   UNL     1       1.054   2.048  -1.118  1.00  0.00     0.029 A 
ATOM     21  C   UNL     1       0.043   1.891  -2.158  1.00  0.00     0.049 A 
ATOM     22  H   UNL     1      -1.837   1.014  -1.967  1.00  0.00     0.167 HD
ATOM     23  C   UNL     1      -5.655  -1.079  -1.473  1.00  0.00     0.037 A 
ATOM     24  C   UNL     1       0.157   2.300  -3.437  1.00  0.00     0.037 A 
ATOM     25  C   UNL     1      -5.733  -0.490  -2.776  1.00  0.00     0.049 A 
ATOM     26  C   UNL     1      -1.048   2.182  -4.338  1.00  0.00     0.074 A 
ATOM     27  C   UNL     1      -6.785  -0.488  -3.670  1.00  0.00     0.029 A 
ATOM     28  N   UNL     1      -4.698   0.223  -3.361  1.00  0.00    -0.354 N 
ATOM     29  N   UNL     1      -2.207   1.615  -4.099  1.00  0.00    -0.248 NA
ATOM     30  C   UNL     1      -0.952   2.811  -5.663  1.00  0.00     0.031 C 
ATOM     31  C   UNL     1      -6.380   0.220  -4.807  1.00  0.00     0.029 A 
ATOM     32  C   UNL     1      -5.088   0.680  -4.604  1.00  0.00     0.049 A 
ATOM     33  H   UNL     1      -3.817   0.380  -2.951  1.00  0.00     0.167 HD
ATOM     34  C   UNL     1      -2.990   1.859  -5.220  1.00  0.00     0.074 A 
ATOM     35  C   UNL     1      -2.179   2.638  -6.133  1.00  0.00     0.031 C 
ATOM     36  C   UNL     1      -4.266   1.477  -5.476  1.00  0.00     0.037 A 
BRANCH  23  37
ATOM     37  C   UNL     1      -6.831  -1.834  -0.920  1.00  0.00     0.057 A 
ATOM     38  C   UNL     1      -7.576  -1.325   0.158  1.00  0.00     0.134 A 
ATOM     39  C   UNL     1      -7.207  -3.080  -1.428  1.00  0.00     0.134 A 
ATOM     40  F   UNL     1      -7.260  -0.140   0.704  1.00  0.00    -0.206 F 
ATOM     41  C   UNL     1      -8.611  -2.052   0.745  1.00  0.00     0.040 A 
ATOM     42  C   UNL     1      -8.266  -3.802  -0.871  1.00  0.00     0.040 A 
ATOM     43  F   UNL     1      -6.547  -3.625  -2.461  1.00  0.00    -0.206 F 
ATOM     44  C   UNL     1      -8.961  -3.295   0.228  1.00  0.00     0.006 A 
ENDBRANCH  23  37
BRANCH  24  45
ATOM     45  C   UNL     1       1.393   2.975  -3.918  1.00  0.00     0.057 A 
ATOM     46  C   UNL     1       1.412   4.355  -4.167  1.00  0.00     0.134 A 
ATOM     47  C   UNL     1       2.569   2.264  -4.180  1.00  0.00     0.134 A 
ATOM     48  F   UNL     1       0.313   5.093  -3.949  1.00  0.00    -0.206 F 
ATOM     49  C   UNL     1       2.536   4.994  -4.696  1.00  0.00     0.040 A 
ATOM     50  C   UNL     1       3.710   2.895  -4.688  1.00  0.00     0.040 A 
ATOM     51  F   UNL     1       2.627   0.944  -3.953  1.00  0.00    -0.206 F 
ATOM     52  C   UNL     1       3.691   4.262  -4.958  1.00  0.00     0.006 A 
ENDBRANCH  24  45
BRANCH  36  53
ATOM     53  C   UNL     1      -4.875   1.935  -6.765  1.00  0.00     0.057 A 
ATOM     54  C   UNL     1      -4.491   1.393  -7.996  1.00  0.00     0.134 A 
ATOM     55  C   UNL     1      -5.898   2.893  -6.765  1.00  0.00     0.134 A 
ATOM     56  F   UNL     1      -3.511   0.479  -8.060  1.00  0.00    -0.206 F 
ATOM     57  C   UNL     1      -5.086   1.805  -9.188  1.00  0.00     0.040 A 
ATOM     58  C   UNL     1      -6.520   3.292  -7.947  1.00  0.00     0.040 A 
ATOM     59  F   UNL     1      -6.319   3.441  -5.615  1.00  0.00    -0.206 F 
ATOM     60  C   UNL     1      -6.109   2.751  -9.164  1.00  0.00     0.006 A 
ENDBRANCH  36  53
ENDBRANCH  10  11
ENDBRANCH   3   5
ENDBRANCH   2   3
ENDBRANCH   1   2
BRANCH   1  61
ATOM     61  C   UNL     1       2.768   2.218   5.105  1.00  0.00     0.274 C 
BRANCH  61  62
ATOM     62  O   UNL     1       2.500   1.235   4.068  1.00  0.00    -0.462 OA
BRANCH  62  63
ATOM     63  C   UNL     1       3.334   0.158   4.096  1.00  0.00     0.314 C 
ATOM     64  O   UNL     1       4.156   0.002   4.996  1.00  0.00    -0.252 OA
BRANCH  63  65
ATOM     65  C   UNL     1       3.262  -0.771   2.857  1.00  0.00     0.155 C 
ATOM     66  C   UNL     1       4.327  -1.834   3.117  1.00  0.00     0.040 C 
ATOM     67  C   UNL     1       1.912  -1.470   2.598  1.00  0.00     0.277 C 
ATOM     68  C   UNL     1       4.301  -3.066   2.224  1.00  0.00     0.134 C 
ATOM     69  N   UNL     1       1.992  -2.592   1.643  1.00  0.00    -0.330 N 
ATOM     70  C   UNL     1       2.913  -3.653   2.055  1.00  0.00     0.276 C 
ATOM     71  H   UNL     1       2.406  -2.123   0.838  1.00  0.00     0.348 HD
BRANCH  68  72
ATOM     72  C   UNL     1       5.325  -4.093   2.707  1.00  0.00     0.231 C 
ATOM     73  O   UNL     1       6.074  -4.638   1.893  1.00  0.00    -0.274 OA
ATOM     74  N   UNL     1       5.525  -4.234   4.064  1.00  0.00    -0.342 N 
ATOM     75  C   UNL     1       4.557  -4.328   5.149  1.00  0.00     0.119 C 
ATOM     76  C   UNL     1       6.848  -3.946   4.581  1.00  0.00     0.119 C 
ATOM     77  C   UNL     1       5.161  -3.471   6.251  1.00  0.00     0.023 C 
ATOM     78  C   UNL     1       6.661  -3.686   6.073  1.00  0.00     0.023 C 
ENDBRANCH  68  72
BRANCH  69  79
ATOM     79  C   UNL     1       0.738  -3.110   1.073  1.00  0.00     0.300 C 
BRANCH  79  80
ATOM     80  C   UNL     1      -0.012  -4.219   1.787  1.00  0.00     0.025 A 
ATOM     81  C   UNL     1      -0.602  -4.058   3.038  1.00  0.00     0.013 A 
ATOM     82  C   UNL     1      -0.249  -5.443   1.165  1.00  0.00     0.120 A 
ATOM     83  C   UNL     1      -1.447  -5.027   3.573  1.00  0.00     0.021 A 
ATOM     84  N   UNL     1      -1.032  -6.431   1.672  1.00  0.00    -0.264 NA
ATOM     85  C   UNL     1      -1.631  -6.191   2.856  1.00  0.00     0.111 A 
ENDBRANCH  79  80
ENDBRANCH  69  79
ENDBRANCH  63  65
ENDBRANCH  62  63
ENDBRANCH  61  62
ENDBRANCH   1  61
TORSDOF 14
