REMARK SMILES C[C@@H](Sc1nc2ccccc2c(=O)n1N)C(=O)OCCOC(=O)c1ccc(-c2c3nc(c(-c4c(F)cccc4F)c4ccc([nH]4)c(-c4c(F)cccc4F)c4nc(c(-c5c(F)cccc5F)c5ccc2[nH]5)C=C4)C=C3)cc1
REMARK SMILES IDX 19 1 18 2 16 3 17 4 2 5 1 6 3 7 4 8 5 9 14 10 6 11 12 12
REMARK SMILES IDX 7 13 11 14 13 15 8 16 10 17 9 18 15 19 20 22 21 23 22 24
REMARK SMILES IDX 23 25 24 26 25 27 77 28 26 29 76 30 27 31 28 32 29 33 70 34
REMARK SMILES IDX 30 35 75 36 69 37 71 38 31 39 74 40 68 41 67 42 32 44 58 45
REMARK SMILES IDX 41 46 57 47 42 48 45 49 56 50 72 51 43 52 44 53 55 55 73 56
REMARK SMILES IDX 46 57 33 58 34 59 39 60 35 61 36 62 38 63 40 64 37 65 59 66
REMARK SMILES IDX 60 67 65 68 61 69 62 70 64 71 66 72 63 73 47 74 48 75 53 76
REMARK SMILES IDX 49 77 50 78 52 79 54 80 51 81
REMARK H PARENT 15 20 15 21 71 43 45 54
REMARK Flexibility Score: inf
ROOT
ATOM      1  C   UNL     1      -3.119   0.962  -0.578  1.00  0.00     0.274 C 
ENDROOT
BRANCH   1   2
ATOM      2  O   UNL     1      -1.700   0.821  -0.784  1.00  0.00    -0.461 OA
BRANCH   2   3
ATOM      3  C   UNL     1      -0.902   1.692  -0.108  1.00  0.00     0.319 C 
ATOM      4  O   UNL     1      -1.322   2.579   0.629  1.00  0.00    -0.251 OA
BRANCH   3   5
ATOM      5  C   UNL     1       0.587   1.456  -0.356  1.00  0.00     0.161 C 
ATOM      6  C   UNL     1       0.926   0.109  -0.980  1.00  0.00     0.032 C 
BRANCH   5   7
ATOM      7  S   UNL     1       1.210   2.853  -1.353  1.00  0.00    -0.071 SA
BRANCH   7   8
ATOM      8  C   UNL     1       2.933   2.663  -1.119  1.00  0.00     0.191 A 
ATOM      9  N   UNL     1       3.623   2.295  -2.149  1.00  0.00    -0.222 NA
ATOM     10  N   UNL     1       3.494   2.966   0.121  1.00  0.00    -0.202 N 
ATOM     11  C   UNL     1       5.016   2.212  -2.020  1.00  0.00     0.079 A 
ATOM     12  C   UNL     1       4.872   2.900   0.334  1.00  0.00     0.280 A 
ATOM     13  C   UNL     1       5.770   1.854  -3.140  1.00  0.00     0.029 A 
ATOM     14  C   UNL     1       5.684   2.502  -0.829  1.00  0.00     0.068 A 
ATOM     15  O   UNL     1       5.403   3.168   1.412  1.00  0.00    -0.267 OA
ATOM     16  C   UNL     1       7.165   1.793  -3.070  1.00  0.00     0.002 A 
ATOM     17  C   UNL     1       7.080   2.441  -0.747  1.00  0.00     0.016 A 
ATOM     18  C   UNL     1       7.819   2.087  -1.875  1.00  0.00     0.001 A 
BRANCH  10  19
ATOM     19  N   UNL     1       2.694   3.368   1.244  1.00  0.00    -0.334 N 
ATOM     20  H   UNL     1       1.716   3.433   1.154  1.00  0.00     0.178 HD
ATOM     21  H   UNL     1       3.124   3.579   2.104  1.00  0.00     0.178 HD
ENDBRANCH  10  19
ENDBRANCH   7   8
ENDBRANCH   5   7
ENDBRANCH   3   5
ENDBRANCH   2   3
ENDBRANCH   1   2
BRANCH   1  22
ATOM     22  C   UNL     1      -3.649  -0.022   0.471  1.00  0.00     0.275 C 
BRANCH  22  23
ATOM     23  O   UNL     1      -3.205   0.305   1.802  1.00  0.00    -0.458 OA
BRANCH  23  24
ATOM     24  C   UNL     1      -2.031  -0.262   2.166  1.00  0.00     0.338 C 
ATOM     25  O   UNL     1      -1.348  -1.028   1.507  1.00  0.00    -0.246 OA
BRANCH  24  26
ATOM     26  C   UNL     1      -1.578   0.280   3.457  1.00  0.00     0.060 A 
ATOM     27  C   UNL     1      -0.304   0.853   3.504  1.00  0.00     0.016 A 
ATOM     28  C   UNL     1      -2.336   0.141   4.621  1.00  0.00     0.016 A 
ATOM     29  C   UNL     1       0.230   1.274   4.715  1.00  0.00     0.010 A 
ATOM     30  C   UNL     1      -1.797   0.562   5.841  1.00  0.00     0.010 A 
ATOM     31  C   UNL     1      -0.504   1.113   5.896  1.00  0.00    -0.014 A 
BRANCH  31  32
ATOM     32  C   UNL     1       0.131   1.458   7.188  1.00  0.00     0.031 A 
ATOM     33  C   UNL     1       0.670   0.367   8.066  1.00  0.00     0.074 A 
ATOM     34  C   UNL     1       0.275   2.747   7.542  1.00  0.00     0.049 A 
ATOM     35  N   UNL     1       1.241   0.455   9.240  1.00  0.00    -0.248 NA
ATOM     36  C   UNL     1       0.555  -1.007   7.553  1.00  0.00     0.031 C 
ATOM     37  C   UNL     1      -0.160   3.894   6.745  1.00  0.00     0.029 A 
ATOM     38  N   UNL     1       0.839   3.307   8.659  1.00  0.00    -0.354 N 
ATOM     39  C   UNL     1       1.540  -0.848   9.614  1.00  0.00     0.074 A 
ATOM     40  C   UNL     1       1.072  -1.712   8.550  1.00  0.00     0.031 C 
ATOM     41  C   UNL     1       0.161   5.024   7.398  1.00  0.00     0.029 A 
ATOM     42  C   UNL     1       0.789   4.678   8.670  1.00  0.00     0.049 A 
ATOM     43  H   UNL     1       1.241   2.775   9.384  1.00  0.00     0.167 HD
ATOM     44  C   UNL     1       2.152  -1.284  10.740  1.00  0.00     0.037 A 
ATOM     45  C   UNL     1       1.190   5.554   9.611  1.00  0.00     0.037 A 
ATOM     46  C   UNL     1       2.630  -0.424  11.790  1.00  0.00     0.049 A 
ATOM     47  C   UNL     1       1.816   5.040  10.877  1.00  0.00     0.074 A 
ATOM     48  C   UNL     1       3.268  -0.771  12.969  1.00  0.00     0.029 A 
ATOM     49  N   UNL     1       2.522   0.959  11.786  1.00  0.00    -0.354 N 
ATOM     50  N   UNL     1       2.083   3.805  11.225  1.00  0.00    -0.248 NA
ATOM     51  C   UNL     1       2.191   6.044  11.883  1.00  0.00     0.031 C 
ATOM     52  C   UNL     1       3.517   0.401  13.693  1.00  0.00     0.029 A 
ATOM     53  C   UNL     1       3.067   1.479  12.948  1.00  0.00     0.049 A 
ATOM     54  H   UNL     1       2.119   1.491  11.063  1.00  0.00     0.167 HD
ATOM     55  C   UNL     1       2.675   3.883  12.479  1.00  0.00     0.074 A 
ATOM     56  C   UNL     1       2.738   5.288  12.825  1.00  0.00     0.031 C 
ATOM     57  C   UNL     1       3.124   2.881  13.273  1.00  0.00     0.037 A 
BRANCH  44  58
ATOM     58  C   UNL     1       2.312  -2.765  10.904  1.00  0.00     0.057 A 
ATOM     59  C   UNL     1       3.265  -3.491  10.179  1.00  0.00     0.134 A 
ATOM     60  C   UNL     1       1.514  -3.470  11.813  1.00  0.00     0.134 A 
ATOM     61  F   UNL     1       4.049  -2.877   9.280  1.00  0.00    -0.206 F 
ATOM     62  C   UNL     1       3.406  -4.871  10.339  1.00  0.00     0.040 A 
ATOM     63  C   UNL     1       1.659  -4.846  11.997  1.00  0.00     0.040 A 
ATOM     64  F   UNL     1       0.584  -2.833  12.540  1.00  0.00    -0.206 F 
ATOM     65  C   UNL     1       2.604  -5.551  11.254  1.00  0.00     0.006 A 
ENDBRANCH  44  58
BRANCH  45  66
ATOM     66  C   UNL     1       1.001   7.008   9.395  1.00  0.00     0.057 A 
ATOM     67  C   UNL     1       2.091   7.853   9.160  1.00  0.00     0.134 A 
ATOM     68  C   UNL     1      -0.273   7.589   9.428  1.00  0.00     0.134 A 
ATOM     69  F   UNL     1       3.337   7.357   9.140  1.00  0.00    -0.206 F 
ATOM     70  C   UNL     1       1.923   9.226   8.975  1.00  0.00     0.040 A 
ATOM     71  C   UNL     1      -0.457   8.956   9.223  1.00  0.00     0.040 A 
ATOM     72  F   UNL     1      -1.357   6.831   9.650  1.00  0.00    -0.206 F 
ATOM     73  C   UNL     1       0.644   9.780   9.001  1.00  0.00     0.006 A 
ENDBRANCH  45  66
BRANCH  57  74
ATOM     74  C   UNL     1       3.747   3.274  14.578  1.00  0.00     0.057 A 
ATOM     75  C   UNL     1       2.972   3.700  15.664  1.00  0.00     0.134 A 
ATOM     76  C   UNL     1       5.133   3.201  14.758  1.00  0.00     0.134 A 
ATOM     77  F   UNL     1       1.640   3.805  15.549  1.00  0.00    -0.206 F 
ATOM     78  C   UNL     1       3.558   4.059  16.879  1.00  0.00     0.040 A 
ATOM     79  C   UNL     1       5.729   3.538  15.974  1.00  0.00     0.040 A 
ATOM     80  F   UNL     1       5.929   2.795  13.757  1.00  0.00    -0.206 F 
ATOM     81  C   UNL     1       4.941   3.974  17.037  1.00  0.00     0.006 A 
ENDBRANCH  57  74
ENDBRANCH  31  32
ENDBRANCH  24  26
ENDBRANCH  23  24
ENDBRANCH  22  23
ENDBRANCH   1  22
TORSDOF 14
