REMARK SMILES O=C(N[C@@H](C(=O)OCCOC(=O)c1ccc(-c2c3nc(c(-c4c(F)cccc4F)c4ccc([nH]4)c(-c4c(F)cccc4F)c4nc(c(-c5c(F)cccc5F)c5ccc2[nH]5)C=C4)C=C3)cc1)c1ccccc1)c1ccc(Br)nc1
REMARK SMILES IDX 8 1 7 2 5 3 6 4 4 5 3 6 1 7 2 8 73 10 74 11 79 12 75 13
REMARK SMILES IDX 78 14 76 15 77 16 67 17 68 18 72 19 69 20 71 21 70 22 9 23
REMARK SMILES IDX 10 24 11 25 12 26 13 27 14 28 66 29 15 30 65 31 16 32 17 33
REMARK SMILES IDX 18 34 59 35 19 36 64 37 58 38 60 39 20 40 63 41 57 42 56 43
REMARK SMILES IDX 21 45 47 46 30 47 46 48 31 49 34 50 45 51 61 52 32 53 33 54
REMARK SMILES IDX 44 56 62 57 35 58 22 59 23 60 28 61 24 62 25 63 27 64 29 65
REMARK SMILES IDX 26 66 48 67 49 68 54 69 50 70 51 71 53 72 55 73 52 74 36 75
REMARK SMILES IDX 37 76 42 77 38 78 39 79 41 80 43 81 40 82
REMARK H PARENT 3 9 60 44 34 55
REMARK Flexibility Score: inf
ROOT
ATOM      1  C   UNL     1       4.984  -2.212  -3.542  1.00  0.00     0.274 C 
ENDROOT
BRANCH   1   2
ATOM      2  O   UNL     1       4.413  -1.379  -2.510  1.00  0.00    -0.460 OA
BRANCH   2   3
ATOM      3  C   UNL     1       5.257  -0.516  -1.872  1.00  0.00     0.333 C 
ATOM      4  O   UNL     1       6.452  -0.412  -2.129  1.00  0.00    -0.249 OA
BRANCH   3   5
ATOM      5  C   UNL     1       4.552   0.230  -0.707  1.00  0.00     0.223 C 
BRANCH   5   6
ATOM      6  N   UNL     1       3.093   0.070  -0.727  1.00  0.00    -0.335 N 
ATOM      7  O   UNL     1       1.049  -0.418   0.108  1.00  0.00    -0.269 OA
ATOM      8  C   UNL     1       2.254  -0.289   0.292  1.00  0.00     0.253 C 
ATOM      9  H   UNL     1       2.659   0.246  -1.592  1.00  0.00     0.165 HD
BRANCH   8  10
ATOM     10  C   UNL     1       2.820  -0.619   1.606  1.00  0.00     0.058 A 
ATOM     11  C   UNL     1       2.693  -1.921   2.084  1.00  0.00     0.018 A 
ATOM     12  C   UNL     1       3.523   0.305   2.364  1.00  0.00     0.126 A 
ATOM     13  C   UNL     1       3.328  -2.268   3.274  1.00  0.00     0.037 A 
ATOM     14  N   UNL     1       4.161  -0.012   3.516  1.00  0.00    -0.249 NA
ATOM     15  C   UNL     1       4.056  -1.292   3.942  1.00  0.00     0.106 A 
ATOM     16  Br  UNL     1       4.990  -1.772   5.521  1.00  0.00    -0.029 Br
ENDBRANCH   8  10
ENDBRANCH   5   6
BRANCH   5  17
ATOM     17  C   UNL     1       4.950   1.702  -0.587  1.00  0.00    -0.014 A 
ATOM     18  C   UNL     1       6.269   2.043  -0.235  1.00  0.00     0.006 A 
ATOM     19  C   UNL     1       4.043   2.753  -0.830  1.00  0.00     0.006 A 
ATOM     20  C   UNL     1       6.669   3.380  -0.143  1.00  0.00     0.000 A 
ATOM     21  C   UNL     1       4.444   4.089  -0.730  1.00  0.00     0.000 A 
ATOM     22  C   UNL     1       5.756   4.402  -0.389  1.00  0.00     0.000 A 
ENDBRANCH   5  17
ENDBRANCH   3   5
ENDBRANCH   2   3
ENDBRANCH   1   2
BRANCH   1  23
ATOM     23  C   UNL     1       4.460  -1.822  -4.926  1.00  0.00     0.275 C 
BRANCH  23  24
ATOM     24  O   UNL     1       4.978  -0.543  -5.338  1.00  0.00    -0.458 OA
BRANCH  24  25
ATOM     25  C   UNL     1       4.210   0.513  -5.007  1.00  0.00     0.338 C 
ATOM     26  O   UNL     1       3.116   0.494  -4.443  1.00  0.00    -0.246 OA
BRANCH  25  27
ATOM     27  C   UNL     1       4.955   1.755  -5.221  1.00  0.00     0.060 A 
ATOM     28  C   UNL     1       5.474   2.367  -4.085  1.00  0.00     0.016 A 
ATOM     29  C   UNL     1       5.042   2.385  -6.461  1.00  0.00     0.016 A 
ATOM     30  C   UNL     1       6.015   3.641  -4.154  1.00  0.00     0.010 A 
ATOM     31  C   UNL     1       5.631   3.656  -6.539  1.00  0.00     0.010 A 
ATOM     32  C   UNL     1       6.093   4.307  -5.379  1.00  0.00    -0.014 A 
BRANCH  32  33
ATOM     33  C   UNL     1       6.566   5.715  -5.393  1.00  0.00     0.031 A 
ATOM     34  C   UNL     1       5.604   6.818  -5.733  1.00  0.00     0.074 A 
ATOM     35  C   UNL     1       7.815   6.023  -4.995  1.00  0.00     0.049 A 
ATOM     36  N   UNL     1       5.839   8.092  -5.923  1.00  0.00    -0.248 NA
ATOM     37  C   UNL     1       4.189   6.441  -5.873  1.00  0.00     0.031 C 
ATOM     38  C   UNL     1       8.818   5.065  -4.527  1.00  0.00     0.029 A 
ATOM     39  N   UNL     1       8.445   7.239  -4.893  1.00  0.00    -0.354 N 
ATOM     40  C   UNL     1       4.615   8.655  -6.258  1.00  0.00     0.074 A 
ATOM     41  C   UNL     1       3.636   7.590  -6.232  1.00  0.00     0.031 C 
ATOM     42  C   UNL     1       9.921   5.732  -4.151  1.00  0.00     0.029 A 
ATOM     43  C   UNL     1       9.733   7.153  -4.425  1.00  0.00     0.049 A 
ATOM     44  H   UNL     1       8.014   8.091  -5.134  1.00  0.00     0.167 HD
ATOM     45  C   UNL     1       4.338   9.943  -6.568  1.00  0.00     0.037 A 
ATOM     46  C   UNL     1      10.669   8.107  -4.267  1.00  0.00     0.037 A 
ATOM     47  C   UNL     1       5.301  11.011  -6.543  1.00  0.00     0.049 A 
ATOM     48  C   UNL     1      10.354   9.521  -4.667  1.00  0.00     0.074 A 
ATOM     49  C   UNL     1       5.127  12.341  -6.885  1.00  0.00     0.029 A 
ATOM     50  N   UNL     1       6.616  10.872  -6.128  1.00  0.00    -0.354 N 
ATOM     51  N   UNL     1       9.224  10.023  -5.103  1.00  0.00    -0.248 NA
ATOM     52  C   UNL     1      11.453  10.493  -4.583  1.00  0.00     0.031 C 
ATOM     53  C   UNL     1       6.344  13.005  -6.691  1.00  0.00     0.029 A 
ATOM     54  C   UNL     1       7.266  12.092  -6.204  1.00  0.00     0.049 A 
ATOM     55  H   UNL     1       7.026  10.031  -5.823  1.00  0.00     0.167 HD
ATOM     56  C   UNL     1       9.475  11.366  -5.346  1.00  0.00     0.074 A 
ATOM     57  C   UNL     1      10.857  11.608  -4.986  1.00  0.00     0.031 C 
ATOM     58  C   UNL     1       8.640  12.312  -5.838  1.00  0.00     0.037 A 
BRANCH  45  59
ATOM     59  C   UNL     1       2.941  10.255  -7.010  1.00  0.00     0.057 A 
ATOM     60  C   UNL     1       1.883  10.373  -6.103  1.00  0.00     0.134 A 
ATOM     61  C   UNL     1       2.661  10.457  -8.367  1.00  0.00     0.134 A 
ATOM     62  F   UNL     1       2.085  10.171  -4.792  1.00  0.00    -0.206 F 
ATOM     63  C   UNL     1       0.588  10.668  -6.533  1.00  0.00     0.040 A 
ATOM     64  C   UNL     1       1.375  10.769  -8.807  1.00  0.00     0.040 A 
ATOM     65  F   UNL     1       3.634  10.356  -9.285  1.00  0.00    -0.206 F 
ATOM     66  C   UNL     1       0.333  10.872  -7.888  1.00  0.00     0.006 A 
ENDBRANCH  45  59
BRANCH  46  67
ATOM     67  C   UNL     1      12.016   7.751  -3.757  1.00  0.00     0.057 A 
ATOM     68  C   UNL     1      12.445   8.167  -2.493  1.00  0.00     0.134 A 
ATOM     69  C   UNL     1      12.910   6.997  -4.528  1.00  0.00     0.134 A 
ATOM     70  F   UNL     1      11.642   8.914  -1.720  1.00  0.00    -0.206 F 
ATOM     71  C   UNL     1      13.717   7.853  -2.014  1.00  0.00     0.040 A 
ATOM     72  C   UNL     1      14.177   6.656  -4.052  1.00  0.00     0.040 A 
ATOM     73  F   UNL     1      12.559   6.572  -5.750  1.00  0.00    -0.206 F 
ATOM     74  C   UNL     1      14.585   7.089  -2.793  1.00  0.00     0.006 A 
ENDBRANCH  46  67
BRANCH  58  75
ATOM     75  C   UNL     1       9.196  13.693  -6.000  1.00  0.00     0.057 A 
ATOM     76  C   UNL     1      10.034  14.021  -7.073  1.00  0.00     0.134 A 
ATOM     77  C   UNL     1       8.863  14.709  -5.098  1.00  0.00     0.134 A 
ATOM     78  F   UNL     1      10.397  13.085  -7.962  1.00  0.00    -0.206 F 
ATOM     79  C   UNL     1      10.534  15.313  -7.235  1.00  0.00     0.040 A 
ATOM     80  C   UNL     1       9.344  16.009  -5.258  1.00  0.00     0.040 A 
ATOM     81  F   UNL     1       8.062  14.456  -4.052  1.00  0.00    -0.206 F 
ATOM     82  C   UNL     1      10.185  16.313  -6.328  1.00  0.00     0.006 A 
ENDBRANCH  58  75
ENDBRANCH  32  33
ENDBRANCH  25  27
ENDBRANCH  24  25
ENDBRANCH  23  24
ENDBRANCH   1  23
TORSDOF 14
