REMARK SMILES O=C(OCCOC(=O)[C@@H]1[C@@H](C(=O)Nc2cccc(C(F)(F)F)c2)[C@@H]2C=C[C@H]1O2)c1ccc(-c2c3nc(c(-c4c(F)cccc4F)c4ccc([nH]4)c(-c4c(F)cccc4F)c4nc(c(-c5c(F)cccc5F)c5ccc2[nH]5)C=C4)C=C3)cc1
REMARK SMILES IDX 5 1 4 2 3 3 2 4 1 5 29 6 30 7 82 8 31 9 81 10 32 11 33 12
REMARK SMILES IDX 34 13 75 14 35 15 80 16 74 17 76 18 36 19 79 20 73 21 72 22
REMARK SMILES IDX 37 24 63 25 46 26 62 27 47 28 50 29 61 30 77 31 48 32 49 33
REMARK SMILES IDX 60 35 78 36 51 37 38 38 39 39 44 40 40 41 41 42 43 43 45 44
REMARK SMILES IDX 42 45 64 46 65 47 70 48 66 49 67 50 69 51 71 52 68 53 52 54
REMARK SMILES IDX 53 55 58 56 54 57 55 58 57 59 59 60 56 61 6 62 7 63 8 64
REMARK SMILES IDX 9 65 10 66 27 67 24 68 26 69 28 70 25 71 11 72 12 73 13 74
REMARK SMILES IDX 14 76 15 77 23 78 16 79 18 80 17 81 19 82 20 83 21 84 22 85
REMARK H PARENT 76 23 50 34 13 75
REMARK Flexibility Score: inf
ROOT
ATOM      1  C   UNL     1       4.006  -1.747  -0.141  1.00  0.00     0.274 C 
ENDROOT
BRANCH   1   2
ATOM      2  C   UNL     1       4.534  -0.893   1.009  1.00  0.00     0.275 C 
BRANCH   2   3
ATOM      3  O   UNL     1       3.598   0.088   1.497  1.00  0.00    -0.458 OA
BRANCH   3   4
ATOM      4  C   UNL     1       3.451   1.407   1.223  1.00  0.00     0.338 C 
ATOM      5  O   UNL     1       2.679   2.062   1.924  1.00  0.00    -0.246 OA
BRANCH   4   6
ATOM      6  C   UNL     1       4.038   2.108   0.029  1.00  0.00     0.060 A 
ATOM      7  C   UNL     1       5.262   1.842  -0.583  1.00  0.00     0.016 A 
ATOM      8  C   UNL     1       3.262   3.151  -0.527  1.00  0.00     0.016 A 
ATOM      9  C   UNL     1       5.649   2.522  -1.761  1.00  0.00     0.010 A 
ATOM     10  C   UNL     1       3.604   3.769  -1.747  1.00  0.00     0.010 A 
ATOM     11  C   UNL     1       4.796   3.437  -2.409  1.00  0.00    -0.014 A 
BRANCH  11  12
ATOM     12  C   UNL     1       5.285   4.277  -3.557  1.00  0.00     0.031 A 
ATOM     13  C   UNL     1       5.885   5.577  -3.095  1.00  0.00     0.074 A 
ATOM     14  C   UNL     1       5.235   4.012  -4.892  1.00  0.00     0.049 A 
ATOM     15  N   UNL     1       6.284   6.606  -3.785  1.00  0.00    -0.248 NA
ATOM     16  C   UNL     1       6.018   5.738  -1.632  1.00  0.00     0.031 C 
ATOM     17  C   UNL     1       4.740   2.820  -5.558  1.00  0.00     0.029 A 
ATOM     18  N   UNL     1       5.606   4.787  -5.982  1.00  0.00    -0.354 N 
ATOM     19  C   UNL     1       6.691   7.536  -2.841  1.00  0.00     0.074 A 
ATOM     20  C   UNL     1       6.424   6.987  -1.536  1.00  0.00     0.031 C 
ATOM     21  C   UNL     1       4.797   2.921  -6.886  1.00  0.00     0.029 A 
ATOM     22  C   UNL     1       5.294   4.225  -7.211  1.00  0.00     0.049 A 
ATOM     23  H   UNL     1       6.052   5.660  -5.891  1.00  0.00     0.167 HD
ATOM     24  C   UNL     1       7.265   8.740  -3.041  1.00  0.00     0.037 A 
ATOM     25  C   UNL     1       5.333   4.671  -8.479  1.00  0.00     0.037 A 
ATOM     26  C   UNL     1       7.495   9.288  -4.343  1.00  0.00     0.049 A 
ATOM     27  C   UNL     1       5.880   6.033  -8.693  1.00  0.00     0.074 A 
ATOM     28  C   UNL     1       8.057  10.501  -4.681  1.00  0.00     0.029 A 
ATOM     29  N   UNL     1       7.147   8.652  -5.530  1.00  0.00    -0.354 N 
ATOM     30  N   UNL     1       6.275   6.888  -7.784  1.00  0.00    -0.248 NA
ATOM     31  C   UNL     1       6.014   6.490 -10.077  1.00  0.00     0.031 C 
ATOM     32  C   UNL     1       8.012  10.618  -6.074  1.00  0.00     0.029 A 
ATOM     33  C   UNL     1       7.474   9.455  -6.605  1.00  0.00     0.049 A 
ATOM     34  H   UNL     1       6.730   7.762  -5.594  1.00  0.00     0.167 HD
ATOM     35  C   UNL     1       6.744   7.980  -8.483  1.00  0.00     0.074 A 
ATOM     36  C   UNL     1       6.571   7.680  -9.894  1.00  0.00     0.031 C 
ATOM     37  C   UNL     1       7.288   9.117  -7.994  1.00  0.00     0.037 A 
BRANCH  24  38
ATOM     38  C   UNL     1       7.594   9.511  -1.797  1.00  0.00     0.057 A 
ATOM     39  C   UNL     1       8.567   9.066  -0.887  1.00  0.00     0.134 A 
ATOM     40  C   UNL     1       6.804  10.601  -1.418  1.00  0.00     0.134 A 
ATOM     41  F   UNL     1       9.320   7.990  -1.168  1.00  0.00    -0.206 F 
ATOM     42  C   UNL     1       8.689   9.631   0.384  1.00  0.00     0.040 A 
ATOM     43  C   UNL     1       6.943  11.197  -0.164  1.00  0.00     0.040 A 
ATOM     44  F   UNL     1       5.846  11.065  -2.234  1.00  0.00    -0.206 F 
ATOM     45  C   UNL     1       7.870  10.697   0.749  1.00  0.00     0.006 A 
ENDBRANCH  24  38
BRANCH  25  46
ATOM     46  C   UNL     1       4.829   3.819  -9.599  1.00  0.00     0.057 A 
ATOM     47  C   UNL     1       5.697   3.159 -10.477  1.00  0.00     0.134 A 
ATOM     48  C   UNL     1       3.457   3.563  -9.752  1.00  0.00     0.134 A 
ATOM     49  F   UNL     1       7.021   3.357 -10.393  1.00  0.00    -0.206 F 
ATOM     50  C   UNL     1       5.225   2.277 -11.457  1.00  0.00     0.040 A 
ATOM     51  C   UNL     1       2.973   2.667 -10.711  1.00  0.00     0.040 A 
ATOM     52  F   UNL     1       2.568   4.147  -8.936  1.00  0.00    -0.206 F 
ATOM     53  C   UNL     1       3.859   2.021 -11.568  1.00  0.00     0.006 A 
ENDBRANCH  25  46
BRANCH  37  54
ATOM     54  C   UNL     1       7.795  10.088  -9.002  1.00  0.00     0.057 A 
ATOM     55  C   UNL     1       6.935  10.911  -9.732  1.00  0.00     0.134 A 
ATOM     56  C   UNL     1       9.174  10.237  -9.184  1.00  0.00     0.134 A 
ATOM     57  F   UNL     1       5.604  10.785  -9.612  1.00  0.00    -0.206 F 
ATOM     58  C   UNL     1       7.434  11.861 -10.618  1.00  0.00     0.040 A 
ATOM     59  C   UNL     1       9.685  11.201 -10.046  1.00  0.00     0.040 A 
ATOM     60  F   UNL     1      10.039   9.464  -8.509  1.00  0.00    -0.206 F 
ATOM     61  C   UNL     1       8.813  12.017 -10.765  1.00  0.00     0.006 A 
ENDBRANCH  37  54
ENDBRANCH  11  12
ENDBRANCH   4   6
ENDBRANCH   3   4
ENDBRANCH   2   3
ENDBRANCH   1   2
BRANCH   1  62
ATOM     62  O   UNL     1       3.163  -0.997  -1.020  1.00  0.00    -0.462 OA
BRANCH  62  63
ATOM     63  C   UNL     1       1.881  -1.417  -1.208  1.00  0.00     0.312 C 
ATOM     64  O   UNL     1       1.379  -2.403  -0.669  1.00  0.00    -0.252 OA
BRANCH  63  65
ATOM     65  C   UNL     1       1.189  -0.603  -2.269  1.00  0.00     0.147 C 
ATOM     66  C   UNL     1       1.744   0.821  -2.367  1.00  0.00     0.129 C 
ATOM     67  C   UNL     1      -0.289  -0.324  -2.007  1.00  0.00     0.157 C 
ATOM     68  C   UNL     1       0.483   1.688  -2.286  1.00  0.00     0.155 C 
ATOM     69  C   UNL     1      -0.510   0.390  -0.708  1.00  0.00     0.004 C 
ATOM     70  O   UNL     1      -0.479   0.804  -2.913  1.00  0.00    -0.365 OA
ATOM     71  C   UNL     1      -0.038   1.633  -0.876  1.00  0.00     0.004 C 
BRANCH  66  72
ATOM     72  C   UNL     1       2.511   1.021  -3.638  1.00  0.00     0.231 C 
ATOM     73  O   UNL     1       2.075   1.710  -4.557  1.00  0.00    -0.274 OA
ATOM     74  N   UNL     1       3.853   0.732  -3.544  1.00  0.00    -0.326 N 
ATOM     75  H   UNL     1       4.399   1.516  -3.307  1.00  0.00     0.169 HD
BRANCH  74  76
ATOM     76  C   UNL     1       4.609  -0.426  -3.708  1.00  0.00     0.041 A 
ATOM     77  C   UNL     1       6.007  -0.310  -3.644  1.00  0.00     0.026 A 
ATOM     78  C   UNL     1       4.039  -1.665  -3.874  1.00  0.00     0.039 A 
ATOM     79  C   UNL     1       6.813  -1.441  -3.576  1.00  0.00     0.003 A 
ATOM     80  C   UNL     1       4.822  -2.812  -3.718  1.00  0.00     0.058 A 
ATOM     81  C   UNL     1       6.213  -2.694  -3.565  1.00  0.00     0.013 A 
BRANCH  80  82
ATOM     82  C   UNL     1       4.139  -4.147  -3.606  1.00  0.00     0.416 C 
ATOM     83  F   UNL     1       4.568  -5.042  -4.529  1.00  0.00    -0.166 F 
ATOM     84  F   UNL     1       4.352  -4.712  -2.386  1.00  0.00    -0.166 F 
ATOM     85  F   UNL     1       2.786  -4.066  -3.746  1.00  0.00    -0.166 F 
ENDBRANCH  80  82
ENDBRANCH  74  76
ENDBRANCH  66  72
ENDBRANCH  63  65
ENDBRANCH  62  63
ENDBRANCH   1  62
TORSDOF 14
