REMARK SMILES Nc1c(Cl)ccc2c1C=C(C(=O)OCCOC(=O)c1ccc(-c3c4nc(c(-c5c(F)cccc5F)c5ccc([nH]5)c(-c5c(F)cccc5F)c5nc(c(-c6c(F)cccc6F)c6ccc3[nH]6)C=C5)C=C4)cc1)[C@@H](C(F)(F)F)O2
REMARK SMILES IDX 15 1 14 2 13 3 11 4 12 5 10 6 2 7 3 8 8 9 4 10 5 11 7 12
REMARK SMILES IDX 9 13 6 14 78 15 73 16 1 17 74 20 75 21 76 22 77 23 16 24
REMARK SMILES IDX 17 25 18 26 19 27 20 28 72 29 21 30 71 31 22 32 23 33 24 34
REMARK SMILES IDX 65 35 25 36 70 37 64 38 66 39 26 40 69 41 63 42 62 43 27 45
REMARK SMILES IDX 53 46 36 47 52 48 37 49 40 50 51 51 67 52 38 53 39 54 50 56
REMARK SMILES IDX 68 57 41 58 28 59 29 60 34 61 30 62 31 63 33 64 35 65 32 66
REMARK SMILES IDX 54 67 55 68 60 69 56 70 57 71 59 72 61 73 58 74 42 75 43 76
REMARK SMILES IDX 48 77 44 78 45 79 47 80 49 81 46 82
REMARK H PARENT 1 18 1 19 66 44 40 55
REMARK Flexibility Score: inf
ROOT
ATOM      1  C   UNL     1      -4.427   3.388   3.935  1.00  0.00     0.275 C 
ENDROOT
BRANCH   1   2
ATOM      2  C   UNL     1      -4.044   4.487   2.945  1.00  0.00     0.275 C 
BRANCH   2   3
ATOM      3  O   UNL     1      -3.695   3.928   1.661  1.00  0.00    -0.459 OA
BRANCH   3   4
ATOM      4  C   UNL     1      -2.368   3.849   1.399  1.00  0.00     0.338 C 
ATOM      5  O   UNL     1      -1.460   4.223   2.117  1.00  0.00    -0.246 OA
BRANCH   4   6
ATOM      6  C   UNL     1      -2.151   3.180   0.099  1.00  0.00     0.088 C 
ATOM      7  C   UNL     1       0.115   0.638  -1.390  1.00  0.00     0.061 A 
ATOM      8  C   UNL     1       0.451   0.210  -2.691  1.00  0.00     0.064 A 
ATOM      9  C   UNL     1      -0.896   1.619  -1.250  1.00  0.00     0.042 A 
ATOM     10  Cl  UNL     1       1.735  -0.925  -2.944  1.00  0.00    -0.082 Cl
ATOM     11  C   UNL     1      -0.254   0.662  -3.806  1.00  0.00     0.026 A 
ATOM     12  C   UNL     1      -1.617   2.049  -2.373  1.00  0.00     0.130 A 
ATOM     13  C   UNL     1      -1.198   2.243   0.033  1.00  0.00     0.029 C 
ATOM     14  C   UNL     1      -1.303   1.564  -3.642  1.00  0.00     0.049 A 
ATOM     15  O   UNL     1      -2.660   2.932  -2.325  1.00  0.00    -0.475 OA
ATOM     16  C   UNL     1      -2.921   3.658  -1.095  1.00  0.00     0.316 C 
BRANCH   7  17
ATOM     17  N   UNL     1       0.844   0.168  -0.285  1.00  0.00    -0.397 N 
ATOM     18  H   UNL     1       1.542  -0.514  -0.410  1.00  0.00     0.156 HD
ATOM     19  H   UNL     1       0.656   0.522   0.614  1.00  0.00     0.156 HD
ENDBRANCH   7  17
BRANCH  16  20
ATOM     20  C   UNL     1      -2.679   5.156  -1.350  1.00  0.00     0.430 C 
ATOM     21  F   UNL     1      -3.350   5.585  -2.445  1.00  0.00    -0.167 F 
ATOM     22  F   UNL     1      -3.106   5.916  -0.313  1.00  0.00    -0.167 F 
ATOM     23  F   UNL     1      -1.369   5.435  -1.541  1.00  0.00    -0.167 F 
ENDBRANCH  16  20
ENDBRANCH   4   6
ENDBRANCH   3   4
ENDBRANCH   2   3
ENDBRANCH   1   2
BRANCH   1  24
ATOM     24  O   UNL     1      -3.287   2.558   4.224  1.00  0.00    -0.458 OA
BRANCH  24  25
ATOM     25  C   UNL     1      -3.307   1.331   3.659  1.00  0.00     0.338 C 
ATOM     26  O   UNL     1      -4.191   0.840   2.976  1.00  0.00    -0.246 OA
BRANCH  25  27
ATOM     27  C   UNL     1      -2.048   0.624   3.938  1.00  0.00     0.060 A 
ATOM     28  C   UNL     1      -0.851   1.138   3.448  1.00  0.00     0.016 A 
ATOM     29  C   UNL     1      -2.079  -0.638   4.528  1.00  0.00     0.016 A 
ATOM     30  C   UNL     1       0.286   0.336   3.410  1.00  0.00     0.010 A 
ATOM     31  C   UNL     1      -0.903  -1.392   4.602  1.00  0.00     0.010 A 
ATOM     32  C   UNL     1       0.281  -0.941   3.991  1.00  0.00    -0.014 A 
BRANCH  32  33
ATOM     33  C   UNL     1       1.488  -1.813   3.925  1.00  0.00     0.031 A 
ATOM     34  C   UNL     1       1.401  -3.189   3.311  1.00  0.00     0.074 A 
ATOM     35  C   UNL     1       2.671  -1.377   4.405  1.00  0.00     0.049 A 
ATOM     36  N   UNL     1       2.282  -4.158   3.315  1.00  0.00    -0.248 NA
ATOM     37  C   UNL     1       0.151  -3.525   2.609  1.00  0.00     0.031 C 
ATOM     38  C   UNL     1       2.918  -0.056   4.987  1.00  0.00     0.029 A 
ATOM     39  N   UNL     1       3.891  -2.003   4.483  1.00  0.00    -0.354 N 
ATOM     40  C   UNL     1       1.675  -5.231   2.671  1.00  0.00     0.074 A 
ATOM     41  C   UNL     1       0.347  -4.798   2.295  1.00  0.00     0.031 C 
ATOM     42  C   UNL     1       4.211   0.042   5.331  1.00  0.00     0.029 A 
ATOM     43  C   UNL     1       4.862  -1.238   5.085  1.00  0.00     0.049 A 
ATOM     44  H   UNL     1       4.055  -2.911   4.139  1.00  0.00     0.167 HD
ATOM     45  C   UNL     1       2.179  -6.464   2.418  1.00  0.00     0.037 A 
ATOM     46  C   UNL     1       6.120  -1.545   5.452  1.00  0.00     0.037 A 
ATOM     47  C   UNL     1       3.519  -6.876   2.749  1.00  0.00     0.049 A 
ATOM     48  C   UNL     1       6.637  -2.933   5.204  1.00  0.00     0.074 A 
ATOM     49  C   UNL     1       4.133  -8.093   2.505  1.00  0.00     0.029 A 
ATOM     50  N   UNL     1       4.456  -6.078   3.388  1.00  0.00    -0.354 N 
ATOM     51  N   UNL     1       6.041  -3.947   4.623  1.00  0.00    -0.248 NA
ATOM     52  C   UNL     1       7.995  -3.226   5.680  1.00  0.00     0.031 C 
ATOM     53  C   UNL     1       5.426  -8.046   3.038  1.00  0.00     0.029 A 
ATOM     54  C   UNL     1       5.635  -6.784   3.567  1.00  0.00     0.049 A 
ATOM     55  H   UNL     1       4.306  -5.147   3.671  1.00  0.00     0.167 HD
ATOM     56  C   UNL     1       6.958  -4.989   4.649  1.00  0.00     0.074 A 
ATOM     57  C   UNL     1       8.156  -4.478   5.281  1.00  0.00     0.031 C 
ATOM     58  C   UNL     1       6.819  -6.259   4.197  1.00  0.00     0.037 A 
BRANCH  45  59
ATOM     59  C   UNL     1       1.267  -7.474   1.780  1.00  0.00     0.057 A 
ATOM     60  C   UNL     1       0.803  -8.572   2.518  1.00  0.00     0.134 A 
ATOM     61  C   UNL     1       0.881  -7.393   0.437  1.00  0.00     0.134 A 
ATOM     62  F   UNL     1       1.140  -8.717   3.809  1.00  0.00    -0.206 F 
ATOM     63  C   UNL     1      -0.007  -9.552   1.943  1.00  0.00     0.040 A 
ATOM     64  C   UNL     1       0.049  -8.353  -0.143  1.00  0.00     0.040 A 
ATOM     65  F   UNL     1       1.280  -6.362  -0.324  1.00  0.00    -0.206 F 
ATOM     66  C   UNL     1      -0.392  -9.441   0.609  1.00  0.00     0.006 A 
ENDBRANCH  45  59
BRANCH  46  67
ATOM     67  C   UNL     1       6.963  -0.539   6.149  1.00  0.00     0.057 A 
ATOM     68  C   UNL     1       6.655  -0.102   7.444  1.00  0.00     0.134 A 
ATOM     69  C   UNL     1       8.114  -0.016   5.550  1.00  0.00     0.134 A 
ATOM     70  F   UNL     1       5.564  -0.563   8.074  1.00  0.00    -0.206 F 
ATOM     71  C   UNL     1       7.454   0.826   8.113  1.00  0.00     0.040 A 
ATOM     72  C   UNL     1       8.940   0.889   6.220  1.00  0.00     0.040 A 
ATOM     73  F   UNL     1       8.476  -0.414   4.321  1.00  0.00    -0.206 F 
ATOM     74  C   UNL     1       8.607   1.315   7.504  1.00  0.00     0.006 A 
ENDBRANCH  46  67
BRANCH  58  75
ATOM     75  C   UNL     1       8.007  -7.163   4.339  1.00  0.00     0.057 A 
ATOM     76  C   UNL     1       8.753  -7.541   3.216  1.00  0.00     0.134 A 
ATOM     77  C   UNL     1       8.411  -7.662   5.584  1.00  0.00     0.134 A 
ATOM     78  F   UNL     1       8.415  -7.103   1.994  1.00  0.00    -0.206 F 
ATOM     79  C   UNL     1       9.861  -8.381   3.326  1.00  0.00     0.040 A 
ATOM     80  C   UNL     1       9.535  -8.481   5.710  1.00  0.00     0.040 A 
ATOM     81  F   UNL     1       7.749  -7.323   6.700  1.00  0.00    -0.206 F 
ATOM     82  C   UNL     1      10.260  -8.847   4.577  1.00  0.00     0.006 A 
ENDBRANCH  58  75
ENDBRANCH  32  33
ENDBRANCH  25  27
ENDBRANCH  24  25
ENDBRANCH   1  24
TORSDOF 13
