REMARK SMILES CC[NH2+]CCC(=O)NC1(CC(=O)OCCOC(=O)c2ccc(-c3c4nc(c(-c5c(F)cccc5F)c5ccc([nH]5)c(-c5c(F)cccc5F)c5nc(c(-c6c(F)cccc6F)c6ccc3[nH]6)C=C5)C=C4)cc2)CCC1
REMARK SMILES IDX 11 1 12 2 10 3 9 4 73 5 75 6 74 7 8 8 6 9 7 10 5 12 4 13
REMARK SMILES IDX 3 14 2 17 1 18 13 19 14 20 15 21 16 22 17 23 18 24 19 25
REMARK SMILES IDX 20 26 72 27 21 28 71 29 22 30 23 31 24 32 65 33 25 34 70 35
REMARK SMILES IDX 64 36 66 37 26 38 69 39 63 40 62 41 27 43 53 44 36 45 52 46
REMARK SMILES IDX 37 47 40 48 51 49 67 50 38 51 39 52 50 54 68 55 41 56 28 57
REMARK SMILES IDX 29 58 34 59 30 60 31 61 33 62 35 63 32 64 54 65 55 66 60 67
REMARK SMILES IDX 56 68 57 69 59 70 61 71 58 72 42 73 43 74 48 75 44 76 45 77
REMARK SMILES IDX 47 78 49 79 46 80
REMARK H PARENT 8 11 3 15 3 16 66 42 40 53
REMARK Flexibility Score: inf
ROOT
ATOM      1  C   UNL     1       3.365   2.225  -0.131  1.00  0.00     0.308 C 
ATOM      2  O   UNL     1       4.003   2.661  -1.085  1.00  0.00    -0.252 OA
ENDROOT
BRANCH   1   3
ATOM      3  C   UNL     1       3.533   0.797   0.306  1.00  0.00     0.151 C 
BRANCH   3   4
ATOM      4  C   UNL     1       2.806   0.197   1.526  1.00  0.00     0.050 C 
ATOM      5  C   UNL     1       3.380  -1.254   1.788  1.00  0.00     0.029 C 
ATOM      6  C   UNL     1       1.465  -0.535   1.251  1.00  0.00     0.029 C 
ATOM      7  C   UNL     1       2.257  -1.806   0.903  1.00  0.00     0.005 C 
BRANCH   4   8
ATOM      8  N   UNL     1       3.004   0.995   2.756  1.00  0.00    -0.350 N 
ATOM      9  C   UNL     1       2.200   1.530   3.717  1.00  0.00     0.226 C 
ATOM     10  O   UNL     1       2.780   1.995   4.705  1.00  0.00    -0.275 OA
ATOM     11  H   UNL     1       3.955   1.188   2.922  1.00  0.00     0.164 HD
BRANCH   9  12
ATOM     12  C   UNL     1       0.689   1.559   3.663  1.00  0.00     0.161 C 
BRANCH  12  13
ATOM     13  C   UNL     1       0.102   2.759   2.922  1.00  0.00     0.270 C 
BRANCH  13  14
ATOM     14  N   UNL     1      -0.130   2.590   1.487  1.00  0.00    -0.346 N 
ATOM     15  H   UNL     1      -0.346   3.505   1.091  1.00  0.00     0.346 HD
ATOM     16  H   UNL     1       0.722   2.177   1.106  1.00  0.00     0.346 HD
BRANCH  14  17
ATOM     17  C   UNL     1      -1.214   1.680   1.145  1.00  0.00     0.257 C 
ATOM     18  C   UNL     1      -1.277   1.505  -0.369  1.00  0.00     0.071 C 
ENDBRANCH  14  17
ENDBRANCH  13  14
ENDBRANCH  12  13
ENDBRANCH   9  12
ENDBRANCH   4   8
ENDBRANCH   3   4
ENDBRANCH   1   3
BRANCH   1  19
ATOM     19  O   UNL     1       2.518   2.959   0.621  1.00  0.00    -0.462 OA
BRANCH  19  20
ATOM     20  C   UNL     1       2.460   4.375   0.310  1.00  0.00     0.274 C 
BRANCH  20  21
ATOM     21  C   UNL     1       3.187   5.180   1.383  1.00  0.00     0.275 C 
BRANCH  21  22
ATOM     22  O   UNL     1       4.507   4.637   1.538  1.00  0.00    -0.458 OA
BRANCH  22  23
ATOM     23  C   UNL     1       4.919   4.458   2.814  1.00  0.00     0.338 C 
ATOM     24  O   UNL     1       4.373   4.855   3.826  1.00  0.00    -0.246 OA
BRANCH  23  25
ATOM     25  C   UNL     1       6.185   3.694   2.811  1.00  0.00     0.060 A 
ATOM     26  C   UNL     1       6.415   2.674   1.883  1.00  0.00     0.016 A 
ATOM     27  C   UNL     1       7.142   3.973   3.785  1.00  0.00     0.016 A 
ATOM     28  C   UNL     1       7.569   1.899   1.956  1.00  0.00     0.010 A 
ATOM     29  C   UNL     1       8.341   3.259   3.800  1.00  0.00     0.010 A 
ATOM     30  C   UNL     1       8.561   2.204   2.897  1.00  0.00    -0.014 A 
BRANCH  30  31
ATOM     31  C   UNL     1       9.838   1.446   2.937  1.00  0.00     0.031 A 
ATOM     32  C   UNL     1      10.237   0.704   4.180  1.00  0.00     0.074 A 
ATOM     33  C   UNL     1      10.664   1.467   1.872  1.00  0.00     0.049 A 
ATOM     34  N   UNL     1      11.386   0.159   4.487  1.00  0.00    -0.248 NA
ATOM     35  C   UNL     1       9.209   0.571   5.224  1.00  0.00     0.031 C 
ATOM     36  C   UNL     1      10.387   2.130   0.597  1.00  0.00     0.029 A 
ATOM     37  N   UNL     1      11.914   0.927   1.701  1.00  0.00    -0.354 N 
ATOM     38  C   UNL     1      11.237  -0.337   5.777  1.00  0.00     0.074 A 
ATOM     39  C   UNL     1       9.887  -0.023   6.196  1.00  0.00     0.031 C 
ATOM     40  C   UNL     1      11.428   1.948  -0.229  1.00  0.00     0.029 A 
ATOM     41  C   UNL     1      12.475   1.225   0.483  1.00  0.00     0.049 A 
ATOM     42  H   UNL     1      12.365   0.380   2.384  1.00  0.00     0.167 HD
ATOM     43  C   UNL     1      12.147  -0.989   6.540  1.00  0.00     0.037 A 
ATOM     44  C   UNL     1      13.711   0.989   0.007  1.00  0.00     0.037 A 
ATOM     45  C   UNL     1      13.479  -1.322   6.105  1.00  0.00     0.049 A 
ATOM     46  C   UNL     1      14.713   0.293   0.880  1.00  0.00     0.074 A 
ATOM     47  C   UNL     1      14.466  -2.007   6.791  1.00  0.00     0.029 A 
ATOM     48  N   UNL     1      14.008  -0.996   4.864  1.00  0.00    -0.354 N 
ATOM     49  N   UNL     1      14.569  -0.153   2.104  1.00  0.00    -0.248 NA
ATOM     50  C   UNL     1      16.051   0.081   0.313  1.00  0.00     0.031 C 
ATOM     51  C   UNL     1      15.605  -2.063   5.980  1.00  0.00     0.029 A 
ATOM     52  C   UNL     1      15.314  -1.450   4.772  1.00  0.00     0.049 A 
ATOM     53  H   UNL     1      13.526  -0.512   4.155  1.00  0.00     0.167 HD
ATOM     54  C   UNL     1      15.793  -0.707   2.453  1.00  0.00     0.074 A 
ATOM     55  C   UNL     1      16.662  -0.556   1.302  1.00  0.00     0.031 C 
ATOM     56  C   UNL     1      16.164  -1.285   3.620  1.00  0.00     0.037 A 
BRANCH  43  57
ATOM     57  C   UNL     1      11.739  -1.349   7.939  1.00  0.00     0.057 A 
ATOM     58  C   UNL     1      10.816  -2.368   8.208  1.00  0.00     0.134 A 
ATOM     59  C   UNL     1      12.287  -0.669   9.035  1.00  0.00     0.134 A 
ATOM     60  F   UNL     1      10.242  -3.047   7.204  1.00  0.00    -0.206 F 
ATOM     61  C   UNL     1      10.431  -2.678   9.514  1.00  0.00     0.040 A 
ATOM     62  C   UNL     1      11.930  -0.987  10.346  1.00  0.00     0.040 A 
ATOM     63  F   UNL     1      13.181   0.314   8.849  1.00  0.00    -0.206 F 
ATOM     64  C   UNL     1      10.993  -1.989  10.588  1.00  0.00     0.006 A 
ENDBRANCH  43  57
BRANCH  44  65
ATOM     65  C   UNL     1      14.069   1.449  -1.358  1.00  0.00     0.057 A 
ATOM     66  C   UNL     1      14.234   0.538  -2.406  1.00  0.00     0.134 A 
ATOM     67  C   UNL     1      14.214   2.810  -1.654  1.00  0.00     0.134 A 
ATOM     68  F   UNL     1      14.126  -0.779  -2.179  1.00  0.00    -0.206 F 
ATOM     69  C   UNL     1      14.530   0.964  -3.702  1.00  0.00     0.040 A 
ATOM     70  C   UNL     1      14.486   3.251  -2.949  1.00  0.00     0.040 A 
ATOM     71  F   UNL     1      14.062   3.732  -0.692  1.00  0.00    -0.206 F 
ATOM     72  C   UNL     1      14.647   2.325  -3.978  1.00  0.00     0.006 A 
ENDBRANCH  44  65
BRANCH  56  73
ATOM     73  C   UNL     1      17.564  -1.817   3.699  1.00  0.00     0.057 A 
ATOM     74  C   UNL     1      18.668  -0.967   3.831  1.00  0.00     0.134 A 
ATOM     75  C   UNL     1      17.805  -3.196   3.665  1.00  0.00     0.134 A 
ATOM     76  F   UNL     1      18.503   0.364   3.853  1.00  0.00    -0.206 F 
ATOM     77  C   UNL     1      19.968  -1.470   3.909  1.00  0.00     0.040 A 
ATOM     78  C   UNL     1      19.098  -3.711   3.764  1.00  0.00     0.040 A 
ATOM     79  F   UNL     1      16.788  -4.063   3.544  1.00  0.00    -0.206 F 
ATOM     80  C   UNL     1      20.184  -2.846   3.881  1.00  0.00     0.006 A 
ENDBRANCH  56  73
ENDBRANCH  30  31
ENDBRANCH  23  25
ENDBRANCH  22  23
ENDBRANCH  21  22
ENDBRANCH  20  21
ENDBRANCH  19  20
ENDBRANCH   1  19
TORSDOF 17
