REMARK SMILES Cc1ccccc1Sc1cncc(C(=O)OCCOC(=O)c2ccc(-c3c4nc(c(-c5c(F)cccc5F)c5ccc([nH]5)c(-c5c(F)cccc5F)c5nc(c(-c6c(F)cccc6F)c6ccc3[nH]6)C=C5)C=C4)cc2)n1
REMARK SMILES IDX 17 1 16 2 14 3 15 4 13 5 9 6 10 7 76 8 11 9 12 10 8 11 7 12
REMARK SMILES IDX 1 13 2 14 3 15 4 16 6 17 5 18 18 19 19 20 20 21 21 22 22 23
REMARK SMILES IDX 23 24 75 25 24 26 74 27 25 28 26 29 27 30 68 31 28 32 73 33
REMARK SMILES IDX 67 34 69 35 29 36 72 37 66 38 65 39 30 41 56 42 39 43 55 44
REMARK SMILES IDX 40 45 43 46 54 47 70 48 41 49 42 50 53 52 71 53 44 54 31 55
REMARK SMILES IDX 32 56 37 57 33 58 34 59 36 60 38 61 35 62 57 63 58 64 63 65
REMARK SMILES IDX 59 66 60 67 62 68 64 69 61 70 45 71 46 72 51 73 47 74 48 75
REMARK SMILES IDX 50 76 52 77 49 78
REMARK H PARENT 69 40 43 51
REMARK Flexibility Score: inf
ROOT
ATOM      1  C   UNL     1       6.995   3.806   4.899  1.00  0.00     0.275 C 
ENDROOT
BRANCH   1   2
ATOM      2  O   UNL     1       6.049   4.015   3.839  1.00  0.00    -0.457 OA
BRANCH   2   3
ATOM      3  C   UNL     1       6.323   3.329   2.540  1.00  0.00     0.358 C 
ATOM      4  O   UNL     1       7.586   3.247   2.610  1.00  0.00    -0.244 OA
BRANCH   3   5
ATOM      5  C   UNL     1       4.897   2.713   1.040  1.00  0.00     0.167 A 
ATOM      6  C   UNL     1       2.560   2.635   0.157  1.00  0.00     0.120 A 
ATOM      7  C   UNL     1       2.920   2.284  -1.119  1.00  0.00     0.146 A 
ATOM      8  N   UNL     1       3.480   2.841   1.158  1.00  0.00    -0.231 NA
ATOM      9  N   UNL     1       4.186   2.006  -1.408  1.00  0.00    -0.259 NA
ATOM     10  C   UNL     1       5.076   2.190  -0.367  1.00  0.00     0.147 A 
BRANCH   6  11
ATOM     11  S   UNL     1       0.868   2.730   0.636  1.00  0.00    -0.068 SA
BRANCH  11  12
ATOM     12  C   UNL     1       0.183   1.100   0.303  1.00  0.00     0.017 A 
ATOM     13  C   UNL     1       2.308  -0.397   0.494  1.00  0.00     0.045 C 
ATOM     14  C   UNL     1       0.834  -0.155   0.312  1.00  0.00    -0.037 A 
ATOM     15  C   UNL     1       0.069  -1.322   0.102  1.00  0.00     0.004 A 
ATOM     16  C   UNL     1      -1.311  -1.271  -0.068  1.00  0.00     0.000 A 
ATOM     17  C   UNL     1      -1.213   1.126   0.097  1.00  0.00     0.016 A 
ATOM     18  C   UNL     1      -1.954  -0.044  -0.075  1.00  0.00     0.001 A 
ENDBRANCH  11  12
ENDBRANCH   6  11
ENDBRANCH   3   5
ENDBRANCH   2   3
ENDBRANCH   1   2
BRANCH   1  19
ATOM     19  C   UNL     1       6.825   2.374   5.423  1.00  0.00     0.275 C 
BRANCH  19  20
ATOM     20  O   UNL     1       7.143   1.311   4.472  1.00  0.00    -0.458 OA
BRANCH  20  21
ATOM     21  C   UNL     1       6.171   0.621   3.801  1.00  0.00     0.338 C 
ATOM     22  O   UNL     1       6.010  -0.585   3.860  1.00  0.00    -0.246 OA
BRANCH  21  23
ATOM     23  C   UNL     1       5.600   1.406   2.677  1.00  0.00     0.060 A 
ATOM     24  C   UNL     1       6.782   1.712   1.336  1.00  0.00     0.016 A 
ATOM     25  C   UNL     1       4.437   2.679   3.186  1.00  0.00     0.016 A 
ATOM     26  C   UNL     1       6.867   3.389   0.564  1.00  0.00     0.010 A 
ATOM     27  C   UNL     1       4.505   4.340   2.413  1.00  0.00     0.010 A 
ATOM     28  C   UNL     1       5.740   4.683   1.127  1.00  0.00    -0.014 A 
BRANCH  28  29
ATOM     29  C   UNL     1       6.128   6.074   1.099  1.00  0.00     0.031 A 
ATOM     30  C   UNL     1       5.048   7.024   0.835  1.00  0.00     0.074 A 
ATOM     31  C   UNL     1       7.367   6.368   1.564  1.00  0.00     0.049 A 
ATOM     32  N   UNL     1       5.255   8.269   0.665  1.00  0.00    -0.248 NA
ATOM     33  C   UNL     1       3.635   6.669   0.677  1.00  0.00     0.031 C 
ATOM     34  C   UNL     1       7.934   7.620   2.049  1.00  0.00     0.029 A 
ATOM     35  N   UNL     1       8.479   5.523   1.517  1.00  0.00    -0.354 N 
ATOM     36  C   UNL     1       4.041   8.912   0.704  1.00  0.00     0.074 A 
ATOM     37  C   UNL     1       3.058   7.872   0.609  1.00  0.00     0.031 C 
ATOM     38  C   UNL     1       9.279   7.556   1.965  1.00  0.00     0.029 A 
ATOM     39  C   UNL     1       9.626   6.295   1.329  1.00  0.00     0.049 A 
ATOM     40  H   UNL     1       8.457   4.543   1.603  1.00  0.00     0.167 HD
ATOM     41  C   UNL     1       4.086  10.248   0.947  1.00  0.00     0.037 A 
ATOM     42  C   UNL     1      10.304   6.161   0.149  1.00  0.00     0.037 A 
ATOM     43  C   UNL     1       5.477  10.695   0.800  1.00  0.00     0.049 A 
ATOM     44  C   UNL     1      10.063   7.372  -0.735  1.00  0.00     0.074 A 
ATOM     45  C   UNL     1       6.500  10.924   1.703  1.00  0.00     0.029 A 
ATOM     46  N   UNL     1       6.086  10.492  -0.435  1.00  0.00    -0.354 N 
ATOM     47  N   UNL     1       9.036   8.177  -0.618  1.00  0.00    -0.248 NA
ATOM     48  C   UNL     1      11.010   7.823  -1.747  1.00  0.00     0.031 C 
ATOM     49  C   UNL     1       7.736  10.778   0.999  1.00  0.00     0.029 A 
ATOM     50  C   UNL     1       7.462  10.487  -0.330  1.00  0.00     0.049 A 
ATOM     51  H   UNL     1       5.596  10.368  -1.280  1.00  0.00     0.167 HD
ATOM     52  C   UNL     1       9.185   9.248  -1.460  1.00  0.00     0.074 A 
ATOM     53  C   UNL     1      10.441   8.977  -2.139  1.00  0.00     0.031 C 
ATOM     54  C   UNL     1       8.284  10.282  -1.523  1.00  0.00     0.037 A 
BRANCH  41  55
ATOM     55  C   UNL     1       2.973  11.107   1.490  1.00  0.00     0.057 A 
ATOM     56  C   UNL     1       3.250  12.440   1.853  1.00  0.00     0.134 A 
ATOM     57  C   UNL     1       1.659  10.693   1.782  1.00  0.00     0.134 A 
ATOM     58  F   UNL     1       4.455  12.988   1.639  1.00  0.00    -0.206 F 
ATOM     59  C   UNL     1       2.314  13.276   2.475  1.00  0.00     0.040 A 
ATOM     60  C   UNL     1       0.706  11.527   2.386  1.00  0.00     0.040 A 
ATOM     61  F   UNL     1       1.216   9.459   1.531  1.00  0.00    -0.206 F 
ATOM     62  C   UNL     1       1.034  12.822   2.744  1.00  0.00     0.006 A 
ENDBRANCH  41  55
BRANCH  42  63
ATOM     63  C   UNL     1      10.463   4.726  -0.270  1.00  0.00     0.057 A 
ATOM     64  C   UNL     1      11.005   3.833   0.686  1.00  0.00     0.134 A 
ATOM     65  C   UNL     1       9.807   4.137  -1.355  1.00  0.00     0.134 A 
ATOM     66  F   UNL     1      11.707   4.311   1.727  1.00  0.00    -0.206 F 
ATOM     67  C   UNL     1      10.734   2.461   0.676  1.00  0.00     0.040 A 
ATOM     68  C   UNL     1       9.574   2.745  -1.404  1.00  0.00     0.040 A 
ATOM     69  F   UNL     1       9.230   4.893  -2.299  1.00  0.00    -0.206 F 
ATOM     70  C   UNL     1       9.988   1.916  -0.359  1.00  0.00     0.006 A 
ENDBRANCH  42  63
BRANCH  54  71
ATOM     71  C   UNL     1       8.128  11.255  -2.687  1.00  0.00     0.057 A 
ATOM     72  C   UNL     1       8.718  11.094  -3.949  1.00  0.00     0.134 A 
ATOM     73  C   UNL     1       7.230  12.353  -2.614  1.00  0.00     0.134 A 
ATOM     74  F   UNL     1       9.457  10.024  -4.261  1.00  0.00    -0.206 F 
ATOM     75  C   UNL     1       8.525  11.999  -5.002  1.00  0.00     0.040 A 
ATOM     76  C   UNL     1       6.951  13.200  -3.689  1.00  0.00     0.040 A 
ATOM     77  F   UNL     1       6.543  12.656  -1.504  1.00  0.00    -0.206 F 
ATOM     78  C   UNL     1       7.630  13.049  -4.880  1.00  0.00     0.006 A 
ENDBRANCH  54  71
ENDBRANCH  28  29
ENDBRANCH  21  23
ENDBRANCH  20  21
ENDBRANCH  19  20
ENDBRANCH   1  19
TORSDOF 13
