REMARK SMILES C=C1c2ccccc2C(=O)N1[C@](C)(C(=O)OCCOC(=O)c1ccc(-c2c3nc(c(-c4c(F)cccc4F)c4ccc([nH]4)c(-c4c(F)cccc4F)c4nc(c(-c5c(F)cccc5F)c5ccc2[nH]5)C=C4)C=C3)cc1)C(F)(F)F
REMARK SMILES IDX 18 1 17 2 16 3 14 4 15 5 12 6 13 7 11 8 1 9 2 10 3 11 4 12
REMARK SMILES IDX 8 13 9 14 5 15 7 16 10 17 6 18 76 19 77 20 78 21 79 22 19 23
REMARK SMILES IDX 20 24 21 25 22 26 23 27 75 28 24 29 74 30 25 31 26 32 27 33
REMARK SMILES IDX 68 34 28 35 73 36 67 37 69 38 29 39 72 40 66 41 65 42 30 44
REMARK SMILES IDX 56 45 39 46 55 47 40 48 43 49 54 50 70 51 41 52 42 53 53 55
REMARK SMILES IDX 71 56 44 57 31 58 32 59 37 60 33 61 34 62 36 63 38 64 35 65
REMARK SMILES IDX 57 66 58 67 63 68 59 69 60 70 62 71 64 72 61 73 45 74 46 75
REMARK SMILES IDX 51 76 47 77 48 78 50 79 52 80 49 81
REMARK H PARENT 69 43 43 54
REMARK Flexibility Score: inf
ROOT
ATOM      1  C   UNL     1       3.112  -2.150  -4.192  1.00  0.00     0.275 C 
ENDROOT
BRANCH   1   2
ATOM      2  C   UNL     1       3.474  -2.662  -2.800  1.00  0.00     0.274 C 
BRANCH   2   3
ATOM      3  O   UNL     1       2.905  -1.805  -1.785  1.00  0.00    -0.460 OA
BRANCH   3   4
ATOM      4  C   UNL     1       3.771  -1.144  -0.969  1.00  0.00     0.341 C 
ATOM      5  O   UNL     1       4.989  -1.157  -1.127  1.00  0.00    -0.249 OA
BRANCH   4   6
ATOM      6  C   UNL     1       3.083  -0.471   0.228  1.00  0.00     0.238 C 
ATOM      7  C   UNL     1       1.551  -0.666   0.260  1.00  0.00     0.058 C 
BRANCH   6   8
ATOM      8  N   UNL     1       3.724  -1.121   1.407  1.00  0.00    -0.283 N 
ATOM      9  C   UNL     1       5.122   0.597   2.545  1.00  0.00     0.038 C 
ATOM     10  C   UNL     1       4.631  -0.629   2.345  1.00  0.00     0.046 C 
ATOM     11  C   UNL     1       5.028  -1.764   3.190  1.00  0.00     0.010 A 
ATOM     12  C   UNL     1       5.897  -1.884   4.263  1.00  0.00     0.011 A 
ATOM     13  C   UNL     1       4.347  -2.888   2.737  1.00  0.00     0.049 A 
ATOM     14  C   UNL     1       3.527  -2.493   1.599  1.00  0.00     0.260 C 
ATOM     15  C   UNL     1       6.054  -3.143   4.859  1.00  0.00     0.001 A 
ATOM     16  C   UNL     1       4.485  -4.144   3.299  1.00  0.00     0.014 A 
ATOM     17  O   UNL     1       2.852  -3.272   0.946  1.00  0.00    -0.269 OA
ATOM     18  C   UNL     1       5.353  -4.264   4.380  1.00  0.00     0.001 A 
ENDBRANCH   6   8
BRANCH   6  19
ATOM     19  C   UNL     1       3.305   1.025   0.017  1.00  0.00     0.422 C 
ATOM     20  F   UNL     1       2.662   1.480  -1.086  1.00  0.00    -0.168 F 
ATOM     21  F   UNL     1       2.806   1.749   1.053  1.00  0.00    -0.168 F 
ATOM     22  F   UNL     1       4.601   1.379  -0.125  1.00  0.00    -0.168 F 
ENDBRANCH   6  19
ENDBRANCH   4   6
ENDBRANCH   3   4
ENDBRANCH   2   3
ENDBRANCH   1   2
BRANCH   1  23
ATOM     23  O   UNL     1       3.768  -0.892  -4.431  1.00  0.00    -0.458 OA
BRANCH  23  24
ATOM     24  C   UNL     1       3.014   0.191  -4.143  1.00  0.00     0.338 C 
ATOM     25  O   UNL     1       1.843   0.216  -3.801  1.00  0.00    -0.246 OA
BRANCH  24  26
ATOM     26  C   UNL     1       3.845   1.399  -4.166  1.00  0.00     0.060 A 
ATOM     27  C   UNL     1       4.665   1.644  -3.072  1.00  0.00     0.016 A 
ATOM     28  C   UNL     1       3.638   2.387  -5.122  1.00  0.00     0.016 A 
ATOM     29  C   UNL     1       5.136   2.927  -2.832  1.00  0.00     0.010 A 
ATOM     30  C   UNL     1       4.257   3.632  -4.961  1.00  0.00     0.010 A 
ATOM     31  C   UNL     1       4.972   3.936  -3.787  1.00  0.00    -0.014 A 
BRANCH  31  32
ATOM     32  C   UNL     1       5.531   5.298  -3.547  1.00  0.00     0.031 A 
ATOM     33  C   UNL     1       4.652   6.516  -3.671  1.00  0.00     0.074 A 
ATOM     34  C   UNL     1       6.831   5.450  -3.216  1.00  0.00     0.049 A 
ATOM     35  N   UNL     1       4.992   7.779  -3.738  1.00  0.00    -0.248 NA
ATOM     36  C   UNL     1       3.201   6.283  -3.751  1.00  0.00     0.031 C 
ATOM     37  C   UNL     1       7.790   4.363  -2.998  1.00  0.00     0.029 A 
ATOM     38  N   UNL     1       7.576   6.585  -3.008  1.00  0.00    -0.354 N 
ATOM     39  C   UNL     1       3.808   8.482  -3.933  1.00  0.00     0.074 A 
ATOM     40  C   UNL     1       2.742   7.505  -3.982  1.00  0.00     0.031 C 
ATOM     41  C   UNL     1       8.976   4.878  -2.649  1.00  0.00     0.029 A 
ATOM     42  C   UNL     1       8.900   6.328  -2.743  1.00  0.00     0.049 A 
ATOM     43  H   UNL     1       7.199   7.494  -3.046  1.00  0.00     0.167 HD
ATOM     44  C   UNL     1       3.632   9.820  -4.060  1.00  0.00     0.037 A 
ATOM     45  C   UNL     1       9.958   7.154  -2.652  1.00  0.00     0.037 A 
ATOM     46  C   UNL     1       4.697  10.787  -3.958  1.00  0.00     0.049 A 
ATOM     47  C   UNL     1       9.750   8.624  -2.867  1.00  0.00     0.074 A 
ATOM     48  C   UNL     1       4.623  12.166  -4.055  1.00  0.00     0.029 A 
ATOM     49  N   UNL     1       6.029  10.475  -3.725  1.00  0.00    -0.354 N 
ATOM     50  N   UNL     1       8.637   9.275  -3.106  1.00  0.00    -0.248 NA
ATOM     51  C   UNL     1      10.947   9.472  -2.821  1.00  0.00     0.031 C 
ATOM     52  C   UNL     1       5.917  12.683  -3.936  1.00  0.00     0.029 A 
ATOM     53  C   UNL     1       6.789  11.633  -3.700  1.00  0.00     0.049 A 
ATOM     54  H   UNL     1       6.381   9.565  -3.597  1.00  0.00     0.167 HD
ATOM     55  C   UNL     1       8.996  10.611  -3.213  1.00  0.00     0.074 A 
ATOM     56  C   UNL     1      10.427  10.678  -2.994  1.00  0.00     0.031 C 
ATOM     57  C   UNL     1       8.211  11.685  -3.473  1.00  0.00     0.037 A 
BRANCH  44  58
ATOM     58  C   UNL     1       2.247  10.320  -4.367  1.00  0.00     0.057 A 
ATOM     59  C   UNL     1       1.204  10.273  -3.433  1.00  0.00     0.134 A 
ATOM     60  C   UNL     1       1.963  10.894  -5.615  1.00  0.00     0.134 A 
ATOM     61  F   UNL     1       1.400   9.729  -2.222  1.00  0.00    -0.206 F 
ATOM     62  C   UNL     1      -0.074  10.749  -3.737  1.00  0.00     0.040 A 
ATOM     63  C   UNL     1       0.700  11.402  -5.920  1.00  0.00     0.040 A 
ATOM     64  F   UNL     1       2.916  10.982  -6.556  1.00  0.00    -0.206 F 
ATOM     65  C   UNL     1      -0.326  11.323  -4.982  1.00  0.00     0.006 A 
ENDBRANCH  44  58
BRANCH  45  66
ATOM     66  C   UNL     1      11.316   6.601  -2.407  1.00  0.00     0.057 A 
ATOM     67  C   UNL     1      12.005   6.875  -1.222  1.00  0.00     0.134 A 
ATOM     68  C   UNL     1      11.956   5.784  -3.349  1.00  0.00     0.134 A 
ATOM     69  F   UNL     1      11.456   7.667  -0.289  1.00  0.00    -0.206 F 
ATOM     70  C   UNL     1      13.287   6.373  -0.988  1.00  0.00     0.040 A 
ATOM     71  C   UNL     1      13.221   5.245  -3.114  1.00  0.00     0.040 A 
ATOM     72  F   UNL     1      11.348   5.476  -4.505  1.00  0.00    -0.206 F 
ATOM     73  C   UNL     1      13.894   5.548  -1.933  1.00  0.00     0.006 A 
ENDBRANCH  45  66
BRANCH  57  74
ATOM     74  C   UNL     1       8.880  13.029  -3.484  1.00  0.00     0.057 A 
ATOM     75  C   UNL     1       9.755  13.416  -4.506  1.00  0.00     0.134 A 
ATOM     76  C   UNL     1       8.624  13.956  -2.466  1.00  0.00     0.134 A 
ATOM     77  F   UNL     1      10.056  12.568  -5.502  1.00  0.00    -0.206 F 
ATOM     78  C   UNL     1      10.375  14.666  -4.500  1.00  0.00     0.040 A 
ATOM     79  C   UNL     1       9.212  15.221  -2.466  1.00  0.00     0.040 A 
ATOM     80  F   UNL     1       7.790  13.652  -1.460  1.00  0.00    -0.206 F 
ATOM     81  C   UNL     1      10.098  15.576  -3.481  1.00  0.00     0.006 A 
ENDBRANCH  57  74
ENDBRANCH  31  32
ENDBRANCH  24  26
ENDBRANCH  23  24
ENDBRANCH   1  23
TORSDOF 13
