REMARK SMILES C[C@H]1CC[C@](C#N)([C@H](O)C(=O)OCCOC(=O)c2ccc(-c3c4nc(c(-c5c(F)cccc5F)c5ccc([nH]5)c(-c5c(F)cccc5F)c5nc(c(-c6c(F)cccc6F)c6ccc3[nH]6)C=C5)C=C4)cc2)C1
REMARK SMILES IDX 13 1 12 2 10 3 11 4 8 5 5 6 1 7 2 8 3 9 72 10 4 11 6 12 7 13
REMARK SMILES IDX 9 14 14 16 15 17 16 18 17 19 18 20 19 21 71 22 20 23 70 24
REMARK SMILES IDX 21 25 22 26 23 27 64 28 24 29 69 30 63 31 65 32 25 33 68 34
REMARK SMILES IDX 62 35 61 36 26 38 52 39 35 40 51 41 36 42 39 43 50 44 66 45
REMARK SMILES IDX 37 46 38 47 49 49 67 50 40 51 27 52 28 53 33 54 29 55 30 56
REMARK SMILES IDX 32 57 34 58 31 59 53 60 54 61 59 62 55 63 56 64 58 65 60 66
REMARK SMILES IDX 57 67 41 68 42 69 47 70 43 71 44 72 46 73 48 74 45 75
REMARK H PARENT 9 15 65 37 39 48
REMARK Flexibility Score: inf
ROOT
ATOM      1  C   UNL     1      -3.387   4.074   6.190  1.00  0.00     0.274 C 
ENDROOT
BRANCH   1   2
ATOM      2  O   UNL     1      -3.173   3.193   5.074  1.00  0.00    -0.460 OA
BRANCH   2   3
ATOM      3  C   UNL     1      -2.021   2.470   5.115  1.00  0.00     0.336 C 
ATOM      4  O   UNL     1      -1.156   2.591   5.971  1.00  0.00    -0.249 OA
BRANCH   3   5
ATOM      5  C   UNL     1      -1.962   1.428   3.982  1.00  0.00     0.244 C 
BRANCH   5   6
ATOM      6  C   UNL     1      -0.930   1.855   2.928  1.00  0.00     0.094 C 
ATOM      7  C   UNL     1       0.610   3.841   0.839  1.00  0.00     0.008 C 
ATOM      8  C   UNL     1      -0.711   3.077   0.827  1.00  0.00    -0.013 C 
ATOM      9  C   UNL     1      -0.541   1.589   0.507  1.00  0.00     0.005 C 
ATOM     10  C   UNL     1      -1.409   3.107   2.182  1.00  0.00     0.029 C 
ATOM     11  C   UNL     1      -0.759   0.809   1.808  1.00  0.00     0.026 C 
BRANCH   6  12
ATOM     12  C   UNL     1       0.393   2.057   3.576  1.00  0.00     0.072 C 
ATOM     13  N   UNL     1       1.431   2.184   4.071  1.00  0.00    -0.198 NA
ENDBRANCH   6  12
ENDBRANCH   5   6
BRANCH   5  14
ATOM     14  O   UNL     1      -3.244   1.161   3.405  1.00  0.00    -0.380 OA
ATOM     15  H   UNL     1      -3.590   1.970   2.997  1.00  0.00     0.211 HD
ENDBRANCH   5  14
ENDBRANCH   3   5
ENDBRANCH   2   3
ENDBRANCH   1   2
BRANCH   1  16
ATOM     16  C   UNL     1      -4.182   3.393   7.312  1.00  0.00     0.275 C 
BRANCH  16  17
ATOM     17  O   UNL     1      -3.452   2.338   7.974  1.00  0.00    -0.458 OA
BRANCH  17  18
ATOM     18  C   UNL     1      -3.523   1.125   7.377  1.00  0.00     0.338 C 
ATOM     19  O   UNL     1      -4.126   0.848   6.349  1.00  0.00    -0.246 OA
BRANCH  18  20
ATOM     20  C   UNL     1      -2.620   0.159   8.027  1.00  0.00     0.060 A 
ATOM     21  C   UNL     1      -1.642  -0.436   7.230  1.00  0.00     0.016 A 
ATOM     22  C   UNL     1      -2.805  -0.272   9.338  1.00  0.00     0.016 A 
ATOM     23  C   UNL     1      -0.897  -1.508   7.691  1.00  0.00     0.010 A 
ATOM     24  C   UNL     1      -2.018  -1.325   9.825  1.00  0.00     0.010 A 
ATOM     25  C   UNL     1      -1.083  -1.971   8.994  1.00  0.00    -0.014 A 
BRANCH  25  26
ATOM     26  C   UNL     1      -0.329  -3.170   9.433  1.00  0.00     0.031 A 
ATOM     27  C   UNL     1      -1.059  -4.451   9.719  1.00  0.00     0.074 A 
ATOM     28  C   UNL     1       1.015  -3.124   9.505  1.00  0.00     0.049 A 
ATOM     29  N   UNL     1      -0.591  -5.590  10.161  1.00  0.00    -0.248 NA
ATOM     30  C   UNL     1      -2.512  -4.450   9.482  1.00  0.00     0.031 C 
ATOM     31  C   UNL     1       1.840  -1.955   9.189  1.00  0.00     0.029 A 
ATOM     32  N   UNL     1       1.925  -4.087   9.858  1.00  0.00    -0.354 N 
ATOM     33  C   UNL     1      -1.691  -6.430  10.283  1.00  0.00     0.074 A 
ATOM     34  C   UNL     1      -2.854  -5.661   9.895  1.00  0.00     0.031 C 
ATOM     35  C   UNL     1       3.133  -2.274   9.349  1.00  0.00     0.029 A 
ATOM     36  C   UNL     1       3.225  -3.644   9.841  1.00  0.00     0.049 A 
ATOM     37  H   UNL     1       1.672  -5.007  10.100  1.00  0.00     0.167 HD
ATOM     38  C   UNL     1      -1.723  -7.725  10.678  1.00  0.00     0.037 A 
ATOM     39  C   UNL     1       4.362  -4.262  10.213  1.00  0.00     0.037 A 
ATOM     40  C   UNL     1      -0.556  -8.483  11.049  1.00  0.00     0.049 A 
ATOM     41  C   UNL     1       4.288  -5.676  10.716  1.00  0.00     0.074 A 
ATOM     42  C   UNL     1      -0.479  -9.803  11.457  1.00  0.00     0.029 A 
ATOM     43  N   UNL     1       0.740  -7.986  11.060  1.00  0.00    -0.354 N 
ATOM     44  N   UNL     1       3.243  -6.459  10.838  1.00  0.00    -0.248 NA
ATOM     45  C   UNL     1       5.553  -6.294  11.132  1.00  0.00     0.031 C 
ATOM     46  C   UNL     1       0.853 -10.086  11.774  1.00  0.00     0.029 A 
ATOM     47  C   UNL     1       1.619  -8.967  11.492  1.00  0.00     0.049 A 
ATOM     48  H   UNL     1       0.997  -7.073  10.798  1.00  0.00     0.167 HD
ATOM     49  C   UNL     1       3.728  -7.672  11.309  1.00  0.00     0.074 A 
ATOM     50  C   UNL     1       5.163  -7.523  11.435  1.00  0.00     0.031 C 
ATOM     51  C   UNL     1       3.048  -8.807  11.606  1.00  0.00     0.037 A 
BRANCH  38  52
ATOM     52  C   UNL     1      -3.068  -8.390  10.771  1.00  0.00     0.057 A 
ATOM     53  C   UNL     1      -3.832  -8.698   9.638  1.00  0.00     0.134 A 
ATOM     54  C   UNL     1      -3.594  -8.753  12.019  1.00  0.00     0.134 A 
ATOM     55  F   UNL     1      -3.397  -8.366   8.413  1.00  0.00    -0.206 F 
ATOM     56  C   UNL     1      -5.080  -9.316   9.743  1.00  0.00     0.040 A 
ATOM     57  C   UNL     1      -4.825  -9.400  12.135  1.00  0.00     0.040 A 
ATOM     58  F   UNL     1      -2.915  -8.494  13.146  1.00  0.00    -0.206 F 
ATOM     59  C   UNL     1      -5.576  -9.676  10.995  1.00  0.00     0.006 A 
ENDBRANCH  38  52
BRANCH  39  60
ATOM     60  C   UNL     1       5.659  -3.540  10.148  1.00  0.00     0.057 A 
ATOM     61  C   UNL     1       6.670  -3.938   9.267  1.00  0.00     0.134 A 
ATOM     62  C   UNL     1       5.925  -2.444  10.980  1.00  0.00     0.134 A 
ATOM     63  F   UNL     1       6.486  -4.992   8.459  1.00  0.00    -0.206 F 
ATOM     64  C   UNL     1       7.906  -3.290   9.232  1.00  0.00     0.040 A 
ATOM     65  C   UNL     1       7.143  -1.766  10.932  1.00  0.00     0.040 A 
ATOM     66  F   UNL     1       4.997  -2.008  11.845  1.00  0.00    -0.206 F 
ATOM     67  C   UNL     1       8.143  -2.196  10.062  1.00  0.00     0.006 A 
ENDBRANCH  39  60
BRANCH  51  68
ATOM     68  C   UNL     1       3.858  -9.997  12.038  1.00  0.00     0.057 A 
ATOM     69  C   UNL     1       4.527 -10.041  13.268  1.00  0.00     0.134 A 
ATOM     70  C   UNL     1       3.954 -11.124  11.211  1.00  0.00     0.134 A 
ATOM     71  F   UNL     1       4.487  -8.991  14.103  1.00  0.00    -0.206 F 
ATOM     72  C   UNL     1       5.294 -11.146  13.642  1.00  0.00     0.040 A 
ATOM     73  C   UNL     1       4.687 -12.249  11.591  1.00  0.00     0.040 A 
ATOM     74  F   UNL     1       3.329 -11.156  10.025  1.00  0.00    -0.206 F 
ATOM     75  C   UNL     1       5.369 -12.257  12.805  1.00  0.00     0.006 A 
ENDBRANCH  51  68
ENDBRANCH  25  26
ENDBRANCH  18  20
ENDBRANCH  17  18
ENDBRANCH  16  17
ENDBRANCH   1  16
TORSDOF 14
