REMARK SMILES Cc1cccc(C(=O)OCCOC(=O)c2ccc(-c3c4nc(c(-c5c(F)cccc5F)c5ccc([nH]5)c(-c5c(F)cccc5F)c5nc(c(-c6c(F)cccc6F)c6ccc3[nH]6)C=C5)C=C4)cc2)c1NC(=O)Cc1ccccc1
REMARK SMILES IDX 10 1 9 2 7 3 8 4 6 5 1 6 2 7 3 8 69 9 4 10 5 11 70 12 71 13
REMARK SMILES IDX 72 15 73 16 74 17 75 18 79 19 76 20 78 21 77 22 11 23 12 24
REMARK SMILES IDX 13 25 14 26 15 27 16 28 68 29 17 30 67 31 18 32 19 33 20 34
REMARK SMILES IDX 61 35 21 36 66 37 60 38 62 39 22 40 65 41 59 42 58 43 23 45
REMARK SMILES IDX 49 46 32 47 48 48 33 49 36 50 47 51 63 52 34 53 35 54 46 56
REMARK SMILES IDX 64 57 37 58 24 59 25 60 30 61 26 62 27 63 29 64 31 65 28 66
REMARK SMILES IDX 50 67 51 68 56 69 52 70 53 71 55 72 57 73 54 74 38 75 39 76
REMARK SMILES IDX 44 77 40 78 41 79 43 80 45 81 42 82
REMARK H PARENT 70 14 62 44 36 55
REMARK Flexibility Score: inf
ROOT
ATOM      1  C   UNL     1      -4.204   4.364  -0.043  1.00  0.00     0.275 C 
ENDROOT
BRANCH   1   2
ATOM      2  O   UNL     1      -3.011   3.794   0.508  1.00  0.00    -0.458 OA
BRANCH   2   3
ATOM      3  C   UNL     1      -2.951   2.302   0.610  1.00  0.00     0.340 C 
ATOM      4  O   UNL     1      -4.167   2.084   0.844  1.00  0.00    -0.246 OA
BRANCH   3   5
ATOM      5  C   UNL     1      -1.183   1.085   0.341  1.00  0.00     0.083 A 
ATOM      6  C   UNL     1       2.950   0.605  -0.236  1.00  0.00     0.046 C 
ATOM      7  C   UNL     1       1.434   0.459  -0.187  1.00  0.00    -0.027 A 
ATOM      8  C   UNL     1       1.134  -0.918  -0.196  1.00  0.00     0.005 A 
ATOM      9  C   UNL     1       0.396   1.512  -0.055  1.00  0.00     0.058 A 
ATOM     10  C   UNL     1      -0.100  -1.373   0.133  1.00  0.00     0.001 A 
ATOM     11  C   UNL     1      -1.104  -0.456   0.452  1.00  0.00     0.018 A 
BRANCH   9  12
ATOM     12  N   UNL     1       1.092   2.918  -0.274  1.00  0.00    -0.325 N 
ATOM     13  C   UNL     1       1.019   4.326  -0.440  1.00  0.00     0.228 C 
ATOM     14  H   UNL     1       2.054   2.714  -0.315  1.00  0.00     0.169 HD
ATOM     15  O   UNL     1       2.118   4.887  -0.278  1.00  0.00    -0.274 OA
BRANCH  13  16
ATOM     16  C   UNL     1      -0.161   5.213  -0.940  1.00  0.00     0.135 C 
BRANCH  16  17
ATOM     17  C   UNL     1      -0.574   6.628  -0.517  1.00  0.00    -0.039 A 
ATOM     18  C   UNL     1      -1.941   6.954  -0.762  1.00  0.00     0.004 A 
ATOM     19  C   UNL     1       0.199   7.626   0.055  1.00  0.00     0.004 A 
ATOM     20  C   UNL     1      -2.548   8.137  -0.343  1.00  0.00     0.000 A 
ATOM     21  C   UNL     1      -0.396   8.857   0.423  1.00  0.00     0.000 A 
ATOM     22  C   UNL     1      -1.766   9.100   0.259  1.00  0.00     0.000 A 
ENDBRANCH  16  17
ENDBRANCH  13  16
ENDBRANCH   9  12
ENDBRANCH   3   5
ENDBRANCH   2   3
ENDBRANCH   1   2
BRANCH   1  23
ATOM     23  C   UNL     1      -4.182   4.092  -1.550  1.00  0.00     0.275 C 
BRANCH  23  24
ATOM     24  O   UNL     1      -4.577   2.739  -1.941  1.00  0.00    -0.458 OA
BRANCH  24  25
ATOM     25  C   UNL     1      -3.716   1.725  -2.268  1.00  0.00     0.338 C 
ATOM     26  O   UNL     1      -3.863   1.000  -3.237  1.00  0.00    -0.246 OA
BRANCH  25  27
ATOM     27  C   UNL     1      -2.724   1.378  -1.222  1.00  0.00     0.060 A 
ATOM     28  C   UNL     1      -3.292   0.315   0.108  1.00  0.00     0.016 A 
ATOM     29  C   UNL     1      -1.600   2.711  -0.858  1.00  0.00     0.016 A 
ATOM     30  C   UNL     1      -2.780   0.646   1.847  1.00  0.00     0.010 A 
ATOM     31  C   UNL     1      -1.107   3.068   0.915  1.00  0.00     0.010 A 
ATOM     32  C   UNL     1      -1.729   2.029   2.239  1.00  0.00    -0.014 A 
BRANCH  32  33
ATOM     33  C   UNL     1      -1.749   2.821   3.460  1.00  0.00     0.031 A 
ATOM     34  C   UNL     1      -0.446   3.130   4.058  1.00  0.00     0.074 A 
ATOM     35  C   UNL     1      -2.875   3.514   3.771  1.00  0.00     0.049 A 
ATOM     36  N   UNL     1      -0.314   3.642   5.222  1.00  0.00    -0.248 NA
ATOM     37  C   UNL     1       0.840   2.830   3.431  1.00  0.00     0.031 C 
ATOM     38  C   UNL     1      -3.044   4.683   4.637  1.00  0.00     0.029 A 
ATOM     39  N   UNL     1      -4.185   3.189   3.429  1.00  0.00    -0.354 N 
ATOM     40  C   UNL     1       1.009   3.969   5.403  1.00  0.00     0.074 A 
ATOM     41  C   UNL     1       1.702   3.347   4.311  1.00  0.00     0.031 C 
ATOM     42  C   UNL     1      -4.338   4.791   4.994  1.00  0.00     0.029 A 
ATOM     43  C   UNL     1      -5.049   3.658   4.430  1.00  0.00     0.049 A 
ATOM     44  H   UNL     1      -4.461   2.707   2.615  1.00  0.00     0.167 HD
ATOM     45  C   UNL     1       1.305   4.816   6.424  1.00  0.00     0.037 A 
ATOM     46  C   UNL     1      -5.782   2.752   5.142  1.00  0.00     0.037 A 
ATOM     47  C   UNL     1       0.103   5.007   7.240  1.00  0.00     0.049 A 
ATOM     48  C   UNL     1      -5.190   2.557   6.519  1.00  0.00     0.074 A 
ATOM     49  C   UNL     1      -0.861   5.998   7.268  1.00  0.00     0.029 A 
ATOM     50  N   UNL     1      -0.460   3.890   7.856  1.00  0.00    -0.354 N 
ATOM     51  N   UNL     1      -3.975   2.924   6.838  1.00  0.00    -0.248 NA
ATOM     52  C   UNL     1      -5.926   2.027   7.663  1.00  0.00     0.031 C 
ATOM     53  C   UNL     1      -2.050   5.420   7.805  1.00  0.00     0.029 A 
ATOM     54  C   UNL     1      -1.792   4.102   8.155  1.00  0.00     0.049 A 
ATOM     55  H   UNL     1       0.029   3.059   8.052  1.00  0.00     0.167 HD
ATOM     56  C   UNL     1      -3.764   2.729   8.173  1.00  0.00     0.074 A 
ATOM     57  C   UNL     1      -5.019   2.170   8.646  1.00  0.00     0.031 C 
ATOM     58  C   UNL     1      -2.589   3.054   8.793  1.00  0.00     0.037 A 
BRANCH  45  59
ATOM     59  C   UNL     1       2.579   5.603   6.611  1.00  0.00     0.057 A 
ATOM     60  C   UNL     1       2.711   6.447   7.732  1.00  0.00     0.134 A 
ATOM     61  C   UNL     1       3.656   5.678   5.705  1.00  0.00     0.134 A 
ATOM     62  F   UNL     1       1.771   6.489   8.688  1.00  0.00    -0.206 F 
ATOM     63  C   UNL     1       3.803   7.306   7.921  1.00  0.00     0.040 A 
ATOM     64  C   UNL     1       4.771   6.508   5.900  1.00  0.00     0.040 A 
ATOM     65  F   UNL     1       3.684   4.995   4.558  1.00  0.00    -0.206 F 
ATOM     66  C   UNL     1       4.842   7.337   7.005  1.00  0.00     0.006 A 
ENDBRANCH  45  59
BRANCH  46  67
ATOM     67  C   UNL     1      -6.391   1.736   4.228  1.00  0.00     0.057 A 
ATOM     68  C   UNL     1      -7.289   2.247   3.263  1.00  0.00     0.134 A 
ATOM     69  C   UNL     1      -5.757   0.531   3.918  1.00  0.00     0.134 A 
ATOM     70  F   UNL     1      -7.968   3.378   3.514  1.00  0.00    -0.206 F 
ATOM     71  C   UNL     1      -7.361   1.727   1.970  1.00  0.00     0.040 A 
ATOM     72  C   UNL     1      -5.888  -0.044   2.643  1.00  0.00     0.040 A 
ATOM     73  F   UNL     1      -4.865  -0.011   4.760  1.00  0.00    -0.206 F 
ATOM     74  C   UNL     1      -6.622   0.598   1.645  1.00  0.00     0.006 A 
ENDBRANCH  46  67
BRANCH  58  75
ATOM     75  C   UNL     1      -2.153   2.492  10.128  1.00  0.00     0.057 A 
ATOM     76  C   UNL     1      -2.694   1.332  10.704  1.00  0.00     0.134 A 
ATOM     77  C   UNL     1      -1.061   3.042  10.839  1.00  0.00     0.134 A 
ATOM     78  F   UNL     1      -3.590   0.571  10.062  1.00  0.00    -0.206 F 
ATOM     79  C   UNL     1      -2.293   0.852  11.956  1.00  0.00     0.040 A 
ATOM     80  C   UNL     1      -0.590   2.514  12.042  1.00  0.00     0.040 A 
ATOM     81  F   UNL     1      -0.373   4.102  10.392  1.00  0.00    -0.206 F 
ATOM     82  C   UNL     1      -1.236   1.442  12.629  1.00  0.00     0.006 A 
ENDBRANCH  58  75
ENDBRANCH  32  33
ENDBRANCH  25  27
ENDBRANCH  24  25
ENDBRANCH  23  24
ENDBRANCH   1  23
TORSDOF 14
