REMARK SMILES O=C(OCCOC(=O)c1cc(NC(=S)NC(=O)c2ccccc2Cl)c(Cl)cc1Cl)c1ccc(-c2c3nc(c(-c4c(F)cccc4F)c4ccc([nH]4)c(-c4c(F)cccc4F)c4nc(c(-c5c(F)cccc5F)c5ccc2[nH]5)C=C4)C=C3)cc1
REMARK SMILES IDX 5 1 4 2 3 3 2 4 1 5 30 6 31 7 83 8 32 9 82 10 33 11 34 12
REMARK SMILES IDX 35 13 76 14 36 15 81 16 75 17 77 18 37 19 80 20 74 21 73 22
REMARK SMILES IDX 38 24 64 25 47 26 63 27 48 28 51 29 62 30 78 31 49 32 50 33
REMARK SMILES IDX 61 35 79 36 52 37 39 38 40 39 45 40 41 41 42 42 44 43 46 44
REMARK SMILES IDX 43 45 65 46 66 47 71 48 67 49 68 50 70 51 72 52 69 53 53 54
REMARK SMILES IDX 54 55 59 56 55 57 56 58 58 59 60 60 57 61 6 62 7 63 8 64
REMARK SMILES IDX 9 65 10 66 28 67 11 68 27 69 29 70 25 71 26 72 12 73 13 75
REMARK SMILES IDX 14 76 15 77 16 78 17 80 18 81 19 82 23 83 20 84 22 85 24 86
REMARK SMILES IDX 21 87
REMARK H PARENT 77 23 51 34 12 74 15 79
REMARK Flexibility Score: inf
ROOT
ATOM      1  C   UNL     1       3.050   1.810  -0.271  1.00  0.00     0.275 C 
ENDROOT
BRANCH   1   2
ATOM      2  C   UNL     1       3.983   1.160  -1.300  1.00  0.00     0.275 C 
BRANCH   2   3
ATOM      3  O   UNL     1       3.673  -0.166  -1.751  1.00  0.00    -0.458 OA
BRANCH   3   4
ATOM      4  C   UNL     1       3.377  -1.196  -0.930  1.00  0.00     0.338 C 
ATOM      5  O   UNL     1       2.392  -1.895  -1.154  1.00  0.00    -0.246 OA
BRANCH   4   6
ATOM      6  C   UNL     1       4.288  -1.544   0.211  1.00  0.00     0.060 A 
ATOM      7  C   UNL     1       5.537  -0.976   0.498  1.00  0.00     0.016 A 
ATOM      8  C   UNL     1       3.814  -2.528   1.080  1.00  0.00     0.016 A 
ATOM      9  C   UNL     1       6.215  -1.257   1.709  1.00  0.00     0.010 A 
ATOM     10  C   UNL     1       4.489  -2.808   2.272  1.00  0.00     0.010 A 
ATOM     11  C   UNL     1       5.666  -2.132   2.649  1.00  0.00    -0.014 A 
BRANCH  11  12
ATOM     12  C   UNL     1       6.281  -2.430   3.988  1.00  0.00     0.031 A 
ATOM     13  C   UNL     1       6.624  -3.868   4.292  1.00  0.00     0.074 A 
ATOM     14  C   UNL     1       6.449  -1.518   4.980  1.00  0.00     0.049 A 
ATOM     15  N   UNL     1       7.149  -4.380   5.376  1.00  0.00    -0.248 NA
ATOM     16  C   UNL     1       6.325  -4.866   3.246  1.00  0.00     0.031 C 
ATOM     17  C   UNL     1       6.192  -0.083   4.910  1.00  0.00     0.029 A 
ATOM     18  N   UNL     1       6.856  -1.683   6.292  1.00  0.00    -0.354 N 
ATOM     19  C   UNL     1       7.321  -5.723   5.088  1.00  0.00     0.074 A 
ATOM     20  C   UNL     1       6.617  -5.997   3.859  1.00  0.00     0.031 C 
ATOM     21  C   UNL     1       6.325   0.477   6.128  1.00  0.00     0.029 A 
ATOM     22  C   UNL     1       6.779  -0.539   7.063  1.00  0.00     0.049 A 
ATOM     23  H   UNL     1       7.175  -2.544   6.646  1.00  0.00     0.167 HD
ATOM     24  C   UNL     1       8.139  -6.619   5.681  1.00  0.00     0.037 A 
ATOM     25  C   UNL     1       7.094  -0.316   8.356  1.00  0.00     0.037 A 
ATOM     26  C   UNL     1       8.849  -6.378   6.898  1.00  0.00     0.049 A 
ATOM     27  C   UNL     1       7.838  -1.382   9.113  1.00  0.00     0.074 A 
ATOM     28  C   UNL     1       9.721  -7.210   7.571  1.00  0.00     0.029 A 
ATOM     29  N   UNL     1       8.744  -5.212   7.638  1.00  0.00    -0.354 N 
ATOM     30  N   UNL     1       8.158  -2.593   8.733  1.00  0.00    -0.248 NA
ATOM     31  C   UNL     1       8.358  -1.008  10.438  1.00  0.00     0.031 C 
ATOM     32  C   UNL     1      10.105  -6.566   8.752  1.00  0.00     0.029 A 
ATOM     33  C   UNL     1       9.509  -5.316   8.784  1.00  0.00     0.049 A 
ATOM     34  H   UNL     1       8.205  -4.428   7.386  1.00  0.00     0.167 HD
ATOM     35  C   UNL     1       8.984  -3.093   9.731  1.00  0.00     0.074 A 
ATOM     36  C   UNL     1       9.096  -2.065  10.743  1.00  0.00     0.031 C 
ATOM     37  C   UNL     1       9.620  -4.287   9.783  1.00  0.00     0.037 A 
BRANCH  24  38
ATOM     38  C   UNL     1       8.360  -7.887   4.917  1.00  0.00     0.057 A 
ATOM     39  C   UNL     1       9.052  -7.867   3.693  1.00  0.00     0.134 A 
ATOM     40  C   UNL     1       7.801  -9.096   5.330  1.00  0.00     0.134 A 
ATOM     41  F   UNL     1       9.579  -6.723   3.227  1.00  0.00    -0.206 F 
ATOM     42  C   UNL     1       9.131  -8.996   2.882  1.00  0.00     0.040 A 
ATOM     43  C   UNL     1       7.901 -10.241   4.539  1.00  0.00     0.040 A 
ATOM     44  F   UNL     1       7.119  -9.174   6.481  1.00  0.00    -0.206 F 
ATOM     45  C   UNL     1       8.552 -10.189   3.306  1.00  0.00     0.006 A 
ENDBRANCH  24  38
BRANCH  25  46
ATOM     46  C   UNL     1       6.846   0.983   9.043  1.00  0.00     0.057 A 
ATOM     47  C   UNL     1       7.859   1.939   9.195  1.00  0.00     0.134 A 
ATOM     48  C   UNL     1       5.652   1.197   9.739  1.00  0.00     0.134 A 
ATOM     49  F   UNL     1       9.050   1.755   8.608  1.00  0.00    -0.206 F 
ATOM     50  C   UNL     1       7.701   3.051  10.028  1.00  0.00     0.040 A 
ATOM     51  C   UNL     1       5.486   2.300  10.584  1.00  0.00     0.040 A 
ATOM     52  F   UNL     1       4.644   0.318   9.640  1.00  0.00    -0.206 F 
ATOM     53  C   UNL     1       6.511   3.233  10.728  1.00  0.00     0.006 A 
ENDBRANCH  25  46
BRANCH  37  54
ATOM     54  C   UNL     1      10.535  -4.531  10.943  1.00  0.00     0.057 A 
ATOM     55  C   UNL     1      10.053  -4.725  12.242  1.00  0.00     0.134 A 
ATOM     56  C   UNL     1      11.919  -4.614  10.742  1.00  0.00     0.134 A 
ATOM     57  F   UNL     1       8.739  -4.638  12.501  1.00  0.00    -0.206 F 
ATOM     58  C   UNL     1      10.918  -4.975  13.307  1.00  0.00     0.040 A 
ATOM     59  C   UNL     1      12.790  -4.897  11.793  1.00  0.00     0.040 A 
ATOM     60  F   UNL     1      12.444  -4.440   9.520  1.00  0.00    -0.206 F 
ATOM     61  C   UNL     1      12.290  -5.073  13.081  1.00  0.00     0.006 A 
ENDBRANCH  37  54
ENDBRANCH  11  12
ENDBRANCH   4   6
ENDBRANCH   3   4
ENDBRANCH   2   3
ENDBRANCH   1   2
BRANCH   1  62
ATOM     62  O   UNL     1       2.533   0.924   0.739  1.00  0.00    -0.458 OA
BRANCH  62  63
ATOM     63  C   UNL     1       1.476   1.435   1.435  1.00  0.00     0.339 C 
ATOM     64  O   UNL     1       0.771   2.352   1.029  1.00  0.00    -0.246 OA
BRANCH  63  65
ATOM     65  C   UNL     1       1.264   0.937   2.889  1.00  0.00     0.080 A 
ATOM     66  C   UNL     1       2.276   1.077   4.640  1.00  0.00     0.045 A 
ATOM     67  C   UNL     1      -0.457   0.376   3.051  1.00  0.00     0.057 A 
ATOM     68  C   UNL     1       1.559   0.838   6.158  1.00  0.00     0.060 A 
ATOM     69  C   UNL     1      -1.088   0.033   4.691  1.00  0.00     0.044 A 
ATOM     70  Cl  UNL     1      -1.476   0.103   1.698  1.00  0.00    -0.083 Cl
ATOM     71  C   UNL     1      -0.103   0.273   6.178  1.00  0.00     0.066 A 
ATOM     72  Cl  UNL     1      -0.879   0.069   7.703  1.00  0.00    -0.082 Cl
BRANCH  68  73
ATOM     73  N   UNL     1       2.168   1.716   7.087  1.00  0.00    -0.331 N 
ATOM     74  H   UNL     1       1.904   1.568   8.024  1.00  0.00     0.169 HD
BRANCH  73  75
ATOM     75  C   UNL     1       3.070   2.746   6.901  1.00  0.00     0.177 C 
ATOM     76  S   UNL     1       3.359   3.723   8.237  1.00  0.00    -0.040 S 
BRANCH  75  77
ATOM     77  N   UNL     1       3.778   3.150   5.726  1.00  0.00    -0.299 N 
ATOM     78  C   UNL     1       4.064   3.115   4.267  1.00  0.00     0.258 C 
ATOM     79  H   UNL     1       4.426   3.807   6.068  1.00  0.00     0.172 HD
ATOM     80  O   UNL     1       5.154   3.483   3.838  1.00  0.00    -0.269 OA
BRANCH  78  81
ATOM     81  C   UNL     1       3.074   2.497   3.298  1.00  0.00     0.058 A 
ATOM     82  C   UNL     1       3.576   0.793   2.972  1.00  0.00     0.015 A 
ATOM     83  C   UNL     1       1.504   2.917   3.923  1.00  0.00     0.053 A 
ATOM     84  C   UNL     1       2.623  -0.621   3.496  1.00  0.00     0.001 A 
ATOM     85  C   UNL     1       0.456   1.613   4.494  1.00  0.00     0.021 A 
ATOM     86  Cl  UNL     1       1.091   4.541   4.305  1.00  0.00    -0.083 Cl
ATOM     87  C   UNL     1       1.065  -0.317   4.330  1.00  0.00     0.002 A 
ENDBRANCH  78  81
ENDBRANCH  75  77
ENDBRANCH  73  75
ENDBRANCH  68  73
ENDBRANCH  63  65
ENDBRANCH  62  63
ENDBRANCH   1  62
TORSDOF 15
