REMARK SMILES Cc1ccccc1[C@@H]1[NH2+][C@H](C(=O)OCCOC(=O)c2ccc(-c3c4nc(c(-c5c(F)cccc5F)c5ccc([nH]5)c(-c5c(F)cccc5F)c5nc(c(-c6c(F)cccc6F)c6ccc3[nH]6)C=C5)C=C4)cc2)CC2=c3ccccc3=N[C@@H]21
REMARK SMILES IDX 15 1 14 2 13 3 11 4 12 5 10 6 8 7 9 8 82 9 74 12 81 13 73 14
REMARK SMILES IDX 75 15 80 16 76 17 79 18 77 19 78 20 7 21 1 22 2 23 3 24 4 25
REMARK SMILES IDX 6 26 5 27 16 28 17 29 18 30 19 31 20 32 72 33 21 34 71 35
REMARK SMILES IDX 22 36 23 37 24 38 65 39 25 40 70 41 64 42 66 43 26 44 69 45
REMARK SMILES IDX 63 46 62 47 27 49 53 50 36 51 52 52 37 53 40 54 51 55 67 56
REMARK SMILES IDX 38 57 39 58 50 60 68 61 41 62 28 63 29 64 34 65 30 66 31 67
REMARK SMILES IDX 33 68 35 69 32 70 54 71 55 72 60 73 56 74 57 75 59 76 61 77
REMARK SMILES IDX 58 78 42 79 43 80 48 81 44 82 45 83 47 84 49 85 46 86
REMARK H PARENT 9 10 9 11 66 48 40 59
REMARK Flexibility Score: inf
ROOT
ATOM      1  C   UNL     1      -0.750   4.064  -1.715  1.00  0.00     0.275 C 
ENDROOT
BRANCH   1   2
ATOM      2  C   UNL     1       0.713   4.551  -1.806  1.00  0.00     0.274 C 
BRANCH   2   3
ATOM      3  O   UNL     1       1.270   5.414  -0.770  1.00  0.00    -0.458 OA
BRANCH   3   4
ATOM      4  C   UNL     1       1.788   5.180   0.474  1.00  0.00     0.365 C 
ATOM      5  O   UNL     1       2.510   6.023   1.000  1.00  0.00    -0.245 OA
BRANCH   4   6
ATOM      6  C   UNL     1       1.370   3.882   1.179  1.00  0.00     0.298 C 
ATOM      7  C   UNL     1       1.622   1.509   0.472  1.00  0.00     0.243 C 
ATOM      8  N   UNL     1       1.401   2.898   0.124  1.00  0.00    -0.326 N 
ATOM      9  C   UNL     1       3.109   1.450   1.021  1.00  0.00     0.196 C 
ATOM     10  H   UNL     1       0.504   2.947  -0.359  1.00  0.00     0.347 HD
ATOM     11  H   UNL     1       2.224   3.149  -0.424  1.00  0.00     0.347 HD
ATOM     12  C   UNL     1       3.374   2.681   1.907  1.00  0.00    -0.024 C 
ATOM     13  N   UNL     1       4.173   1.585  -0.021  1.00  0.00    -0.270 NA
ATOM     14  C   UNL     1       2.204   3.476   2.411  1.00  0.00     0.111 C 
ATOM     15  C   UNL     1       4.536   3.270   1.630  1.00  0.00     0.002 A 
ATOM     16  C   UNL     1       4.917   2.571   0.392  1.00  0.00     0.066 A 
ATOM     17  C   UNL     1       5.064   4.558   1.967  1.00  0.00     0.010 A 
ATOM     18  C   UNL     1       6.047   3.174  -0.354  1.00  0.00     0.028 A 
ATOM     19  C   UNL     1       6.002   5.099   1.175  1.00  0.00     0.001 A 
ATOM     20  C   UNL     1       6.521   4.374   0.030  1.00  0.00     0.002 A 
BRANCH   7  21
ATOM     21  C   UNL     1       1.049   0.856  -0.805  1.00  0.00     0.015 A 
ATOM     22  C   UNL     1      -1.331   0.623   0.239  1.00  0.00     0.045 C 
ATOM     23  C   UNL     1      -0.357   0.619  -0.918  1.00  0.00    -0.042 A 
ATOM     24  C   UNL     1      -0.954   0.515  -2.196  1.00  0.00     0.004 A 
ATOM     25  C   UNL     1      -0.214   0.711  -3.358  1.00  0.00     0.000 A 
ATOM     26  C   UNL     1       1.781   0.967  -2.013  1.00  0.00     0.010 A 
ATOM     27  C   UNL     1       1.152   0.936  -3.266  1.00  0.00     0.001 A 
ENDBRANCH   7  21
ENDBRANCH   4   6
ENDBRANCH   3   4
ENDBRANCH   2   3
ENDBRANCH   1   2
BRANCH   1  28
ATOM     28  O   UNL     1      -1.356   3.747  -0.416  1.00  0.00    -0.458 OA
BRANCH  28  29
ATOM     29  C   UNL     1      -1.810   4.538   0.617  1.00  0.00     0.338 C 
ATOM     30  O   UNL     1      -2.244   4.099   1.647  1.00  0.00    -0.246 OA
BRANCH  29  31
ATOM     31  C   UNL     1      -1.644   5.990   0.418  1.00  0.00     0.060 A 
ATOM     32  C   UNL     1      -0.755   6.766   1.190  1.00  0.00     0.016 A 
ATOM     33  C   UNL     1      -2.035   6.386  -0.819  1.00  0.00     0.016 A 
ATOM     34  C   UNL     1      -0.045   7.811   0.567  1.00  0.00     0.010 A 
ATOM     35  C   UNL     1      -1.045   7.048  -1.468  1.00  0.00     0.010 A 
ATOM     36  C   UNL     1      -0.124   7.886  -0.819  1.00  0.00    -0.014 A 
BRANCH  36  37
ATOM     37  C   UNL     1       0.585   8.749  -1.779  1.00  0.00     0.031 A 
ATOM     38  C   UNL     1       2.058   8.939  -1.787  1.00  0.00     0.074 A 
ATOM     39  C   UNL     1      -0.261   9.262  -2.718  1.00  0.00     0.049 A 
ATOM     40  N   UNL     1       2.653  10.086  -1.824  1.00  0.00    -0.248 NA
ATOM     41  C   UNL     1       3.021   7.832  -1.783  1.00  0.00     0.031 C 
ATOM     42  C   UNL     1      -0.085  10.013  -3.938  1.00  0.00     0.029 A 
ATOM     43  N   UNL     1      -1.671   9.196  -2.632  1.00  0.00    -0.354 N 
ATOM     44  C   UNL     1       3.955   9.837  -2.243  1.00  0.00     0.074 A 
ATOM     45  C   UNL     1       4.197   8.449  -1.960  1.00  0.00     0.031 C 
ATOM     46  C   UNL     1      -1.252  10.648  -4.215  1.00  0.00     0.029 A 
ATOM     47  C   UNL     1      -2.197  10.359  -3.135  1.00  0.00     0.049 A 
ATOM     48  H   UNL     1      -2.190   8.441  -2.272  1.00  0.00     0.167 HD
ATOM     49  C   UNL     1       4.564  10.671  -3.141  1.00  0.00     0.037 A 
ATOM     50  C   UNL     1      -2.781  11.173  -2.212  1.00  0.00     0.037 A 
ATOM     51  C   UNL     1       3.563  11.586  -3.671  1.00  0.00     0.049 A 
ATOM     52  C   UNL     1      -1.944  12.407  -2.128  1.00  0.00     0.074 A 
ATOM     53  C   UNL     1       2.853  11.563  -4.860  1.00  0.00     0.029 A 
ATOM     54  N   UNL     1       2.908  12.468  -2.829  1.00  0.00    -0.354 N 
ATOM     55  N   UNL     1      -0.645  12.417  -2.248  1.00  0.00    -0.248 NA
ATOM     56  C   UNL     1      -2.540  13.731  -2.096  1.00  0.00     0.031 C 
ATOM     57  C   UNL     1       1.770  12.464  -4.735  1.00  0.00     0.029 A 
ATOM     58  C   UNL     1       1.802  12.997  -3.457  1.00  0.00     0.049 A 
ATOM     59  H   UNL     1       3.192  12.686  -1.913  1.00  0.00     0.167 HD
ATOM     60  C   UNL     1      -0.243  13.708  -2.458  1.00  0.00     0.074 A 
ATOM     61  C   UNL     1      -1.459  14.492  -2.321  1.00  0.00     0.031 C 
ATOM     62  C   UNL     1       1.033  14.040  -2.809  1.00  0.00     0.037 A 
BRANCH  49  63
ATOM     63  C   UNL     1       5.901  10.471  -3.841  1.00  0.00     0.057 A 
ATOM     64  C   UNL     1       6.185  11.115  -5.070  1.00  0.00     0.134 A 
ATOM     65  C   UNL     1       6.976   9.722  -3.331  1.00  0.00     0.134 A 
ATOM     66  F   UNL     1       5.319  11.956  -5.649  1.00  0.00    -0.206 F 
ATOM     67  C   UNL     1       7.387  10.958  -5.772  1.00  0.00     0.040 A 
ATOM     68  C   UNL     1       8.186   9.547  -4.032  1.00  0.00     0.040 A 
ATOM     69  F   UNL     1       6.923   9.165  -2.113  1.00  0.00    -0.206 F 
ATOM     70  C   UNL     1       8.392  10.157  -5.263  1.00  0.00     0.006 A 
ENDBRANCH  49  63
BRANCH  50  71
ATOM     71  C   UNL     1      -3.429  10.432  -1.061  1.00  0.00     0.057 A 
ATOM     72  C   UNL     1      -4.461   9.506  -1.343  1.00  0.00     0.134 A 
ATOM     73  C   UNL     1      -2.872  10.342   0.221  1.00  0.00     0.134 A 
ATOM     74  F   UNL     1      -5.035   9.490  -2.558  1.00  0.00    -0.206 F 
ATOM     75  C   UNL     1      -4.859   8.505  -0.442  1.00  0.00     0.040 A 
ATOM     76  C   UNL     1      -3.271   9.348   1.139  1.00  0.00     0.040 A 
ATOM     77  F   UNL     1      -1.872  11.153   0.591  1.00  0.00    -0.206 F 
ATOM     78  C   UNL     1      -4.247   8.412   0.801  1.00  0.00     0.006 A 
ENDBRANCH  50  71
BRANCH  62  79
ATOM     79  C   UNL     1       1.674  15.398  -2.680  1.00  0.00     0.057 A 
ATOM     80  C   UNL     1       1.151  16.441  -1.909  1.00  0.00     0.134 A 
ATOM     81  C   UNL     1       2.972  15.639  -3.200  1.00  0.00     0.134 A 
ATOM     82  F   UNL     1       0.001  16.324  -1.235  1.00  0.00    -0.206 F 
ATOM     83  C   UNL     1       1.825  17.653  -1.730  1.00  0.00     0.040 A 
ATOM     84  C   UNL     1       3.687  16.809  -2.956  1.00  0.00     0.040 A 
ATOM     85  F   UNL     1       3.635  14.739  -3.940  1.00  0.00    -0.206 F 
ATOM     86  C   UNL     1       3.103  17.834  -2.236  1.00  0.00     0.006 A 
ENDBRANCH  62  79
ENDBRANCH  36  37
ENDBRANCH  29  31
ENDBRANCH  28  29
ENDBRANCH   1  28
TORSDOF 12
