REMARK SMILES CC(C)C[C@H](NC(=O)CNC(=O)[C@@H](NC(=O)OCc1ccccc1)C(C)C)C(=O)OCCOC(=O)c1ccc(-c2c3nc(c(-c4c(F)cccc4F)c4ccc([nH]4)c(-c4c(F)cccc4F)c4nc(c(-c5c(F)cccc5F)c5ccc2[nH]5)C=C4)C=C3)cc1
REMARK SMILES IDX 5 1 4 2 2 3 1 4 3 5 28 6 29 7 30 8 31 9 32 10 33 11 34 12
REMARK SMILES IDX 35 13 36 14 37 15 89 16 38 17 88 18 39 19 40 20 41 21 82 22
REMARK SMILES IDX 42 23 87 24 81 25 83 26 43 27 86 28 80 29 79 30 44 32 70 33
REMARK SMILES IDX 53 34 69 35 54 36 57 37 68 38 84 39 55 40 56 41 67 43 85 44
REMARK SMILES IDX 58 45 45 46 46 47 51 48 47 49 48 50 50 51 52 52 49 53 71 54
REMARK SMILES IDX 72 55 77 56 73 57 74 58 76 59 78 60 75 61 59 62 60 63 65 64
REMARK SMILES IDX 61 65 62 66 64 67 66 68 63 69 6 70 7 71 8 73 9 74 10 75
REMARK SMILES IDX 11 76 12 78 13 79 14 80 15 81 16 83 17 84 18 85 19 86 20 87
REMARK SMILES IDX 24 88 21 89 23 90 22 91 25 92 26 93 27 94
REMARK H PARENT 83 31 57 42 6 72 10 77 14 82
REMARK Flexibility Score: inf
ROOT
ATOM      1  C   UNL     1      -2.016   1.565  -1.427  1.00  0.00     0.192 C 
ENDROOT
BRANCH   1   2
ATOM      2  C   UNL     1      -1.839   2.909  -2.144  1.00  0.00     0.040 C 
BRANCH   2   3
ATOM      3  C   UNL     1      -2.661   4.130  -1.687  1.00  0.00    -0.015 C 
ATOM      4  C   UNL     1      -2.506   4.478  -0.203  1.00  0.00     0.007 C 
ATOM      5  C   UNL     1      -2.234   5.345  -2.519  1.00  0.00     0.007 C 
ENDBRANCH   2   3
ENDBRANCH   1   2
BRANCH   1   6
ATOM      6  C   UNL     1      -3.519   1.344  -1.165  1.00  0.00     0.328 C 
ATOM      7  O   UNL     1      -4.137   1.964  -0.304  1.00  0.00    -0.250 OA
BRANCH   6   8
ATOM      8  O   UNL     1      -4.111   0.488  -2.041  1.00  0.00    -0.461 OA
BRANCH   8   9
ATOM      9  C   UNL     1      -5.542   0.397  -1.886  1.00  0.00     0.274 C 
BRANCH   9  10
ATOM     10  C   UNL     1      -5.979  -0.703  -0.907  1.00  0.00     0.275 C 
BRANCH  10  11
ATOM     11  O   UNL     1      -5.575  -0.468   0.458  1.00  0.00    -0.458 OA
BRANCH  11  12
ATOM     12  C   UNL     1      -4.343  -0.933   0.773  1.00  0.00     0.338 C 
ATOM     13  O   UNL     1      -3.566  -1.500   0.021  1.00  0.00    -0.246 OA
BRANCH  12  14
ATOM     14  C   UNL     1      -3.964  -0.549   2.145  1.00  0.00     0.060 A 
ATOM     15  C   UNL     1      -2.873   0.304   2.301  1.00  0.00     0.016 A 
ATOM     16  C   UNL     1      -4.556  -1.132   3.265  1.00  0.00     0.016 A 
ATOM     17  C   UNL     1      -2.337   0.548   3.563  1.00  0.00     0.010 A 
ATOM     18  C   UNL     1      -4.026  -0.870   4.540  1.00  0.00     0.010 A 
ATOM     19  C   UNL     1      -2.895  -0.046   4.697  1.00  0.00    -0.014 A 
BRANCH  19  20
ATOM     20  C   UNL     1      -2.238   0.135   6.020  1.00  0.00     0.031 A 
ATOM     21  C   UNL     1      -1.551  -1.028   6.683  1.00  0.00     0.074 A 
ATOM     22  C   UNL     1      -2.194   1.347   6.605  1.00  0.00     0.049 A 
ATOM     23  N   UNL     1      -1.038  -1.116   7.886  1.00  0.00    -0.248 NA
ATOM     24  C   UNL     1      -1.433  -2.260   5.888  1.00  0.00     0.031 C 
ATOM     25  C   UNL     1      -2.715   2.586   6.027  1.00  0.00     0.029 A 
ATOM     26  N   UNL     1      -1.662   1.740   7.809  1.00  0.00    -0.354 N 
ATOM     27  C   UNL     1      -0.584  -2.424   8.008  1.00  0.00     0.074 A 
ATOM     28  C   UNL     1      -0.882  -3.093   6.760  1.00  0.00     0.031 C 
ATOM     29  C   UNL     1      -2.447   3.604   6.860  1.00  0.00     0.029 A 
ATOM     30  C   UNL     1      -1.803   3.082   8.063  1.00  0.00     0.049 A 
ATOM     31  H   UNL     1      -1.222   1.117   8.432  1.00  0.00     0.167 HD
ATOM     32  C   UNL     1       0.020  -3.013   9.069  1.00  0.00     0.037 A 
ATOM     33  C   UNL     1      -1.475   3.807   9.150  1.00  0.00     0.037 A 
ATOM     34  C   UNL     1       0.371  -2.330  10.287  1.00  0.00     0.049 A 
ATOM     35  C   UNL     1      -0.846   3.121  10.333  1.00  0.00     0.074 A 
ATOM     36  C   UNL     1       0.986  -2.843  11.416  1.00  0.00     0.029 A 
ATOM     37  N   UNL     1       0.149  -0.983  10.531  1.00  0.00    -0.354 N 
ATOM     38  N   UNL     1      -0.475   1.870  10.465  1.00  0.00    -0.248 NA
ATOM     39  C   UNL     1      -0.605   3.946  11.526  1.00  0.00     0.031 C 
ATOM     40  C   UNL     1       1.095  -1.818  12.361  1.00  0.00     0.029 A 
ATOM     41  C   UNL     1       0.598  -0.653  11.800  1.00  0.00     0.049 A 
ATOM     42  H   UNL     1      -0.266  -0.355   9.897  1.00  0.00     0.167 HD
ATOM     43  C   UNL     1       0.047   1.761  11.748  1.00  0.00     0.074 A 
ATOM     44  C   UNL     1      -0.023   3.079  12.342  1.00  0.00     0.031 C 
ATOM     45  C   UNL     1       0.531   0.664  12.380  1.00  0.00     0.037 A 
BRANCH  32  46
ATOM     46  C   UNL     1       0.292  -4.487   8.985  1.00  0.00     0.057 A 
ATOM     47  C   UNL     1       1.305  -5.021   8.181  1.00  0.00     0.134 A 
ATOM     48  C   UNL     1      -0.454  -5.382   9.765  1.00  0.00     0.134 A 
ATOM     49  F   UNL     1       2.050  -4.221   7.403  1.00  0.00    -0.206 F 
ATOM     50  C   UNL     1       1.550  -6.396   8.137  1.00  0.00     0.040 A 
ATOM     51  C   UNL     1      -0.200  -6.754   9.751  1.00  0.00     0.040 A 
ATOM     52  F   UNL     1      -1.434  -4.935  10.566  1.00  0.00    -0.206 F 
ATOM     53  C   UNL     1       0.802  -7.265   8.930  1.00  0.00     0.006 A 
ENDBRANCH  32  46
BRANCH  33  54
ATOM     54  C   UNL     1      -1.772   5.262   9.191  1.00  0.00     0.057 A 
ATOM     55  C   UNL     1      -0.746   6.213   9.238  1.00  0.00     0.134 A 
ATOM     56  C   UNL     1      -3.090   5.737   9.203  1.00  0.00     0.134 A 
ATOM     57  F   UNL     1       0.537   5.821   9.257  1.00  0.00    -0.206 F 
ATOM     58  C   UNL     1      -1.018   7.580   9.307  1.00  0.00     0.040 A 
ATOM     59  C   UNL     1      -3.376   7.102   9.239  1.00  0.00     0.040 A 
ATOM     60  F   UNL     1      -4.120   4.880   9.165  1.00  0.00    -0.206 F 
ATOM     61  C   UNL     1      -2.338   8.028   9.299  1.00  0.00     0.006 A 
ENDBRANCH  33  54
BRANCH  45  62
ATOM     62  C   UNL     1       1.051   0.845  13.778  1.00  0.00     0.057 A 
ATOM     63  C   UNL     1       0.195   1.075  14.863  1.00  0.00     0.134 A 
ATOM     64  C   UNL     1       2.422   0.748  14.048  1.00  0.00     0.134 A 
ATOM     65  F   UNL     1      -1.128   1.191  14.672  1.00  0.00    -0.206 F 
ATOM     66  C   UNL     1       0.685   1.226  16.161  1.00  0.00     0.040 A 
ATOM     67  C   UNL     1       2.922   0.869  15.346  1.00  0.00     0.040 A 
ATOM     68  F   UNL     1       3.297   0.518  13.057  1.00  0.00    -0.206 F 
ATOM     69  C   UNL     1       2.053   1.115  16.406  1.00  0.00     0.006 A 
ENDBRANCH  45  62
ENDBRANCH  19  20
ENDBRANCH  12  14
ENDBRANCH  11  12
ENDBRANCH  10  11
ENDBRANCH   9  10
ENDBRANCH   8   9
ENDBRANCH   6   8
ENDBRANCH   1   6
BRANCH   1  70
ATOM     70  N   UNL     1      -1.388   0.460  -2.170  1.00  0.00    -0.341 N 
ATOM     71  C   UNL     1      -0.100   0.055  -2.339  1.00  0.00     0.240 C 
ATOM     72  H   UNL     1      -2.038  -0.107  -2.645  1.00  0.00     0.164 HD
ATOM     73  O   UNL     1       0.057  -1.090  -2.785  1.00  0.00    -0.273 OA
BRANCH  71  74
ATOM     74  C   UNL     1       1.150   0.854  -1.908  1.00  0.00     0.216 C 
BRANCH  74  75
ATOM     75  N   UNL     1       1.284   2.228  -2.355  1.00  0.00    -0.345 N 
ATOM     76  C   UNL     1       1.496   3.419  -1.741  1.00  0.00     0.243 C 
ATOM     77  H   UNL     1       1.201   2.316  -3.332  1.00  0.00     0.164 HD
ATOM     78  O   UNL     1       1.678   4.374  -2.510  1.00  0.00    -0.273 OA
BRANCH  76  79
ATOM     79  C   UNL     1       1.520   3.665  -0.202  1.00  0.00     0.177 C 
BRANCH  79  80
ATOM     80  N   UNL     1       0.692   2.731   0.561  1.00  0.00    -0.309 N 
ATOM     81  C   UNL     1       0.984   1.612   1.271  1.00  0.00     0.408 C 
ATOM     82  H   UNL     1      -0.266   2.959   0.559  1.00  0.00     0.167 HD
ATOM     83  O   UNL     1       0.084   0.840   1.577  1.00  0.00    -0.225 OA
BRANCH  81  84
ATOM     84  O   UNL     1       2.280   1.466   1.602  1.00  0.00    -0.445 OA
BRANCH  84  85
ATOM     85  C   UNL     1       2.560   0.371   2.490  1.00  0.00     0.270 C 
BRANCH  85  86
ATOM     86  C   UNL     1       2.272   0.648   3.954  1.00  0.00    -0.011 A 
ATOM     87  C   UNL     1       1.518   1.744   4.399  1.00  0.00     0.007 A 
ATOM     88  C   UNL     1       2.740  -0.261   4.917  1.00  0.00     0.007 A 
ATOM     89  C   UNL     1       1.255   1.938   5.755  1.00  0.00     0.000 A 
ATOM     90  C   UNL     1       2.467  -0.073   6.275  1.00  0.00     0.000 A 
ATOM     91  C   UNL     1       1.727   1.028   6.693  1.00  0.00     0.000 A 
ENDBRANCH  85  86
ENDBRANCH  84  85
ENDBRANCH  81  84
ENDBRANCH  79  80
BRANCH  79  92
ATOM     92  C   UNL     1       2.925   3.982   0.362  1.00  0.00     0.015 C 
ATOM     93  C   UNL     1       3.650   5.068  -0.446  1.00  0.00     0.010 C 
ATOM     94  C   UNL     1       2.849   4.487   1.812  1.00  0.00     0.010 C 
ENDBRANCH  79  92
ENDBRANCH  76  79
ENDBRANCH  74  75
ENDBRANCH  71  74
ENDBRANCH   1  70
TORSDOF 22
