REMARK SMILES COCCN1C[C@H](C(=O)N[C@@H](C(=O)OCCOC(=O)c2ccc(-c3c4nc(c(-c5c(F)cccc5F)c5ccc([nH]5)c(-c5c(F)cccc5F)c5nc(c(-c6c(F)cccc6F)c6ccc3[nH]6)C=C5)C=C4)cc2)[C@@H](C)O)CC1=O
REMARK SMILES IDX 14 1 12 2 13 3 11 4 10 5 8 6 9 7 7 9 5 10 6 11 78 12 77 13
REMARK SMILES IDX 79 14 4 15 3 16 2 17 1 18 74 19 75 20 76 21 15 23 16 24
REMARK SMILES IDX 17 25 18 26 19 27 20 28 21 29 73 30 22 31 72 32 23 33 24 34
REMARK SMILES IDX 25 35 66 36 26 37 71 38 65 39 67 40 27 41 70 42 64 43 63 44
REMARK SMILES IDX 28 46 54 47 37 48 53 49 38 50 41 51 52 52 68 53 39 54 40 55
REMARK SMILES IDX 51 57 69 58 42 59 29 60 30 61 35 62 31 63 32 64 34 65 36 66
REMARK SMILES IDX 33 67 55 68 56 69 61 70 57 71 58 72 60 73 62 74 59 75 43 76
REMARK SMILES IDX 44 77 49 78 45 79 46 80 48 81 50 82 47 83
REMARK H PARENT 10 8 76 22 67 45 41 56
REMARK Flexibility Score: inf
ROOT
ATOM      1  O   UNL     1       5.053   3.900  -1.653  1.00  0.00    -0.460 OA
ENDROOT
BRANCH   1   2
ATOM      2  C   UNL     1       4.292   4.872  -1.081  1.00  0.00     0.331 C 
ATOM      3  O   UNL     1       4.549   5.430  -0.019  1.00  0.00    -0.250 OA
BRANCH   2   4
ATOM      4  C   UNL     1       2.987   5.145  -1.865  1.00  0.00     0.221 C 
BRANCH   4   5
ATOM      5  N   UNL     1       2.912   4.378  -3.115  1.00  0.00    -0.340 N 
ATOM      6  C   UNL     1       2.039   3.375  -3.427  1.00  0.00     0.226 C 
ATOM      7  O   UNL     1       2.025   2.919  -4.565  1.00  0.00    -0.275 OA
ATOM      8  H   UNL     1       3.567   4.616  -3.811  1.00  0.00     0.164 HD
BRANCH   6   9
ATOM      9  C   UNL     1       1.111   2.894  -2.323  1.00  0.00     0.107 C 
ATOM     10  N   UNL     1       0.886   0.567  -2.337  1.00  0.00    -0.340 N 
ATOM     11  C   UNL     1       0.182   1.764  -2.740  1.00  0.00     0.133 C 
ATOM     12  C   UNL     1       2.050   0.846  -1.654  1.00  0.00     0.223 C 
ATOM     13  C   UNL     1       1.946   2.267  -1.209  1.00  0.00     0.115 C 
ATOM     14  O   UNL     1       2.953   0.087  -1.343  1.00  0.00    -0.275 OA
BRANCH  10  15
ATOM     15  C   UNL     1       0.421  -0.763  -2.685  1.00  0.00     0.148 C 
BRANCH  15  16
ATOM     16  C   UNL     1       0.636  -1.822  -1.589  1.00  0.00     0.181 C 
BRANCH  16  17
ATOM     17  O   UNL     1      -0.189  -1.631  -0.431  1.00  0.00    -0.383 OA
ATOM     18  C   UNL     1       0.317  -0.676   0.493  1.00  0.00     0.194 C 
ENDBRANCH  16  17
ENDBRANCH  15  16
ENDBRANCH  10  15
ENDBRANCH   6   9
ENDBRANCH   4   5
BRANCH   4  19
ATOM     19  C   UNL     1       2.695   6.636  -2.131  1.00  0.00     0.145 C 
ATOM     20  C   UNL     1       1.308   6.845  -2.737  1.00  0.00     0.041 C 
BRANCH  19  21
ATOM     21  O   UNL     1       2.735   7.449  -0.956  1.00  0.00    -0.391 OA
ATOM     22  H   UNL     1       2.027   7.176  -0.350  1.00  0.00     0.211 HD
ENDBRANCH  19  21
ENDBRANCH   4  19
ENDBRANCH   2   4
ENDBRANCH   1   2
BRANCH   1  23
ATOM     23  C   UNL     1       6.274   3.503  -0.992  1.00  0.00     0.274 C 
BRANCH  23  24
ATOM     24  C   UNL     1       7.482   3.825  -1.874  1.00  0.00     0.275 C 
BRANCH  24  25
ATOM     25  O   UNL     1       7.637   5.251  -2.010  1.00  0.00    -0.458 OA
BRANCH  25  26
ATOM     26  C   UNL     1       6.974   5.787  -3.058  1.00  0.00     0.338 C 
ATOM     27  O   UNL     1       6.325   5.205  -3.912  1.00  0.00    -0.246 OA
BRANCH  26  28
ATOM     28  C   UNL     1       6.933   7.245  -2.931  1.00  0.00     0.060 A 
ATOM     29  C   UNL     1       5.858   7.772  -2.230  1.00  0.00     0.016 A 
ATOM     30  C   UNL     1       7.756   8.078  -3.677  1.00  0.00     0.016 A 
ATOM     31  C   UNL     1       5.482   9.092  -2.409  1.00  0.00     0.010 A 
ATOM     32  C   UNL     1       7.468   9.450  -3.723  1.00  0.00     0.010 A 
ATOM     33  C   UNL     1       6.298   9.965  -3.130  1.00  0.00    -0.014 A 
BRANCH  33  34
ATOM     34  C   UNL     1       5.897  11.392  -3.281  1.00  0.00     0.031 A 
ATOM     35  C   UNL     1       5.790  12.006  -4.652  1.00  0.00     0.074 A 
ATOM     36  C   UNL     1       5.595  12.134  -2.195  1.00  0.00     0.049 A 
ATOM     37  N   UNL     1       5.678  13.266  -4.989  1.00  0.00    -0.248 NA
ATOM     38  C   UNL     1       5.827  11.083  -5.798  1.00  0.00     0.031 C 
ATOM     39  C   UNL     1       5.574  11.655  -0.809  1.00  0.00     0.029 A 
ATOM     40  N   UNL     1       5.242  13.458  -2.084  1.00  0.00    -0.354 N 
ATOM     41  C   UNL     1       5.685  13.291  -6.379  1.00  0.00     0.074 A 
ATOM     42  C   UNL     1       5.829  11.922  -6.824  1.00  0.00     0.031 C 
ATOM     43  C   UNL     1       5.196  12.652   0.002  1.00  0.00     0.029 A 
ATOM     44  C   UNL     1       5.067  13.870  -0.784  1.00  0.00     0.049 A 
ATOM     45  H   UNL     1       5.126  14.053  -2.860  1.00  0.00     0.167 HD
ATOM     46  C   UNL     1       5.578  14.360  -7.205  1.00  0.00     0.037 A 
ATOM     47  C   UNL     1       4.892  15.099  -0.266  1.00  0.00     0.037 A 
ATOM     48  C   UNL     1       5.394  15.714  -6.749  1.00  0.00     0.049 A 
ATOM     49  C   UNL     1       4.868  16.277  -1.196  1.00  0.00     0.074 A 
ATOM     50  C   UNL     1       5.293  16.872  -7.500  1.00  0.00     0.029 A 
ATOM     51  N   UNL     1       5.264  16.088  -5.419  1.00  0.00    -0.354 N 
ATOM     52  N   UNL     1       4.952  16.300  -2.504  1.00  0.00    -0.248 NA
ATOM     53  C   UNL     1       4.743  17.603  -0.577  1.00  0.00     0.031 C 
ATOM     54  C   UNL     1       5.146  17.952  -6.623  1.00  0.00     0.029 A 
ATOM     55  C   UNL     1       5.097  17.461  -5.328  1.00  0.00     0.049 A 
ATOM     56  H   UNL     1       5.287  15.470  -4.653  1.00  0.00     0.167 HD
ATOM     57  C   UNL     1       4.862  17.637  -2.865  1.00  0.00     0.074 A 
ATOM     58  C   UNL     1       4.698  18.391  -1.640  1.00  0.00     0.031 C 
ATOM     59  C   UNL     1       4.916  18.192  -4.100  1.00  0.00     0.037 A 
BRANCH  46  60
ATOM     60  C   UNL     1       5.689  14.115  -8.683  1.00  0.00     0.057 A 
ATOM     61  C   UNL     1       4.683  13.465  -9.410  1.00  0.00     0.134 A 
ATOM     62  C   UNL     1       6.806  14.570  -9.397  1.00  0.00     0.134 A 
ATOM     63  F   UNL     1       3.593  12.990  -8.788  1.00  0.00    -0.206 F 
ATOM     64  C   UNL     1       4.795  13.256 -10.787  1.00  0.00     0.040 A 
ATOM     65  C   UNL     1       6.915  14.394 -10.778  1.00  0.00     0.040 A 
ATOM     66  F   UNL     1       7.804  15.207  -8.766  1.00  0.00    -0.206 F 
ATOM     67  C   UNL     1       5.910  13.729 -11.476  1.00  0.00     0.006 A 
ENDBRANCH  46  60
BRANCH  47  68
ATOM     68  C   UNL     1       4.803  15.288   1.206  1.00  0.00     0.057 A 
ATOM     69  C   UNL     1       3.636  15.771   1.808  1.00  0.00     0.134 A 
ATOM     70  C   UNL     1       5.893  15.017   2.045  1.00  0.00     0.134 A 
ATOM     71  F   UNL     1       2.564  16.070   1.059  1.00  0.00    -0.206 F 
ATOM     72  C   UNL     1       3.564  16.002   3.183  1.00  0.00     0.040 A 
ATOM     73  C   UNL     1       5.823  15.208   3.425  1.00  0.00     0.040 A 
ATOM     74  F   UNL     1       7.042  14.547   1.535  1.00  0.00    -0.206 F 
ATOM     75  C   UNL     1       4.658  15.714   3.996  1.00  0.00     0.006 A 
ENDBRANCH  47  68
BRANCH  59  76
ATOM     76  C   UNL     1       4.736  19.679  -4.186  1.00  0.00     0.057 A 
ATOM     77  C   UNL     1       5.720  20.573  -3.746  1.00  0.00     0.134 A 
ATOM     78  C   UNL     1       3.568  20.220  -4.738  1.00  0.00     0.134 A 
ATOM     79  F   UNL     1       6.854  20.119  -3.192  1.00  0.00    -0.206 F 
ATOM     80  C   UNL     1       5.536  21.954  -3.827  1.00  0.00     0.040 A 
ATOM     81  C   UNL     1       3.386  21.598  -4.853  1.00  0.00     0.040 A 
ATOM     82  F   UNL     1       2.590  19.418  -5.185  1.00  0.00    -0.206 F 
ATOM     83  C   UNL     1       4.369  22.469  -4.388  1.00  0.00     0.006 A 
ENDBRANCH  59  76
ENDBRANCH  33  34
ENDBRANCH  26  28
ENDBRANCH  25  26
ENDBRANCH  24  25
ENDBRANCH  23  24
ENDBRANCH   1  23
TORSDOF 18
