REMARK SMILES C[C@H]1CCCCC[C@H]1NC(=O)c1csc(/C=C/C(=O)OCCOC(=O)c2ccc(-c3c4nc(c(-c5c(F)cccc5F)c5ccc([nH]5)c(-c5c(F)cccc5F)c5nc(c(-c6c(F)cccc6F)c6ccc3[nH]6)C=C5)C=C4)cc2)c1
REMARK SMILES IDX 18 1 19 2 17 3 16 4 15 5 12 6 13 7 80 8 14 9 10 10 9 11
REMARK SMILES IDX 11 13 8 14 2 15 1 16 3 17 7 19 6 20 5 21 4 22 20 24 21 25
REMARK SMILES IDX 22 26 23 27 24 28 25 29 26 30 27 31 79 32 28 33 78 34 29 35
REMARK SMILES IDX 30 36 31 37 72 38 32 39 77 40 71 41 73 42 33 43 76 44 70 45
REMARK SMILES IDX 69 46 34 48 60 49 43 50 59 51 44 52 47 53 58 54 74 55 45 56
REMARK SMILES IDX 46 57 57 59 75 60 48 61 35 62 36 63 41 64 37 65 38 66 40 67
REMARK SMILES IDX 42 68 39 69 61 70 62 71 67 72 63 73 64 74 66 75 68 76 65 77
REMARK SMILES IDX 49 78 50 79 55 80 51 81 52 82 54 83 56 84 53 85
REMARK H PARENT 9 12 73 47 47 58
REMARK Flexibility Score: 80.00
ROOT
ATOM      1  C   UNL     1       9.076   0.292  -3.719  1.00  0.00     0.330 C 
ATOM      2  O   UNL     1       9.909   0.915  -4.361  1.00  0.00    -0.247 OA
ENDROOT
BRANCH   1   3
ATOM      3  C   UNL     1       8.075   0.996  -2.896  1.00  0.00     0.095 C 
ATOM      4  C   UNL     1       7.101   0.419  -2.174  1.00  0.00     0.026 C 
BRANCH   4   5
ATOM      5  C   UNL     1       6.127   1.189  -1.463  1.00  0.00     0.028 A 
ATOM      6  C   UNL     1       4.531   1.854   0.164  1.00  0.00     0.051 A 
ATOM      7  C   UNL     1       4.520   2.924  -0.708  1.00  0.00     0.079 A 
ATOM      8  C   UNL     1       5.487   0.870  -0.276  1.00  0.00     0.033 A 
ATOM      9  S   UNL     1       5.529   2.693  -2.060  1.00  0.00    -0.144 S 
BRANCH   6  10
ATOM     10  C   UNL     1       3.780   1.780   1.414  1.00  0.00     0.252 C 
ATOM     11  N   UNL     1       2.476   2.208   1.471  1.00  0.00    -0.349 N 
ATOM     12  H   UNL     1       2.130   2.359   2.380  1.00  0.00     0.164 HD
ATOM     13  O   UNL     1       4.292   1.334   2.439  1.00  0.00    -0.269 OA
BRANCH  11  14
ATOM     14  C   UNL     1       1.518   2.477   0.394  1.00  0.00     0.085 C 
BRANCH  14  15
ATOM     15  C   UNL     1       0.451   1.361   0.312  1.00  0.00     0.008 C 
ATOM     16  C   UNL     1      -0.332   1.137   1.615  1.00  0.00     0.010 C 
BRANCH  15  17
ATOM     17  C   UNL     1      -0.484   1.534  -0.904  1.00  0.00     0.005 CG0
ATOM     18  G   UNL     1      -1.483   2.689  -0.834  1.00  0.00     0.000 G0
ENDBRANCH  15  17
ENDBRANCH  14  15
BRANCH  14  19
ATOM     19  C   UNL     1       0.956   3.896   0.539  1.00  0.00     0.025 C 
BRANCH  19  20
ATOM     20  C   UNL     1       0.461   4.453  -0.793  1.00  0.00     0.002 C 
BRANCH  20  21
ATOM     21  C   UNL     1      -0.961   4.078  -1.191  1.00  0.00     0.000 C 
BRANCH  21  22
ATOM     22  C   UNL     1      -1.483   2.689  -0.834  1.00  0.00     0.000 CG0
ATOM     23  G   UNL     1      -0.484   1.534  -0.904  1.00  0.00     0.000 G0
ENDBRANCH  21  22
ENDBRANCH  20  21
ENDBRANCH  19  20
ENDBRANCH  14  19
ENDBRANCH  11  14
ENDBRANCH   6  10
ENDBRANCH   4   5
ENDBRANCH   1   3
BRANCH   1  24
ATOM     24  O   UNL     1       8.910  -1.051  -3.716  1.00  0.00    -0.459 OA
BRANCH  24  25
ATOM     25  C   UNL     1       9.757  -1.783  -4.622  1.00  0.00     0.275 C 
BRANCH  25  26
ATOM     26  C   UNL     1       9.007  -2.172  -5.900  1.00  0.00     0.275 C 
BRANCH  26  27
ATOM     27  O   UNL     1       8.655  -1.023  -6.693  1.00  0.00    -0.458 OA
BRANCH  27  28
ATOM     28  C   UNL     1       7.428  -0.502  -6.446  1.00  0.00     0.338 C 
ATOM     29  O   UNL     1       6.595  -0.913  -5.657  1.00  0.00    -0.246 OA
BRANCH  28  30
ATOM     30  C   UNL     1       7.269   0.754  -7.200  1.00  0.00     0.060 A 
ATOM     31  C   UNL     1       6.984   1.920  -6.484  1.00  0.00     0.016 A 
ATOM     32  C   UNL     1       7.357   0.781  -8.594  1.00  0.00     0.016 A 
ATOM     33  C   UNL     1       6.810   3.127  -7.159  1.00  0.00     0.010 A 
ATOM     34  C   UNL     1       7.175   1.992  -9.271  1.00  0.00     0.010 A 
ATOM     35  C   UNL     1       6.905   3.172  -8.557  1.00  0.00    -0.014 A 
BRANCH  35  36
ATOM     36  C   UNL     1       6.734   4.459  -9.273  1.00  0.00     0.031 A 
ATOM     37  C   UNL     1       5.457   4.761 -10.000  1.00  0.00     0.074 A 
ATOM     38  C   UNL     1       7.737   5.356  -9.270  1.00  0.00     0.049 A 
ATOM     39  N   UNL     1       5.154   5.795 -10.743  1.00  0.00    -0.248 NA
ATOM     40  C   UNL     1       4.379   3.769  -9.875  1.00  0.00     0.031 C 
ATOM     41  C   UNL     1       9.012   5.191  -8.572  1.00  0.00     0.029 A 
ATOM     42  N   UNL     1       7.844   6.580  -9.881  1.00  0.00    -0.354 N 
ATOM     43  C   UNL     1       3.854   5.578 -11.181  1.00  0.00     0.074 A 
ATOM     44  C   UNL     1       3.433   4.304 -10.636  1.00  0.00     0.031 C 
ATOM     45  C   UNL     1       9.778   6.270  -8.801  1.00  0.00     0.029 A 
ATOM     46  C   UNL     1       9.065   7.180  -9.693  1.00  0.00     0.049 A 
ATOM     47  H   UNL     1       7.116   6.988 -10.403  1.00  0.00     0.167 HD
ATOM     48  C   UNL     1       3.084   6.373 -11.963  1.00  0.00     0.037 A 
ATOM     49  C   UNL     1       9.564   8.319 -10.209  1.00  0.00     0.037 A 
ATOM     50  C   UNL     1       3.506   7.640 -12.503  1.00  0.00     0.049 A 
ATOM     51  C   UNL     1       8.718   9.142 -11.139  1.00  0.00     0.074 A 
ATOM     52  C   UNL     1       2.785   8.529 -13.281  1.00  0.00     0.029 A 
ATOM     53  N   UNL     1       4.766   8.193 -12.328  1.00  0.00    -0.354 N 
ATOM     54  N   UNL     1       7.484   8.938 -11.533  1.00  0.00    -0.248 NA
ATOM     55  C   UNL     1       9.337  10.349 -11.706  1.00  0.00     0.031 C 
ATOM     56  C   UNL     1       3.624   9.598 -13.616  1.00  0.00     0.029 A 
ATOM     57  C   UNL     1       4.853   9.396 -13.011  1.00  0.00     0.049 A 
ATOM     58  H   UNL     1       5.491   7.791 -11.798  1.00  0.00     0.167 HD
ATOM     59  C   UNL     1       7.175   9.992 -12.381  1.00  0.00     0.074 A 
ATOM     60  C   UNL     1       8.344  10.846 -12.432  1.00  0.00     0.031 C 
ATOM     61  C   UNL     1       6.027  10.230 -13.061  1.00  0.00     0.037 A 
BRANCH  48  62
ATOM     62  C   UNL     1       1.709   5.882 -12.305  1.00  0.00     0.057 A 
ATOM     63  C   UNL     1       0.668   5.886 -11.368  1.00  0.00     0.134 A 
ATOM     64  C   UNL     1       1.413   5.440 -13.601  1.00  0.00     0.134 A 
ATOM     65  F   UNL     1       0.889   6.288 -10.108  1.00  0.00    -0.206 F 
ATOM     66  C   UNL     1      -0.615   5.451 -11.704  1.00  0.00     0.040 A 
ATOM     67  C   UNL     1       0.129   5.022 -13.953  1.00  0.00     0.040 A 
ATOM     68  F   UNL     1       2.364   5.416 -14.546  1.00  0.00    -0.206 F 
ATOM     69  C   UNL     1      -0.889   5.023 -13.002  1.00  0.00     0.006 A 
ENDBRANCH  48  62
BRANCH  49  70
ATOM     70  C   UNL     1      10.952   8.732  -9.883  1.00  0.00     0.057 A 
ATOM     71  C   UNL     1      11.207   9.847  -9.078  1.00  0.00     0.134 A 
ATOM     72  C   UNL     1      12.055   8.026 -10.378  1.00  0.00     0.134 A 
ATOM     73  F   UNL     1      10.191  10.578  -8.596  1.00  0.00    -0.206 F 
ATOM     74  C   UNL     1      12.509  10.251  -8.783  1.00  0.00     0.040 A 
ATOM     75  C   UNL     1      13.362   8.404 -10.072  1.00  0.00     0.040 A 
ATOM     76  F   UNL     1      11.876   6.950 -11.158  1.00  0.00    -0.206 F 
ATOM     77  C   UNL     1      13.592   9.524  -9.275  1.00  0.00     0.006 A 
ENDBRANCH  49  70
BRANCH  61  78
ATOM     78  C   UNL     1       5.978  11.466 -13.908  1.00  0.00     0.057 A 
ATOM     79  C   UNL     1       6.661  11.547 -15.128  1.00  0.00     0.134 A 
ATOM     80  C   UNL     1       5.216  12.574 -13.517  1.00  0.00     0.134 A 
ATOM     81  F   UNL     1       7.420  10.525 -15.551  1.00  0.00    -0.206 F 
ATOM     82  C   UNL     1       6.601  12.694 -15.922  1.00  0.00     0.040 A 
ATOM     83  C   UNL     1       5.131  13.718 -14.312  1.00  0.00     0.040 A 
ATOM     84  F   UNL     1       4.534  12.559 -12.362  1.00  0.00    -0.206 F 
ATOM     85  C   UNL     1       5.829  13.781 -15.517  1.00  0.00     0.006 A 
ENDBRANCH  61  78
ENDBRANCH  35  36
ENDBRANCH  28  30
ENDBRANCH  27  28
ENDBRANCH  26  27
ENDBRANCH  25  26
ENDBRANCH  24  25
ENDBRANCH   1  24
TORSDOF 14
