REMARK SMILES COc1ccc(-c2nc(NCC(=O)OCCOC(=O)c3ccc(-c4c5nc(c(-c6c(F)cccc6F)c6ccc([nH]6)c(-c6c(F)cccc6F)c6nc(c(-c7c(F)cccc7F)c7ccc4[nH]7)C=C6)C=C5)cc3)sc2-c2ccc(OC)cc2)cc1
REMARK SMILES IDX 15 1 14 2 12 3 13 4 11 5 10 6 9 8 7 9 8 10 75 11 74 12 6 13
REMARK SMILES IDX 3 14 4 15 85 16 5 17 84 18 2 19 1 20 76 21 77 22 83 23 78 24
REMARK SMILES IDX 82 25 79 26 80 27 81 28 16 29 17 30 18 31 19 32 20 33 21 34
REMARK SMILES IDX 73 35 22 36 72 37 23 38 24 39 25 40 66 41 26 42 71 43 65 44
REMARK SMILES IDX 67 45 27 46 70 47 64 48 63 49 28 51 54 52 37 53 53 54 38 55
REMARK SMILES IDX 41 56 52 57 68 58 39 59 40 60 51 62 69 63 42 64 29 65 30 66
REMARK SMILES IDX 35 67 31 68 32 69 34 70 36 71 33 72 55 73 56 74 61 75 57 76
REMARK SMILES IDX 58 77 60 78 62 79 59 80 43 81 44 82 49 83 45 84 46 85 48 86
REMARK SMILES IDX 50 87 47 88
REMARK H PARENT 10 7 67 50 41 61
REMARK Flexibility Score: inf
ROOT
ATOM      1  C   UNL     1       7.805   9.782   2.875  1.00  0.00     0.274 C 
ENDROOT
BRANCH   1   2
ATOM      2  O   UNL     1       6.436   9.550   2.511  1.00  0.00    -0.461 OA
BRANCH   2   3
ATOM      3  C   UNL     1       5.716  10.642   2.137  1.00  0.00     0.325 C 
ATOM      4  O   UNL     1       6.119  11.800   2.193  1.00  0.00    -0.250 OA
BRANCH   3   5
ATOM      5  C   UNL     1       4.315  10.279   1.671  1.00  0.00     0.238 C 
BRANCH   5   6
ATOM      6  N   UNL     1       4.230   8.962   1.052  1.00  0.00    -0.351 N 
ATOM      7  H   UNL     1       4.971   8.673   0.472  1.00  0.00     0.163 HD
BRANCH   6   8
ATOM      8  C   UNL     1       3.193   8.115   1.226  1.00  0.00     0.184 A 
ATOM      9  C   UNL     1       1.972   6.264   1.036  1.00  0.00     0.091 A 
ATOM     10  N   UNL     1       3.111   6.948   0.623  1.00  0.00    -0.220 NA
ATOM     11  C   UNL     1       1.232   6.900   2.020  1.00  0.00     0.064 A 
ATOM     12  S   UNL     1       1.876   8.458   2.281  1.00  0.00    -0.096 S 
BRANCH   9  13
ATOM     13  C   UNL     1       1.636   4.945   0.515  1.00  0.00     0.002 A 
ATOM     14  C   UNL     1       0.919   2.349  -0.296  1.00  0.00     0.118 A 
ATOM     15  C   UNL     1      -0.005   3.391  -0.375  1.00  0.00     0.047 A 
ATOM     16  C   UNL     1       2.220   2.616   0.135  1.00  0.00     0.047 A 
ATOM     17  C   UNL     1       0.347   4.679   0.032  1.00  0.00     0.014 A 
ATOM     18  C   UNL     1       2.579   3.912   0.533  1.00  0.00     0.014 A 
BRANCH  14  19
ATOM     19  O   UNL     1       0.452   1.128  -0.696  1.00  0.00    -0.497 OA
ATOM     20  C   UNL     1       1.068   0.004  -0.079  1.00  0.00     0.278 C 
ENDBRANCH  14  19
ENDBRANCH   9  13
BRANCH  11  21
ATOM     21  C   UNL     1       0.126   6.457   2.864  1.00  0.00    -0.006 A 
ATOM     22  C   UNL     1      -1.065   7.186   2.943  1.00  0.00     0.013 A 
ATOM     23  C   UNL     1       0.285   5.324   3.671  1.00  0.00     0.013 A 
ATOM     24  C   UNL     1      -2.068   6.796   3.833  1.00  0.00     0.047 A 
ATOM     25  C   UNL     1      -0.722   4.934   4.559  1.00  0.00     0.047 A 
ATOM     26  C   UNL     1      -1.901   5.674   4.646  1.00  0.00     0.118 A 
BRANCH  26  27
ATOM     27  O   UNL     1      -2.949   5.414   5.485  1.00  0.00    -0.497 OA
ATOM     28  C   UNL     1      -2.849   4.243   6.284  1.00  0.00     0.278 C 
ENDBRANCH  26  27
ENDBRANCH  11  21
ENDBRANCH   6   8
ENDBRANCH   5   6
ENDBRANCH   3   5
ENDBRANCH   2   3
ENDBRANCH   1   2
BRANCH   1  29
ATOM     29  C   UNL     1       8.746   9.495   1.701  1.00  0.00     0.275 C 
BRANCH  29  30
ATOM     30  O   UNL     1       8.630  10.478   0.653  1.00  0.00    -0.458 OA
BRANCH  30  31
ATOM     31  C   UNL     1       7.676  10.230  -0.276  1.00  0.00     0.338 C 
ATOM     32  O   UNL     1       6.927   9.268  -0.328  1.00  0.00    -0.246 OA
BRANCH  31  33
ATOM     33  C   UNL     1       7.528  11.400  -1.158  1.00  0.00     0.060 A 
ATOM     34  C   UNL     1       6.256  11.968  -1.277  1.00  0.00     0.016 A 
ATOM     35  C   UNL     1       8.601  11.909  -1.893  1.00  0.00     0.016 A 
ATOM     36  C   UNL     1       6.049  13.056  -2.117  1.00  0.00     0.010 A 
ATOM     37  C   UNL     1       8.391  12.999  -2.745  1.00  0.00     0.010 A 
ATOM     38  C   UNL     1       7.114  13.578  -2.860  1.00  0.00    -0.014 A 
BRANCH  38  39
ATOM     39  C   UNL     1       6.878  14.719  -3.773  1.00  0.00     0.031 A 
ATOM     40  C   UNL     1       6.808  14.492  -5.253  1.00  0.00     0.074 A 
ATOM     41  C   UNL     1       6.703  15.952  -3.264  1.00  0.00     0.049 A 
ATOM     42  N   UNL     1       6.712  15.368  -6.220  1.00  0.00    -0.248 NA
ATOM     43  C   UNL     1       6.851  13.093  -5.705  1.00  0.00     0.031 C 
ATOM     44  C   UNL     1       6.693  16.283  -1.839  1.00  0.00     0.029 A 
ATOM     45  N   UNL     1       6.505  17.156  -3.891  1.00  0.00    -0.354 N 
ATOM     46  C   UNL     1       6.697  14.631  -7.396  1.00  0.00     0.074 A 
ATOM     47  C   UNL     1       6.808  13.236  -7.023  1.00  0.00     0.031 C 
ATOM     48  C   UNL     1       6.509  17.605  -1.700  1.00  0.00     0.029 A 
ATOM     49  C   UNL     1       6.438  18.218  -3.023  1.00  0.00     0.049 A 
ATOM     50  H   UNL     1       6.420  17.249  -4.867  1.00  0.00     0.167 HD
ATOM     51  C   UNL     1       6.598  15.081  -8.669  1.00  0.00     0.037 A 
ATOM     52  C   UNL     1       6.367  19.539  -3.270  1.00  0.00     0.037 A 
ATOM     53  C   UNL     1       6.482  16.470  -9.031  1.00  0.00     0.049 A 
ATOM     54  C   UNL     1       6.336  20.018  -4.694  1.00  0.00     0.074 A 
ATOM     55  C   UNL     1       6.377  17.028 -10.293  1.00  0.00     0.029 A 
ATOM     56  N   UNL     1       6.457  17.521  -8.126  1.00  0.00    -0.354 N 
ATOM     57  N   UNL     1       6.345  19.316  -5.802  1.00  0.00    -0.248 NA
ATOM     58  C   UNL     1       6.296  21.472  -4.903  1.00  0.00     0.031 C 
ATOM     59  C   UNL     1       6.326  18.420 -10.154  1.00  0.00     0.029 A 
ATOM     60  C   UNL     1       6.359  18.726  -8.803  1.00  0.00     0.049 A 
ATOM     61  H   UNL     1       6.501  17.425  -7.147  1.00  0.00     0.167 HD
ATOM     62  C   UNL     1       6.302  20.239  -6.838  1.00  0.00     0.074 A 
ATOM     63  C   UNL     1       6.246  21.552  -6.226  1.00  0.00     0.031 C 
ATOM     64  C   UNL     1       6.311  20.021  -8.175  1.00  0.00     0.037 A 
BRANCH  51  65
ATOM     65  C   UNL     1       6.645  14.060  -9.766  1.00  0.00     0.057 A 
ATOM     66  C   UNL     1       5.562  13.216 -10.038  1.00  0.00     0.134 A 
ATOM     67  C   UNL     1       7.780  13.940 -10.578  1.00  0.00     0.134 A 
ATOM     68  F   UNL     1       4.452  13.271  -9.287  1.00  0.00    -0.206 F 
ATOM     69  C   UNL     1       5.613  12.275 -11.069  1.00  0.00     0.040 A 
ATOM     70  C   UNL     1       7.834  13.018 -11.625  1.00  0.00     0.040 A 
ATOM     71  F   UNL     1       8.851  14.721 -10.372  1.00  0.00    -0.206 F 
ATOM     72  C   UNL     1       6.750  12.178 -11.869  1.00  0.00     0.006 A 
ENDBRANCH  51  65
BRANCH  52  73
ATOM     73  C   UNL     1       6.370  20.503  -2.142  1.00  0.00     0.057 A 
ATOM     74  C   UNL     1       5.232  21.250  -1.821  1.00  0.00     0.134 A 
ATOM     75  C   UNL     1       7.515  20.699  -1.360  1.00  0.00     0.134 A 
ATOM     76  F   UNL     1       4.113  21.123  -2.549  1.00  0.00    -0.206 F 
ATOM     77  C   UNL     1       5.235  22.167  -0.768  1.00  0.00     0.040 A 
ATOM     78  C   UNL     1       7.524  21.593  -0.289  1.00  0.00     0.040 A 
ATOM     79  F   UNL     1       8.638  20.013  -1.618  1.00  0.00    -0.206 F 
ATOM     80  C   UNL     1       6.382  22.335   0.006  1.00  0.00     0.006 A 
ENDBRANCH  52  73
BRANCH  64  81
ATOM     81  C   UNL     1       6.246  21.229  -9.061  1.00  0.00     0.057 A 
ATOM     82  C   UNL     1       7.352  22.067  -9.243  1.00  0.00     0.134 A 
ATOM     83  C   UNL     1       5.074  21.539  -9.761  1.00  0.00     0.134 A 
ATOM     84  F   UNL     1       8.499  21.831  -8.588  1.00  0.00    -0.206 F 
ATOM     85  C   UNL     1       7.290  23.185 -10.076  1.00  0.00     0.040 A 
ATOM     86  C   UNL     1       5.005  22.641 -10.615  1.00  0.00     0.040 A 
ATOM     87  F   UNL     1       3.981  20.772  -9.635  1.00  0.00    -0.206 F 
ATOM     88  C   UNL     1       6.114  23.471 -10.770  1.00  0.00     0.006 A 
ENDBRANCH  64  81
ENDBRANCH  38  39
ENDBRANCH  31  33
ENDBRANCH  30  31
ENDBRANCH  29  30
ENDBRANCH   1  29
TORSDOF 17
