REMARK SMILES O=C(COc1ccc(Br)cc1/C=C1\C(=O)Nc2ccc(Br)cc21)OCCOC(=O)c1ccc(-c2c3nc(c(-c4c(F)cccc4F)c4ccc([nH]4)c(-c4c(F)cccc4F)c4nc(c(-c5c(F)cccc5F)c5ccc2[nH]5)C=C4)C=C3)cc1
REMARK SMILES IDX 25 1 24 2 2 3 1 4 3 5 4 6 5 7 6 8 11 9 7 10 10 11 8 12 9 13
REMARK SMILES IDX 12 14 13 15 14 16 23 17 15 18 16 19 17 20 22 21 18 23 20 24
REMARK SMILES IDX 19 25 21 26 26 27 27 28 28 29 29 30 30 31 31 32 83 33 32 34
REMARK SMILES IDX 82 35 33 36 34 37 35 38 76 39 36 40 81 41 75 42 77 43 37 44
REMARK SMILES IDX 80 45 74 46 73 47 38 49 64 50 47 51 63 52 48 53 51 54 62 55
REMARK SMILES IDX 78 56 49 57 50 58 61 60 79 61 52 62 39 63 40 64 45 65 41 66
REMARK SMILES IDX 42 67 44 68 46 69 43 70 65 71 66 72 71 73 67 74 68 75 70 76
REMARK SMILES IDX 72 77 69 78 53 79 54 80 59 81 55 82 56 83 58 84 60 85 57 86
REMARK H PARENT 16 22 77 48 51 59
REMARK Flexibility Score: inf
ROOT
ATOM      1  C   UNL     1       4.720  -0.712  -0.652  1.00  0.00     0.274 C 
ENDROOT
BRANCH   1   2
ATOM      2  O   UNL     1       3.400  -0.788  -0.074  1.00  0.00    -0.460 OA
BRANCH   2   3
ATOM      3  C   UNL     1       2.877   0.213   0.675  1.00  0.00     0.344 C 
ATOM      4  O   UNL     1       1.659   0.378   0.725  1.00  0.00    -0.248 OA
BRANCH   3   5
ATOM      5  C   UNL     1       3.832   1.059   1.520  1.00  0.00     0.352 C 
BRANCH   5   6
ATOM      6  O   UNL     1       4.609   0.361   2.505  1.00  0.00    -0.481 OA
BRANCH   6   7
ATOM      7  C   UNL     1       3.834   0.099   3.617  1.00  0.00     0.127 A 
ATOM      8  C   UNL     1       2.823  -0.874   3.491  1.00  0.00     0.048 A 
ATOM      9  C   UNL     1       4.014   0.822   4.816  1.00  0.00     0.018 A 
ATOM     10  C   UNL     1       1.864  -1.034   4.481  1.00  0.00     0.019 A 
ATOM     11  C   UNL     1       2.994   0.662   5.769  1.00  0.00     0.027 A 
ATOM     12  C   UNL     1       1.938  -0.240   5.607  1.00  0.00     0.018 A 
ATOM     13  Br  UNL     1       0.599  -0.359   6.938  1.00  0.00    -0.051 Br
BRANCH   9  14
ATOM     14  C   UNL     1       5.165   1.765   5.002  1.00  0.00     0.026 C 
ATOM     15  C   UNL     1       5.483   2.570   6.041  1.00  0.00     0.050 C 
ATOM     16  C   UNL     1       4.696   2.778   7.307  1.00  0.00     0.256 C 
ATOM     17  C   UNL     1       6.291   3.794   5.896  1.00  0.00     0.012 A 
ATOM     18  O   UNL     1       4.318   1.963   8.113  1.00  0.00    -0.269 OA
ATOM     19  N   UNL     1       4.607   4.157   7.415  1.00  0.00    -0.321 N 
ATOM     20  C   UNL     1       5.576   4.760   6.620  1.00  0.00     0.049 A 
ATOM     21  C   UNL     1       7.515   4.120   5.345  1.00  0.00     0.026 A 
ATOM     22  H   UNL     1       3.954   4.638   7.973  1.00  0.00     0.170 HD
ATOM     23  C   UNL     1       5.926   6.089   6.649  1.00  0.00     0.028 A 
ATOM     24  C   UNL     1       7.936   5.456   5.452  1.00  0.00     0.018 A 
ATOM     25  C   UNL     1       7.124   6.443   6.040  1.00  0.00     0.018 A 
ATOM     26  Br  UNL     1       9.670   5.947   4.873  1.00  0.00    -0.051 Br
ENDBRANCH   9  14
ENDBRANCH   6   7
ENDBRANCH   5   6
ENDBRANCH   3   5
ENDBRANCH   2   3
ENDBRANCH   1   2
BRANCH   1  27
ATOM     27  C   UNL     1       4.654  -0.020  -2.015  1.00  0.00     0.275 C 
BRANCH  27  28
ATOM     28  O   UNL     1       4.271   1.354  -1.821  1.00  0.00    -0.458 OA
BRANCH  28  29
ATOM     29  C   UNL     1       2.992   1.675  -2.151  1.00  0.00     0.338 C 
ATOM     30  O   UNL     1       2.185   0.976  -2.733  1.00  0.00    -0.246 OA
BRANCH  29  31
ATOM     31  C   UNL     1       2.672   2.973  -1.512  1.00  0.00     0.060 A 
ATOM     32  C   UNL     1       3.623   3.994  -1.436  1.00  0.00     0.016 A 
ATOM     33  C   UNL     1       1.405   3.150  -0.943  1.00  0.00     0.016 A 
ATOM     34  C   UNL     1       3.302   5.193  -0.799  1.00  0.00     0.010 A 
ATOM     35  C   UNL     1       1.082   4.353  -0.307  1.00  0.00     0.010 A 
ATOM     36  C   UNL     1       2.025   5.388  -0.243  1.00  0.00    -0.014 A 
BRANCH  36  37
ATOM     37  C   UNL     1       1.649   6.738   0.239  1.00  0.00     0.031 A 
ATOM     38  C   UNL     1       1.638   7.096   1.694  1.00  0.00     0.074 A 
ATOM     39  C   UNL     1       1.329   7.665  -0.684  1.00  0.00     0.049 A 
ATOM     40  N   UNL     1       1.483   8.276   2.241  1.00  0.00    -0.248 NA
ATOM     41  C   UNL     1       1.818   6.003   2.660  1.00  0.00     0.031 C 
ATOM     42  C   UNL     1       1.255   7.422  -2.127  1.00  0.00     0.029 A 
ATOM     43  N   UNL     1       1.027   8.995  -0.552  1.00  0.00    -0.354 N 
ATOM     44  C   UNL     1       1.541   8.073   3.612  1.00  0.00     0.074 A 
ATOM     45  C   UNL     1       1.736   6.651   3.817  1.00  0.00     0.031 C 
ATOM     46  C   UNL     1       0.962   8.573  -2.749  1.00  0.00     0.029 A 
ATOM     47  C   UNL     1       0.820   9.629  -1.751  1.00  0.00     0.049 A 
ATOM     48  H   UNL     1       0.965   9.451   0.319  1.00  0.00     0.167 HD
ATOM     49  C   UNL     1       1.452   8.993   4.602  1.00  0.00     0.037 A 
ATOM     50  C   UNL     1       0.565  10.922  -2.022  1.00  0.00     0.037 A 
ATOM     51  C   UNL     1       1.292  10.410   4.400  1.00  0.00     0.049 A 
ATOM     52  C   UNL     1       0.508  11.917  -0.902  1.00  0.00     0.074 A 
ATOM     53  C   UNL     1       1.306  11.420   5.347  1.00  0.00     0.029 A 
ATOM     54  N   UNL     1       1.077  11.017   3.173  1.00  0.00    -0.354 N 
ATOM     55  N   UNL     1       0.698  11.730   0.381  1.00  0.00    -0.248 NA
ATOM     56  C   UNL     1       0.218  13.310  -1.272  1.00  0.00     0.031 C 
ATOM     57  C   UNL     1       1.077  12.637   4.696  1.00  0.00     0.029 A 
ATOM     58  C   UNL     1       0.937  12.385   3.342  1.00  0.00     0.049 A 
ATOM     59  H   UNL     1       1.031  10.546   2.310  1.00  0.00     0.167 HD
ATOM     60  C   UNL     1       0.580  12.982   0.967  1.00  0.00     0.074 A 
ATOM     61  C   UNL     1       0.314  13.923  -0.101  1.00  0.00     0.031 C 
ATOM     62  C   UNL     1       0.684  13.319   2.276  1.00  0.00     0.037 A 
BRANCH  49  63
ATOM     63  C   UNL     1       1.551   8.512   6.015  1.00  0.00     0.057 A 
ATOM     64  C   UNL     1       0.404   8.277   6.781  1.00  0.00     0.134 A 
ATOM     65  C   UNL     1       2.792   8.394   6.648  1.00  0.00     0.134 A 
ATOM     66  F   UNL     1      -0.815   8.407   6.238  1.00  0.00    -0.206 F 
ATOM     67  C   UNL     1       0.490   7.927   8.130  1.00  0.00     0.040 A 
ATOM     68  C   UNL     1       2.889   8.053   7.998  1.00  0.00     0.040 A 
ATOM     69  F   UNL     1       3.925   8.622   5.968  1.00  0.00    -0.206 F 
ATOM     70  C   UNL     1       1.737   7.812   8.742  1.00  0.00     0.006 A 
ENDBRANCH  49  63
BRANCH  50  71
ATOM     71  C   UNL     1       0.403  11.359  -3.428  1.00  0.00     0.057 A 
ATOM     72  C   UNL     1      -0.744  11.041  -4.163  1.00  0.00     0.134 A 
ATOM     73  C   UNL     1       1.396  12.111  -4.065  1.00  0.00     0.134 A 
ATOM     74  F   UNL     1      -1.725  10.315  -3.606  1.00  0.00    -0.206 F 
ATOM     75  C   UNL     1      -0.897  11.453  -5.487  1.00  0.00     0.040 A 
ATOM     76  C   UNL     1       1.247  12.548  -5.381  1.00  0.00     0.040 A 
ATOM     77  F   UNL     1       2.510  12.457  -3.403  1.00  0.00    -0.206 F 
ATOM     78  C   UNL     1       0.098  12.215  -6.097  1.00  0.00     0.006 A 
ENDBRANCH  50  71
BRANCH  62  79
ATOM     79  C   UNL     1       0.539  14.771   2.620  1.00  0.00     0.057 A 
ATOM     80  C   UNL     1       1.651  15.528   3.009  1.00  0.00     0.134 A 
ATOM     81  C   UNL     1      -0.703  15.416   2.582  1.00  0.00     0.134 A 
ATOM     82  F   UNL     1       2.869  14.968   3.073  1.00  0.00    -0.206 F 
ATOM     83  C   UNL     1       1.533  16.878   3.344  1.00  0.00     0.040 A 
ATOM     84  C   UNL     1      -0.830  16.771   2.893  1.00  0.00     0.040 A 
ATOM     85  F   UNL     1      -1.804  14.749   2.204  1.00  0.00    -0.206 F 
ATOM     86  C   UNL     1       0.290  17.504   3.280  1.00  0.00     0.006 A 
ENDBRANCH  62  79
ENDBRANCH  36  37
ENDBRANCH  29  31
ENDBRANCH  28  29
ENDBRANCH  27  28
ENDBRANCH   1  27
TORSDOF 14
