REMARK SMILES Cc1nn(C)c(C)c1[C@H](C)N1C(=O)CC[C@@H](C(=O)OCCOC(=O)c2ccc(-c3c4nc(c(-c5c(F)cccc5F)c5ccc([nH]5)c(-c5c(F)cccc5F)c5nc(c(-c6c(F)cccc6F)c6ccc3[nH]6)C=C5)C=C4)cc2)[C@@H]1c1ccco1
REMARK SMILES IDX 20 1 19 2 17 3 18 4 16 5 11 6 12 7 79 8 13 9 14 10 15 11
REMARK SMILES IDX 9 12 10 13 8 14 1 15 2 16 3 17 4 18 6 19 5 20 7 21 80 22
REMARK SMILES IDX 81 23 84 24 82 25 83 26 21 27 22 28 23 29 24 30 25 31 26 32
REMARK SMILES IDX 78 33 27 34 77 35 28 36 29 37 30 38 71 39 31 40 76 41 70 42
REMARK SMILES IDX 72 43 32 44 75 45 69 46 68 47 33 49 59 50 42 51 58 52 43 53
REMARK SMILES IDX 46 54 57 55 73 56 44 57 45 58 56 60 74 61 47 62 34 63 35 64
REMARK SMILES IDX 40 65 36 66 37 67 39 68 41 69 38 70 60 71 61 72 66 73 62 74
REMARK SMILES IDX 63 75 65 76 67 77 64 78 48 79 49 80 54 81 50 82 51 83 53 84
REMARK SMILES IDX 55 85 52 86
REMARK H PARENT 72 48 46 59
REMARK Flexibility Score: inf
ROOT
ATOM      1  C   UNL     1      -1.870   8.062  -2.315  1.00  0.00     0.274 C 
ENDROOT
BRANCH   1   2
ATOM      2  O   UNL     1      -0.585   7.407  -2.440  1.00  0.00    -0.462 OA
BRANCH   2   3
ATOM      3  C   UNL     1      -0.436   6.277  -1.693  1.00  0.00     0.311 C 
ATOM      4  O   UNL     1      -1.335   5.780  -1.032  1.00  0.00    -0.252 OA
BRANCH   3   5
ATOM      5  C   UNL     1       0.995   5.765  -1.719  1.00  0.00     0.130 C 
ATOM      6  N   UNL     1       0.520   3.484  -0.774  1.00  0.00    -0.325 N 
ATOM      7  C   UNL     1       0.604   2.872  -2.020  1.00  0.00     0.223 C 
ATOM      8  C   UNL     1       1.226   4.761  -0.577  1.00  0.00     0.166 C 
ATOM      9  O   UNL     1       0.316   1.694  -2.226  1.00  0.00    -0.275 OA
ATOM     10  C   UNL     1       0.969   3.720  -3.234  1.00  0.00     0.101 C 
ATOM     11  C   UNL     1       1.393   5.165  -3.053  1.00  0.00     0.028 C 
BRANCH   6  12
ATOM     12  C   UNL     1      -0.299   2.882   0.339  1.00  0.00     0.117 C 
ATOM     13  C   UNL     1      -0.396   1.348   0.353  1.00  0.00     0.036 C 
BRANCH  12  14
ATOM     14  C   UNL     1       0.046   3.441   1.718  1.00  0.00     0.018 A 
ATOM     15  C   UNL     1       1.663   1.641   2.832  1.00  0.00     0.069 C 
ATOM     16  C   UNL     1       0.918   2.922   2.734  1.00  0.00     0.065 A 
ATOM     17  N   UNL     1       1.014   3.755   3.778  1.00  0.00    -0.178 NA
ATOM     18  N   UNL     1       0.219   4.780   3.467  1.00  0.00    -0.272 N 
ATOM     19  C   UNL     1      -0.497   4.580   2.320  1.00  0.00     0.040 A 
ATOM     20  C   UNL     1       0.227   5.941   4.325  1.00  0.00     0.174 C 
ATOM     21  C   UNL     1      -1.571   5.514   1.890  1.00  0.00     0.067 C 
ENDBRANCH  12  14
ENDBRANCH   6  12
BRANCH   8  22
ATOM     22  C   UNL     1       2.696   4.480  -0.365  1.00  0.00     0.127 A 
ATOM     23  C   UNL     1       3.764   5.270   0.014  1.00  0.00     0.048 A 
ATOM     24  O   UNL     1       3.131   3.199  -0.563  1.00  0.00    -0.467 OA
ATOM     25  C   UNL     1       4.899   4.422   0.056  1.00  0.00     0.042 A 
ATOM     26  C   UNL     1       4.457   3.170  -0.294  1.00  0.00     0.195 A 
ENDBRANCH   8  22
ENDBRANCH   3   5
ENDBRANCH   2   3
ENDBRANCH   1   2
BRANCH   1  27
ATOM     27  C   UNL     1      -2.823   7.667  -3.442  1.00  0.00     0.275 C 
BRANCH  27  28
ATOM     28  O   UNL     1      -3.120   6.263  -3.360  1.00  0.00    -0.458 OA
BRANCH  28  29
ATOM     29  C   UNL     1      -3.079   5.575  -4.522  1.00  0.00     0.338 C 
ATOM     30  O   UNL     1      -2.881   6.033  -5.641  1.00  0.00    -0.246 OA
BRANCH  29  31
ATOM     31  C   UNL     1      -3.277   4.133  -4.270  1.00  0.00     0.060 A 
ATOM     32  C   UNL     1      -2.652   3.525  -3.188  1.00  0.00     0.016 A 
ATOM     33  C   UNL     1      -3.975   3.346  -5.190  1.00  0.00     0.016 A 
ATOM     34  C   UNL     1      -2.634   2.137  -3.087  1.00  0.00     0.010 A 
ATOM     35  C   UNL     1      -4.024   1.951  -5.031  1.00  0.00     0.010 A 
ATOM     36  C   UNL     1      -3.309   1.321  -4.000  1.00  0.00    -0.014 A 
BRANCH  36  37
ATOM     37  C   UNL     1      -3.167  -0.165  -3.913  1.00  0.00     0.031 A 
ATOM     38  C   UNL     1      -2.632  -0.943  -5.089  1.00  0.00     0.074 A 
ATOM     39  C   UNL     1      -3.411  -0.829  -2.763  1.00  0.00     0.049 A 
ATOM     40  N   UNL     1      -2.627  -2.237  -5.296  1.00  0.00    -0.248 NA
ATOM     41  C   UNL     1      -2.029  -0.163  -6.182  1.00  0.00     0.031 C 
ATOM     42  C   UNL     1      -3.814  -0.220  -1.494  1.00  0.00     0.029 A 
ATOM     43  N   UNL     1      -3.320  -2.169  -2.465  1.00  0.00    -0.354 N 
ATOM     44  C   UNL     1      -2.089  -2.418  -6.565  1.00  0.00     0.074 A 
ATOM     45  C   UNL     1      -1.765  -1.105  -7.078  1.00  0.00     0.031 C 
ATOM     46  C   UNL     1      -3.856  -1.164  -0.543  1.00  0.00     0.029 A 
ATOM     47  C   UNL     1      -3.614  -2.465  -1.156  1.00  0.00     0.049 A 
ATOM     48  H   UNL     1      -3.068  -2.852  -3.128  1.00  0.00     0.167 HD
ATOM     49  C   UNL     1      -1.895  -3.575  -7.244  1.00  0.00     0.037 A 
ATOM     50  C   UNL     1      -3.733  -3.649  -0.524  1.00  0.00     0.037 A 
ATOM     51  C   UNL     1      -2.144  -4.887  -6.704  1.00  0.00     0.049 A 
ATOM     52  C   UNL     1      -3.580  -4.919  -1.312  1.00  0.00     0.074 A 
ATOM     53  C   UNL     1      -2.024  -6.117  -7.329  1.00  0.00     0.029 A 
ATOM     54  N   UNL     1      -2.528  -5.139  -5.397  1.00  0.00    -0.354 N 
ATOM     55  N   UNL     1      -3.229  -5.079  -2.564  1.00  0.00    -0.248 NA
ATOM     56  C   UNL     1      -3.888  -6.174  -0.610  1.00  0.00     0.031 C 
ATOM     57  C   UNL     1      -2.364  -7.113  -6.407  1.00  0.00     0.029 A 
ATOM     58  C   UNL     1      -2.660  -6.504  -5.198  1.00  0.00     0.049 A 
ATOM     59  H   UNL     1      -2.684  -4.451  -4.711  1.00  0.00     0.167 HD
ATOM     60  C   UNL     1      -3.276  -6.446  -2.800  1.00  0.00     0.074 A 
ATOM     61  C   UNL     1      -3.659  -7.075  -1.554  1.00  0.00     0.031 C 
ATOM     62  C   UNL     1      -3.039  -7.117  -3.953  1.00  0.00     0.037 A 
BRANCH  49  63
ATOM     63  C   UNL     1      -1.448  -3.474  -8.671  1.00  0.00     0.057 A 
ATOM     64  C   UNL     1      -0.128  -3.175  -9.027  1.00  0.00     0.134 A 
ATOM     65  C   UNL     1      -2.358  -3.719  -9.708  1.00  0.00     0.134 A 
ATOM     66  F   UNL     1       0.789  -2.915  -8.084  1.00  0.00    -0.206 F 
ATOM     67  C   UNL     1       0.267  -3.108 -10.366  1.00  0.00     0.040 A 
ATOM     68  C   UNL     1      -1.971  -3.677 -11.048  1.00  0.00     0.040 A 
ATOM     69  F   UNL     1      -3.638  -4.017  -9.434  1.00  0.00    -0.206 F 
ATOM     70  C   UNL     1      -0.655  -3.366 -11.380  1.00  0.00     0.006 A 
ENDBRANCH  49  63
BRANCH  50  71
ATOM     71  C   UNL     1      -4.104  -3.695   0.915  1.00  0.00     0.057 A 
ATOM     72  C   UNL     1      -3.221  -4.195   1.877  1.00  0.00     0.134 A 
ATOM     73  C   UNL     1      -5.359  -3.258   1.359  1.00  0.00     0.134 A 
ATOM     74  F   UNL     1      -2.018  -4.663   1.513  1.00  0.00    -0.206 F 
ATOM     75  C   UNL     1      -3.572  -4.263   3.228  1.00  0.00     0.040 A 
ATOM     76  C   UNL     1      -5.712  -3.289   2.708  1.00  0.00     0.040 A 
ATOM     77  F   UNL     1      -6.258  -2.777   0.487  1.00  0.00    -0.206 F 
ATOM     78  C   UNL     1      -4.818  -3.800   3.647  1.00  0.00     0.006 A 
ENDBRANCH  50  71
BRANCH  62  79
ATOM     79  C   UNL     1      -3.171  -8.609  -3.912  1.00  0.00     0.057 A 
ATOM     80  C   UNL     1      -4.425  -9.233  -3.876  1.00  0.00     0.134 A 
ATOM     81  C   UNL     1      -2.038  -9.430  -3.935  1.00  0.00     0.134 A 
ATOM     82  F   UNL     1      -5.548  -8.500  -3.837  1.00  0.00    -0.206 F 
ATOM     83  C   UNL     1      -4.545 -10.623  -3.846  1.00  0.00     0.040 A 
ATOM     84  C   UNL     1      -2.146 -10.821  -3.926  1.00  0.00     0.040 A 
ATOM     85  F   UNL     1      -0.809  -8.894  -3.975  1.00  0.00    -0.206 F 
ATOM     86  C   UNL     1      -3.403 -11.421  -3.877  1.00  0.00     0.006 A 
ENDBRANCH  62  79
ENDBRANCH  36  37
ENDBRANCH  29  31
ENDBRANCH  28  29
ENDBRANCH  27  28
ENDBRANCH   1  27
TORSDOF 14
