REMARK SMILES O=C(C[NH+]1CCN(c2ncc(C(F)(F)F)cc2Cl)CC1)OCCOC(=O)c1ccc(-c2c3nc(c(-c4c(F)cccc4F)c4ccc([nH]4)c(-c4c(F)cccc4F)c4nc(c(-c5c(F)cccc5F)c5ccc2[nH]5)C=C4)C=C3)cc1
REMARK SMILES IDX 22 1 21 2 2 3 1 4 3 5 4 6 5 7 20 8 6 10 19 11 7 12 8 13 9 14
REMARK SMILES IDX 17 15 10 16 16 17 18 18 11 19 12 20 13 21 14 22 15 23 23 24
REMARK SMILES IDX 24 25 25 26 26 27 27 28 28 29 80 30 29 31 79 32 30 33 31 34
REMARK SMILES IDX 32 35 73 36 33 37 78 38 72 39 74 40 34 41 77 42 71 43 70 44
REMARK SMILES IDX 35 46 61 47 44 48 60 49 45 50 48 51 59 52 75 53 46 54 47 55
REMARK SMILES IDX 58 57 76 58 49 59 36 60 37 61 42 62 38 63 39 64 41 65 43 66
REMARK SMILES IDX 40 67 62 68 63 69 68 70 64 71 65 72 67 73 69 74 66 75 50 76
REMARK SMILES IDX 51 77 56 78 52 79 53 80 55 81 57 82 54 83
REMARK H PARENT 4 9 74 45 48 56
REMARK Flexibility Score: inf
ROOT
ATOM      1  C   UNL     1       3.850   1.064  -0.946  1.00  0.00     0.274 C 
ENDROOT
BRANCH   1   2
ATOM      2  O   UNL     1       2.615   0.348  -0.815  1.00  0.00    -0.458 OA
BRANCH   2   3
ATOM      3  C   UNL     1       2.714  -1.009  -0.723  1.00  0.00     0.361 C 
ATOM      4  O   UNL     1       2.258  -1.743  -1.594  1.00  0.00    -0.245 OA
BRANCH   3   5
ATOM      5  C   UNL     1       3.213  -1.514   0.633  1.00  0.00     0.386 C 
BRANCH   5   6
ATOM      6  N   UNL     1       4.420  -2.360   0.527  1.00  0.00    -0.323 N 
ATOM      7  C   UNL     1       5.674  -1.617   0.821  1.00  0.00     0.284 C 
ATOM      8  C   UNL     1       4.339  -3.499   1.483  1.00  0.00     0.284 C 
ATOM      9  H   UNL     1       4.448  -2.686  -0.439  1.00  0.00     0.348 HD
ATOM     10  C   UNL     1       5.865  -1.159   2.287  1.00  0.00     0.179 C 
ATOM     11  C   UNL     1       4.498  -3.123   2.981  1.00  0.00     0.179 C 
ATOM     12  N   UNL     1       5.693  -2.307   3.158  1.00  0.00    -0.344 N 
BRANCH  12  13
ATOM     13  C   UNL     1       6.516  -2.419   4.250  1.00  0.00     0.147 A 
ATOM     14  N   UNL     1       6.598  -1.344   5.074  1.00  0.00    -0.237 NA
ATOM     15  C   UNL     1       7.352  -3.533   4.431  1.00  0.00     0.084 A 
ATOM     16  C   UNL     1       7.509  -1.371   6.078  1.00  0.00     0.126 A 
ATOM     17  C   UNL     1       8.298  -3.522   5.455  1.00  0.00     0.039 A 
ATOM     18  Cl  UNL     1       7.363  -4.881   3.347  1.00  0.00    -0.080 Cl
ATOM     19  C   UNL     1       8.394  -2.414   6.296  1.00  0.00     0.075 A 
BRANCH  19  20
ATOM     20  C   UNL     1       9.421  -2.315   7.379  1.00  0.00     0.417 C 
ATOM     21  F   UNL     1      10.169  -1.182   7.282  1.00  0.00    -0.166 F 
ATOM     22  F   UNL     1       8.871  -2.297   8.622  1.00  0.00    -0.166 F 
ATOM     23  F   UNL     1      10.309  -3.347   7.375  1.00  0.00    -0.166 F 
ENDBRANCH  19  20
ENDBRANCH  12  13
ENDBRANCH   5   6
ENDBRANCH   3   5
ENDBRANCH   2   3
ENDBRANCH   1   2
BRANCH   1  24
ATOM     24  C   UNL     1       4.024   2.138   0.134  1.00  0.00     0.275 C 
BRANCH  24  25
ATOM     25  O   UNL     1       3.714   1.634   1.445  1.00  0.00    -0.458 OA
BRANCH  25  26
ATOM     26  C   UNL     1       2.426   1.831   1.834  1.00  0.00     0.338 C 
ATOM     27  O   UNL     1       1.585   2.495   1.250  1.00  0.00    -0.246 OA
BRANCH  26  28
ATOM     28  C   UNL     1       2.104   0.974   3.000  1.00  0.00     0.060 A 
ATOM     29  C   UNL     1       0.840   0.370   3.030  1.00  0.00     0.016 A 
ATOM     30  C   UNL     1       3.009   0.745   4.041  1.00  0.00     0.016 A 
ATOM     31  C   UNL     1       0.460  -0.411   4.123  1.00  0.00     0.010 A 
ATOM     32  C   UNL     1       2.633  -0.054   5.129  1.00  0.00     0.010 A 
ATOM     33  C   UNL     1       1.339  -0.597   5.199  1.00  0.00    -0.014 A 
BRANCH  33  34
ATOM     34  C   UNL     1       0.826  -1.194   6.460  1.00  0.00     0.031 A 
ATOM     35  C   UNL     1       0.422  -0.276   7.583  1.00  0.00     0.074 A 
ATOM     36  C   UNL     1       0.662  -2.522   6.599  1.00  0.00     0.049 A 
ATOM     37  N   UNL     1      -0.158  -0.559   8.722  1.00  0.00    -0.248 NA
ATOM     38  C   UNL     1       0.710   1.155   7.395  1.00  0.00     0.031 C 
ATOM     39  C   UNL     1       1.004  -3.532   5.601  1.00  0.00     0.029 A 
ATOM     40  N   UNL     1       0.148  -3.247   7.648  1.00  0.00    -0.354 N 
ATOM     41  C   UNL     1      -0.314   0.655   9.378  1.00  0.00     0.074 A 
ATOM     42  C   UNL     1       0.280   1.671   8.536  1.00  0.00     0.031 C 
ATOM     43  C   UNL     1       0.683  -4.747   6.082  1.00  0.00     0.029 A 
ATOM     44  C   UNL     1       0.114  -4.601   7.421  1.00  0.00     0.049 A 
ATOM     45  H   UNL     1      -0.166  -2.833   8.485  1.00  0.00     0.167 HD
ATOM     46  C   UNL     1      -0.918   0.913  10.562  1.00  0.00     0.037 A 
ATOM     47  C   UNL     1      -0.338  -5.603   8.200  1.00  0.00     0.037 A 
ATOM     48  C   UNL     1      -1.515  -0.083  11.409  1.00  0.00     0.049 A 
ATOM     49  C   UNL     1      -0.959  -5.298   9.539  1.00  0.00     0.074 A 
ATOM     50  C   UNL     1      -2.189   0.094  12.605  1.00  0.00     0.029 A 
ATOM     51  N   UNL     1      -1.499  -1.444  11.156  1.00  0.00    -0.354 N 
ATOM     52  N   UNL     1      -1.180  -4.137  10.107  1.00  0.00    -0.248 NA
ATOM     53  C   UNL     1      -1.408  -6.449  10.339  1.00  0.00     0.031 C 
ATOM     54  C   UNL     1      -2.544  -1.167  13.098  1.00  0.00     0.029 A 
ATOM     55  C   UNL     1      -2.126  -2.123  12.187  1.00  0.00     0.049 A 
ATOM     56  H   UNL     1      -1.100  -1.867  10.361  1.00  0.00     0.167 HD
ATOM     57  C   UNL     1      -1.831  -4.415  11.304  1.00  0.00     0.074 A 
ATOM     58  C   UNL     1      -1.969  -5.854  11.382  1.00  0.00     0.031 C 
ATOM     59  C   UNL     1      -2.279  -3.554  12.249  1.00  0.00     0.037 A 
BRANCH  46  60
ATOM     60  C   UNL     1      -0.955   2.343  11.009  1.00  0.00     0.057 A 
ATOM     61  C   UNL     1      -1.795   3.282  10.396  1.00  0.00     0.134 A 
ATOM     62  C   UNL     1      -0.149   2.783  12.065  1.00  0.00     0.134 A 
ATOM     63  F   UNL     1      -2.579   2.925   9.368  1.00  0.00    -0.206 F 
ATOM     64  C   UNL     1      -1.812   4.617  10.802  1.00  0.00     0.040 A 
ATOM     65  C   UNL     1      -0.174   4.110  12.495  1.00  0.00     0.040 A 
ATOM     66  F   UNL     1       0.675   1.931  12.694  1.00  0.00    -0.206 F 
ATOM     67  C   UNL     1      -1.002   5.033  11.858  1.00  0.00     0.006 A 
ENDBRANCH  46  60
BRANCH  47  68
ATOM     68  C   UNL     1      -0.261  -7.009   7.729  1.00  0.00     0.057 A 
ATOM     69  C   UNL     1      -1.416  -7.714   7.370  1.00  0.00     0.134 A 
ATOM     70  C   UNL     1       0.958  -7.695   7.679  1.00  0.00     0.134 A 
ATOM     71  F   UNL     1      -2.615  -7.116   7.425  1.00  0.00    -0.206 F 
ATOM     72  C   UNL     1      -1.366  -9.058   7.000  1.00  0.00     0.040 A 
ATOM     73  C   UNL     1       1.025  -9.034   7.292  1.00  0.00     0.040 A 
ATOM     74  F   UNL     1       2.099  -7.074   8.014  1.00  0.00    -0.206 F 
ATOM     75  C   UNL     1      -0.141  -9.722   6.959  1.00  0.00     0.006 A 
ENDBRANCH  47  68
BRANCH  59  76
ATOM     76  C   UNL     1      -3.006  -4.132  13.429  1.00  0.00     0.057 A 
ATOM     77  C   UNL     1      -2.338  -4.829  14.443  1.00  0.00     0.134 A 
ATOM     78  C   UNL     1      -4.388  -3.949  13.572  1.00  0.00     0.134 A 
ATOM     79  F   UNL     1      -1.017  -5.048  14.361  1.00  0.00    -0.206 F 
ATOM     80  C   UNL     1      -3.021  -5.342  15.548  1.00  0.00     0.040 A 
ATOM     81  C   UNL     1      -5.078  -4.436  14.683  1.00  0.00     0.040 A 
ATOM     82  F   UNL     1      -5.087  -3.283  12.641  1.00  0.00    -0.206 F 
ATOM     83  C   UNL     1      -4.395  -5.140  15.673  1.00  0.00     0.006 A 
ENDBRANCH  59  76
ENDBRANCH  33  34
ENDBRANCH  26  28
ENDBRANCH  25  26
ENDBRANCH  24  25
ENDBRANCH   1  24
TORSDOF 14
