REMARK SMILES O=C(OCCOC(=O)c1cnc(-c2ccccc2Cl)nc1)c1ccc(-c2c3nc(c(-c4c(F)cccc4F)c4ccc([nH]4)c(-c4c(F)cccc4F)c4nc(c(-c5c(F)cccc5F)c5ccc2[nH]5)C=C4)C=C3)cc1
REMARK SMILES IDX 4 1 3 2 2 3 1 4 22 5 23 6 75 7 24 8 74 9 25 10 26 11 27 12
REMARK SMILES IDX 68 13 28 14 73 15 67 16 69 17 29 18 72 19 66 20 65 21 30 23
REMARK SMILES IDX 56 24 39 25 55 26 40 27 43 28 54 29 70 30 41 31 42 32 53 34
REMARK SMILES IDX 71 35 44 36 31 37 32 38 37 39 33 40 34 41 36 42 38 43 35 44
REMARK SMILES IDX 57 45 58 46 63 47 59 48 60 49 62 50 64 51 61 52 45 53 46 54
REMARK SMILES IDX 51 55 47 56 48 57 50 58 52 59 49 60 5 61 6 62 7 63 8 64 9 65
REMARK SMILES IDX 10 66 21 67 11 68 20 69 12 70 13 71 14 72 18 73 15 74 17 75
REMARK SMILES IDX 19 76 16 77
REMARK H PARENT 69 22 43 33
REMARK Flexibility Score: inf
ROOT
ATOM      1  C   UNL     1       4.062  -0.341  -1.702  1.00  0.00     0.275 C 
ENDROOT
BRANCH   1   2
ATOM      2  O   UNL     1       3.082  -0.894  -0.807  1.00  0.00    -0.458 OA
BRANCH   2   3
ATOM      3  C   UNL     1       3.002  -0.831   0.540  1.00  0.00     0.338 C 
ATOM      4  O   UNL     1       2.188  -1.544   1.125  1.00  0.00    -0.246 OA
BRANCH   3   5
ATOM      5  C   UNL     1       3.751   0.167   1.360  1.00  0.00     0.060 A 
ATOM      6  C   UNL     1       5.070   0.580   1.156  1.00  0.00     0.016 A 
ATOM      7  C   UNL     1       3.070   0.676   2.476  1.00  0.00     0.016 A 
ATOM      8  C   UNL     1       5.671   1.526   2.000  1.00  0.00     0.010 A 
ATOM      9  C   UNL     1       3.671   1.611   3.322  1.00  0.00     0.010 A 
ATOM     10  C   UNL     1       4.979   2.045   3.097  1.00  0.00    -0.014 A 
BRANCH  10  11
ATOM     11  C   UNL     1       5.676   2.916   4.078  1.00  0.00     0.031 A 
ATOM     12  C   UNL     1       6.091   2.338   5.400  1.00  0.00     0.074 A 
ATOM     13  C   UNL     1       5.970   4.197   3.787  1.00  0.00     0.049 A 
ATOM     14  N   UNL     1       6.831   2.871   6.339  1.00  0.00    -0.248 NA
ATOM     15  C   UNL     1       5.627   0.974   5.701  1.00  0.00     0.031 C 
ATOM     16  C   UNL     1       5.619   4.880   2.546  1.00  0.00     0.029 A 
ATOM     17  N   UNL     1       6.632   5.155   4.514  1.00  0.00    -0.354 N 
ATOM     18  C   UNL     1       6.947   1.897   7.320  1.00  0.00     0.074 A 
ATOM     19  C   UNL     1       6.140   0.772   6.903  1.00  0.00     0.031 C 
ATOM     20  C   UNL     1       6.043   6.153   2.603  1.00  0.00     0.029 A 
ATOM     21  C   UNL     1       6.726   6.368   3.874  1.00  0.00     0.049 A 
ATOM     22  H   UNL     1       7.004   4.989   5.410  1.00  0.00     0.167 HD
ATOM     23  C   UNL     1       7.693   1.917   8.449  1.00  0.00     0.037 A 
ATOM     24  C   UNL     1       7.319   7.514   4.260  1.00  0.00     0.037 A 
ATOM     25  C   UNL     1       8.477   3.041   8.878  1.00  0.00     0.049 A 
ATOM     26  C   UNL     1       8.090   7.538   5.551  1.00  0.00     0.074 A 
ATOM     27  C   UNL     1       9.283   3.159   9.996  1.00  0.00     0.029 A 
ATOM     28  N   UNL     1       8.539   4.253   8.206  1.00  0.00    -0.354 N 
ATOM     29  N   UNL     1       8.280   6.572   6.417  1.00  0.00    -0.248 NA
ATOM     30  C   UNL     1       8.761   8.799   5.900  1.00  0.00     0.031 C 
ATOM     31  C   UNL     1       9.806   4.457  10.018  1.00  0.00     0.029 A 
ATOM     32  C   UNL     1       9.355   5.133   8.895  1.00  0.00     0.049 A 
ATOM     33  H   UNL     1       8.071   4.456   7.364  1.00  0.00     0.167 HD
ATOM     34  C   UNL     1       9.132   7.090   7.383  1.00  0.00     0.074 A 
ATOM     35  C   UNL     1       9.417   8.458   7.000  1.00  0.00     0.031 C 
ATOM     36  C   UNL     1       9.644   6.483   8.482  1.00  0.00     0.037 A 
BRANCH  23  37
ATOM     37  C   UNL     1       7.681   0.668   9.277  1.00  0.00     0.057 A 
ATOM     38  C   UNL     1       8.333  -0.496   8.847  1.00  0.00     0.134 A 
ATOM     39  C   UNL     1       6.978   0.610  10.485  1.00  0.00     0.134 A 
ATOM     40  F   UNL     1       9.007  -0.509   7.686  1.00  0.00    -0.206 F 
ATOM     41  C   UNL     1       8.253  -1.687   9.570  1.00  0.00     0.040 A 
ATOM     42  C   UNL     1       6.909  -0.569  11.228  1.00  0.00     0.040 A 
ATOM     43  F   UNL     1       6.332   1.689  10.950  1.00  0.00    -0.206 F 
ATOM     44  C   UNL     1       7.539  -1.724  10.766  1.00  0.00     0.006 A 
ENDBRANCH  23  37
BRANCH  24  45
ATOM     45  C   UNL     1       7.273   8.714   3.385  1.00  0.00     0.057 A 
ATOM     46  C   UNL     1       8.410   9.151   2.695  1.00  0.00     0.134 A 
ATOM     47  C   UNL     1       6.102   9.466   3.239  1.00  0.00     0.134 A 
ATOM     48  F   UNL     1       9.567   8.482   2.809  1.00  0.00    -0.206 F 
ATOM     49  C   UNL     1       8.392  10.305   1.910  1.00  0.00     0.040 A 
ATOM     50  C   UNL     1       6.064  10.612   2.441  1.00  0.00     0.040 A 
ATOM     51  F   UNL     1       4.978   9.102   3.873  1.00  0.00    -0.206 F 
ATOM     52  C   UNL     1       7.215  11.039   1.780  1.00  0.00     0.006 A 
ENDBRANCH  24  45
BRANCH  36  53
ATOM     53  C   UNL     1      10.605   7.273   9.316  1.00  0.00     0.057 A 
ATOM     54  C   UNL     1      10.180   8.308  10.157  1.00  0.00     0.134 A 
ATOM     55  C   UNL     1      11.971   6.962   9.307  1.00  0.00     0.134 A 
ATOM     56  F   UNL     1       8.886   8.662  10.199  1.00  0.00    -0.206 F 
ATOM     57  C   UNL     1      11.083   9.018  10.949  1.00  0.00     0.040 A 
ATOM     58  C   UNL     1      12.880   7.650  10.111  1.00  0.00     0.040 A 
ATOM     59  F   UNL     1      12.441   5.977   8.526  1.00  0.00    -0.206 F 
ATOM     60  C   UNL     1      12.436   8.684  10.932  1.00  0.00     0.006 A 
ENDBRANCH  36  53
ENDBRANCH  10  11
ENDBRANCH   3   5
ENDBRANCH   2   3
ENDBRANCH   1   2
BRANCH   1  61
ATOM     61  C   UNL     1       3.735   1.062  -2.214  1.00  0.00     0.275 C 
BRANCH  61  62
ATOM     62  O   UNL     1       3.432   2.003  -1.171  1.00  0.00    -0.458 OA
BRANCH  62  63
ATOM     63  C   UNL     1       2.109   2.186  -0.921  1.00  0.00     0.341 C 
ATOM     64  O   UNL     1       1.176   1.619  -1.461  1.00  0.00    -0.246 OA
BRANCH  63  65
ATOM     65  C   UNL     1       1.935   3.133   0.180  1.00  0.00     0.096 A 
ATOM     66  C   UNL     1       2.683   4.275   0.313  1.00  0.00     0.131 A 
ATOM     67  C   UNL     1       0.987   2.926   1.156  1.00  0.00     0.131 A 
ATOM     68  N   UNL     1       2.542   5.136   1.346  1.00  0.00    -0.236 NA
ATOM     69  N   UNL     1       0.827   3.739   2.230  1.00  0.00    -0.236 NA
ATOM     70  C   UNL     1       1.637   4.812   2.300  1.00  0.00     0.160 A 
BRANCH  70  71
ATOM     71  C   UNL     1       1.499   5.750   3.423  1.00  0.00     0.038 A 
ATOM     72  C   UNL     1       1.408   7.131   3.141  1.00  0.00     0.013 A 
ATOM     73  C   UNL     1       1.483   5.377   4.780  1.00  0.00     0.052 A 
ATOM     74  C   UNL     1       1.323   8.090   4.154  1.00  0.00     0.001 A 
ATOM     75  C   UNL     1       1.429   6.343   5.797  1.00  0.00     0.021 A 
ATOM     76  Cl  UNL     1       1.539   3.737   5.318  1.00  0.00    -0.084 Cl
ATOM     77  C   UNL     1       1.347   7.696   5.485  1.00  0.00     0.002 A 
ENDBRANCH  70  71
ENDBRANCH  63  65
ENDBRANCH  62  63
ENDBRANCH  61  62
ENDBRANCH   1  61
TORSDOF 12
