REMARK SMILES O=C(OCCOC(=O)[C@H]1CC=CC[C@H]1C(=O)N[C@@H]1CCN(c2cccc(Cl)c2)C1)c1ccc(-c2c3nc(c(-c4c(F)cccc4F)c4ccc([nH]4)c(-c4c(F)cccc4F)c4nc(c(-c5c(F)cccc5F)c5ccc2[nH]5)C=C4)C=C3)cc1
REMARK SMILES IDX 5 1 4 2 3 3 2 4 1 5 30 6 31 7 83 8 32 9 82 10 33 11 34 12
REMARK SMILES IDX 35 13 76 14 36 15 81 16 75 17 77 18 37 19 80 20 74 21 73 22
REMARK SMILES IDX 38 24 64 25 47 26 63 27 48 28 51 29 62 30 78 31 49 32 50 33
REMARK SMILES IDX 61 35 79 36 52 37 39 38 40 39 45 40 41 41 42 42 44 43 46 44
REMARK SMILES IDX 43 45 65 46 66 47 71 48 67 49 68 50 70 51 72 52 69 53 53 54
REMARK SMILES IDX 54 55 59 56 55 57 56 58 58 59 60 60 57 61 6 62 7 63 8 64
REMARK SMILES IDX 9 65 10 66 14 67 11 68 13 69 12 70 15 71 16 72 17 73 18 75
REMARK SMILES IDX 19 76 29 77 20 78 21 79 22 80 23 81 28 82 24 83 26 84 25 85
REMARK SMILES IDX 27 86
REMARK H PARENT 77 23 51 34 17 74
REMARK Flexibility Score: inf
ROOT
ATOM      1  C   UNL     1       4.216   1.479   0.275  1.00  0.00     0.274 C 
ENDROOT
BRANCH   1   2
ATOM      2  C   UNL     1       4.465   0.641  -0.986  1.00  0.00     0.275 C 
BRANCH   2   3
ATOM      3  O   UNL     1       3.478  -0.332  -1.369  1.00  0.00    -0.458 OA
BRANCH   3   4
ATOM      4  C   UNL     1       3.429  -1.620  -0.951  1.00  0.00     0.338 C 
ATOM      5  O   UNL     1       2.764  -2.474  -1.526  1.00  0.00    -0.246 OA
BRANCH   4   6
ATOM      6  C   UNL     1       4.080  -1.959   0.329  1.00  0.00     0.060 A 
ATOM      7  C   UNL     1       5.459  -1.842   0.513  1.00  0.00     0.016 A 
ATOM      8  C   UNL     1       3.264  -2.422   1.370  1.00  0.00     0.016 A 
ATOM      9  C   UNL     1       6.011  -2.066   1.768  1.00  0.00     0.010 A 
ATOM     10  C   UNL     1       3.820  -2.675   2.623  1.00  0.00     0.010 A 
ATOM     11  C   UNL     1       5.197  -2.487   2.826  1.00  0.00    -0.014 A 
BRANCH  11  12
ATOM     12  C   UNL     1       5.848  -2.975   4.055  1.00  0.00     0.031 A 
ATOM     13  C   UNL     1       6.235  -4.419   4.082  1.00  0.00     0.074 A 
ATOM     14  C   UNL     1       6.178  -2.159   5.071  1.00  0.00     0.049 A 
ATOM     15  N   UNL     1       7.048  -5.025   4.901  1.00  0.00    -0.248 NA
ATOM     16  C   UNL     1       5.707  -5.270   3.001  1.00  0.00     0.031 C 
ATOM     17  C   UNL     1       5.954  -0.719   5.120  1.00  0.00     0.029 A 
ATOM     18  N   UNL     1       6.765  -2.437   6.277  1.00  0.00    -0.354 N 
ATOM     19  C   UNL     1       7.243  -6.279   4.349  1.00  0.00     0.074 A 
ATOM     20  C   UNL     1       6.364  -6.399   3.208  1.00  0.00     0.031 C 
ATOM     21  C   UNL     1       6.259  -0.261   6.346  1.00  0.00     0.029 A 
ATOM     22  C   UNL     1       6.800  -1.362   7.131  1.00  0.00     0.049 A 
ATOM     23  H   UNL     1       7.127  -3.322   6.510  1.00  0.00     0.167 HD
ATOM     24  C   UNL     1       8.144  -7.213   4.721  1.00  0.00     0.037 A 
ATOM     25  C   UNL     1       7.256  -1.275   8.393  1.00  0.00     0.037 A 
ATOM     26  C   UNL     1       8.926  -7.122   5.920  1.00  0.00     0.049 A 
ATOM     27  C   UNL     1       8.050  -2.432   8.930  1.00  0.00     0.074 A 
ATOM     28  C   UNL     1       9.821  -8.034   6.444  1.00  0.00     0.029 A 
ATOM     29  N   UNL     1       8.862  -6.057   6.809  1.00  0.00    -0.354 N 
ATOM     30  N   UNL     1       8.333  -3.573   8.347  1.00  0.00    -0.248 NA
ATOM     31  C   UNL     1       8.661  -2.261  10.253  1.00  0.00     0.031 C 
ATOM     32  C   UNL     1      10.260  -7.542   7.680  1.00  0.00     0.029 A 
ATOM     33  C   UNL     1       9.672  -6.305   7.902  1.00  0.00     0.049 A 
ATOM     34  H   UNL     1       8.321  -5.245   6.680  1.00  0.00     0.167 HD
ATOM     35  C   UNL     1       9.211  -4.227   9.196  1.00  0.00     0.074 A 
ATOM     36  C   UNL     1       9.398  -3.360  10.345  1.00  0.00     0.031 C 
ATOM     37  C   UNL     1       9.833  -5.421   9.029  1.00  0.00     0.037 A 
BRANCH  24  38
ATOM     38  C   UNL     1       8.307  -8.373   3.793  1.00  0.00     0.057 A 
ATOM     39  C   UNL     1       8.964  -8.218   2.562  1.00  0.00     0.134 A 
ATOM     40  C   UNL     1       7.761  -9.624   4.086  1.00  0.00     0.134 A 
ATOM     41  F   UNL     1       9.480  -7.030   2.211  1.00  0.00    -0.206 F 
ATOM     42  C   UNL     1       9.053  -9.266   1.646  1.00  0.00     0.040 A 
ATOM     43  C   UNL     1       7.856 -10.685   3.183  1.00  0.00     0.040 A 
ATOM     44  F   UNL     1       7.103  -9.827   5.237  1.00  0.00    -0.206 F 
ATOM     45  C   UNL     1       8.498 -10.505   1.958  1.00  0.00     0.006 A 
ENDBRANCH  24  38
BRANCH  25  46
ATOM     46  C   UNL     1       7.042  -0.042   9.188  1.00  0.00     0.057 A 
ATOM     47  C   UNL     1       8.081   0.849   9.474  1.00  0.00     0.134 A 
ATOM     48  C   UNL     1       5.774   0.263   9.702  1.00  0.00     0.134 A 
ATOM     49  F   UNL     1       9.319   0.609   9.017  1.00  0.00    -0.206 F 
ATOM     50  C   UNL     1       7.877   1.983  10.264  1.00  0.00     0.040 A 
ATOM     51  C   UNL     1       5.552   1.401  10.481  1.00  0.00     0.040 A 
ATOM     52  F   UNL     1       4.733  -0.547   9.460  1.00  0.00    -0.206 F 
ATOM     53  C   UNL     1       6.608   2.261  10.770  1.00  0.00     0.006 A 
ENDBRANCH  25  46
BRANCH  37  54
ATOM     54  C   UNL     1      10.794  -5.833  10.100  1.00  0.00     0.057 A 
ATOM     55  C   UNL     1      10.356  -6.261  11.358  1.00  0.00     0.134 A 
ATOM     56  C   UNL     1      12.173  -5.827   9.856  1.00  0.00     0.134 A 
ATOM     57  F   UNL     1       9.048  -6.272  11.655  1.00  0.00    -0.206 F 
ATOM     58  C   UNL     1      11.260  -6.646  12.348  1.00  0.00     0.040 A 
ATOM     59  C   UNL     1      13.084  -6.235  10.828  1.00  0.00     0.040 A 
ATOM     60  F   UNL     1      12.653  -5.433   8.666  1.00  0.00    -0.206 F 
ATOM     61  C   UNL     1      12.628  -6.640  12.081  1.00  0.00     0.006 A 
ENDBRANCH  37  54
ENDBRANCH  11  12
ENDBRANCH   4   6
ENDBRANCH   3   4
ENDBRANCH   2   3
ENDBRANCH   1   2
BRANCH   1  62
ATOM     62  O   UNL     1       3.689   0.864   1.462  1.00  0.00    -0.462 OA
BRANCH  62  63
ATOM     63  C   UNL     1       2.350   0.625   1.494  1.00  0.00     0.310 C 
ATOM     64  O   UNL     1       1.655   0.564   0.489  1.00  0.00    -0.252 OA
BRANCH  63  65
ATOM     65  C   UNL     1       1.774   0.447   2.896  1.00  0.00     0.115 C 
ATOM     66  C   UNL     1       2.823   0.348   4.009  1.00  0.00     0.043 C 
ATOM     67  C   UNL     1       0.625   1.408   3.278  1.00  0.00     0.096 C 
ATOM     68  C   UNL     1       3.177   1.641   4.668  1.00  0.00    -0.030 C 
ATOM     69  C   UNL     1       0.984   2.661   4.095  1.00  0.00     0.041 C 
ATOM     70  C   UNL     1       2.347   2.686   4.699  1.00  0.00    -0.030 C 
BRANCH  67  71
ATOM     71  C   UNL     1      -0.377   1.746   2.174  1.00  0.00     0.224 C 
ATOM     72  O   UNL     1      -1.466   1.164   2.147  1.00  0.00    -0.275 OA
ATOM     73  N   UNL     1      -0.154   2.692   1.221  1.00  0.00    -0.351 N 
ATOM     74  H   UNL     1      -0.950   2.923   0.689  1.00  0.00     0.163 HD
BRANCH  73  75
ATOM     75  C   UNL     1       1.048   3.427   0.847  1.00  0.00     0.103 C 
ATOM     76  C   UNL     1       1.058   4.899   1.270  1.00  0.00     0.048 C 
ATOM     77  C   UNL     1       1.295   3.481  -0.680  1.00  0.00     0.141 C 
ATOM     78  C   UNL     1       1.789   5.651   0.155  1.00  0.00     0.119 C 
ATOM     79  N   UNL     1       2.205   4.613  -0.781  1.00  0.00    -0.369 N 
BRANCH  79  80
ATOM     80  C   UNL     1       2.995   4.918  -1.861  1.00  0.00     0.038 A 
ATOM     81  C   UNL     1       4.196   5.626  -1.674  1.00  0.00     0.026 A 
ATOM     82  C   UNL     1       2.666   4.548  -3.168  1.00  0.00     0.046 A 
ATOM     83  C   UNL     1       5.023   5.979  -2.743  1.00  0.00     0.004 A 
ATOM     84  C   UNL     1       3.477   4.923  -4.245  1.00  0.00     0.043 A 
ATOM     85  C   UNL     1       4.654   5.638  -4.038  1.00  0.00     0.020 A 
ATOM     86  Cl  UNL     1       3.008   4.516  -5.851  1.00  0.00    -0.084 Cl
ENDBRANCH  79  80
ENDBRANCH  73  75
ENDBRANCH  67  71
ENDBRANCH  63  65
ENDBRANCH  62  63
ENDBRANCH   1  62
TORSDOF 14
