REMARK SMILES COc1ccc(-n2c(SCc3cn(-c4ccc(C(=O)OCCOC(=O)c5ccc(-c6c7nc(c(-c8c(F)cccc8F)c8ccc([nH]8)c(-c8c(F)cccc8F)c8nc(c(-c9c(F)cccc9F)c9ccc6[nH]9)C=C8)C=C7)cc5)cc4)nn3)nc3ccccc3c2=O)cc1
REMARK SMILES IDX 18 1 19 2 17 3 14 4 15 5 81 6 16 7 80 8 13 9 11 10 12 11
REMARK SMILES IDX 83 12 82 13 10 14 9 15 8 16 7 17 91 18 84 19 90 20 92 21
REMARK SMILES IDX 85 22 89 23 86 24 88 25 87 26 6 27 3 28 4 29 94 30 5 31
REMARK SMILES IDX 93 32 2 33 1 34 20 35 21 36 22 37 23 38 24 39 25 40 26 41
REMARK SMILES IDX 27 42 79 43 28 44 78 45 29 46 30 47 31 48 72 49 32 50 77 51
REMARK SMILES IDX 71 52 73 53 33 54 76 55 70 56 69 57 34 59 60 60 43 61 59 62
REMARK SMILES IDX 44 63 47 64 58 65 74 66 45 67 46 68 57 70 75 71 48 72 35 73
REMARK SMILES IDX 36 74 41 75 37 76 38 77 40 78 42 79 39 80 61 81 62 82 67 83
REMARK SMILES IDX 63 84 64 85 66 86 68 87 65 88 49 89 50 90 55 91 51 92 52 93
REMARK SMILES IDX 54 94 56 95 53 96
REMARK H PARENT 73 58 47 69
REMARK Flexibility Score: inf
ROOT
ATOM      1  C   UNL     1      -5.020  -0.111  -5.085  1.00  0.00     0.338 C 
ATOM      2  O   UNL     1      -5.434   0.009  -6.230  1.00  0.00    -0.246 OA
ENDROOT
BRANCH   1   3
ATOM      3  C   UNL     1      -3.601   0.107  -4.712  1.00  0.00     0.060 A 
ATOM      4  C   UNL     1      -0.957   0.647  -4.090  1.00  0.00     0.066 A 
ATOM      5  C   UNL     1      -1.423   0.930  -5.375  1.00  0.00     0.029 A 
ATOM      6  C   UNL     1      -1.792   0.115  -3.104  1.00  0.00     0.029 A 
ATOM      7  C   UNL     1      -2.758   0.684  -5.674  1.00  0.00     0.018 A 
ATOM      8  C   UNL     1      -3.114  -0.177  -3.427  1.00  0.00     0.018 A 
BRANCH   4   9
ATOM      9  N   UNL     1       0.416   0.724  -3.849  1.00  0.00    -0.220 N 
ATOM     10  C   UNL     1       2.493   0.116  -3.732  1.00  0.00     0.093 A 
ATOM     11  C   UNL     1       1.343  -0.075  -4.459  1.00  0.00     0.141 A 
ATOM     12  N   UNL     1       2.253   1.063  -2.769  1.00  0.00    -0.134 NA
ATOM     13  N   UNL     1       0.967   1.388  -2.818  1.00  0.00    -0.062 NA
BRANCH  10  14
ATOM     14  C   UNL     1       3.799  -0.566  -3.777  1.00  0.00     0.138 C 
BRANCH  14  15
ATOM     15  S   UNL     1       4.241  -1.299  -5.337  1.00  0.00    -0.081 SA
BRANCH  15  16
ATOM     16  C   UNL     1       2.996  -2.498  -5.753  1.00  0.00     0.176 A 
ATOM     17  N   UNL     1       2.957  -3.646  -4.977  1.00  0.00    -0.255 N 
ATOM     18  C   UNL     1       3.314  -4.847  -5.582  1.00  0.00     0.266 A 
ATOM     19  N   UNL     1       2.756  -2.547  -7.028  1.00  0.00    -0.223 NA
ATOM     20  C   UNL     1       3.959  -4.662  -6.907  1.00  0.00     0.066 A 
ATOM     21  O   UNL     1       3.174  -5.973  -5.119  1.00  0.00    -0.268 OA
ATOM     22  C   UNL     1       3.567  -3.527  -7.632  1.00  0.00     0.079 A 
ATOM     23  C   UNL     1       5.060  -5.417  -7.301  1.00  0.00     0.016 A 
ATOM     24  C   UNL     1       4.240  -3.187  -8.803  1.00  0.00     0.029 A 
ATOM     25  C   UNL     1       5.784  -5.013  -8.425  1.00  0.00     0.001 A 
ATOM     26  C   UNL     1       5.366  -3.915  -9.185  1.00  0.00     0.002 A 
BRANCH  17  27
ATOM     27  C   UNL     1       2.208  -3.637  -3.774  1.00  0.00     0.052 A 
ATOM     28  C   UNL     1       0.886  -2.785  -1.480  1.00  0.00     0.119 A 
ATOM     29  C   UNL     1       0.152  -3.037  -2.637  1.00  0.00     0.048 A 
ATOM     30  C   UNL     1       2.235  -3.132  -1.418  1.00  0.00     0.048 A 
ATOM     31  C   UNL     1       0.819  -3.441  -3.798  1.00  0.00     0.030 A 
ATOM     32  C   UNL     1       2.894  -3.586  -2.561  1.00  0.00     0.030 A 
BRANCH  28  33
ATOM     33  O   UNL     1       0.248  -2.217  -0.411  1.00  0.00    -0.497 OA
ATOM     34  C   UNL     1       0.785  -0.921  -0.111  1.00  0.00     0.278 C 
ENDBRANCH  28  33
ENDBRANCH  17  27
ENDBRANCH  15  16
ENDBRANCH  14  15
ENDBRANCH  10  14
ENDBRANCH   4   9
ENDBRANCH   1   3
BRANCH   1  35
ATOM     35  O   UNL     1      -5.774  -0.320  -3.978  1.00  0.00    -0.458 OA
BRANCH  35  36
ATOM     36  C   UNL     1      -7.182  -0.100  -4.143  1.00  0.00     0.275 C 
BRANCH  36  37
ATOM     37  C   UNL     1      -7.536   1.345  -3.815  1.00  0.00     0.275 C 
BRANCH  37  38
ATOM     38  O   UNL     1      -6.991   2.256  -4.772  1.00  0.00    -0.458 OA
BRANCH  38  39
ATOM     39  C   UNL     1      -5.824   2.833  -4.405  1.00  0.00     0.338 C 
ATOM     40  O   UNL     1      -5.046   2.451  -3.547  1.00  0.00    -0.246 OA
BRANCH  39  41
ATOM     41  C   UNL     1      -5.726   4.159  -5.020  1.00  0.00     0.060 A 
ATOM     42  C   UNL     1      -4.508   4.839  -4.913  1.00  0.00     0.016 A 
ATOM     43  C   UNL     1      -6.903   4.809  -5.417  1.00  0.00     0.016 A 
ATOM     44  C   UNL     1      -4.503   6.211  -5.069  1.00  0.00     0.010 A 
ATOM     45  C   UNL     1      -6.900   6.177  -5.551  1.00  0.00     0.010 A 
ATOM     46  C   UNL     1      -5.715   6.868  -5.314  1.00  0.00    -0.014 A 
BRANCH  46  47
ATOM     47  C   UNL     1      -5.704   8.312  -5.409  1.00  0.00     0.031 A 
ATOM     48  C   UNL     1      -5.115   8.825  -6.666  1.00  0.00     0.074 A 
ATOM     49  C   UNL     1      -6.317   9.104  -4.510  1.00  0.00     0.049 A 
ATOM     50  N   UNL     1      -4.051   9.541  -6.811  1.00  0.00    -0.248 NA
ATOM     51  C   UNL     1      -5.719   8.374  -7.931  1.00  0.00     0.031 C 
ATOM     52  C   UNL     1      -7.208   8.713  -3.415  1.00  0.00     0.029 A 
ATOM     53  N   UNL     1      -6.352  10.462  -4.467  1.00  0.00    -0.354 N 
ATOM     54  C   UNL     1      -3.948   9.786  -8.176  1.00  0.00     0.074 A 
ATOM     55  C   UNL     1      -4.893   8.915  -8.825  1.00  0.00     0.031 C 
ATOM     56  C   UNL     1      -7.862   9.810  -2.966  1.00  0.00     0.029 A 
ATOM     57  C   UNL     1      -7.346  10.983  -3.653  1.00  0.00     0.049 A 
ATOM     58  H   UNL     1      -5.724  11.028  -4.971  1.00  0.00     0.167 HD
ATOM     59  C   UNL     1      -3.260  10.856  -8.655  1.00  0.00     0.037 A 
ATOM     60  C   UNL     1      -7.756  12.275  -3.622  1.00  0.00     0.037 A 
ATOM     61  C   UNL     1      -2.371  11.402  -7.664  1.00  0.00     0.049 A 
ATOM     62  C   UNL     1      -6.696  13.100  -4.255  1.00  0.00     0.074 A 
ATOM     63  C   UNL     1      -1.299  10.912  -6.944  1.00  0.00     0.029 A 
ATOM     64  N   UNL     1      -2.762  12.549  -7.018  1.00  0.00    -0.354 N 
ATOM     65  N   UNL     1      -5.525  13.322  -3.727  1.00  0.00    -0.248 NA
ATOM     66  C   UNL     1      -6.782  13.331  -5.691  1.00  0.00     0.031 C 
ATOM     67  C   UNL     1      -1.410  11.514  -5.657  1.00  0.00     0.029 A 
ATOM     68  C   UNL     1      -2.513  12.368  -5.683  1.00  0.00     0.049 A 
ATOM     69  H   UNL     1      -3.149  13.352  -7.437  1.00  0.00     0.167 HD
ATOM     70  C   UNL     1      -4.642  13.295  -4.797  1.00  0.00     0.074 A 
ATOM     71  C   UNL     1      -5.481  13.401  -5.987  1.00  0.00     0.031 C 
ATOM     72  C   UNL     1      -3.345  12.902  -4.630  1.00  0.00     0.037 A 
BRANCH  59  73
ATOM     73  C   UNL     1      -3.662  11.625  -9.884  1.00  0.00     0.057 A 
ATOM     74  C   UNL     1      -2.783  12.586 -10.411  1.00  0.00     0.134 A 
ATOM     75  C   UNL     1      -4.979  11.671 -10.387  1.00  0.00     0.134 A 
ATOM     76  F   UNL     1      -1.510  12.657  -9.993  1.00  0.00    -0.206 F 
ATOM     77  C   UNL     1      -3.202  13.562 -11.322  1.00  0.00     0.040 A 
ATOM     78  C   UNL     1      -5.393  12.606 -11.338  1.00  0.00     0.040 A 
ATOM     79  F   UNL     1      -5.957  10.890  -9.912  1.00  0.00    -0.206 F 
ATOM     80  C   UNL     1      -4.512  13.577 -11.784  1.00  0.00     0.006 A 
ENDBRANCH  59  73
BRANCH  60  81
ATOM     81  C   UNL     1      -9.111  12.810  -3.356  1.00  0.00     0.057 A 
ATOM     82  C   UNL     1      -9.308  14.167  -3.064  1.00  0.00     0.134 A 
ATOM     83  C   UNL     1     -10.270  12.068  -3.647  1.00  0.00     0.134 A 
ATOM     84  F   UNL     1      -8.262  14.968  -2.812  1.00  0.00    -0.206 F 
ATOM     85  C   UNL     1     -10.578  14.758  -3.086  1.00  0.00     0.040 A 
ATOM     86  C   UNL     1     -11.544  12.643  -3.662  1.00  0.00     0.040 A 
ATOM     87  F   UNL     1     -10.197  10.781  -4.015  1.00  0.00    -0.206 F 
ATOM     88  C   UNL     1     -11.701  13.997  -3.396  1.00  0.00     0.006 A 
ENDBRANCH  60  81
BRANCH  72  89
ATOM     89  C   UNL     1      -2.827  12.766  -3.226  1.00  0.00     0.057 A 
ATOM     90  C   UNL     1      -3.326  11.846  -2.291  1.00  0.00     0.134 A 
ATOM     91  C   UNL     1      -1.685  13.486  -2.859  1.00  0.00     0.134 A 
ATOM     92  F   UNL     1      -4.351  11.038  -2.590  1.00  0.00    -0.206 F 
ATOM     93  C   UNL     1      -2.741  11.687  -1.031  1.00  0.00     0.040 A 
ATOM     94  C   UNL     1      -1.071  13.311  -1.618  1.00  0.00     0.040 A 
ATOM     95  F   UNL     1      -1.118  14.342  -3.724  1.00  0.00    -0.206 F 
ATOM     96  C   UNL     1      -1.605  12.416  -0.694  1.00  0.00     0.006 A 
ENDBRANCH  72  89
ENDBRANCH  46  47
ENDBRANCH  39  41
ENDBRANCH  38  39
ENDBRANCH  37  38
ENDBRANCH  36  37
ENDBRANCH  35  36
ENDBRANCH   1  35
TORSDOF 17
