REMARK SMILES O=C(CCSc1nc(-c2cccs2)cc(C(F)(F)F)n1)OCCOC(=O)c1ccc(-c2c3nc(c(-c4c(F)cccc4F)c4ccc([nH]4)c(-c4c(F)cccc4F)c4nc(c(-c5c(F)cccc5F)c5ccc2[nH]5)C=C4)C=C3)cc1
REMARK SMILES IDX 22 1 21 2 2 3 1 4 3 5 4 6 5 7 6 8 7 9 20 10 8 11 15 12 14 13
REMARK SMILES IDX 9 14 10 15 13 16 11 17 12 18 16 19 17 20 18 21 19 22 23 23
REMARK SMILES IDX 24 24 25 25 26 26 27 27 28 28 80 29 29 30 79 31 30 32 31 33
REMARK SMILES IDX 32 34 73 35 33 36 78 37 72 38 74 39 34 40 77 41 71 42 70 43
REMARK SMILES IDX 35 45 61 46 44 47 60 48 45 49 48 50 59 51 75 52 46 53 47 54
REMARK SMILES IDX 58 56 76 57 49 58 36 59 37 60 42 61 38 62 39 63 41 64 43 65
REMARK SMILES IDX 40 66 62 67 63 68 68 69 64 70 65 71 67 72 69 73 66 74 50 75
REMARK SMILES IDX 51 76 56 77 52 78 53 79 55 80 57 81 54 82
REMARK H PARENT 74 44 48 55
REMARK Flexibility Score: inf
ROOT
ATOM      1  C   UNL     1       4.493   0.745  -1.102  1.00  0.00     0.274 C 
ENDROOT
BRANCH   1   2
ATOM      2  O   UNL     1       3.089   0.534  -0.820  1.00  0.00    -0.462 OA
BRANCH   2   3
ATOM      3  C   UNL     1       2.558   0.136   0.357  1.00  0.00     0.306 C 
ATOM      4  O   UNL     1       1.356  -0.117   0.444  1.00  0.00    -0.252 OA
BRANCH   3   5
ATOM      5  C   UNL     1       3.435   0.018   1.572  1.00  0.00     0.134 C 
BRANCH   5   6
ATOM      6  C   UNL     1       3.651  -1.433   1.987  1.00  0.00     0.090 C 
BRANCH   6   7
ATOM      7  S   UNL     1       4.999  -2.294   1.106  1.00  0.00    -0.086 SA
BRANCH   7   8
ATOM      8  C   UNL     1       4.115  -2.988  -0.266  1.00  0.00     0.188 A 
ATOM      9  N   UNL     1       4.278  -4.282  -0.522  1.00  0.00    -0.222 NA
ATOM     10  N   UNL     1       3.445  -2.146  -1.058  1.00  0.00    -0.218 NA
ATOM     11  C   UNL     1       3.698  -4.744  -1.647  1.00  0.00     0.085 A 
ATOM     12  C   UNL     1       2.860  -2.627  -2.184  1.00  0.00     0.149 A 
ATOM     13  C   UNL     1       2.976  -3.957  -2.521  1.00  0.00     0.063 A 
BRANCH  11  14
ATOM     14  C   UNL     1       3.963  -6.144  -1.946  1.00  0.00     0.053 A 
ATOM     15  C   UNL     1       4.577  -6.686  -3.060  1.00  0.00     0.022 A 
ATOM     16  S   UNL     1       3.482  -7.359  -0.839  1.00  0.00    -0.142 S 
ATOM     17  C   UNL     1       4.669  -8.105  -2.990  1.00  0.00     0.012 A 
ATOM     18  C   UNL     1       4.108  -8.600  -1.834  1.00  0.00     0.065 A 
ENDBRANCH  11  14
BRANCH  12  19
ATOM     19  C   UNL     1       2.129  -1.665  -3.114  1.00  0.00     0.433 C 
ATOM     20  F   UNL     1       1.061  -1.052  -2.540  1.00  0.00    -0.165 F 
ATOM     21  F   UNL     1       2.942  -0.677  -3.588  1.00  0.00    -0.165 F 
ATOM     22  F   UNL     1       1.637  -2.284  -4.229  1.00  0.00    -0.165 F 
ENDBRANCH  12  19
ENDBRANCH   7   8
ENDBRANCH   6   7
ENDBRANCH   5   6
ENDBRANCH   3   5
ENDBRANCH   2   3
ENDBRANCH   1   2
BRANCH   1  23
ATOM     23  C   UNL     1       4.744   2.216  -1.411  1.00  0.00     0.275 C 
BRANCH  23  24
ATOM     24  O   UNL     1       4.264   3.001  -0.312  1.00  0.00    -0.458 OA
BRANCH  24  25
ATOM     25  C   UNL     1       2.968   3.389  -0.442  1.00  0.00     0.338 C 
ATOM     26  O   UNL     1       2.287   3.369  -1.448  1.00  0.00    -0.246 OA
BRANCH  25  27
ATOM     27  C   UNL     1       2.436   3.681   0.901  1.00  0.00     0.060 A 
ATOM     28  C   UNL     1       1.139   3.248   1.202  1.00  0.00     0.016 A 
ATOM     29  C   UNL     1       3.190   4.390   1.839  1.00  0.00     0.016 A 
ATOM     30  C   UNL     1       0.563   3.591   2.420  1.00  0.00     0.010 A 
ATOM     31  C   UNL     1       2.614   4.733   3.059  1.00  0.00     0.010 A 
ATOM     32  C   UNL     1       1.281   4.380   3.328  1.00  0.00    -0.014 A 
BRANCH  32  33
ATOM     33  C   UNL     1       0.569   5.016   4.456  1.00  0.00     0.031 A 
ATOM     34  C   UNL     1       0.091   6.431   4.285  1.00  0.00     0.074 A 
ATOM     35  C   UNL     1       0.333   4.340   5.592  1.00  0.00     0.049 A 
ATOM     36  N   UNL     1      -0.565   7.193   5.121  1.00  0.00    -0.248 NA
ATOM     37  C   UNL     1       0.402   7.077   2.998  1.00  0.00     0.031 C 
ATOM     38  C   UNL     1       0.746   2.963   5.859  1.00  0.00     0.029 A 
ATOM     39  N   UNL     1      -0.311   4.731   6.736  1.00  0.00    -0.354 N 
ATOM     40  C   UNL     1      -0.760   8.396   4.456  1.00  0.00     0.074 A 
ATOM     41  C   UNL     1      -0.103   8.288   3.172  1.00  0.00     0.031 C 
ATOM     42  C   UNL     1       0.354   2.627   7.101  1.00  0.00     0.029 A 
ATOM     43  C   UNL     1      -0.326   3.767   7.713  1.00  0.00     0.049 A 
ATOM     44  H   UNL     1      -0.723   5.618   6.847  1.00  0.00     0.167 HD
ATOM     45  C   UNL     1      -1.446   9.487   4.868  1.00  0.00     0.037 A 
ATOM     46  C   UNL     1      -0.829   3.812   8.960  1.00  0.00     0.037 A 
ATOM     47  C   UNL     1      -2.082   9.596   6.153  1.00  0.00     0.049 A 
ATOM     48  C   UNL     1      -1.546   5.056   9.415  1.00  0.00     0.074 A 
ATOM     49  C   UNL     1      -2.798  10.657   6.677  1.00  0.00     0.029 A 
ATOM     50  N   UNL     1      -2.073   8.601   7.120  1.00  0.00    -0.354 N 
ATOM     51  N   UNL     1      -1.758   6.176   8.766  1.00  0.00    -0.248 NA
ATOM     52  C   UNL     1      -2.111   5.033  10.772  1.00  0.00     0.031 C 
ATOM     53  C   UNL     1      -3.189  10.318   7.977  1.00  0.00     0.029 A 
ATOM     54  C   UNL     1      -2.758   9.028   8.244  1.00  0.00     0.049 A 
ATOM     55  H   UNL     1      -1.642   7.721   7.021  1.00  0.00     0.167 HD
ATOM     56  C   UNL     1      -2.500   6.979   9.623  1.00  0.00     0.074 A 
ATOM     57  C   UNL     1      -2.719   6.209  10.830  1.00  0.00     0.031 C 
ATOM     58  C   UNL     1      -2.959   8.242   9.434  1.00  0.00     0.037 A 
BRANCH  45  59
ATOM     59  C   UNL     1      -1.534  10.643   3.917  1.00  0.00     0.057 A 
ATOM     60  C   UNL     1      -2.316  10.580   2.755  1.00  0.00     0.134 A 
ATOM     61  C   UNL     1      -0.844  11.835   4.166  1.00  0.00     0.134 A 
ATOM     62  F   UNL     1      -2.986   9.459   2.447  1.00  0.00    -0.206 F 
ATOM     63  C   UNL     1      -2.392  11.653   1.866  1.00  0.00     0.040 A 
ATOM     64  C   UNL     1      -0.931  12.924   3.297  1.00  0.00     0.040 A 
ATOM     65  F   UNL     1      -0.075  11.962   5.258  1.00  0.00    -0.206 F 
ATOM     66  C   UNL     1      -1.703  12.833   2.140  1.00  0.00     0.006 A 
ENDBRANCH  45  59
BRANCH  46  67
ATOM     67  C   UNL     1      -0.680   2.646   9.866  1.00  0.00     0.057 A 
ATOM     68  C   UNL     1      -1.782   1.873  10.247  1.00  0.00     0.134 A 
ATOM     69  C   UNL     1       0.569   2.291  10.391  1.00  0.00     0.134 A 
ATOM     70  F   UNL     1      -3.008   2.175   9.793  1.00  0.00    -0.206 F 
ATOM     71  C   UNL     1      -1.655   0.806  11.137  1.00  0.00     0.040 A 
ATOM     72  C   UNL     1       0.715   1.211  11.262  1.00  0.00     0.040 A 
ATOM     73  F   UNL     1       1.666   2.988  10.061  1.00  0.00    -0.206 F 
ATOM     74  C   UNL     1      -0.401   0.470  11.645  1.00  0.00     0.006 A 
ENDBRANCH  46  67
BRANCH  58  75
ATOM     75  C   UNL     1      -3.761   8.848  10.548  1.00  0.00     0.057 A 
ATOM     76  C   UNL     1      -3.168   9.243  11.755  1.00  0.00     0.134 A 
ATOM     77  C   UNL     1      -5.138   9.056  10.405  1.00  0.00     0.134 A 
ATOM     78  F   UNL     1      -1.855   9.061  11.959  1.00  0.00    -0.206 F 
ATOM     79  C   UNL     1      -3.924   9.792  12.792  1.00  0.00     0.040 A 
ATOM     80  C   UNL     1      -5.899   9.630  11.424  1.00  0.00     0.040 A 
ATOM     81  F   UNL     1      -5.766   8.712   9.270  1.00  0.00    -0.206 F 
ATOM     82  C   UNL     1      -5.293   9.991  12.626  1.00  0.00     0.006 A 
ENDBRANCH  58  75
ENDBRANCH  32  33
ENDBRANCH  25  27
ENDBRANCH  24  25
ENDBRANCH  23  24
ENDBRANCH   1  23
TORSDOF 16
