REMARK SMILES C[NH2+][C@]1(C(=O)OCCOC(=O)c2ccc(-c3c4nc(c(-c5c(F)cccc5F)c5ccc([nH]5)c(-c5c(F)cccc5F)c5nc(c(-c6c(F)cccc6F)c6ccc3[nH]6)C=C5)C=C4)cc2)CC[C@H](Oc2cc(C(C)C)ccc2C)C1
REMARK SMILES IDX 7 1 6 2 4 3 5 4 3 5 66 6 80 7 67 8 68 9 2 10 1 11 69 14
REMARK SMILES IDX 70 15 71 16 78 17 72 18 77 19 79 20 76 21 73 22 74 23 75 24
REMARK SMILES IDX 8 25 9 26 10 27 11 28 12 29 13 30 65 31 14 32 64 33 15 34
REMARK SMILES IDX 16 35 17 36 58 37 18 38 63 39 57 40 59 41 19 42 62 43 56 44
REMARK SMILES IDX 55 45 20 47 46 48 29 49 45 50 30 51 33 52 44 53 60 54 31 55
REMARK SMILES IDX 32 56 43 58 61 59 34 60 21 61 22 62 27 63 23 64 24 65 26 66
REMARK SMILES IDX 28 67 25 68 47 69 48 70 53 71 49 72 50 73 52 74 54 75 51 76
REMARK SMILES IDX 35 77 36 78 41 79 37 80 38 81 40 82 42 83 39 84
REMARK H PARENT 2 12 2 13 59 46 33 57
REMARK Flexibility Score: inf
ROOT
ATOM      1  C   UNL     1       2.773   1.928  -0.211  1.00  0.00     0.274 C 
ENDROOT
BRANCH   1   2
ATOM      2  O   UNL     1       1.349   2.136  -0.163  1.00  0.00    -0.457 OA
BRANCH   2   3
ATOM      3  C   UNL     1       0.587   1.002  -0.120  1.00  0.00     0.368 C 
ATOM      4  O   UNL     1       1.039  -0.137  -0.177  1.00  0.00    -0.245 OA
BRANCH   3   5
ATOM      5  C   UNL     1      -0.909   1.346   0.127  1.00  0.00     0.197 C 
ATOM      6  C   UNL     1      -1.428   2.346  -0.906  1.00  0.00     0.085 C 
ATOM      7  C   UNL     1      -1.744   0.087  -0.206  1.00  0.00     0.126 C 
ATOM      8  C   UNL     1      -2.919   2.054  -1.032  1.00  0.00     0.052 C 
ATOM      9  C   UNL     1      -3.102   0.557  -0.748  1.00  0.00     0.180 C 
BRANCH   5  10
ATOM     10  N   UNL     1      -0.995   1.830   1.521  1.00  0.00    -0.334 N 
ATOM     11  C   UNL     1      -2.273   2.211   2.083  1.00  0.00     0.331 C 
ATOM     12  H   UNL     1      -0.624   1.087   2.114  1.00  0.00     0.347 HD
ATOM     13  H   UNL     1      -0.482   2.711   1.493  1.00  0.00     0.347 HD
ENDBRANCH   5  10
BRANCH   9  14
ATOM     14  O   UNL     1      -4.050   0.230   0.266  1.00  0.00    -0.490 OA
BRANCH  14  15
ATOM     15  C   UNL     1      -5.392   0.331   0.061  1.00  0.00     0.122 A 
ATOM     16  C   UNL     1      -5.981   1.229  -0.827  1.00  0.00     0.050 A 
ATOM     17  C   UNL     1      -6.207  -0.439   0.909  1.00  0.00    -0.009 A 
ATOM     18  C   UNL     1      -7.366   1.454  -0.825  1.00  0.00    -0.042 A 
ATOM     19  C   UNL     1      -7.596  -0.251   0.880  1.00  0.00     0.007 A 
ATOM     20  C   UNL     1      -5.638  -1.430   1.888  1.00  0.00     0.048 C 
ATOM     21  C   UNL     1      -8.169   0.696   0.032  1.00  0.00     0.004 A 
BRANCH  18  22
ATOM     22  C   UNL     1      -7.978   2.559  -1.668  1.00  0.00     0.013 C 
ATOM     23  C   UNL     1      -7.434   3.929  -1.240  1.00  0.00     0.012 C 
ATOM     24  C   UNL     1      -7.754   2.329  -3.163  1.00  0.00     0.012 C 
ENDBRANCH  18  22
ENDBRANCH  14  15
ENDBRANCH   9  14
ENDBRANCH   3   5
ENDBRANCH   2   3
ENDBRANCH   1   2
BRANCH   1  25
ATOM     25  C   UNL     1       3.416   2.234   1.142  1.00  0.00     0.275 C 
BRANCH  25  26
ATOM     26  O   UNL     1       2.928   1.349   2.168  1.00  0.00    -0.458 OA
BRANCH  26  27
ATOM     27  C   UNL     1       1.997   1.889   2.989  1.00  0.00     0.338 C 
ATOM     28  O   UNL     1       1.541   3.019   2.951  1.00  0.00    -0.246 OA
BRANCH  27  29
ATOM     29  C   UNL     1       1.562   0.895   3.982  1.00  0.00     0.060 A 
ATOM     30  C   UNL     1       0.518   0.028   3.664  1.00  0.00     0.016 A 
ATOM     31  C   UNL     1       2.072   0.943   5.280  1.00  0.00     0.016 A 
ATOM     32  C   UNL     1      -0.086  -0.727   4.665  1.00  0.00     0.010 A 
ATOM     33  C   UNL     1       1.514   0.122   6.268  1.00  0.00     0.010 A 
ATOM     34  C   UNL     1       0.406  -0.692   5.977  1.00  0.00    -0.014 A 
BRANCH  34  35
ATOM     35  C   UNL     1      -0.262  -1.482   7.044  1.00  0.00     0.031 A 
ATOM     36  C   UNL     1      -0.934  -0.789   8.198  1.00  0.00     0.074 A 
ATOM     37  C   UNL     1      -0.293  -2.826   6.967  1.00  0.00     0.049 A 
ATOM     38  N   UNL     1      -1.437  -1.305   9.291  1.00  0.00    -0.248 NA
ATOM     39  C   UNL     1      -1.050   0.675   8.116  1.00  0.00     0.031 C 
ATOM     40  C   UNL     1       0.275  -3.626   5.881  1.00  0.00     0.029 A 
ATOM     41  N   UNL     1      -0.839  -3.756   7.816  1.00  0.00    -0.354 N 
ATOM     42  C   UNL     1      -1.880  -0.229  10.049  1.00  0.00     0.074 A 
ATOM     43  C   UNL     1      -1.599   0.969   9.287  1.00  0.00     0.031 C 
ATOM     44  C   UNL     1       0.017  -4.923   6.111  1.00  0.00     0.029 A 
ATOM     45  C   UNL     1      -0.675  -5.050   7.389  1.00  0.00     0.049 A 
ATOM     46  H   UNL     1      -1.302  -3.518   8.651  1.00  0.00     0.167 HD
ATOM     47  C   UNL     1      -2.462  -0.240  11.272  1.00  0.00     0.037 A 
ATOM     48  C   UNL     1      -1.016  -6.213   7.973  1.00  0.00     0.037 A 
ATOM     49  C   UNL     1      -2.793  -1.431  12.009  1.00  0.00     0.049 A 
ATOM     50  C   UNL     1      -1.663  -6.200   9.326  1.00  0.00     0.074 A 
ATOM     51  C   UNL     1      -3.376  -1.540  13.261  1.00  0.00     0.029 A 
ATOM     52  N   UNL     1      -2.591  -2.722  11.549  1.00  0.00    -0.354 N 
ATOM     53  N   UNL     1      -1.998  -5.175  10.069  1.00  0.00    -0.248 NA
ATOM     54  C   UNL     1      -1.955  -7.507   9.932  1.00  0.00     0.031 C 
ATOM     55  C   UNL     1      -3.516  -2.900  13.562  1.00  0.00     0.029 A 
ATOM     56  C   UNL     1      -3.038  -3.635  12.490  1.00  0.00     0.049 A 
ATOM     57  H   UNL     1      -2.188  -2.956  10.681  1.00  0.00     0.167 HD
ATOM     58  C   UNL     1      -2.529  -5.710  11.234  1.00  0.00     0.074 A 
ATOM     59  C   UNL     1      -2.497  -7.151  11.088  1.00  0.00     0.031 C 
ATOM     60  C   UNL     1      -2.991  -5.064  12.331  1.00  0.00     0.037 A 
BRANCH  47  61
ATOM     61  C   UNL     1      -2.753   1.084  11.907  1.00  0.00     0.057 A 
ATOM     62  C   UNL     1      -3.870   1.846  11.551  1.00  0.00     0.134 A 
ATOM     63  C   UNL     1      -1.919   1.583  12.916  1.00  0.00     0.134 A 
ATOM     64  F   UNL     1      -4.698   1.427  10.582  1.00  0.00    -0.206 F 
ATOM     65  C   UNL     1      -4.144   3.068  12.170  1.00  0.00     0.040 A 
ATOM     66  C   UNL     1      -2.189   2.795  13.552  1.00  0.00     0.040 A 
ATOM     67  F   UNL     1      -0.833   0.896  13.303  1.00  0.00    -0.206 F 
ATOM     68  C   UNL     1      -3.304   3.542  13.177  1.00  0.00     0.006 A 
ENDBRANCH  47  61
BRANCH  48  69
ATOM     69  C   UNL     1      -0.717  -7.490   7.287  1.00  0.00     0.057 A 
ATOM     70  C   UNL     1      -1.732  -8.236   6.679  1.00  0.00     0.134 A 
ATOM     71  C   UNL     1       0.591  -7.981   7.202  1.00  0.00     0.134 A 
ATOM     72  F   UNL     1      -3.006  -7.823   6.748  1.00  0.00    -0.206 F 
ATOM     73  C   UNL     1      -1.456  -9.428   6.009  1.00  0.00     0.040 A 
ATOM     74  C   UNL     1       0.883  -9.162   6.520  1.00  0.00     0.040 A 
ATOM     75  F   UNL     1       1.605  -7.307   7.766  1.00  0.00    -0.206 F 
ATOM     76  C   UNL     1      -0.144  -9.890   5.922  1.00  0.00     0.006 A 
ENDBRANCH  48  69
BRANCH  60  77
ATOM     77  C   UNL     1      -3.492  -5.914  13.454  1.00  0.00     0.057 A 
ATOM     78  C   UNL     1      -2.608  -6.517  14.357  1.00  0.00     0.134 A 
ATOM     79  C   UNL     1      -4.863  -6.115  13.647  1.00  0.00     0.134 A 
ATOM     80  F   UNL     1      -1.283  -6.370  14.213  1.00  0.00    -0.206 F 
ATOM     81  C   UNL     1      -3.073  -7.304  15.411  1.00  0.00     0.040 A 
ATOM     82  C   UNL     1      -5.340  -6.891  14.704  1.00  0.00     0.040 A 
ATOM     83  F   UNL     1      -5.756  -5.563  12.814  1.00  0.00    -0.206 F 
ATOM     84  C   UNL     1      -4.444  -7.490  15.588  1.00  0.00     0.006 A 
ENDBRANCH  60  77
ENDBRANCH  34  35
ENDBRANCH  27  29
ENDBRANCH  26  27
ENDBRANCH  25  26
ENDBRANCH   1  25
TORSDOF 15
