REMARK SMILES CC[C@](C)(Nc1cccc(Br)c1)C(=O)OCCOC(=O)c1ccc(-c2c3nc(c(-c4c(F)cccc4F)c4ccc([nH]4)c(-c4c(F)cccc4F)c4nc(c(-c5c(F)cccc5F)c5ccc2[nH]5)C=C4)C=C3)cc1
REMARK SMILES IDX 16 1 15 2 13 3 14 4 3 5 4 6 2 7 1 8 5 9 6 11 7 12 12 13 8 14
REMARK SMILES IDX 10 15 9 16 11 17 17 18 18 19 19 20 20 21 21 22 22 23 74 24
REMARK SMILES IDX 23 25 73 26 24 27 25 28 26 29 67 30 27 31 72 32 66 33 68 34
REMARK SMILES IDX 28 35 71 36 65 37 64 38 29 40 55 41 38 42 54 43 39 44 42 45
REMARK SMILES IDX 53 46 69 47 40 48 41 49 52 51 70 52 43 53 30 54 31 55 36 56
REMARK SMILES IDX 32 57 33 58 35 59 37 60 34 61 56 62 57 63 62 64 58 65 59 66
REMARK SMILES IDX 61 67 63 68 60 69 44 70 45 71 50 72 46 73 47 74 49 75 51 76
REMARK SMILES IDX 48 77
REMARK H PARENT 5 10 68 39 42 50
REMARK Flexibility Score: inf
ROOT
ATOM      1  C   UNL     1       4.570   2.794  -1.532  1.00  0.00     0.274 C 
ENDROOT
BRANCH   1   2
ATOM      2  O   UNL     1       3.198   3.213  -1.665  1.00  0.00    -0.460 OA
BRANCH   2   3
ATOM      3  C   UNL     1       2.243   2.333  -1.268  1.00  0.00     0.331 C 
ATOM      4  O   UNL     1       2.495   1.176  -0.936  1.00  0.00    -0.249 OA
BRANCH   3   5
ATOM      5  C   UNL     1       0.786   2.874  -1.383  1.00  0.00     0.132 C 
ATOM      6  C   UNL     1      -0.086   2.335  -0.226  1.00  0.00     0.047 C 
BRANCH   5   7
ATOM      7  C   UNL     1       0.235   2.357  -2.745  1.00  0.00     0.037 C 
ATOM      8  C   UNL     1       0.290   0.846  -2.953  1.00  0.00     0.007 C 
ENDBRANCH   5   7
BRANCH   5   9
ATOM      9  N   UNL     1       0.634   4.355  -1.428  1.00  0.00    -0.370 N 
ATOM     10  H   UNL     1      -0.092   4.720  -1.983  1.00  0.00     0.161 HD
BRANCH   9  11
ATOM     11  C   UNL     1       1.435   5.256  -0.749  1.00  0.00     0.036 A 
ATOM     12  C   UNL     1       2.350   6.029  -1.477  1.00  0.00     0.026 A 
ATOM     13  C   UNL     1       1.267   5.537   0.608  1.00  0.00     0.041 A 
ATOM     14  C   UNL     1       3.142   6.997  -0.856  1.00  0.00     0.003 A 
ATOM     15  C   UNL     1       2.047   6.518   1.228  1.00  0.00     0.020 A 
ATOM     16  C   UNL     1       2.993   7.241   0.505  1.00  0.00     0.016 A 
ATOM     17  Br  UNL     1       1.795   6.891   3.066  1.00  0.00    -0.051 Br
ENDBRANCH   9  11
ENDBRANCH   5   9
ENDBRANCH   3   5
ENDBRANCH   2   3
ENDBRANCH   1   2
BRANCH   1  18
ATOM     18  C   UNL     1       5.101   3.101  -0.132  1.00  0.00     0.275 C 
BRANCH  18  19
ATOM     19  O   UNL     1       4.512   2.187   0.808  1.00  0.00    -0.458 OA
BRANCH  19  20
ATOM     20  C   UNL     1       4.327   2.666   2.058  1.00  0.00     0.338 C 
ATOM     21  O   UNL     1       4.670   3.754   2.486  1.00  0.00    -0.246 OA
BRANCH  20  22
ATOM     22  C   UNL     1       3.648   1.646   2.888  1.00  0.00     0.060 A 
ATOM     23  C   UNL     1       2.550   0.938   2.399  1.00  0.00     0.016 A 
ATOM     24  C   UNL     1       4.051   1.470   4.212  1.00  0.00     0.016 A 
ATOM     25  C   UNL     1       1.798   0.127   3.248  1.00  0.00     0.010 A 
ATOM     26  C   UNL     1       3.343   0.596   5.043  1.00  0.00     0.010 A 
ATOM     27  C   UNL     1       2.178  -0.045   4.585  1.00  0.00    -0.014 A 
BRANCH  27  28
ATOM     28  C   UNL     1       1.301  -0.791   5.530  1.00  0.00     0.031 A 
ATOM     29  C   UNL     1       0.709  -0.072   6.716  1.00  0.00     0.074 A 
ATOM     30  C   UNL     1       0.991  -2.085   5.324  1.00  0.00     0.049 A 
ATOM     31  N   UNL     1       0.066  -0.560   7.747  1.00  0.00    -0.248 NA
ATOM     32  C   UNL     1       0.879   1.390   6.755  1.00  0.00     0.031 C 
ATOM     33  C   UNL     1       1.441  -2.898   4.194  1.00  0.00     0.029 A 
ATOM     34  N   UNL     1       0.202  -2.940   6.054  1.00  0.00    -0.354 N 
ATOM     35  C   UNL     1      -0.170   0.519   8.591  1.00  0.00     0.074 A 
ATOM     36  C   UNL     1       0.381   1.691   7.945  1.00  0.00     0.031 C 
ATOM     37  C   UNL     1       0.879  -4.115   4.277  1.00  0.00     0.029 A 
ATOM     38  C   UNL     1       0.088  -4.193   5.502  1.00  0.00     0.049 A 
ATOM     39  H   UNL     1      -0.240  -2.680   6.894  1.00  0.00     0.167 HD
ATOM     40  C   UNL     1      -0.782   0.530   9.799  1.00  0.00     0.037 A 
ATOM     41  C   UNL     1      -0.562  -5.287   5.942  1.00  0.00     0.037 A 
ATOM     42  C   UNL     1      -1.406  -0.616  10.403  1.00  0.00     0.049 A 
ATOM     43  C   UNL     1      -1.282  -5.239   7.260  1.00  0.00     0.074 A 
ATOM     44  C   UNL     1      -2.043  -0.709  11.629  1.00  0.00     0.029 A 
ATOM     45  N   UNL     1      -1.504  -1.862   9.805  1.00  0.00    -0.354 N 
ATOM     46  N   UNL     1      -1.408  -4.237   8.096  1.00  0.00    -0.248 NA
ATOM     47  C   UNL     1      -1.929  -6.481   7.707  1.00  0.00     0.031 C 
ATOM     48  C   UNL     1      -2.523  -2.016  11.774  1.00  0.00     0.029 A 
ATOM     49  C   UNL     1      -2.204  -2.727  10.629  1.00  0.00     0.049 A 
ATOM     50  H   UNL     1      -1.132  -2.097   8.925  1.00  0.00     0.167 HD
ATOM     51  C   UNL     1      -2.147  -4.726   9.165  1.00  0.00     0.074 A 
ATOM     52  C   UNL     1      -2.464  -6.106   8.861  1.00  0.00     0.031 C 
ATOM     53  C   UNL     1      -2.517  -4.092  10.303  1.00  0.00     0.037 A 
BRANCH  40  54
ATOM     54  C   UNL     1      -0.769   1.820  10.562  1.00  0.00     0.057 A 
ATOM     55  C   UNL     1      -1.610   2.889  10.237  1.00  0.00     0.134 A 
ATOM     56  C   UNL     1       0.093   1.981  11.655  1.00  0.00     0.134 A 
ATOM     57  F   UNL     1      -2.445   2.804   9.190  1.00  0.00    -0.206 F 
ATOM     58  C   UNL     1      -1.581   4.084  10.960  1.00  0.00     0.040 A 
ATOM     59  C   UNL     1       0.118   3.162  12.397  1.00  0.00     0.040 A 
ATOM     60  F   UNL     1       0.923   0.992  12.019  1.00  0.00    -0.206 F 
ATOM     61  C   UNL     1      -0.718   4.220  12.047  1.00  0.00     0.006 A 
ENDBRANCH  40  54
BRANCH  41  62
ATOM     62  C   UNL     1      -0.552  -6.529   5.132  1.00  0.00     0.057 A 
ATOM     63  C   UNL     1      -1.703  -6.961   4.464  1.00  0.00     0.134 A 
ATOM     64  C   UNL     1       0.603  -7.309   5.002  1.00  0.00     0.134 A 
ATOM     65  F   UNL     1      -2.846  -6.268   4.573  1.00  0.00    -0.206 F 
ATOM     66  C   UNL     1      -1.708  -8.127   3.697  1.00  0.00     0.040 A 
ATOM     67  C   UNL     1       0.618  -8.465   4.220  1.00  0.00     0.040 A 
ATOM     68  F   UNL     1       1.737  -6.947   5.619  1.00  0.00    -0.206 F 
ATOM     69  C   UNL     1      -0.542  -8.878   3.568  1.00  0.00     0.006 A 
ENDBRANCH  41  62
BRANCH  53  70
ATOM     70  C   UNL     1      -3.323  -4.882  11.287  1.00  0.00     0.057 A 
ATOM     71  C   UNL     1      -2.725  -5.826  12.131  1.00  0.00     0.134 A 
ATOM     72  C   UNL     1      -4.703  -4.682  11.405  1.00  0.00     0.134 A 
ATOM     73  F   UNL     1      -1.409  -6.069  12.055  1.00  0.00    -0.206 F 
ATOM     74  C   UNL     1      -3.479  -6.559  13.049  1.00  0.00     0.040 A 
ATOM     75  C   UNL     1      -5.464  -5.399  12.329  1.00  0.00     0.040 A 
ATOM     76  F   UNL     1      -5.331  -3.789  10.625  1.00  0.00    -0.206 F 
ATOM     77  C   UNL     1      -4.853  -6.343  13.151  1.00  0.00     0.006 A 
ENDBRANCH  53  70
ENDBRANCH  27  28
ENDBRANCH  20  22
ENDBRANCH  19  20
ENDBRANCH  18  19
ENDBRANCH   1  18
TORSDOF 14
