REMARK SMILES CCCC1(CCC)CN(c2cncc(C(=O)OCCOC(=O)c3ccc(-c4c5nc(c(-c6c(F)cccc6F)c6ccc([nH]6)c(-c6c(F)cccc6F)c6nc(c(-c7c(F)cccc7F)c7ccc4[nH]7)C=C6)C=C5)cc3)c2)C1
REMARK SMILES IDX 18 1 17 2 15 3 16 4 14 5 10 6 11 7 77 8 12 9 13 10 9 11 4 12
REMARK SMILES IDX 8 13 78 14 3 15 2 16 1 17 5 18 6 19 7 20 19 21 20 22 21 23
REMARK SMILES IDX 22 24 23 25 24 26 76 27 25 28 75 29 26 30 27 31 28 32 69 33
REMARK SMILES IDX 29 34 74 35 68 36 70 37 30 38 73 39 67 40 66 41 31 43 57 44
REMARK SMILES IDX 40 45 56 46 41 47 44 48 55 49 71 50 42 51 43 52 54 54 72 55
REMARK SMILES IDX 45 56 32 57 33 58 38 59 34 60 35 61 37 62 39 63 36 64 58 65
REMARK SMILES IDX 59 66 64 67 60 68 61 69 63 70 65 71 62 72 46 73 47 74 52 75
REMARK SMILES IDX 48 76 49 77 51 78 53 79 50 80
REMARK H PARENT 70 42 44 53
REMARK Flexibility Score: inf
ROOT
ATOM      1  C   UNL     1      -1.601  -3.337   7.636  1.00  0.00     0.275 C 
ENDROOT
BRANCH   1   2
ATOM      2  O   UNL     1      -0.914  -3.728   6.431  1.00  0.00    -0.458 OA
BRANCH   2   3
ATOM      3  C   UNL     1       0.344  -4.214   6.564  1.00  0.00     0.339 C 
ATOM      4  O   UNL     1       0.969  -4.362   7.602  1.00  0.00    -0.246 OA
BRANCH   3   5
ATOM      5  C   UNL     1       0.838  -4.667   5.251  1.00  0.00     0.080 A 
ATOM      6  C   UNL     1       0.887  -4.542   2.843  1.00  0.00     0.056 A 
ATOM      7  C   UNL     1       1.646  -5.709   2.857  1.00  0.00     0.136 A 
ATOM      8  C   UNL     1       0.463  -4.037   4.072  1.00  0.00     0.044 A 
ATOM      9  N   UNL     1       2.079  -6.317   3.988  1.00  0.00    -0.262 NA
ATOM     10  C   UNL     1       1.690  -5.759   5.159  1.00  0.00     0.126 A 
BRANCH   6  11
ATOM     11  N   UNL     1       0.557  -3.838   1.686  1.00  0.00    -0.369 N 
ATOM     12  C   UNL     1       0.398  -2.697  -0.033  1.00  0.00     0.005 C 
ATOM     13  C   UNL     1       0.465  -4.225   0.322  1.00  0.00     0.125 C 
ATOM     14  C   UNL     1       0.978  -2.502   1.392  1.00  0.00     0.125 C 
BRANCH  12  15
ATOM     15  C   UNL     1       1.346  -2.474  -1.224  1.00  0.00     0.010 C 
BRANCH  15  16
ATOM     16  C   UNL     1       1.569  -1.032  -1.656  1.00  0.00    -0.003 C 
ATOM     17  C   UNL     1       2.152  -0.129  -0.582  1.00  0.00     0.004 C 
ENDBRANCH  15  16
ENDBRANCH  12  15
BRANCH  12  18
ATOM     18  C   UNL     1      -1.070  -2.244  -0.233  1.00  0.00     0.010 C 
BRANCH  18  19
ATOM     19  C   UNL     1      -1.418  -0.833   0.273  1.00  0.00    -0.003 C 
ATOM     20  C   UNL     1      -1.598   0.218  -0.812  1.00  0.00     0.004 C 
ENDBRANCH  18  19
ENDBRANCH  12  18
ENDBRANCH   6  11
ENDBRANCH   3   5
ENDBRANCH   2   3
ENDBRANCH   1   2
BRANCH   1  21
ATOM     21  C   UNL     1      -2.659  -4.370   8.024  1.00  0.00     0.275 C 
BRANCH  21  22
ATOM     22  O   UNL     1      -2.020  -5.599   8.415  1.00  0.00    -0.458 OA
BRANCH  22  23
ATOM     23  C   UNL     1      -2.248  -6.662   7.611  1.00  0.00     0.338 C 
ATOM     24  O   UNL     1      -2.984  -6.725   6.642  1.00  0.00    -0.246 OA
BRANCH  23  25
ATOM     25  C   UNL     1      -1.373  -7.771   8.015  1.00  0.00     0.060 A 
ATOM     26  C   UNL     1      -0.035  -7.706   7.645  1.00  0.00     0.016 A 
ATOM     27  C   UNL     1      -1.876  -8.923   8.611  1.00  0.00     0.016 A 
ATOM     28  C   UNL     1       0.796  -8.811   7.787  1.00  0.00     0.010 A 
ATOM     29  C   UNL     1      -1.015 -10.006   8.844  1.00  0.00     0.010 A 
ATOM     30  C   UNL     1       0.324  -9.975   8.405  1.00  0.00    -0.014 A 
BRANCH  30  31
ATOM     31  C   UNL     1       1.224 -11.155   8.549  1.00  0.00     0.031 A 
ATOM     32  C   UNL     1       0.849 -12.477   7.931  1.00  0.00     0.074 A 
ATOM     33  C   UNL     1       2.395 -11.043   9.208  1.00  0.00     0.049 A 
ATOM     34  N   UNL     1       1.413 -13.650   8.077  1.00  0.00    -0.248 NA
ATOM     35  C   UNL     1      -0.324 -12.486   7.042  1.00  0.00     0.031 C 
ATOM     36  C   UNL     1       2.912  -9.816   9.820  1.00  0.00     0.029 A 
ATOM     37  N   UNL     1       3.371 -11.975   9.471  1.00  0.00    -0.354 N 
ATOM     38  C   UNL     1       0.632 -14.542   7.352  1.00  0.00     0.074 A 
ATOM     39  C   UNL     1      -0.447 -13.777   6.766  1.00  0.00     0.031 C 
ATOM     40  C   UNL     1       4.118 -10.061  10.353  1.00  0.00     0.029 A 
ATOM     41  C   UNL     1       4.422 -11.480  10.206  1.00  0.00     0.049 A 
ATOM     42  H   UNL     1       3.321 -12.909   9.162  1.00  0.00     0.167 HD
ATOM     43  C   UNL     1       0.800 -15.877   7.192  1.00  0.00     0.037 A 
ATOM     44  C   UNL     1       5.489 -12.100  10.745  1.00  0.00     0.037 A 
ATOM     45  C   UNL     1       1.913 -16.624   7.720  1.00  0.00     0.049 A 
ATOM     46  C   UNL     1       5.641 -13.583  10.569  1.00  0.00     0.074 A 
ATOM     47  C   UNL     1       2.188 -17.974   7.579  1.00  0.00     0.029 A 
ATOM     48  N   UNL     1       2.943 -16.084   8.476  1.00  0.00    -0.354 N 
ATOM     49  N   UNL     1       4.874 -14.421   9.916  1.00  0.00    -0.248 NA
ATOM     50  C   UNL     1       6.799 -14.212  11.222  1.00  0.00     0.031 C 
ATOM     51  C   UNL     1       3.361 -18.259   8.285  1.00  0.00     0.029 A 
ATOM     52  C   UNL     1       3.843 -17.078   8.825  1.00  0.00     0.049 A 
ATOM     53  H   UNL     1       3.022 -15.136   8.727  1.00  0.00     0.167 HD
ATOM     54  C   UNL     1       5.459 -15.670  10.068  1.00  0.00     0.074 A 
ATOM     55  C   UNL     1       6.660 -15.477  10.855  1.00  0.00     0.031 C 
ATOM     56  C   UNL     1       5.035 -16.871   9.606  1.00  0.00     0.037 A 
BRANCH  43  57
ATOM     57  C   UNL     1      -0.260 -16.633   6.444  1.00  0.00     0.057 A 
ATOM     58  C   UNL     1      -0.406 -16.544   5.055  1.00  0.00     0.134 A 
ATOM     59  C   UNL     1      -1.112 -17.511   7.129  1.00  0.00     0.134 A 
ATOM     60  F   UNL     1       0.370 -15.715   4.341  1.00  0.00    -0.206 F 
ATOM     61  C   UNL     1      -1.372 -17.289   4.375  1.00  0.00     0.040 A 
ATOM     62  C   UNL     1      -2.064 -18.279   6.457  1.00  0.00     0.040 A 
ATOM     63  F   UNL     1      -1.020 -17.649   8.460  1.00  0.00    -0.206 F 
ATOM     64  C   UNL     1      -2.199 -18.166   5.076  1.00  0.00     0.006 A 
ENDBRANCH  43  57
BRANCH  44  65
ATOM     65  C   UNL     1       6.465 -11.327  11.556  1.00  0.00     0.057 A 
ATOM     66  C   UNL     1       7.781 -11.132  11.123  1.00  0.00     0.134 A 
ATOM     67  C   UNL     1       6.106 -10.772  12.792  1.00  0.00     0.134 A 
ATOM     68  F   UNL     1       8.195 -11.661   9.962  1.00  0.00    -0.206 F 
ATOM     69  C   UNL     1       8.708 -10.427  11.893  1.00  0.00     0.040 A 
ATOM     70  C   UNL     1       7.012 -10.037  13.557  1.00  0.00     0.040 A 
ATOM     71  F   UNL     1       4.860 -10.922  13.266  1.00  0.00    -0.206 F 
ATOM     72  C   UNL     1       8.321  -9.870  13.111  1.00  0.00     0.006 A 
ENDBRANCH  44  65
BRANCH  56  73
ATOM     73  C   UNL     1       5.893 -18.062   9.915  1.00  0.00     0.057 A 
ATOM     74  C   UNL     1       5.958 -18.610  11.202  1.00  0.00     0.134 A 
ATOM     75  C   UNL     1       6.644 -18.681   8.908  1.00  0.00     0.134 A 
ATOM     76  F   UNL     1       5.274 -18.054  12.213  1.00  0.00    -0.206 F 
ATOM     77  C   UNL     1       6.760 -19.718  11.482  1.00  0.00     0.040 A 
ATOM     78  C   UNL     1       7.429 -19.804   9.170  1.00  0.00     0.040 A 
ATOM     79  F   UNL     1       6.619 -18.209   7.652  1.00  0.00    -0.206 F 
ATOM     80  C   UNL     1       7.494 -20.321  10.462  1.00  0.00     0.006 A 
ENDBRANCH  56  73
ENDBRANCH  30  31
ENDBRANCH  23  25
ENDBRANCH  22  23
ENDBRANCH  21  22
ENDBRANCH   1  21
TORSDOF 16
