REMARK SMILES CC(C)C[C@H](C)NS(=O)(=O)c1cc(C(=O)OCCOC(=O)c2ccc(-c3c4nc(c(-c5c(F)cccc5F)c5ccc([nH]5)c(-c5c(F)cccc5F)c5nc(c(-c6c(F)cccc6F)c6ccc3[nH]6)C=C5)C=C4)cc2)ccc1Cl
REMARK SMILES IDX 16 1 14 2 15 3 13 4 11 5 12 6 78 7 77 8 79 9 76 10 8 11 9 12
REMARK SMILES IDX 10 13 7 14 5 16 6 17 4 18 2 19 1 20 3 21 17 22 18 23 19 24
REMARK SMILES IDX 20 25 21 26 22 27 23 28 75 29 24 30 74 31 25 32 26 33 27 34
REMARK SMILES IDX 68 35 28 36 73 37 67 38 69 39 29 40 72 41 66 42 65 43 30 45
REMARK SMILES IDX 56 46 39 47 55 48 40 49 43 50 54 51 70 52 41 53 42 54 53 56
REMARK SMILES IDX 71 57 44 58 31 59 32 60 37 61 33 62 34 63 36 64 38 65 35 66
REMARK SMILES IDX 57 67 58 68 63 69 59 70 60 71 62 72 64 73 61 74 45 75 46 76
REMARK SMILES IDX 51 77 47 78 48 79 50 80 52 81 49 82
REMARK H PARENT 7 15 69 44 43 55
REMARK Flexibility Score: inf
ROOT
ATOM      1  O   UNL     1      -1.582  -3.989  -6.071  1.00  0.00    -0.458 OA
ENDROOT
BRANCH   1   2
ATOM      2  C   UNL     1      -2.621  -3.994  -5.197  1.00  0.00     0.338 C 
ATOM      3  O   UNL     1      -3.405  -4.903  -5.011  1.00  0.00    -0.246 OA
BRANCH   2   4
ATOM      4  C   UNL     1      -2.676  -2.709  -4.442  1.00  0.00     0.061 A 
ATOM      5  C   UNL     1      -3.406  -1.456  -2.467  1.00  0.00     0.101 A 
ATOM      6  C   UNL     1      -3.289  -2.672  -3.180  1.00  0.00     0.039 A 
ATOM      7  C   UNL     1      -2.952  -0.273  -3.046  1.00  0.00     0.061 A 
ATOM      8  C   UNL     1      -2.331  -0.318  -4.303  1.00  0.00     0.023 A 
ATOM      9  Cl  UNL     1      -3.125   1.285  -2.332  1.00  0.00    -0.083 Cl
ATOM     10  C   UNL     1      -2.188  -1.524  -4.996  1.00  0.00     0.017 A 
BRANCH   5  11
ATOM     11  S   UNL     1      -4.246  -1.474  -0.905  1.00  0.00     0.242 S 
ATOM     12  O   UNL     1      -4.421  -2.862  -0.534  1.00  0.00    -0.207 OA
ATOM     13  O   UNL     1      -5.414  -0.630  -1.027  1.00  0.00    -0.207 OA
BRANCH  11  14
ATOM     14  N   UNL     1      -3.260  -0.790   0.290  1.00  0.00    -0.208 NA
ATOM     15  H   UNL     1      -3.468   0.208   0.279  1.00  0.00     0.141 HD
BRANCH  14  16
ATOM     16  C   UNL     1      -1.781  -0.887   0.319  1.00  0.00     0.067 C 
ATOM     17  C   UNL     1      -1.276   0.480   0.807  1.00  0.00     0.025 C 
BRANCH  16  18
ATOM     18  C   UNL     1      -1.226  -1.934   1.304  1.00  0.00     0.022 C 
BRANCH  18  19
ATOM     19  C   UNL     1      -1.863  -3.316   1.258  1.00  0.00    -0.016 C 
ATOM     20  C   UNL     1      -1.649  -3.983  -0.089  1.00  0.00     0.007 C 
ATOM     21  C   UNL     1      -1.313  -4.202   2.373  1.00  0.00     0.007 C 
ENDBRANCH  18  19
ENDBRANCH  16  18
ENDBRANCH  14  16
ENDBRANCH  11  14
ENDBRANCH   5  11
ENDBRANCH   2   4
ENDBRANCH   1   2
BRANCH   1  22
ATOM     22  C   UNL     1      -1.414  -5.162  -6.896  1.00  0.00     0.275 C 
BRANCH  22  23
ATOM     23  C   UNL     1      -0.180  -5.961  -6.475  1.00  0.00     0.275 C 
BRANCH  23  24
ATOM     24  O   UNL     1      -0.454  -6.695  -5.268  1.00  0.00    -0.458 OA
BRANCH  24  25
ATOM     25  C   UNL     1       0.045  -6.157  -4.136  1.00  0.00     0.338 C 
ATOM     26  O   UNL     1       0.747  -5.166  -4.021  1.00  0.00    -0.246 OA
BRANCH  25  27
ATOM     27  C   UNL     1      -0.487  -6.888  -2.978  1.00  0.00     0.060 A 
ATOM     28  C   UNL     1      -1.739  -6.520  -2.513  1.00  0.00     0.016 A 
ATOM     29  C   UNL     1       0.295  -7.782  -2.248  1.00  0.00     0.016 A 
ATOM     30  C   UNL     1      -2.153  -6.946  -1.256  1.00  0.00     0.010 A 
ATOM     31  C   UNL     1      -0.166  -8.258  -1.005  1.00  0.00     0.010 A 
ATOM     32  C   UNL     1      -1.357  -7.771  -0.442  1.00  0.00    -0.014 A 
BRANCH  32  33
ATOM     33  C   UNL     1      -1.730  -7.957   1.009  1.00  0.00     0.031 A 
ATOM     34  C   UNL     1      -0.744  -7.639   2.126  1.00  0.00     0.074 A 
ATOM     35  C   UNL     1      -3.005  -8.236   1.363  1.00  0.00     0.049 A 
ATOM     36  N   UNL     1      -0.917  -7.700   3.428  1.00  0.00    -0.248 NA
ATOM     37  C   UNL     1       0.595  -7.162   1.741  1.00  0.00     0.031 C 
ATOM     38  C   UNL     1      -4.103  -8.505   0.432  1.00  0.00     0.029 A 
ATOM     39  N   UNL     1      -3.614  -8.279   2.599  1.00  0.00    -0.354 N 
ATOM     40  C   UNL     1       0.279  -7.280   4.003  1.00  0.00     0.074 A 
ATOM     41  C   UNL     1       1.190  -7.006   2.915  1.00  0.00     0.031 C 
ATOM     42  C   UNL     1      -5.255  -8.574   1.112  1.00  0.00     0.029 A 
ATOM     43  C   UNL     1      -4.971  -8.498   2.540  1.00  0.00     0.049 A 
ATOM     44  H   UNL     1      -3.123  -8.165   3.445  1.00  0.00     0.167 HD
ATOM     45  C   UNL     1       0.595  -7.103   5.311  1.00  0.00     0.037 A 
ATOM     46  C   UNL     1      -5.894  -8.672   3.508  1.00  0.00     0.037 A 
ATOM     47  C   UNL     1      -0.293  -7.340   6.419  1.00  0.00     0.049 A 
ATOM     48  C   UNL     1      -5.473  -8.645   4.949  1.00  0.00     0.074 A 
ATOM     49  C   UNL     1      -0.026  -7.233   7.775  1.00  0.00     0.029 A 
ATOM     50  N   UNL     1      -1.618  -7.722   6.305  1.00  0.00    -0.354 N 
ATOM     51  N   UNL     1      -4.312  -8.329   5.465  1.00  0.00    -0.248 NA
ATOM     52  C   UNL     1      -6.486  -9.037   5.940  1.00  0.00     0.031 C 
ATOM     53  C   UNL     1      -1.174  -7.606   8.481  1.00  0.00     0.029 A 
ATOM     54  C   UNL     1      -2.171  -7.893   7.566  1.00  0.00     0.049 A 
ATOM     55  H   UNL     1      -2.098  -7.853   5.455  1.00  0.00     0.167 HD
ATOM     56  C   UNL     1      -4.456  -8.481   6.838  1.00  0.00     0.074 A 
ATOM     57  C   UNL     1      -5.824  -8.887   7.078  1.00  0.00     0.031 C 
ATOM     58  C   UNL     1      -3.528  -8.307   7.810  1.00  0.00     0.037 A 
BRANCH  45  59
ATOM     59  C   UNL     1       1.994  -6.658   5.630  1.00  0.00     0.057 A 
ATOM     60  C   UNL     1       2.409  -5.331   5.463  1.00  0.00     0.134 A 
ATOM     61  C   UNL     1       2.920  -7.564   6.163  1.00  0.00     0.134 A 
ATOM     62  F   UNL     1       1.575  -4.417   4.945  1.00  0.00    -0.206 F 
ATOM     63  C   UNL     1       3.702  -4.925   5.803  1.00  0.00     0.040 A 
ATOM     64  C   UNL     1       4.207  -7.166   6.525  1.00  0.00     0.040 A 
ATOM     65  F   UNL     1       2.581  -8.848   6.357  1.00  0.00    -0.206 F 
ATOM     66  C   UNL     1       4.603  -5.843   6.342  1.00  0.00     0.006 A 
ENDBRANCH  45  59
BRANCH  46  67
ATOM     67  C   UNL     1      -7.302  -8.988   3.143  1.00  0.00     0.057 A 
ATOM     68  C   UNL     1      -8.359  -8.132   3.473  1.00  0.00     0.134 A 
ATOM     69  C   UNL     1      -7.624 -10.177   2.473  1.00  0.00     0.134 A 
ATOM     70  F   UNL     1      -8.126  -6.999   4.152  1.00  0.00    -0.206 F 
ATOM     71  C   UNL     1      -9.681  -8.446   3.149  1.00  0.00     0.040 A 
ATOM     72  C   UNL     1      -8.934 -10.485   2.109  1.00  0.00     0.040 A 
ATOM     73  F   UNL     1      -6.661 -11.050   2.142  1.00  0.00    -0.206 F 
ATOM     74  C   UNL     1      -9.969  -9.620   2.454  1.00  0.00     0.006 A 
ENDBRANCH  46  67
BRANCH  58  75
ATOM     75  C   UNL     1      -3.964  -8.542   9.226  1.00  0.00     0.057 A 
ATOM     76  C   UNL     1      -4.222  -9.831   9.713  1.00  0.00     0.134 A 
ATOM     77  C   UNL     1      -4.116  -7.473  10.118  1.00  0.00     0.134 A 
ATOM     78  F   UNL     1      -4.110 -10.897   8.906  1.00  0.00    -0.206 F 
ATOM     79  C   UNL     1      -4.643 -10.045  11.026  1.00  0.00     0.040 A 
ATOM     80  C   UNL     1      -4.511  -7.677  11.442  1.00  0.00     0.040 A 
ATOM     81  F   UNL     1      -3.877  -6.215   9.721  1.00  0.00    -0.206 F 
ATOM     82  C   UNL     1      -4.784  -8.966  11.897  1.00  0.00     0.006 A 
ENDBRANCH  58  75
ENDBRANCH  32  33
ENDBRANCH  25  27
ENDBRANCH  24  25
ENDBRANCH  23  24
ENDBRANCH  22  23
ENDBRANCH   1  22
TORSDOF 16
