REMARK SMILES COc1ccc(-c2noc(CC(=O)OCCOC(=O)c3ccc(-c4c5nc(c(-c6c(F)cccc6F)c6ccc([nH]6)c(-c6c(F)cccc6F)c6nc(c(-c7c(F)cccc7F)c7ccc4[nH]7)C=C6)C=C5)cc3)c2-c2ccc(OC)cc2)cc1
REMARK SMILES IDX 15 1 14 2 12 3 13 4 11 5 10 6 7 7 8 8 74 9 9 10 6 11 3 12
REMARK SMILES IDX 4 13 84 14 5 15 83 16 2 17 1 18 75 19 76 20 82 21 77 22
REMARK SMILES IDX 81 23 78 24 79 25 80 26 16 27 17 28 18 29 19 30 20 31 21 32
REMARK SMILES IDX 73 33 22 34 72 35 23 36 24 37 25 38 66 39 26 40 71 41 65 42
REMARK SMILES IDX 67 43 27 44 70 45 64 46 63 47 28 49 54 50 37 51 53 52 38 53
REMARK SMILES IDX 41 54 52 55 68 56 39 57 40 58 51 60 69 61 42 62 29 63 30 64
REMARK SMILES IDX 35 65 31 66 32 67 34 68 36 69 33 70 55 71 56 72 61 73 57 74
REMARK SMILES IDX 58 75 60 76 62 77 59 78 43 79 44 80 49 81 45 82 46 83 48 84
REMARK SMILES IDX 50 85 47 86
REMARK H PARENT 67 48 41 59
REMARK Flexibility Score: inf
ROOT
ATOM      1  C   UNL     1       1.440  -6.928   9.313  1.00  0.00     0.274 C 
ENDROOT
BRANCH   1   2
ATOM      2  O   UNL     1       2.154  -6.416   8.172  1.00  0.00    -0.462 OA
BRANCH   2   3
ATOM      3  C   UNL     1       3.361  -6.989   7.931  1.00  0.00     0.313 C 
ATOM      4  O   UNL     1       3.909  -7.801   8.671  1.00  0.00    -0.252 OA
BRANCH   3   5
ATOM      5  C   UNL     1       4.042  -6.495   6.683  1.00  0.00     0.201 C 
BRANCH   5   6
ATOM      6  C   UNL     1       3.146  -5.885   5.672  1.00  0.00     0.156 A 
ATOM      7  C   UNL     1       2.023  -4.706   4.165  1.00  0.00     0.122 A 
ATOM      8  N   UNL     1       1.347  -5.854   4.338  1.00  0.00    -0.079 NA
ATOM      9  C   UNL     1       3.193  -4.699   4.975  1.00  0.00     0.053 A 
ATOM     10  O   UNL     1       2.063  -6.596   5.262  1.00  0.00    -0.359 OA
BRANCH   7  11
ATOM     11  C   UNL     1       1.550  -3.658   3.266  1.00  0.00     0.005 A 
ATOM     12  C   UNL     1       0.682  -1.513   1.660  1.00  0.00     0.118 A 
ATOM     13  C   UNL     1      -0.204  -2.158   2.526  1.00  0.00     0.047 A 
ATOM     14  C   UNL     1       2.003  -1.953   1.586  1.00  0.00     0.047 A 
ATOM     15  C   UNL     1       0.220  -3.231   3.316  1.00  0.00     0.014 A 
ATOM     16  C   UNL     1       2.434  -3.020   2.384  1.00  0.00     0.014 A 
BRANCH  12  17
ATOM     17  O   UNL     1       0.148  -0.464   0.965  1.00  0.00    -0.497 OA
ATOM     18  C   UNL     1       0.920   0.044  -0.117  1.00  0.00     0.278 C 
ENDBRANCH  12  17
ENDBRANCH   7  11
BRANCH   9  19
ATOM     19  C   UNL     1       4.226  -3.713   5.187  1.00  0.00    -0.012 A 
ATOM     20  C   UNL     1       3.912  -2.476   5.750  1.00  0.00     0.013 A 
ATOM     21  C   UNL     1       5.559  -4.027   4.898  1.00  0.00     0.013 A 
ATOM     22  C   UNL     1       4.934  -1.578   6.058  1.00  0.00     0.047 A 
ATOM     23  C   UNL     1       6.579  -3.128   5.215  1.00  0.00     0.047 A 
ATOM     24  C   UNL     1       6.271  -1.906   5.813  1.00  0.00     0.118 A 
BRANCH  24  25
ATOM     25  O   UNL     1       7.176  -0.957   6.199  1.00  0.00    -0.497 OA
ATOM     26  C   UNL     1       8.547  -1.334   6.159  1.00  0.00     0.278 C 
ENDBRANCH  24  25
ENDBRANCH   9  19
ENDBRANCH   5   6
ENDBRANCH   3   5
ENDBRANCH   2   3
ENDBRANCH   1   2
BRANCH   1  27
ATOM     27  C   UNL     1       0.510  -8.066   8.897  1.00  0.00     0.275 C 
BRANCH  27  28
ATOM     28  O   UNL     1       1.281  -9.129   8.311  1.00  0.00    -0.458 OA
BRANCH  28  29
ATOM     29  C   UNL     1       0.845  -9.590   7.116  1.00  0.00     0.338 C 
ATOM     30  O   UNL     1      -0.165  -9.274   6.515  1.00  0.00    -0.246 OA
BRANCH  29  31
ATOM     31  C   UNL     1       1.778 -10.626   6.646  1.00  0.00     0.060 A 
ATOM     32  C   UNL     1       3.073 -10.287   6.251  1.00  0.00     0.016 A 
ATOM     33  C   UNL     1       1.332 -11.944   6.551  1.00  0.00     0.016 A 
ATOM     34  C   UNL     1       3.932 -11.267   5.756  1.00  0.00     0.010 A 
ATOM     35  C   UNL     1       2.204 -12.932   6.091  1.00  0.00     0.010 A 
ATOM     36  C   UNL     1       3.509 -12.601   5.684  1.00  0.00    -0.014 A 
BRANCH  36  37
ATOM     37  C   UNL     1       4.419 -13.658   5.179  1.00  0.00     0.031 A 
ATOM     38  C   UNL     1       4.137 -14.332   3.868  1.00  0.00     0.074 A 
ATOM     39  C   UNL     1       5.482 -14.031   5.915  1.00  0.00     0.049 A 
ATOM     40  N   UNL     1       4.721 -15.373   3.331  1.00  0.00    -0.248 NA
ATOM     41  C   UNL     1       3.052 -13.763   3.055  1.00  0.00     0.031 C 
ATOM     42  C   UNL     1       5.881 -13.433   7.189  1.00  0.00     0.029 A 
ATOM     43  N   UNL     1       6.415 -15.015   5.701  1.00  0.00    -0.354 N 
ATOM     44  C   UNL     1       4.058 -15.602   2.132  1.00  0.00     0.074 A 
ATOM     45  C   UNL     1       3.022 -14.596   2.024  1.00  0.00     0.031 C 
ATOM     46  C   UNL     1       6.978 -14.061   7.644  1.00  0.00     0.029 A 
ATOM     47  C   UNL     1       7.323 -15.140   6.724  1.00  0.00     0.049 A 
ATOM     48  H   UNL     1       6.432 -15.577   4.893  1.00  0.00     0.167 HD
ATOM     49  C   UNL     1       4.295 -16.563   1.208  1.00  0.00     0.037 A 
ATOM     50  C   UNL     1       8.299 -16.047   6.919  1.00  0.00     0.037 A 
ATOM     51  C   UNL     1       5.338 -17.550   1.310  1.00  0.00     0.049 A 
ATOM     52  C   UNL     1       8.503 -17.139   5.908  1.00  0.00     0.074 A 
ATOM     53  C   UNL     1       5.673 -18.549   0.412  1.00  0.00     0.029 A 
ATOM     54  N   UNL     1       6.218 -17.661   2.376  1.00  0.00    -0.354 N 
ATOM     55  N   UNL     1       7.863 -17.353   4.784  1.00  0.00    -0.248 NA
ATOM     56  C   UNL     1       9.554 -18.124   6.200  1.00  0.00     0.031 C 
ATOM     57  C   UNL     1       6.732 -19.287   0.952  1.00  0.00     0.029 A 
ATOM     58  C   UNL     1       7.080 -18.725   2.169  1.00  0.00     0.049 A 
ATOM     59  H   UNL     1       6.228 -17.071   3.164  1.00  0.00     0.167 HD
ATOM     60  C   UNL     1       8.437 -18.490   4.231  1.00  0.00     0.074 A 
ATOM     61  C   UNL     1       9.490 -18.909   5.134  1.00  0.00     0.031 C 
ATOM     62  C   UNL     1       8.117 -19.132   3.082  1.00  0.00     0.037 A 
BRANCH  49  63
ATOM     63  C   UNL     1       3.389 -16.611   0.015  1.00  0.00     0.057 A 
ATOM     64  C   UNL     1       3.487 -15.682  -1.027  1.00  0.00     0.134 A 
ATOM     65  C   UNL     1       2.429 -17.624  -0.108  1.00  0.00     0.134 A 
ATOM     66  F   UNL     1       4.378 -14.681  -0.963  1.00  0.00    -0.206 F 
ATOM     67  C   UNL     1       2.651 -15.748  -2.143  1.00  0.00     0.040 A 
ATOM     68  C   UNL     1       1.601 -17.712  -1.228  1.00  0.00     0.040 A 
ATOM     69  F   UNL     1       2.287 -18.548   0.854  1.00  0.00    -0.206 F 
ATOM     70  C   UNL     1       1.708 -16.770  -2.248  1.00  0.00     0.006 A 
ENDBRANCH  49  63
BRANCH  50  71
ATOM     71  C   UNL     1       9.134 -15.980   8.143  1.00  0.00     0.057 A 
ATOM     72  C   UNL     1      10.477 -15.597   8.080  1.00  0.00     0.134 A 
ATOM     73  C   UNL     1       8.608 -16.296   9.401  1.00  0.00     0.134 A 
ATOM     74  F   UNL     1      11.043 -15.307   6.899  1.00  0.00    -0.206 F 
ATOM     75  C   UNL     1      11.272 -15.536   9.226  1.00  0.00     0.040 A 
ATOM     76  C   UNL     1       9.384 -16.217  10.558  1.00  0.00     0.040 A 
ATOM     77  F   UNL     1       7.326 -16.671   9.525  1.00  0.00    -0.206 F 
ATOM     78  C   UNL     1      10.723 -15.839  10.471  1.00  0.00     0.006 A 
ENDBRANCH  50  71
BRANCH  62  79
ATOM     79  C   UNL     1       8.925 -20.345   2.734  1.00  0.00     0.057 A 
ATOM     80  C   UNL     1       8.732 -21.567   3.392  1.00  0.00     0.134 A 
ATOM     81  C   UNL     1       9.886 -20.299   1.717  1.00  0.00     0.134 A 
ATOM     82  F   UNL     1       7.838 -21.670   4.386  1.00  0.00    -0.206 F 
ATOM     83  C   UNL     1       9.481 -22.697   3.061  1.00  0.00     0.040 A 
ATOM     84  C   UNL     1      10.626 -21.427   1.363  1.00  0.00     0.040 A 
ATOM     85  F   UNL     1      10.113 -19.159   1.047  1.00  0.00    -0.206 F 
ATOM     86  C   UNL     1      10.428 -22.629   2.039  1.00  0.00     0.006 A 
ENDBRANCH  62  79
ENDBRANCH  36  37
ENDBRANCH  29  31
ENDBRANCH  28  29
ENDBRANCH  27  28
ENDBRANCH   1  27
TORSDOF 16
