REMARK SMILES CCCc1noc(C2C[NH+](CC(=O)OCCOC(=O)c3ccc(-c4c5nc(c(-c6c(F)cccc6F)c6ccc([nH]6)c(-c6c(F)cccc6F)c6nc(c(-c7c(F)cccc7F)c7ccc4[nH]7)C=C6)C=C5)cc3)C2)n1
REMARK SMILES IDX 15 1 14 2 12 3 13 4 11 5 10 6 8 7 9 8 74 9 7 11 4 12 5 13
REMARK SMILES IDX 75 14 6 15 3 16 2 17 1 18 16 19 17 20 18 21 19 22 20 23
REMARK SMILES IDX 21 24 73 25 22 26 72 27 23 28 24 29 25 30 66 31 26 32 71 33
REMARK SMILES IDX 65 34 67 35 27 36 70 37 64 38 63 39 28 41 54 42 37 43 53 44
REMARK SMILES IDX 38 45 41 46 52 47 68 48 39 49 40 50 51 52 69 53 42 54 29 55
REMARK SMILES IDX 30 56 35 57 31 58 32 59 34 60 36 61 33 62 55 63 56 64 61 65
REMARK SMILES IDX 57 66 58 67 60 68 62 69 59 70 43 71 44 72 49 73 45 74 46 75
REMARK SMILES IDX 48 76 50 77 47 78
REMARK H PARENT 10 10 67 40 41 51
REMARK Flexibility Score: inf
ROOT
ATOM      1  C   UNL     1      -0.304  -1.389   8.669  1.00  0.00     0.274 C 
ENDROOT
BRANCH   1   2
ATOM      2  O   UNL     1      -0.000  -2.663   8.058  1.00  0.00    -0.458 OA
BRANCH   2   3
ATOM      3  C   UNL     1      -0.875  -3.677   8.285  1.00  0.00     0.361 C 
ATOM      4  O   UNL     1      -1.828  -3.593   9.054  1.00  0.00    -0.245 OA
BRANCH   3   5
ATOM      5  C   UNL     1      -0.508  -4.987   7.594  1.00  0.00     0.386 C 
BRANCH   5   6
ATOM      6  N   UNL     1      -0.189  -5.049   6.150  1.00  0.00    -0.324 N 
ATOM      7  C   UNL     1      -0.133  -3.165   5.162  1.00  0.00     0.188 C 
ATOM      8  C   UNL     1      -1.112  -4.348   5.239  1.00  0.00     0.282 C 
ATOM      9  C   UNL     1       0.906  -4.176   5.711  1.00  0.00     0.282 C 
ATOM     10  H   UNL     1      -0.102  -6.064   6.097  1.00  0.00     0.348 HD
BRANCH   7  11
ATOM     11  C   UNL     1       0.233  -2.580   3.824  1.00  0.00     0.241 A 
ATOM     12  C   UNL     1       0.788  -2.222   1.836  1.00  0.00     0.171 A 
ATOM     13  N   UNL     1       0.903  -1.019   2.408  1.00  0.00    -0.062 NA
ATOM     14  N   UNL     1       0.398  -3.228   2.690  1.00  0.00    -0.196 NA
ATOM     15  O   UNL     1       0.501  -1.243   3.712  1.00  0.00    -0.339 OA
BRANCH  12  16
ATOM     16  C   UNL     1       1.140  -2.463   0.414  1.00  0.00     0.081 C 
BRANCH  16  17
ATOM     17  C   UNL     1       0.488  -1.503  -0.588  1.00  0.00     0.005 C 
ATOM     18  C   UNL     1       1.048  -0.085  -0.551  1.00  0.00     0.004 C 
ENDBRANCH  16  17
ENDBRANCH  12  16
ENDBRANCH   7  11
ENDBRANCH   5   6
ENDBRANCH   3   5
ENDBRANCH   2   3
ENDBRANCH   1   2
BRANCH   1  19
ATOM     19  C   UNL     1      -1.231  -0.538   7.795  1.00  0.00     0.275 C 
BRANCH  19  20
ATOM     20  O   UNL     1      -2.544  -1.126   7.756  1.00  0.00    -0.458 OA
BRANCH  20  21
ATOM     21  C   UNL     1      -3.100  -1.300   6.537  1.00  0.00     0.338 C 
ATOM     22  O   UNL     1      -2.632  -0.998   5.454  1.00  0.00    -0.246 OA
BRANCH  21  23
ATOM     23  C   UNL     1      -4.416  -1.937   6.698  1.00  0.00     0.060 A 
ATOM     24  C   UNL     1      -4.508  -3.261   7.135  1.00  0.00     0.016 A 
ATOM     25  C   UNL     1      -5.563  -1.227   6.342  1.00  0.00     0.016 A 
ATOM     26  C   UNL     1      -5.750  -3.887   7.208  1.00  0.00     0.010 A 
ATOM     27  C   UNL     1      -6.811  -1.841   6.455  1.00  0.00     0.010 A 
ATOM     28  C   UNL     1      -6.912  -3.178   6.877  1.00  0.00    -0.014 A 
BRANCH  28  29
ATOM     29  C   UNL     1      -8.241  -3.829   6.960  1.00  0.00     0.031 A 
ATOM     30  C   UNL     1      -8.998  -4.149   5.705  1.00  0.00     0.074 A 
ATOM     31  C   UNL     1      -8.776  -4.101   8.164  1.00  0.00     0.049 A 
ATOM     32  N   UNL     1     -10.229  -4.572   5.567  1.00  0.00    -0.248 NA
ATOM     33  C   UNL     1      -8.278  -3.960   4.436  1.00  0.00     0.031 C 
ATOM     34  C   UNL     1      -8.124  -3.865   9.452  1.00  0.00     0.029 A 
ATOM     35  N   UNL     1     -10.001  -4.620   8.498  1.00  0.00    -0.354 N 
ATOM     36  C   UNL     1     -10.441  -4.674   4.199  1.00  0.00     0.074 A 
ATOM     37  C   UNL     1      -9.215  -4.261   3.548  1.00  0.00     0.031 C 
ATOM     38  C   UNL     1      -8.959  -4.230  10.438  1.00  0.00     0.029 A 
ATOM     39  C   UNL     1     -10.219  -4.679   9.852  1.00  0.00     0.049 A 
ATOM     40  H   UNL     1     -10.661  -4.921   7.831  1.00  0.00     0.167 HD
ATOM     41  C   UNL     1     -11.558  -5.075   3.547  1.00  0.00     0.037 A 
ATOM     42  C   UNL     1     -11.322  -5.022  10.543  1.00  0.00     0.037 A 
ATOM     43  C   UNL     1     -12.769  -5.501   4.199  1.00  0.00     0.049 A 
ATOM     44  C   UNL     1     -12.561  -5.425   9.797  1.00  0.00     0.074 A 
ATOM     45  C   UNL     1     -13.950  -5.942   3.627  1.00  0.00     0.029 A 
ATOM     46  N   UNL     1     -12.951  -5.541   5.573  1.00  0.00    -0.354 N 
ATOM     47  N   UNL     1     -12.756  -5.504   8.504  1.00  0.00    -0.248 NA
ATOM     48  C   UNL     1     -13.736  -5.776  10.607  1.00  0.00     0.031 C 
ATOM     49  C   UNL     1     -14.857  -6.221   4.655  1.00  0.00     0.029 A 
ATOM     50  C   UNL     1     -14.229  -5.986   5.868  1.00  0.00     0.049 A 
ATOM     51  H   UNL     1     -12.272  -5.291   6.241  1.00  0.00     0.167 HD
ATOM     52  C   UNL     1     -14.068  -5.927   8.343  1.00  0.00     0.074 A 
ATOM     53  C   UNL     1     -14.619  -6.100   9.672  1.00  0.00     0.031 C 
ATOM     54  C   UNL     1     -14.757  -6.151   7.197  1.00  0.00     0.037 A 
BRANCH  41  55
ATOM     55  C   UNL     1     -11.530  -5.047   2.049  1.00  0.00     0.057 A 
ATOM     56  C   UNL     1     -10.836  -6.008   1.305  1.00  0.00     0.134 A 
ATOM     57  C   UNL     1     -12.232  -4.063   1.343  1.00  0.00     0.134 A 
ATOM     58  F   UNL     1     -10.132  -6.968   1.923  1.00  0.00    -0.206 F 
ATOM     59  C   UNL     1     -10.828  -5.983  -0.091  1.00  0.00     0.040 A 
ATOM     60  C   UNL     1     -12.248  -4.038  -0.053  1.00  0.00     0.040 A 
ATOM     61  F   UNL     1     -12.919  -3.114   1.997  1.00  0.00    -0.206 F 
ATOM     62  C   UNL     1     -11.541  -4.998  -0.773  1.00  0.00     0.006 A 
ENDBRANCH  41  55
BRANCH  42  63
ATOM     63  C   UNL     1     -11.306  -4.973  12.024  1.00  0.00     0.057 A 
ATOM     64  C   UNL     1     -11.294  -6.146  12.785  1.00  0.00     0.134 A 
ATOM     65  C   UNL     1     -11.291  -3.753  12.712  1.00  0.00     0.134 A 
ATOM     66  F   UNL     1     -11.329  -7.342  12.180  1.00  0.00    -0.206 F 
ATOM     67  C   UNL     1     -11.273  -6.110  14.180  1.00  0.00     0.040 A 
ATOM     68  C   UNL     1     -11.249  -3.703  14.106  1.00  0.00     0.040 A 
ATOM     69  F   UNL     1     -11.300  -2.595  12.037  1.00  0.00    -0.206 F 
ATOM     70  C   UNL     1     -11.243  -4.885  14.844  1.00  0.00     0.006 A 
ENDBRANCH  42  63
BRANCH  54  71
ATOM     71  C   UNL     1     -16.170  -6.628   7.337  1.00  0.00     0.057 A 
ATOM     72  C   UNL     1     -17.207  -5.757   7.689  1.00  0.00     0.134 A 
ATOM     73  C   UNL     1     -16.498  -7.966   7.090  1.00  0.00     0.134 A 
ATOM     74  F   UNL     1     -16.951  -4.466   7.952  1.00  0.00    -0.206 F 
ATOM     75  C   UNL     1     -18.523  -6.205   7.807  1.00  0.00     0.040 A 
ATOM     76  C   UNL     1     -17.813  -8.422   7.187  1.00  0.00     0.040 A 
ATOM     77  F   UNL     1     -15.549  -8.848   6.744  1.00  0.00    -0.206 F 
ATOM     78  C   UNL     1     -18.830  -7.540   7.551  1.00  0.00     0.006 A 
ENDBRANCH  54  71
ENDBRANCH  28  29
ENDBRANCH  21  23
ENDBRANCH  20  21
ENDBRANCH  19  20
ENDBRANCH   1  19
TORSDOF 15
