REMARK SMILES COC(=O)c1cscc1NS(=O)(=O)c1cc(C)c(C(=O)OCCOC(=O)c2ccc(-c3c4nc(c(-c5c(F)cccc5F)c5ccc([nH]5)c(-c5c(F)cccc5F)c5nc(c(-c6c(F)cccc6F)c6ccc3[nH]6)C=C5)C=C4)cc2)s1
REMARK SMILES IDX 21 1 19 2 20 3 18 4 14 5 15 6 81 7 16 8 17 9 11 10 12 11
REMARK SMILES IDX 13 12 10 13 9 15 5 16 6 17 7 18 8 19 3 20 4 21 2 22 1 23
REMARK SMILES IDX 22 24 23 25 24 26 25 27 26 28 27 29 28 30 80 31 29 32 79 33
REMARK SMILES IDX 30 34 31 35 32 36 73 37 33 38 78 39 72 40 74 41 34 42 77 43
REMARK SMILES IDX 71 44 70 45 35 47 61 48 44 49 60 50 45 51 48 52 59 53 75 54
REMARK SMILES IDX 46 55 47 56 58 58 76 59 49 60 36 61 37 62 42 63 38 64 39 65
REMARK SMILES IDX 41 66 43 67 40 68 62 69 63 70 68 71 64 72 65 73 67 74 69 75
REMARK SMILES IDX 66 76 50 77 51 78 56 79 52 80 53 81 55 82 57 83 54 84
REMARK H PARENT 10 14 74 46 48 57
REMARK Flexibility Score: inf
ROOT
ATOM      1  O   UNL     1      -0.179  -0.271  11.556  1.00  0.00    -0.458 OA
ENDROOT
BRANCH   1   2
ATOM      2  C   UNL     1       0.050   0.139  10.276  1.00  0.00     0.348 C 
ATOM      3  O   UNL     1      -0.409   1.168   9.796  1.00  0.00    -0.245 OA
BRANCH   2   4
ATOM      4  C   UNL     1       0.914  -0.793   9.568  1.00  0.00     0.116 A 
ATOM      5  C   UNL     1       2.394  -1.664   7.781  1.00  0.00     0.141 A 
ATOM      6  C   UNL     1       1.916  -2.665   8.604  1.00  0.00     0.038 A 
ATOM      7  S   UNL     1       1.971  -0.137   8.388  1.00  0.00    -0.115 S 
ATOM      8  C   UNL     1       1.034  -2.176   9.636  1.00  0.00    -0.024 A 
ATOM      9  C   UNL     1       0.285  -3.064  10.573  1.00  0.00     0.046 C 
BRANCH   5  10
ATOM     10  S   UNL     1       3.300  -1.674   6.253  1.00  0.00     0.271 S 
ATOM     11  O   UNL     1       3.993  -2.947   6.269  1.00  0.00    -0.200 OA
ATOM     12  O   UNL     1       4.042  -0.432   6.193  1.00  0.00    -0.200 OA
BRANCH  10  13
ATOM     13  N   UNL     1       2.264  -1.713   4.921  1.00  0.00    -0.277 N 
ATOM     14  H   UNL     1       2.598  -2.199   4.133  1.00  0.00     0.180 HD
BRANCH  13  15
ATOM     15  C   UNL     1       0.978  -1.140   4.789  1.00  0.00     0.074 A 
ATOM     16  C   UNL     1       0.481  -0.662   3.512  1.00  0.00     0.094 A 
ATOM     17  C   UNL     1      -0.814  -0.179   3.617  1.00  0.00     0.082 A 
ATOM     18  S   UNL     1      -1.444  -0.303   5.192  1.00  0.00    -0.149 S 
ATOM     19  C   UNL     1      -0.012  -1.049   5.744  1.00  0.00     0.092 A 
BRANCH  16  20
ATOM     20  C   UNL     1       1.218  -0.689   2.250  1.00  0.00     0.340 C 
ATOM     21  O   UNL     1       2.341  -1.172   2.155  1.00  0.00    -0.246 OA
BRANCH  20  22
ATOM     22  O   UNL     1       0.515  -0.142   1.217  1.00  0.00    -0.465 OA
ATOM     23  C   UNL     1       1.172  -0.152  -0.050  1.00  0.00     0.282 C 
ENDBRANCH  20  22
ENDBRANCH  16  20
ENDBRANCH  13  15
ENDBRANCH  10  13
ENDBRANCH   5  10
ENDBRANCH   2   4
ENDBRANCH   1   2
BRANCH   1  24
ATOM     24  C   UNL     1      -0.934   0.648  12.371  1.00  0.00     0.275 C 
BRANCH  24  25
ATOM     25  C   UNL     1      -0.019   1.542  13.213  1.00  0.00     0.275 C 
BRANCH  25  26
ATOM     26  O   UNL     1       0.638   2.539  12.408  1.00  0.00    -0.458 OA
BRANCH  26  27
ATOM     27  C   UNL     1       1.883   2.214  11.996  1.00  0.00     0.338 C 
ATOM     28  O   UNL     1       2.495   1.185  12.229  1.00  0.00    -0.246 OA
BRANCH  27  29
ATOM     29  C   UNL     1       2.414   3.271  11.126  1.00  0.00     0.060 A 
ATOM     30  C   UNL     1       2.269   3.132   9.748  1.00  0.00     0.016 A 
ATOM     31  C   UNL     1       3.181   4.307  11.652  1.00  0.00     0.016 A 
ATOM     32  C   UNL     1       2.964   3.961   8.877  1.00  0.00     0.010 A 
ATOM     33  C   UNL     1       3.809   5.198  10.776  1.00  0.00     0.010 A 
ATOM     34  C   UNL     1       3.732   5.012   9.382  1.00  0.00    -0.014 A 
BRANCH  34  35
ATOM     35  C   UNL     1       4.491   5.896   8.463  1.00  0.00     0.031 A 
ATOM     36  C   UNL     1       5.988   5.953   8.560  1.00  0.00     0.074 A 
ATOM     37  C   UNL     1       3.843   6.652   7.557  1.00  0.00     0.049 A 
ATOM     38  N   UNL     1       6.821   6.822   8.048  1.00  0.00    -0.248 NA
ATOM     39  C   UNL     1       6.633   4.896   9.357  1.00  0.00     0.031 C 
ATOM     40  C   UNL     1       2.401   6.630   7.306  1.00  0.00     0.029 A 
ATOM     41  N   UNL     1       4.316   7.602   6.686  1.00  0.00    -0.354 N 
ATOM     42  C   UNL     1       8.079   6.450   8.503  1.00  0.00     0.074 A 
ATOM     43  C   UNL     1       7.901   5.280   9.337  1.00  0.00     0.031 C 
ATOM     44  C   UNL     1       2.107   7.520   6.346  1.00  0.00     0.029 A 
ATOM     45  C   UNL     1       3.324   8.234   5.977  1.00  0.00     0.049 A 
ATOM     46  H   UNL     1       5.273   7.809   6.580  1.00  0.00     0.167 HD
ATOM     47  C   UNL     1       9.272   7.040   8.249  1.00  0.00     0.037 A 
ATOM     48  C   UNL     1       3.379   9.307   5.167  1.00  0.00     0.037 A 
ATOM     49  C   UNL     1       9.434   8.178   7.382  1.00  0.00     0.049 A 
ATOM     50  C   UNL     1       4.702   9.985   4.948  1.00  0.00     0.074 A 
ATOM     51  C   UNL     1      10.594   8.856   7.053  1.00  0.00     0.029 A 
ATOM     52  N   UNL     1       8.399   8.795   6.693  1.00  0.00    -0.354 N 
ATOM     53  N   UNL     1       5.880   9.672   5.431  1.00  0.00    -0.248 NA
ATOM     54  C   UNL     1       4.702  11.175   4.086  1.00  0.00     0.031 C 
ATOM     55  C   UNL     1      10.256   9.908   6.196  1.00  0.00     0.029 A 
ATOM     56  C   UNL     1       8.893   9.854   5.950  1.00  0.00     0.049 A 
ATOM     57  H   UNL     1       7.455   8.521   6.728  1.00  0.00     0.167 HD
ATOM     58  C   UNL     1       6.766  10.603   4.907  1.00  0.00     0.074 A 
ATOM     59  C   UNL     1       5.989  11.492   4.068  1.00  0.00     0.031 C 
ATOM     60  C   UNL     1       8.103  10.710   5.101  1.00  0.00     0.037 A 
BRANCH  47  61
ATOM     61  C   UNL     1      10.481   6.492   8.949  1.00  0.00     0.057 A 
ATOM     62  C   UNL     1      11.043   5.253   8.615  1.00  0.00     0.134 A 
ATOM     63  C   UNL     1      11.106   7.230   9.964  1.00  0.00     0.134 A 
ATOM     64  F   UNL     1      10.488   4.490   7.662  1.00  0.00    -0.206 F 
ATOM     65  C   UNL     1      12.164   4.756   9.284  1.00  0.00     0.040 A 
ATOM     66  C   UNL     1      12.243   6.756  10.620  1.00  0.00     0.040 A 
ATOM     67  F   UNL     1      10.625   8.427  10.330  1.00  0.00    -0.206 F 
ATOM     68  C   UNL     1      12.770   5.511  10.286  1.00  0.00     0.006 A 
ENDBRANCH  47  61
BRANCH  48  69
ATOM     69  C   UNL     1       2.138   9.827   4.540  1.00  0.00     0.057 A 
ATOM     70  C   UNL     1       1.930   9.730   3.160  1.00  0.00     0.134 A 
ATOM     71  C   UNL     1       1.127  10.425   5.304  1.00  0.00     0.134 A 
ATOM     72  F   UNL     1       2.869   9.187   2.373  1.00  0.00    -0.206 F 
ATOM     73  C   UNL     1       0.767  10.218   2.560  1.00  0.00     0.040 A 
ATOM     74  C   UNL     1      -0.052  10.891   4.721  1.00  0.00     0.040 A 
ATOM     75  F   UNL     1       1.262  10.546   6.633  1.00  0.00    -0.206 F 
ATOM     76  C   UNL     1      -0.232  10.793   3.344  1.00  0.00     0.006 A 
ENDBRANCH  48  69
BRANCH  60  77
ATOM     77  C   UNL     1       8.822  11.785   4.344  1.00  0.00     0.057 A 
ATOM     78  C   UNL     1       8.732  13.135   4.704  1.00  0.00     0.134 A 
ATOM     79  C   UNL     1       9.663  11.452   3.274  1.00  0.00     0.134 A 
ATOM     80  F   UNL     1       7.932  13.519   5.710  1.00  0.00    -0.206 F 
ATOM     81  C   UNL     1       9.444  14.118   4.016  1.00  0.00     0.040 A 
ATOM     82  C   UNL     1      10.399  12.423   2.596  1.00  0.00     0.040 A 
ATOM     83  F   UNL     1       9.797  10.175   2.885  1.00  0.00    -0.206 F 
ATOM     84  C   UNL     1      10.288  13.762   2.965  1.00  0.00     0.006 A 
ENDBRANCH  60  77
ENDBRANCH  34  35
ENDBRANCH  27  29
ENDBRANCH  26  27
ENDBRANCH  25  26
ENDBRANCH  24  25
ENDBRANCH   1  24
TORSDOF 16
