REMARK SMILES Cc1ccc(NC(=O)C[C@@H](C(=O)OCCOC(=O)c2ccc(-c3c4nc(c(-c5c(F)cccc5F)c5ccc([nH]5)c(-c5c(F)cccc5F)c5nc(c(-c6c(F)cccc6F)c6ccc3[nH]6)C=C5)C=C4)cc2)[NH+]2CCOCC2)cc1
REMARK SMILES IDX 14 1 13 2 11 3 12 4 10 5 9 6 7 7 6 8 8 10 5 11 1 12 2 13
REMARK SMILES IDX 3 14 80 15 4 16 79 17 73 18 74 19 78 20 75 22 77 23 76 24
REMARK SMILES IDX 15 25 16 26 17 27 18 28 19 29 20 30 72 31 21 32 71 33 22 34
REMARK SMILES IDX 23 35 24 36 65 37 25 38 70 39 64 40 66 41 26 42 69 43 63 44
REMARK SMILES IDX 62 45 27 47 53 48 36 49 52 50 37 51 40 52 51 53 67 54 38 55
REMARK SMILES IDX 39 56 50 58 68 59 41 60 28 61 29 62 34 63 30 64 31 65 33 66
REMARK SMILES IDX 35 67 32 68 54 69 55 70 60 71 56 72 57 73 59 74 61 75 58 76
REMARK SMILES IDX 42 77 43 78 48 79 44 80 45 81 47 82 49 83 46 84
REMARK H PARENT 6 9 73 21 66 46 40 57
REMARK Flexibility Score: inf
ROOT
ATOM      1  C   UNL     1      -1.639   0.900  -0.049  1.00  0.00     0.274 C 
ENDROOT
BRANCH   1   2
ATOM      2  O   UNL     1      -2.462  -0.455  -0.958  1.00  0.00    -0.458 OA
BRANCH   2   3
ATOM      3  C   UNL     1      -2.473  -1.890  -0.931  1.00  0.00     0.365 C 
ATOM      4  O   UNL     1      -1.743  -2.641  -0.276  1.00  0.00    -0.245 OA
BRANCH   3   5
ATOM      5  C   UNL     1      -3.720  -2.607  -1.338  1.00  0.00     0.304 C 
BRANCH   5   6
ATOM      6  C   UNL     1      -4.421  -2.445   0.078  1.00  0.00     0.177 C 
BRANCH   6   7
ATOM      7  C   UNL     1      -4.840  -1.005   0.528  1.00  0.00     0.231 C 
ATOM      8  N   UNL     1      -4.149  -0.048   1.248  1.00  0.00    -0.326 N 
ATOM      9  H   UNL     1      -4.764   0.598   1.665  1.00  0.00     0.169 HD
ATOM     10  O   UNL     1      -5.992  -0.647   0.221  1.00  0.00    -0.274 OA
BRANCH   8  11
ATOM     11  C   UNL     1      -2.787   0.264   1.553  1.00  0.00     0.041 A 
ATOM     12  C   UNL     1       1.781   2.271   0.235  1.00  0.00     0.044 C 
ATOM     13  C   UNL     1       0.330   1.847   0.397  1.00  0.00    -0.051 A 
ATOM     14  C   UNL     1       0.096   0.123   0.307  1.00  0.00     0.005 A 
ATOM     15  C   UNL     1      -0.925   2.734   1.086  1.00  0.00     0.005 A 
ATOM     16  C   UNL     1      -1.471  -0.757   0.959  1.00  0.00     0.026 A 
ATOM     17  C   UNL     1      -2.417   2.000   1.677  1.00  0.00     0.026 A 
ENDBRANCH   8  11
ENDBRANCH   6   7
ENDBRANCH   5   6
BRANCH   5  18
ATOM     18  N   UNL     1      -3.515  -4.133  -1.871  1.00  0.00    -0.319 N 
ATOM     19  C   UNL     1      -2.675  -4.305  -3.098  1.00  0.00     0.291 C 
ATOM     20  C   UNL     1      -3.011  -5.189  -0.931  1.00  0.00     0.291 C 
ATOM     21  H   UNL     1      -4.509  -4.285  -2.043  1.00  0.00     0.348 HD
ATOM     22  C   UNL     1      -2.584  -5.723  -3.725  1.00  0.00     0.221 C 
ATOM     23  C   UNL     1      -2.870  -6.622  -1.581  1.00  0.00     0.221 C 
ATOM     24  O   UNL     1      -2.061  -6.643  -2.763  1.00  0.00    -0.370 OA
ENDBRANCH   5  18
ENDBRANCH   3   5
ENDBRANCH   2   3
ENDBRANCH   1   2
BRANCH   1  25
ATOM     25  C   UNL     1      -0.676   0.642   1.935  1.00  0.00     0.275 C 
BRANCH  25  26
ATOM     26  O   UNL     1       0.367  -0.947   2.075  1.00  0.00    -0.458 OA
BRANCH  26  27
ATOM     27  C   UNL     1       0.786  -2.142   1.019  1.00  0.00     0.338 C 
ATOM     28  O   UNL     1       1.088  -3.225   1.521  1.00  0.00    -0.246 OA
BRANCH  27  29
ATOM     29  C   UNL     1       0.844  -2.026  -0.730  1.00  0.00     0.060 A 
ATOM     30  C   UNL     1       0.129  -2.768  -1.685  1.00  0.00     0.016 A 
ATOM     31  C   UNL     1       1.437  -0.955  -1.365  1.00  0.00     0.016 A 
ATOM     32  C   UNL     1      -0.357  -2.164  -2.922  1.00  0.00     0.010 A 
ATOM     33  C   UNL     1       0.601  -0.210  -2.205  1.00  0.00     0.010 A 
ATOM     34  C   UNL     1      -0.237  -0.810  -3.115  1.00  0.00    -0.014 A 
BRANCH  34  35
ATOM     35  C   UNL     1      -0.497  -0.021  -4.348  1.00  0.00     0.031 A 
ATOM     36  C   UNL     1      -1.855   0.017  -5.012  1.00  0.00     0.074 A 
ATOM     37  C   UNL     1       0.698   0.481  -4.804  1.00  0.00     0.049 A 
ATOM     38  N   UNL     1      -2.077  -0.359  -6.230  1.00  0.00    -0.248 NA
ATOM     39  C   UNL     1      -3.135   0.405  -4.371  1.00  0.00     0.031 C 
ATOM     40  C   UNL     1       1.168   1.272  -5.922  1.00  0.00     0.029 A 
ATOM     41  N   UNL     1       1.947   0.165  -4.193  1.00  0.00    -0.354 N 
ATOM     42  C   UNL     1      -3.294   0.200  -6.621  1.00  0.00     0.074 A 
ATOM     43  C   UNL     1      -4.013   0.416  -5.397  1.00  0.00     0.031 C 
ATOM     44  C   UNL     1       2.487   0.991  -6.114  1.00  0.00     0.029 A 
ATOM     45  C   UNL     1       2.917  -0.011  -5.136  1.00  0.00     0.049 A 
ATOM     46  H   UNL     1       2.090   0.085  -3.222  1.00  0.00     0.167 HD
ATOM     47  C   UNL     1      -3.412   0.727  -7.883  1.00  0.00     0.037 A 
ATOM     48  C   UNL     1       3.360  -1.292  -5.281  1.00  0.00     0.037 A 
ATOM     49  C   UNL     1      -2.098   0.650  -8.505  1.00  0.00     0.049 A 
ATOM     50  C   UNL     1       2.830  -1.812  -6.575  1.00  0.00     0.074 A 
ATOM     51  C   UNL     1      -1.070   1.577  -8.534  1.00  0.00     0.029 A 
ATOM     52  N   UNL     1      -1.529  -0.585  -8.761  1.00  0.00    -0.354 N 
ATOM     53  N   UNL     1       1.717  -1.419  -7.129  1.00  0.00    -0.248 NA
ATOM     54  C   UNL     1       3.590  -2.748  -7.378  1.00  0.00     0.031 C 
ATOM     55  C   UNL     1       0.127   0.883  -8.833  1.00  0.00     0.029 A 
ATOM     56  C   UNL     1      -0.164  -0.467  -8.928  1.00  0.00     0.049 A 
ATOM     57  H   UNL     1      -2.029  -1.431  -8.815  1.00  0.00     0.167 HD
ATOM     58  C   UNL     1       1.649  -1.939  -8.392  1.00  0.00     0.074 A 
ATOM     59  C   UNL     1       2.857  -2.742  -8.500  1.00  0.00     0.031 C 
ATOM     60  C   UNL     1       0.629  -1.643  -9.253  1.00  0.00     0.037 A 
BRANCH  47  61
ATOM     61  C   UNL     1      -4.505   1.618  -8.473  1.00  0.00     0.057 A 
ATOM     62  C   UNL     1      -4.196   2.586  -9.466  1.00  0.00     0.134 A 
ATOM     63  C   UNL     1      -5.875   1.534  -8.175  1.00  0.00     0.134 A 
ATOM     64  F   UNL     1      -2.946   2.775  -9.907  1.00  0.00    -0.206 F 
ATOM     65  C   UNL     1      -5.145   3.422 -10.073  1.00  0.00     0.040 A 
ATOM     66  C   UNL     1      -6.842   2.372  -8.780  1.00  0.00     0.040 A 
ATOM     67  F   UNL     1      -6.337   0.619  -7.311  1.00  0.00    -0.206 F 
ATOM     68  C   UNL     1      -6.479   3.323  -9.729  1.00  0.00     0.006 A 
ENDBRANCH  47  61
BRANCH  48  69
ATOM     69  C   UNL     1       3.533  -2.135  -4.034  1.00  0.00     0.057 A 
ATOM     70  C   UNL     1       4.349  -1.679  -2.974  1.00  0.00     0.134 A 
ATOM     71  C   UNL     1       2.779  -3.284  -3.757  1.00  0.00     0.134 A 
ATOM     72  F   UNL     1       5.122  -0.594  -3.139  1.00  0.00    -0.206 F 
ATOM     73  C   UNL     1       4.339  -2.260  -1.692  1.00  0.00     0.040 A 
ATOM     74  C   UNL     1       2.788  -3.899  -2.487  1.00  0.00     0.040 A 
ATOM     75  F   UNL     1       1.933  -3.783  -4.670  1.00  0.00    -0.206 F 
ATOM     76  C   UNL     1       3.534  -3.363  -1.437  1.00  0.00     0.006 A 
ENDBRANCH  48  69
BRANCH  60  77
ATOM     77  C   UNL     1       0.327  -2.361 -10.549  1.00  0.00     0.057 A 
ATOM     78  C   UNL     1       0.879  -3.590 -10.923  1.00  0.00     0.134 A 
ATOM     79  C   UNL     1      -0.649  -1.863 -11.448  1.00  0.00     0.134 A 
ATOM     80  F   UNL     1       1.647  -4.313 -10.102  1.00  0.00    -0.206 F 
ATOM     81  C   UNL     1       0.603  -4.197 -12.150  1.00  0.00     0.040 A 
ATOM     82  C   UNL     1      -1.023  -2.524 -12.615  1.00  0.00     0.040 A 
ATOM     83  F   UNL     1      -1.319  -0.721 -11.239  1.00  0.00    -0.206 F 
ATOM     84  C   UNL     1      -0.361  -3.674 -12.995  1.00  0.00     0.006 A 
ENDBRANCH  60  77
ENDBRANCH  34  35
ENDBRANCH  27  29
ENDBRANCH  26  27
ENDBRANCH  25  26
ENDBRANCH   1  25
TORSDOF 15
