REMARK SMILES COc1ccccc1[C@@H]1C[N@@H+](Cc2cn3cc(C)ccc3n2)C[C@H]1C(=O)OCCOC(=O)c1ccc(-c2c3nc(c(-c4c(F)cccc4F)c4ccc([nH]4)c(-c4c(F)cccc4F)c4nc(c(-c5c(F)cccc5F)c5ccc2[nH]5)C=C4)C=C3)cc1
REMARK SMILES IDX 28 1 27 2 25 3 26 4 24 5 9 6 10 7 11 8 23 9 8 11 3 12 4 13
REMARK SMILES IDX 5 14 7 15 6 16 2 17 1 18 12 19 13 20 14 21 22 22 15 23 21 24
REMARK SMILES IDX 16 25 20 26 17 27 19 28 18 29 29 30 30 31 31 32 32 33 33 34
REMARK SMILES IDX 34 35 86 36 35 37 85 38 36 39 37 40 38 41 79 42 39 43 84 44
REMARK SMILES IDX 78 45 80 46 40 47 83 48 77 49 76 50 41 52 67 53 50 54 66 55
REMARK SMILES IDX 51 56 54 57 65 58 81 59 52 60 53 61 64 63 82 64 55 65 42 66
REMARK SMILES IDX 43 67 48 68 44 69 45 70 47 71 49 72 46 73 68 74 69 75 74 76
REMARK SMILES IDX 70 77 71 78 73 79 75 80 72 81 56 82 57 83 62 84 58 85 59 86
REMARK SMILES IDX 61 87 63 88 60 89
REMARK H PARENT 11 10 80 51 54 62
REMARK Flexibility Score: inf
ROOT
ATOM      1  C   UNL     1       4.200   2.376   3.488  1.00  0.00     0.274 C 
ENDROOT
BRANCH   1   2
ATOM      2  O   UNL     1       4.076   1.677   2.235  1.00  0.00    -0.462 OA
BRANCH   2   3
ATOM      3  C   UNL     1       2.846   1.224   1.878  1.00  0.00     0.315 C 
ATOM      4  O   UNL     1       1.813   1.477   2.491  1.00  0.00    -0.252 OA
BRANCH   3   5
ATOM      5  C   UNL     1       2.878   0.287   0.689  1.00  0.00     0.167 C 
ATOM      6  C   UNL     1       3.258   0.867  -0.675  1.00  0.00     0.098 C 
ATOM      7  C   UNL     1       3.803  -0.377  -1.395  1.00  0.00     0.272 C 
ATOM      8  N   UNL     1       4.509  -1.166  -0.380  1.00  0.00    -0.329 N 
ATOM      9  C   UNL     1       3.903  -0.832   0.920  1.00  0.00     0.278 C 
ATOM     10  H   UNL     1       4.391  -2.160  -0.576  1.00  0.00     0.348 HD
BRANCH   6  11
ATOM     11  C   UNL     1       2.231   1.591  -1.531  1.00  0.00     0.004 A 
ATOM     12  C   UNL     1       1.002   1.047  -1.937  1.00  0.00     0.122 A 
ATOM     13  C   UNL     1       0.136   1.762  -2.778  1.00  0.00     0.047 A 
ATOM     14  C   UNL     1       0.486   3.035  -3.231  1.00  0.00     0.004 A 
ATOM     15  C   UNL     1       2.570   2.867  -2.027  1.00  0.00     0.008 A 
ATOM     16  C   UNL     1       1.709   3.584  -2.863  1.00  0.00     0.001 A 
BRANCH  12  17
ATOM     17  O   UNL     1       0.712  -0.259  -1.653  1.00  0.00    -0.496 OA
ATOM     18  C   UNL     1      -0.315  -0.395  -0.675  1.00  0.00     0.278 C 
ENDBRANCH  12  17
ENDBRANCH   6  11
BRANCH   8  19
ATOM     19  C   UNL     1       5.977  -1.029  -0.410  1.00  0.00     0.321 C 
BRANCH  19  20
ATOM     20  C   UNL     1       6.471   0.388  -0.417  1.00  0.00     0.114 A 
ATOM     21  C   UNL     1       6.777   1.181  -1.509  1.00  0.00     0.122 A 
ATOM     22  N   UNL     1       6.637   1.102   0.752  1.00  0.00    -0.228 NA
ATOM     23  N   UNL     1       7.028   2.429  -1.006  1.00  0.00    -0.306 N 
ATOM     24  C   UNL     1       6.946   2.327   0.376  1.00  0.00     0.137 A 
ATOM     25  C   UNL     1       7.303   3.615  -1.681  1.00  0.00     0.096 A 
ATOM     26  C   UNL     1       7.166   3.517   1.122  1.00  0.00     0.048 A 
ATOM     27  C   UNL     1       7.507   4.747  -0.977  1.00  0.00    -0.034 A 
ATOM     28  C   UNL     1       7.422   4.675   0.482  1.00  0.00     0.009 A 
ATOM     29  C   UNL     1       7.803   6.071  -1.607  1.00  0.00     0.046 C 
ENDBRANCH  19  20
ENDBRANCH   8  19
ENDBRANCH   3   5
ENDBRANCH   2   3
ENDBRANCH   1   2
BRANCH   1  30
ATOM     30  C   UNL     1       4.138   3.892   3.340  1.00  0.00     0.275 C 
BRANCH  30  31
ATOM     31  O   UNL     1       2.827   4.343   2.998  1.00  0.00    -0.458 OA
BRANCH  31  32
ATOM     32  C   UNL     1       2.596   4.335   1.670  1.00  0.00     0.338 C 
ATOM     33  O   UNL     1       3.339   3.932   0.784  1.00  0.00    -0.246 OA
BRANCH  32  34
ATOM     34  C   UNL     1       1.352   5.031   1.375  1.00  0.00     0.060 A 
ATOM     35  C   UNL     1       0.559   4.560   0.329  1.00  0.00     0.016 A 
ATOM     36  C   UNL     1       1.142   6.283   1.954  1.00  0.00     0.016 A 
ATOM     37  C   UNL     1      -0.355   5.415  -0.257  1.00  0.00     0.010 A 
ATOM     38  C   UNL     1       0.209   7.126   1.388  1.00  0.00     0.010 A 
ATOM     39  C   UNL     1      -0.474   6.717   0.236  1.00  0.00    -0.014 A 
BRANCH  39  40
ATOM     40  C   UNL     1      -1.367   7.643  -0.453  1.00  0.00     0.031 A 
ATOM     41  C   UNL     1      -2.816   7.340  -0.343  1.00  0.00     0.074 A 
ATOM     42  C   UNL     1      -0.913   8.799  -0.981  1.00  0.00     0.049 A 
ATOM     43  N   UNL     1      -3.709   7.335  -1.278  1.00  0.00    -0.248 NA
ATOM     44  C   UNL     1      -3.329   6.956   0.983  1.00  0.00     0.031 C 
ATOM     45  C   UNL     1       0.454   9.323  -0.881  1.00  0.00     0.029 A 
ATOM     46  N   UNL     1      -1.596   9.816  -1.590  1.00  0.00    -0.354 N 
ATOM     47  C   UNL     1      -4.925   7.122  -0.634  1.00  0.00     0.074 A 
ATOM     48  C   UNL     1      -4.626   6.788   0.734  1.00  0.00     0.031 C 
ATOM     49  C   UNL     1       0.447  10.635  -1.190  1.00  0.00     0.029 A 
ATOM     50  C   UNL     1      -0.886  11.006  -1.635  1.00  0.00     0.049 A 
ATOM     51  H   UNL     1      -2.502   9.712  -1.960  1.00  0.00     0.167 HD
ATOM     52  C   UNL     1      -6.108   7.465  -1.204  1.00  0.00     0.037 A 
ATOM     53  C   UNL     1      -1.347  12.236  -1.959  1.00  0.00     0.037 A 
ATOM     54  C   UNL     1      -6.006   7.671  -2.620  1.00  0.00     0.049 A 
ATOM     55  C   UNL     1      -2.598  12.099  -2.734  1.00  0.00     0.074 A 
ATOM     56  C   UNL     1      -6.052   6.895  -3.755  1.00  0.00     0.029 A 
ATOM     57  N   UNL     1      -5.551   8.905  -2.985  1.00  0.00    -0.354 N 
ATOM     58  N   UNL     1      -2.661  11.603  -3.937  1.00  0.00    -0.248 NA
ATOM     59  C   UNL     1      -3.886  12.294  -2.072  1.00  0.00     0.031 C 
ATOM     60  C   UNL     1      -5.479   7.675  -4.803  1.00  0.00     0.029 A 
ATOM     61  C   UNL     1      -5.085   8.898  -4.273  1.00  0.00     0.049 A 
ATOM     62  H   UNL     1      -5.557   9.697  -2.399  1.00  0.00     0.167 HD
ATOM     63  C   UNL     1      -3.923  11.054  -4.013  1.00  0.00     0.074 A 
ATOM     64  C   UNL     1      -4.686  11.666  -2.937  1.00  0.00     0.031 C 
ATOM     65  C   UNL     1      -4.144   9.903  -4.705  1.00  0.00     0.037 A 
BRANCH  52  66
ATOM     66  C   UNL     1      -7.271   8.023  -0.428  1.00  0.00     0.057 A 
ATOM     67  C   UNL     1      -8.540   8.091  -1.024  1.00  0.00     0.134 A 
ATOM     68  C   UNL     1      -7.115   8.773   0.756  1.00  0.00     0.134 A 
ATOM     69  F   UNL     1      -8.795   7.448  -2.174  1.00  0.00    -0.206 F 
ATOM     70  C   UNL     1      -9.571   8.878  -0.496  1.00  0.00     0.040 A 
ATOM     71  C   UNL     1      -8.153   9.521   1.319  1.00  0.00     0.040 A 
ATOM     72  F   UNL     1      -5.928   8.899   1.365  1.00  0.00    -0.206 F 
ATOM     73  C   UNL     1      -9.380   9.596   0.678  1.00  0.00     0.006 A 
ENDBRANCH  52  66
BRANCH  53  74
ATOM     74  C   UNL     1      -0.832  13.550  -1.522  1.00  0.00     0.057 A 
ATOM     75  C   UNL     1      -1.082  14.712  -2.262  1.00  0.00     0.134 A 
ATOM     76  C   UNL     1      -0.269  13.733  -0.247  1.00  0.00     0.134 A 
ATOM     77  F   UNL     1      -1.656  14.642  -3.471  1.00  0.00    -0.206 F 
ATOM     78  C   UNL     1      -0.796  15.987  -1.759  1.00  0.00     0.040 A 
ATOM     79  C   UNL     1       0.035  14.998   0.261  1.00  0.00     0.040 A 
ATOM     80  F   UNL     1      -0.068  12.694   0.578  1.00  0.00    -0.206 F 
ATOM     81  C   UNL     1      -0.240  16.133  -0.491  1.00  0.00     0.006 A 
ENDBRANCH  53  74
BRANCH  65  82
ATOM     82  C   UNL     1      -3.189   9.576  -5.803  1.00  0.00     0.057 A 
ATOM     83  C   UNL     1      -1.859   9.194  -5.589  1.00  0.00     0.134 A 
ATOM     84  C   UNL     1      -3.642   9.614  -7.126  1.00  0.00     0.134 A 
ATOM     85  F   UNL     1      -1.371   9.060  -4.349  1.00  0.00    -0.206 F 
ATOM     86  C   UNL     1      -1.000   8.912  -6.654  1.00  0.00     0.040 A 
ATOM     87  C   UNL     1      -2.803   9.306  -8.197  1.00  0.00     0.040 A 
ATOM     88  F   UNL     1      -4.919   9.930  -7.395  1.00  0.00    -0.206 F 
ATOM     89  C   UNL     1      -1.472   8.967  -7.963  1.00  0.00     0.006 A 
ENDBRANCH  65  82
ENDBRANCH  39  40
ENDBRANCH  32  34
ENDBRANCH  31  32
ENDBRANCH  30  31
ENDBRANCH   1  30
TORSDOF 15
