REMARK SMILES COC(=O)c1c(SCC(=O)Nc2cc(C)ccc2C)[nH]c2cc(C(=O)OCCOC(=O)c3ccc(-c4c5nc(c(-c6c(F)cccc6F)c6ccc([nH]6)c(-c6c(F)cccc6F)c6nc(c(-c7c(F)cccc7F)c7ccc4[nH]7)C=C6)C=C5)cc3)ccc2c1=O
REMARK SMILES IDX 27 1 26 2 24 3 25 4 23 5 5 6 6 7 89 8 20 9 88 10 90 11 21 12
REMARK SMILES IDX 87 14 22 15 86 16 3 17 4 18 2 19 1 20 7 21 8 22 9 23 10 24
REMARK SMILES IDX 11 25 12 27 13 28 18 29 14 30 17 31 19 32 15 33 16 34 28 35
REMARK SMILES IDX 29 36 30 37 31 38 32 39 33 40 85 41 34 42 84 43 35 44 36 45
REMARK SMILES IDX 37 46 78 47 38 48 83 49 77 50 79 51 39 52 82 53 76 54 75 55
REMARK SMILES IDX 40 57 66 58 49 59 65 60 50 61 53 62 64 63 80 64 51 65 52 66
REMARK SMILES IDX 63 68 81 69 54 70 41 71 42 72 47 73 43 74 44 75 46 76 48 77
REMARK SMILES IDX 45 78 67 79 68 80 73 81 69 82 70 83 72 84 74 85 71 86 55 87
REMARK SMILES IDX 56 88 61 89 57 90 58 91 60 92 62 93 59 94
REMARK H PARENT 20 13 11 26 79 56 53 67
REMARK Flexibility Score: inf
ROOT
ATOM      1  C   UNL     1      -5.193  -8.891  -5.835  1.00  0.00     0.275 C 
ENDROOT
BRANCH   1   2
ATOM      2  O   UNL     1      -4.886  -7.676  -5.082  1.00  0.00    -0.458 OA
BRANCH   2   3
ATOM      3  C   UNL     1      -3.884  -6.867  -5.489  1.00  0.00     0.338 C 
ATOM      4  O   UNL     1      -3.377  -6.866  -6.595  1.00  0.00    -0.246 OA
BRANCH   3   5
ATOM      5  C   UNL     1      -3.337  -6.053  -4.367  1.00  0.00     0.062 A 
ATOM      6  C   UNL     1      -0.283  -2.636  -2.095  1.00  0.00     0.138 A 
ATOM      7  C   UNL     1       0.515  -3.446  -2.826  1.00  0.00     0.092 A 
ATOM      8  C   UNL     1      -1.714  -3.016  -1.892  1.00  0.00     0.205 A 
ATOM      9  N   UNL     1      -0.039  -4.542  -3.490  1.00  0.00    -0.349 N 
ATOM     10  C   UNL     1      -2.259  -4.171  -2.632  1.00  0.00     0.046 A 
ATOM     11  O   UNL     1      -2.447  -2.388  -1.133  1.00  0.00    -0.288 OA
ATOM     12  C   UNL     1      -1.397  -4.868  -3.475  1.00  0.00     0.051 A 
ATOM     13  H   UNL     1       0.567  -5.124  -4.003  1.00  0.00     0.167 HD
ATOM     14  C   UNL     1      -3.618  -4.506  -2.539  1.00  0.00     0.015 A 
ATOM     15  C   UNL     1      -1.949  -5.802  -4.358  1.00  0.00     0.042 A 
ATOM     16  C   UNL     1      -4.160  -5.463  -3.403  1.00  0.00     0.016 A 
BRANCH   6  17
ATOM     17  C   UNL     1       0.085  -1.333  -1.547  1.00  0.00     0.344 C 
ATOM     18  O   UNL     1      -0.236  -0.297  -2.110  1.00  0.00    -0.246 OA
BRANCH  17  19
ATOM     19  O   UNL     1       0.709  -1.454  -0.355  1.00  0.00    -0.465 OA
ATOM     20  C   UNL     1       0.945  -0.212   0.316  1.00  0.00     0.282 C 
ENDBRANCH  17  19
ENDBRANCH   6  17
BRANCH   7  21
ATOM     21  S   UNL     1       2.263  -3.353  -2.939  1.00  0.00    -0.098 SA
BRANCH  21  22
ATOM     22  C   UNL     1       2.942  -1.694  -2.921  1.00  0.00     0.176 C 
BRANCH  22  23
ATOM     23  C   UNL     1       2.367  -0.626  -3.825  1.00  0.00     0.234 C 
ATOM     24  O   UNL     1       2.041   0.463  -3.332  1.00  0.00    -0.274 OA
ATOM     25  N   UNL     1       2.356  -0.676  -5.192  1.00  0.00    -0.325 N 
ATOM     26  H   UNL     1       1.596  -0.254  -5.653  1.00  0.00     0.169 HD
BRANCH  25  27
ATOM     27  C   UNL     1       3.341  -1.280  -5.990  1.00  0.00     0.044 A 
ATOM     28  C   UNL     1       3.502  -2.664  -5.981  1.00  0.00     0.029 A 
ATOM     29  C   UNL     1       4.177  -0.490  -6.799  1.00  0.00    -0.027 A 
ATOM     30  C   UNL     1       4.579  -3.279  -6.622  1.00  0.00    -0.049 A 
ATOM     31  C   UNL     1       5.226  -1.118  -7.493  1.00  0.00     0.006 A 
ATOM     32  C   UNL     1       4.052   1.004  -6.944  1.00  0.00     0.046 C 
ATOM     33  C   UNL     1       4.800  -4.755  -6.481  1.00  0.00     0.044 C 
ATOM     34  C   UNL     1       5.443  -2.493  -7.382  1.00  0.00     0.004 A 
ENDBRANCH  25  27
ENDBRANCH  22  23
ENDBRANCH  21  22
ENDBRANCH   7  21
ENDBRANCH   3   5
ENDBRANCH   2   3
ENDBRANCH   1   2
BRANCH   1  35
ATOM     35  C   UNL     1      -4.100  -9.552  -6.739  1.00  0.00     0.275 C 
BRANCH  35  36
ATOM     36  O   UNL     1      -3.005 -10.185  -6.018  1.00  0.00    -0.458 OA
BRANCH  36  37
ATOM     37  C   UNL     1      -1.839  -9.567  -5.653  1.00  0.00     0.338 C 
ATOM     38  O   UNL     1      -1.038  -8.963  -6.341  1.00  0.00    -0.246 OA
BRANCH  37  39
ATOM     39  C   UNL     1      -1.763  -9.814  -4.193  1.00  0.00     0.060 A 
ATOM     40  C   UNL     1      -0.805 -10.544  -3.495  1.00  0.00     0.016 A 
ATOM     41  C   UNL     1      -2.974  -9.573  -3.597  1.00  0.00     0.016 A 
ATOM     42  C   UNL     1      -1.206 -11.186  -2.307  1.00  0.00     0.010 A 
ATOM     43  C   UNL     1      -3.455 -10.478  -2.731  1.00  0.00     0.010 A 
ATOM     44  C   UNL     1      -2.570 -11.220  -1.994  1.00  0.00    -0.014 A 
BRANCH  44  45
ATOM     45  C   UNL     1      -3.257 -11.898  -0.913  1.00  0.00     0.031 A 
ATOM     46  C   UNL     1      -3.920 -10.992   0.098  1.00  0.00     0.074 A 
ATOM     47  C   UNL     1      -3.734 -13.144  -1.080  1.00  0.00     0.049 A 
ATOM     48  N   UNL     1      -3.439 -10.628   1.242  1.00  0.00    -0.248 NA
ATOM     49  C   UNL     1      -5.155 -10.248  -0.255  1.00  0.00     0.031 C 
ATOM     50  C   UNL     1      -3.665 -14.034  -2.240  1.00  0.00     0.029 A 
ATOM     51  N   UNL     1      -4.481 -13.844  -0.194  1.00  0.00    -0.354 N 
ATOM     52  C   UNL     1      -4.412  -9.813   1.821  1.00  0.00     0.074 A 
ATOM     53  C   UNL     1      -5.244  -9.372   0.745  1.00  0.00     0.031 C 
ATOM     54  C   UNL     1      -4.454 -15.115  -2.019  1.00  0.00     0.029 A 
ATOM     55  C   UNL     1      -4.972 -15.049  -0.662  1.00  0.00     0.049 A 
ATOM     56  H   UNL     1      -4.662 -13.519   0.718  1.00  0.00     0.167 HD
ATOM     57  C   UNL     1      -4.662  -9.824   3.162  1.00  0.00     0.037 A 
ATOM     58  C   UNL     1      -5.758 -15.901   0.041  1.00  0.00     0.037 A 
ATOM     59  C   UNL     1      -3.648 -10.592   3.847  1.00  0.00     0.049 A 
ATOM     60  C   UNL     1      -5.611 -15.549   1.481  1.00  0.00     0.074 A 
ATOM     61  C   UNL     1      -2.269 -10.533   3.914  1.00  0.00     0.029 A 
ATOM     62  N   UNL     1      -3.984 -11.869   4.234  1.00  0.00    -0.354 N 
ATOM     63  N   UNL     1      -4.501 -15.694   2.153  1.00  0.00    -0.248 NA
ATOM     64  C   UNL     1      -6.554 -14.592   2.046  1.00  0.00     0.031 C 
ATOM     65  C   UNL     1      -1.848 -11.894   3.816  1.00  0.00     0.029 A 
ATOM     66  C   UNL     1      -2.988 -12.701   3.792  1.00  0.00     0.049 A 
ATOM     67  H   UNL     1      -4.789 -12.135   4.735  1.00  0.00     0.167 HD
ATOM     68  C   UNL     1      -4.416 -14.567   2.959  1.00  0.00     0.074 A 
ATOM     69  C   UNL     1      -5.752 -13.973   2.919  1.00  0.00     0.031 C 
ATOM     70  C   UNL     1      -3.207 -14.060   3.346  1.00  0.00     0.037 A 
BRANCH  57  71
ATOM     71  C   UNL     1      -5.985  -9.503   3.830  1.00  0.00     0.057 A 
ATOM     72  C   UNL     1      -6.024  -9.453   5.237  1.00  0.00     0.134 A 
ATOM     73  C   UNL     1      -7.252  -9.498   3.209  1.00  0.00     0.134 A 
ATOM     74  F   UNL     1      -4.891  -9.437   5.957  1.00  0.00    -0.206 F 
ATOM     75  C   UNL     1      -7.218  -9.502   5.966  1.00  0.00     0.040 A 
ATOM     76  C   UNL     1      -8.453  -9.491   3.927  1.00  0.00     0.040 A 
ATOM     77  F   UNL     1      -7.417  -9.598   1.886  1.00  0.00    -0.206 F 
ATOM     78  C   UNL     1      -8.440  -9.533   5.311  1.00  0.00     0.006 A 
ENDBRANCH  57  71
BRANCH  58  79
ATOM     79  C   UNL     1      -6.800 -16.827  -0.444  1.00  0.00     0.057 A 
ATOM     80  C   UNL     1      -7.252 -17.892   0.347  1.00  0.00     0.134 A 
ATOM     81  C   UNL     1      -7.573 -16.524  -1.578  1.00  0.00     0.134 A 
ATOM     82  F   UNL     1      -6.599 -18.230   1.468  1.00  0.00    -0.206 F 
ATOM     83  C   UNL     1      -8.423 -18.599   0.044  1.00  0.00     0.040 A 
ATOM     84  C   UNL     1      -8.742 -17.223  -1.893  1.00  0.00     0.040 A 
ATOM     85  F   UNL     1      -7.266 -15.480  -2.362  1.00  0.00    -0.206 F 
ATOM     86  C   UNL     1      -9.180 -18.255  -1.072  1.00  0.00     0.006 A 
ENDBRANCH  58  79
BRANCH  70  87
ATOM     87  C   UNL     1      -1.972 -14.881   3.076  1.00  0.00     0.057 A 
ATOM     88  C   UNL     1      -1.511 -15.222   1.795  1.00  0.00     0.134 A 
ATOM     89  C   UNL     1      -1.126 -15.190   4.146  1.00  0.00     0.134 A 
ATOM     90  F   UNL     1      -2.192 -14.886   0.697  1.00  0.00    -0.206 F 
ATOM     91  C   UNL     1      -0.289 -15.871   1.591  1.00  0.00     0.040 A 
ATOM     92  C   UNL     1       0.113 -15.808   3.955  1.00  0.00     0.040 A 
ATOM     93  F   UNL     1      -1.468 -14.845   5.397  1.00  0.00    -0.206 F 
ATOM     94  C   UNL     1       0.532 -16.159   2.675  1.00  0.00     0.006 A 
ENDBRANCH  70  87
ENDBRANCH  44  45
ENDBRANCH  37  39
ENDBRANCH  36  37
ENDBRANCH  35  36
ENDBRANCH   1  35
TORSDOF 17
