REMARK SMILES NS(=O)(=O)c1ccc(-c2coc(=O)n2-c2ccc(C(=O)OCCOC(=O)c3ccc(-c4c5nc(c(-c6c(F)cccc6F)c6ccc([nH]6)c(-c6c(F)cccc6F)c6nc(c(-c7c(F)cccc7F)c7ccc4[nH]7)C=C6)C=C5)cc3)cc2)cc1
REMARK SMILES IDX 22 1 21 2 19 3 20 4 18 5 15 6 16 7 82 8 17 9 81 10 14 11
REMARK SMILES IDX 9 12 10 13 11 14 12 15 13 16 8 17 5 18 6 19 84 20 7 21 83 22
REMARK SMILES IDX 2 23 3 24 4 25 1 26 23 29 24 30 25 31 26 32 27 33 28 34
REMARK SMILES IDX 80 35 29 36 79 37 30 38 31 39 32 40 73 41 33 42 78 43 72 44
REMARK SMILES IDX 74 45 34 46 77 47 71 48 70 49 35 51 61 52 44 53 60 54 45 55
REMARK SMILES IDX 48 56 59 57 75 58 46 59 47 60 58 62 76 63 49 64 36 65 37 66
REMARK SMILES IDX 42 67 38 68 39 69 41 70 43 71 40 72 62 73 63 74 68 75 64 76
REMARK SMILES IDX 65 77 67 78 69 79 66 80 50 81 51 82 56 83 52 84 53 85 55 86
REMARK SMILES IDX 57 87 54 88
REMARK H PARENT 1 27 1 28 74 50 48 61
REMARK Flexibility Score: inf
ROOT
ATOM      1  C   UNL     1      -5.683  -3.360  -4.179  1.00  0.00     0.275 C 
ENDROOT
BRANCH   1   2
ATOM      2  O   UNL     1      -4.306  -3.752  -4.069  1.00  0.00    -0.458 OA
BRANCH   2   3
ATOM      3  C   UNL     1      -4.076  -4.983  -3.541  1.00  0.00     0.338 C 
ATOM      4  O   UNL     1      -4.899  -5.712  -3.011  1.00  0.00    -0.246 OA
BRANCH   3   5
ATOM      5  C   UNL     1      -2.672  -5.389  -3.792  1.00  0.00     0.060 A 
ATOM      6  C   UNL     1      -0.008  -6.211  -4.043  1.00  0.00     0.053 A 
ATOM      7  C   UNL     1      -1.020  -7.168  -3.949  1.00  0.00     0.028 A 
ATOM      8  C   UNL     1      -0.352  -4.853  -4.135  1.00  0.00     0.028 A 
ATOM      9  C   UNL     1      -2.349  -6.755  -3.797  1.00  0.00     0.018 A 
ATOM     10  C   UNL     1      -1.675  -4.441  -4.016  1.00  0.00     0.018 A 
BRANCH   6  11
ATOM     11  N   UNL     1       1.348  -6.577  -3.896  1.00  0.00    -0.242 N 
ATOM     12  C   UNL     1       2.280  -5.976  -3.093  1.00  0.00     0.095 A 
ATOM     13  C   UNL     1       3.409  -6.651  -3.264  1.00  0.00     0.228 A 
ATOM     14  O   UNL     1       3.307  -7.717  -4.155  1.00  0.00    -0.415 OA
ATOM     15  C   UNL     1       1.958  -7.664  -4.517  1.00  0.00     0.424 A 
ATOM     16  O   UNL     1       1.455  -8.469  -5.290  1.00  0.00    -0.223 OA
BRANCH  12  17
ATOM     17  C   UNL     1       1.991  -4.926  -2.118  1.00  0.00     0.002 A 
ATOM     18  C   UNL     1       1.206  -2.866  -0.393  1.00  0.00     0.082 A 
ATOM     19  C   UNL     1       0.655  -4.139  -0.241  1.00  0.00     0.022 A 
ATOM     20  C   UNL     1       2.159  -2.618  -1.386  1.00  0.00     0.022 A 
ATOM     21  C   UNL     1       1.056  -5.166  -1.095  1.00  0.00     0.012 A 
ATOM     22  C   UNL     1       2.555  -3.651  -2.243  1.00  0.00     0.012 A 
BRANCH  18  23
ATOM     23  S   UNL     1       0.640  -1.589   0.690  1.00  0.00     0.238 S 
ATOM     24  O   UNL     1       1.286  -1.767   1.971  1.00  0.00    -0.207 OA
ATOM     25  O   UNL     1      -0.788  -1.463   0.541  1.00  0.00    -0.207 OA
BRANCH  23  26
ATOM     26  N   UNL     1       1.279  -0.171   0.053  1.00  0.00    -0.225 NA
ATOM     27  H   UNL     1       0.993   0.620   0.631  1.00  0.00     0.137 HD
ATOM     28  H   UNL     1       0.935  -0.039  -0.898  1.00  0.00     0.137 HD
ENDBRANCH  23  26
ENDBRANCH  18  23
ENDBRANCH  12  17
ENDBRANCH   6  11
ENDBRANCH   3   5
ENDBRANCH   2   3
ENDBRANCH   1   2
BRANCH   1  29
ATOM     29  C   UNL     1      -6.277  -3.828  -5.498  1.00  0.00     0.275 C 
BRANCH  29  30
ATOM     30  O   UNL     1      -6.431  -5.245  -5.508  1.00  0.00    -0.458 OA
BRANCH  30  31
ATOM     31  C   UNL     1      -5.415  -5.937  -6.069  1.00  0.00     0.338 C 
ATOM     32  O   UNL     1      -4.310  -5.521  -6.373  1.00  0.00    -0.246 OA
BRANCH  31  33
ATOM     33  C   UNL     1      -5.921  -7.245  -6.490  1.00  0.00     0.060 A 
ATOM     34  C   UNL     1      -5.000  -8.146  -7.035  1.00  0.00     0.016 A 
ATOM     35  C   UNL     1      -7.305  -7.407  -6.646  1.00  0.00     0.016 A 
ATOM     36  C   UNL     1      -5.465  -9.093  -7.920  1.00  0.00     0.010 A 
ATOM     37  C   UNL     1      -7.764  -8.343  -7.534  1.00  0.00     0.010 A 
ATOM     38  C   UNL     1      -6.830  -9.106  -8.228  1.00  0.00    -0.014 A 
BRANCH  38  39
ATOM     39  C   UNL     1      -7.298  -9.992  -9.270  1.00  0.00     0.031 A 
ATOM     40  C   UNL     1      -7.250 -11.422  -8.884  1.00  0.00     0.074 A 
ATOM     41  C   UNL     1      -7.857  -9.508 -10.396  1.00  0.00     0.049 A 
ATOM     42  N   UNL     1      -6.598 -12.380  -9.451  1.00  0.00    -0.248 NA
ATOM     43  C   UNL     1      -7.886 -11.802  -7.609  1.00  0.00     0.031 C 
ATOM     44  C   UNL     1      -8.197  -8.120 -10.730  1.00  0.00     0.029 A 
ATOM     45  N   UNL     1      -8.343 -10.198 -11.460  1.00  0.00    -0.354 N 
ATOM     46  C   UNL     1      -6.886 -13.523  -8.711  1.00  0.00     0.074 A 
ATOM     47  C   UNL     1      -7.542 -13.084  -7.510  1.00  0.00     0.031 C 
ATOM     48  C   UNL     1      -9.036  -8.106 -11.792  1.00  0.00     0.029 A 
ATOM     49  C   UNL     1      -9.175  -9.460 -12.293  1.00  0.00     0.049 A 
ATOM     50  H   UNL     1      -8.124 -11.143 -11.627  1.00  0.00     0.167 HD
ATOM     51  C   UNL     1      -6.759 -14.765  -9.249  1.00  0.00     0.037 A 
ATOM     52  C   UNL     1      -9.976  -9.977 -13.258  1.00  0.00     0.037 A 
ATOM     53  C   UNL     1      -5.903 -14.748 -10.405  1.00  0.00     0.049 A 
ATOM     54  C   UNL     1      -9.471 -11.344 -13.561  1.00  0.00     0.074 A 
ATOM     55  C   UNL     1      -4.569 -14.455 -10.610  1.00  0.00     0.029 A 
ATOM     56  N   UNL     1      -6.495 -14.687 -11.642  1.00  0.00    -0.354 N 
ATOM     57  N   UNL     1      -8.319 -11.577 -14.128  1.00  0.00    -0.248 NA
ATOM     58  C   UNL     1     -10.021 -12.447 -12.785  1.00  0.00     0.031 C 
ATOM     59  C   UNL     1      -4.531 -13.763 -11.855  1.00  0.00     0.029 A 
ATOM     60  C   UNL     1      -5.829 -13.733 -12.369  1.00  0.00     0.049 A 
ATOM     61  H   UNL     1      -7.257 -15.229 -11.951  1.00  0.00     0.167 HD
ATOM     62  C   UNL     1      -7.806 -12.677 -13.453  1.00  0.00     0.074 A 
ATOM     63  C   UNL     1      -8.926 -13.205 -12.676  1.00  0.00     0.031 C 
ATOM     64  C   UNL     1      -6.460 -12.886 -13.354  1.00  0.00     0.037 A 
BRANCH  51  65
ATOM     65  C   UNL     1      -7.687 -15.908  -8.939  1.00  0.00     0.057 A 
ATOM     66  C   UNL     1      -7.389 -17.189  -9.432  1.00  0.00     0.134 A 
ATOM     67  C   UNL     1      -8.994 -15.749  -8.432  1.00  0.00     0.134 A 
ATOM     68  F   UNL     1      -6.182 -17.463  -9.951  1.00  0.00    -0.206 F 
ATOM     69  C   UNL     1      -8.343 -18.211  -9.486  1.00  0.00     0.040 A 
ATOM     70  C   UNL     1      -9.939 -16.777  -8.434  1.00  0.00     0.040 A 
ATOM     71  F   UNL     1      -9.463 -14.570  -8.003  1.00  0.00    -0.206 F 
ATOM     72  C   UNL     1      -9.626 -18.004  -8.993  1.00  0.00     0.006 A 
ENDBRANCH  51  65
BRANCH  52  73
ATOM     73  C   UNL     1     -11.339  -9.535 -13.635  1.00  0.00     0.057 A 
ATOM     74  C   UNL     1     -11.928  -9.936 -14.842  1.00  0.00     0.134 A 
ATOM     75  C   UNL     1     -12.201  -8.937 -12.698  1.00  0.00     0.134 A 
ATOM     76  F   UNL     1     -11.198 -10.559 -15.779  1.00  0.00    -0.206 F 
ATOM     77  C   UNL     1     -13.296  -9.766 -15.097  1.00  0.00     0.040 A 
ATOM     78  C   UNL     1     -13.567  -8.757 -12.941  1.00  0.00     0.040 A 
ATOM     79  F   UNL     1     -11.765  -8.588 -11.479  1.00  0.00    -0.206 F 
ATOM     80  C   UNL     1     -14.123  -9.184 -14.140  1.00  0.00     0.006 A 
ENDBRANCH  52  73
BRANCH  64  81
ATOM     81  C   UNL     1      -5.548 -11.996 -14.158  1.00  0.00     0.057 A 
ATOM     82  C   UNL     1      -5.413 -10.615 -13.944  1.00  0.00     0.134 A 
ATOM     83  C   UNL     1      -4.651 -12.585 -15.053  1.00  0.00     0.134 A 
ATOM     84  F   UNL     1      -6.159  -9.979 -13.034  1.00  0.00    -0.206 F 
ATOM     85  C   UNL     1      -4.454  -9.851 -14.618  1.00  0.00     0.040 A 
ATOM     86  C   UNL     1      -3.667 -11.840 -15.708  1.00  0.00     0.040 A 
ATOM     87  F   UNL     1      -4.679 -13.910 -15.264  1.00  0.00    -0.206 F 
ATOM     88  C   UNL     1      -3.570 -10.467 -15.498  1.00  0.00     0.006 A 
ENDBRANCH  64  81
ENDBRANCH  38  39
ENDBRANCH  31  33
ENDBRANCH  30  31
ENDBRANCH  29  30
ENDBRANCH   1  29
TORSDOF 15
