REMARK SMILES CS(=O)(=O)c1ccc(/C=C(/C(=O)OCCOC(=O)c2ccc(-c3c4nc(c(-c5c(F)cccc5F)c5ccc([nH]5)c(-c5c(F)cccc5F)c5nc(c(-c6c(F)cccc6F)c6ccc3[nH]6)C=C5)C=C4)cc2)c2ccc(-c3ccc(S(C)(=O)=O)cc3)cc2)cc1
REMARK SMILES IDX 14 1 13 2 11 3 12 4 10 5 9 6 8 7 5 8 6 9 90 10 7 11 89 12
REMARK SMILES IDX 2 13 1 14 3 15 4 16 73 17 74 18 88 19 75 20 87 21 76 22
REMARK SMILES IDX 77 23 78 24 86 25 79 26 85 27 80 28 81 29 82 30 83 31 84 32
REMARK SMILES IDX 15 33 16 34 17 35 18 36 19 37 20 38 72 39 21 40 71 41 22 42
REMARK SMILES IDX 23 43 24 44 65 45 25 46 70 47 64 48 66 49 26 50 69 51 63 52
REMARK SMILES IDX 62 53 27 55 53 56 36 57 52 58 37 59 40 60 51 61 67 62 38 63
REMARK SMILES IDX 39 64 50 66 68 67 41 68 28 69 29 70 34 71 30 72 31 73 33 74
REMARK SMILES IDX 35 75 32 76 54 77 55 78 60 79 56 80 57 81 59 82 61 83 58 84
REMARK SMILES IDX 42 85 43 86 48 87 44 88 45 89 47 90 49 91 46 92
REMARK H PARENT 66 54 40 65
REMARK Flexibility Score: inf
ROOT
ATOM      1  C   UNL     1       2.593   6.202   8.594  1.00  0.00     0.275 C 
ENDROOT
BRANCH   1   2
ATOM      2  O   UNL     1       2.048   5.468   7.477  1.00  0.00    -0.458 OA
BRANCH   2   3
ATOM      3  C   UNL     1       2.773   4.390   7.082  1.00  0.00     0.338 C 
ATOM      4  O   UNL     1       3.842   4.036   7.561  1.00  0.00    -0.246 OA
BRANCH   3   5
ATOM      5  C   UNL     1       2.082   3.618   6.006  1.00  0.00     0.067 C 
ATOM      6  C   UNL     1       1.555   4.288   4.956  1.00  0.00     0.024 C 
BRANCH   6   7
ATOM      7  C   UNL     1       1.067   3.719   3.679  1.00  0.00    -0.025 A 
ATOM      8  C   UNL     1       0.461   2.605   1.171  1.00  0.00     0.067 A 
ATOM      9  C   UNL     1       0.078   1.940   2.332  1.00  0.00     0.021 A 
ATOM     10  C   UNL     1       1.063   3.862   1.244  1.00  0.00     0.021 A 
ATOM     11  C   UNL     1       0.358   2.514   3.573  1.00  0.00     0.009 A 
ATOM     12  C   UNL     1       1.363   4.412   2.495  1.00  0.00     0.009 A 
BRANCH   8  13
ATOM     13  S   UNL     1       0.202   1.829  -0.404  1.00  0.00     0.175 S 
ATOM     14  C   UNL     1       1.006   0.252  -0.258  1.00  0.00     0.163 C 
ATOM     15  O   UNL     1       0.931   2.594  -1.393  1.00  0.00    -0.224 OA
ATOM     16  O   UNL     1      -1.228   1.607  -0.530  1.00  0.00    -0.224 OA
ENDBRANCH   8  13
ENDBRANCH   6   7
BRANCH   5  17
ATOM     17  C   UNL     1       2.151   2.148   6.071  1.00  0.00    -0.011 A 
ATOM     18  C   UNL     1       1.119   1.437   6.692  1.00  0.00     0.009 A 
ATOM     19  C   UNL     1       3.199   1.441   5.480  1.00  0.00     0.009 A 
ATOM     20  C   UNL     1       1.124   0.037   6.699  1.00  0.00     0.009 A 
ATOM     21  C   UNL     1       3.200   0.041   5.495  1.00  0.00     0.009 A 
ATOM     22  C   UNL     1       2.166  -0.696   6.105  1.00  0.00    -0.018 A 
BRANCH  22  23
ATOM     23  C   UNL     1       2.174  -2.179   6.121  1.00  0.00    -0.018 A 
ATOM     24  C   UNL     1       0.976  -2.919   6.066  1.00  0.00     0.010 A 
ATOM     25  C   UNL     1       3.379  -2.908   6.169  1.00  0.00     0.010 A 
ATOM     26  C   UNL     1       0.978  -4.317   6.032  1.00  0.00     0.021 A 
ATOM     27  C   UNL     1       3.395  -4.306   6.125  1.00  0.00     0.021 A 
ATOM     28  C   UNL     1       2.191  -5.001   6.050  1.00  0.00     0.067 A 
BRANCH  28  29
ATOM     29  S   UNL     1       2.189  -6.772   5.915  1.00  0.00     0.175 S 
ATOM     30  C   UNL     1       1.412  -7.307   7.410  1.00  0.00     0.163 C 
ATOM     31  O   UNL     1       1.324  -7.105   4.798  1.00  0.00    -0.224 OA
ATOM     32  O   UNL     1       3.570  -7.218   5.937  1.00  0.00    -0.224 OA
ENDBRANCH  28  29
ENDBRANCH  22  23
ENDBRANCH   5  17
ENDBRANCH   3   5
ENDBRANCH   2   3
ENDBRANCH   1   2
BRANCH   1  33
ATOM     33  C   UNL     1       1.876   5.822   9.889  1.00  0.00     0.275 C 
BRANCH  33  34
ATOM     34  O   UNL     1       2.119   4.436  10.193  1.00  0.00    -0.458 OA
BRANCH  34  35
ATOM     35  C   UNL     1       1.024   3.655  10.322  1.00  0.00     0.338 C 
ATOM     36  O   UNL     1      -0.147   4.009  10.269  1.00  0.00    -0.246 OA
BRANCH  35  37
ATOM     37  C   UNL     1       1.409   2.243  10.510  1.00  0.00     0.060 A 
ATOM     38  C   UNL     1       2.371   1.664   9.691  1.00  0.00     0.016 A 
ATOM     39  C   UNL     1       0.684   1.442  11.394  1.00  0.00     0.016 A 
ATOM     40  C   UNL     1       2.497   0.274   9.650  1.00  0.00     0.010 A 
ATOM     41  C   UNL     1       0.902   0.057  11.428  1.00  0.00     0.010 A 
ATOM     42  C   UNL     1       1.762  -0.563  10.504  1.00  0.00    -0.014 A 
BRANCH  42  43
ATOM     43  C   UNL     1       1.835  -2.058  10.383  1.00  0.00     0.031 A 
ATOM     44  C   UNL     1       0.573  -2.894  10.311  1.00  0.00     0.074 A 
ATOM     45  C   UNL     1       3.018  -2.704  10.301  1.00  0.00     0.049 A 
ATOM     46  N   UNL     1       0.424  -4.190  10.453  1.00  0.00    -0.248 NA
ATOM     47  C   UNL     1      -0.689  -2.178  10.066  1.00  0.00     0.031 C 
ATOM     48  C   UNL     1       4.338  -2.073  10.289  1.00  0.00     0.029 A 
ATOM     49  N   UNL     1       3.299  -4.047  10.199  1.00  0.00    -0.354 N 
ATOM     50  C   UNL     1      -0.947  -4.425  10.419  1.00  0.00     0.074 A 
ATOM     51  C   UNL     1      -1.586  -3.143  10.214  1.00  0.00     0.031 C 
ATOM     52  C   UNL     1       5.277  -3.010  10.106  1.00  0.00     0.029 A 
ATOM     53  C   UNL     1       4.643  -4.323  10.124  1.00  0.00     0.049 A 
ATOM     54  H   UNL     1       2.604  -4.744  10.181  1.00  0.00     0.167 HD
ATOM     55  C   UNL     1      -1.612  -5.599  10.553  1.00  0.00     0.037 A 
ATOM     56  C   UNL     1       5.314  -5.490  10.135  1.00  0.00     0.037 A 
ATOM     57  C   UNL     1      -0.981  -6.891  10.652  1.00  0.00     0.049 A 
ATOM     58  C   UNL     1       4.568  -6.779  10.299  1.00  0.00     0.074 A 
ATOM     59  C   UNL     1      -1.580  -8.139  10.687  1.00  0.00     0.029 A 
ATOM     60  N   UNL     1       0.386  -7.104  10.719  1.00  0.00    -0.354 N 
ATOM     61  N   UNL     1       3.279  -6.971  10.436  1.00  0.00    -0.248 NA
ATOM     62  C   UNL     1       5.370  -8.008  10.348  1.00  0.00     0.031 C 
ATOM     63  C   UNL     1      -0.575  -9.108  10.771  1.00  0.00     0.029 A 
ATOM     64  C   UNL     1       0.650  -8.464  10.742  1.00  0.00     0.049 A 
ATOM     65  H   UNL     1       1.068  -6.394  10.746  1.00  0.00     0.167 HD
ATOM     66  C   UNL     1       3.116  -8.342  10.579  1.00  0.00     0.074 A 
ATOM     67  C   UNL     1       4.435  -8.934  10.507  1.00  0.00     0.031 C 
ATOM     68  C   UNL     1       1.968  -9.045  10.731  1.00  0.00     0.037 A 
BRANCH  55  69
ATOM     69  C   UNL     1      -3.113  -5.556  10.619  1.00  0.00     0.057 A 
ATOM     70  C   UNL     1      -3.908  -5.312   9.493  1.00  0.00     0.134 A 
ATOM     71  C   UNL     1      -3.770  -5.838  11.825  1.00  0.00     0.134 A 
ATOM     72  F   UNL     1      -3.340  -5.031   8.310  1.00  0.00    -0.206 F 
ATOM     73  C   UNL     1      -5.303  -5.330   9.568  1.00  0.00     0.040 A 
ATOM     74  C   UNL     1      -5.163  -5.883  11.907  1.00  0.00     0.040 A 
ATOM     75  F   UNL     1      -3.067  -6.094  12.939  1.00  0.00    -0.206 F 
ATOM     76  C   UNL     1      -5.933  -5.624  10.777  1.00  0.00     0.006 A 
ENDBRANCH  55  69
BRANCH  56  77
ATOM     77  C   UNL     1       6.795  -5.480  10.046  1.00  0.00     0.057 A 
ATOM     78  C   UNL     1       7.449  -5.908   8.886  1.00  0.00     0.134 A 
ATOM     79  C   UNL     1       7.586  -5.014  11.103  1.00  0.00     0.134 A 
ATOM     80  F   UNL     1       6.743  -6.380   7.850  1.00  0.00    -0.206 F 
ATOM     81  C   UNL     1       8.840  -5.874   8.780  1.00  0.00     0.040 A 
ATOM     82  C   UNL     1       8.975  -4.945  11.000  1.00  0.00     0.040 A 
ATOM     83  F   UNL     1       7.014  -4.584  12.237  1.00  0.00    -0.206 F 
ATOM     84  C   UNL     1       9.606  -5.380   9.836  1.00  0.00     0.006 A 
ENDBRANCH  56  77
BRANCH  68  85
ATOM     85  C   UNL     1       2.092 -10.536  10.807  1.00  0.00     0.057 A 
ATOM     86  C   UNL     1       2.550 -11.178  11.963  1.00  0.00     0.134 A 
ATOM     87  C   UNL     1       1.746 -11.336   9.711  1.00  0.00     0.134 A 
ATOM     88  F   UNL     1       2.913 -10.463  13.039  1.00  0.00    -0.206 F 
ATOM     89  C   UNL     1       2.677 -12.567  12.020  1.00  0.00     0.040 A 
ATOM     90  C   UNL     1       1.850 -12.726   9.763  1.00  0.00     0.040 A 
ATOM     91  F   UNL     1       1.297 -10.778   8.577  1.00  0.00    -0.206 F 
ATOM     92  C   UNL     1       2.323 -13.345  10.919  1.00  0.00     0.006 A 
ENDBRANCH  68  85
ENDBRANCH  42  43
ENDBRANCH  35  37
ENDBRANCH  34  35
ENDBRANCH  33  34
ENDBRANCH   1  33
TORSDOF 16
