REMARK SMILES O=C(Cc1c(C(=O)c2cc3c(cn2)CCCC3)[nH]c2cc(Cl)ccc12)OCCOC(=O)c1ccc(-c2c3nc(c(-c4c(F)cccc4F)c4ccc([nH]4)c(-c4c(F)cccc4F)c4nc(c(-c5c(F)cccc5F)c5ccc2[nH]5)C=C4)C=C3)cc1
REMARK SMILES IDX 27 1 26 2 2 3 1 4 3 5 4 6 5 7 25 8 18 9 19 10 24 11 20 13
REMARK SMILES IDX 23 14 21 15 22 16 6 17 7 18 8 19 9 20 13 21 10 22 12 23
REMARK SMILES IDX 11 24 17 25 14 26 16 27 15 28 28 29 29 30 30 31 31 32 32 33
REMARK SMILES IDX 33 34 85 35 34 36 84 37 35 38 36 39 37 40 78 41 38 42 83 43
REMARK SMILES IDX 77 44 79 45 39 46 82 47 76 48 75 49 40 51 66 52 49 53 65 54
REMARK SMILES IDX 50 55 53 56 64 57 80 58 51 59 52 60 63 62 81 63 54 64 41 65
REMARK SMILES IDX 42 66 47 67 43 68 44 69 46 70 48 71 45 72 67 73 68 74 73 75
REMARK SMILES IDX 69 76 70 77 72 78 74 79 71 80 55 81 56 82 61 83 57 84 58 85
REMARK SMILES IDX 60 86 62 87 59 88
REMARK H PARENT 18 12 79 50 53 61
REMARK Flexibility Score: inf
ROOT
ATOM      1  C   UNL     1       4.012   1.241  -0.823  1.00  0.00     0.274 C 
ENDROOT
BRANCH   1   2
ATOM      2  O   UNL     1       2.747   0.549  -0.876  1.00  0.00    -0.462 OA
BRANCH   2   3
ATOM      3  C   UNL     1       2.488  -0.629  -0.254  1.00  0.00     0.310 C 
ATOM      4  O   UNL     1       1.538  -1.320  -0.626  1.00  0.00    -0.252 OA
BRANCH   3   5
ATOM      5  C   UNL     1       3.320  -1.028   0.944  1.00  0.00     0.161 C 
BRANCH   5   6
ATOM      6  C   UNL     1       4.203  -2.216   0.721  1.00  0.00     0.000 A 
ATOM      7  C   UNL     1       5.588  -2.215   0.548  1.00  0.00     0.093 A 
ATOM      8  C   UNL     1       3.778  -3.578   0.801  1.00  0.00     0.004 A 
ATOM      9  N   UNL     1       5.970  -3.533   0.413  1.00  0.00    -0.351 N 
ATOM     10  C   UNL     1       4.903  -4.376   0.620  1.00  0.00     0.048 A 
ATOM     11  C   UNL     1       2.539  -4.200   1.065  1.00  0.00     0.012 A 
ATOM     12  H   UNL     1       6.884  -3.830   0.198  1.00  0.00     0.167 HD
ATOM     13  C   UNL     1       4.856  -5.774   0.693  1.00  0.00     0.047 A 
ATOM     14  C   UNL     1       2.475  -5.593   1.169  1.00  0.00     0.021 A 
ATOM     15  C   UNL     1       3.620  -6.362   0.986  1.00  0.00     0.043 A 
ATOM     16  Cl  UNL     1       3.521  -8.075   1.144  1.00  0.00    -0.084 Cl
BRANCH   7  17
ATOM     17  C   UNL     1       6.504  -1.081   0.616  1.00  0.00     0.227 C 
ATOM     18  O   UNL     1       6.265  -0.097   1.315  1.00  0.00    -0.285 OA
BRANCH  17  19
ATOM     19  C   UNL     1       7.759  -1.073  -0.197  1.00  0.00     0.113 A 
ATOM     20  C   UNL     1       7.801  -1.619  -1.476  1.00  0.00     0.036 A 
ATOM     21  N   UNL     1       8.817  -0.453   0.381  1.00  0.00    -0.252 NA
ATOM     22  C   UNL     1       9.004  -1.560  -2.190  1.00  0.00    -0.041 A 
ATOM     23  C   UNL     1       9.962  -0.400  -0.326  1.00  0.00     0.115 A 
ATOM     24  C   UNL     1      10.120  -0.958  -1.589  1.00  0.00    -0.026 A 
ATOM     25  C   UNL     1       9.091  -2.194  -3.557  1.00  0.00     0.036 C 
ATOM     26  C   UNL     1      11.447  -0.861  -2.288  1.00  0.00     0.037 C 
ATOM     27  C   UNL     1      10.378  -1.859  -4.314  1.00  0.00     0.005 C 
ATOM     28  C   UNL     1      11.588  -1.909  -3.389  1.00  0.00     0.005 C 
ENDBRANCH  17  19
ENDBRANCH   7  17
ENDBRANCH   5   6
ENDBRANCH   3   5
ENDBRANCH   2   3
ENDBRANCH   1   2
BRANCH   1  29
ATOM     29  C   UNL     1       3.974   2.483   0.071  1.00  0.00     0.275 C 
BRANCH  29  30
ATOM     30  O   UNL     1       3.728   2.130   1.442  1.00  0.00    -0.458 OA
BRANCH  30  31
ATOM     31  C   UNL     1       2.433   2.164   1.844  1.00  0.00     0.338 C 
ATOM     32  O   UNL     1       1.495   2.614   1.220  1.00  0.00    -0.246 OA
BRANCH  31  33
ATOM     33  C   UNL     1       2.288   1.383   3.103  1.00  0.00     0.060 A 
ATOM     34  C   UNL     1       3.347   1.196   3.998  1.00  0.00     0.016 A 
ATOM     35  C   UNL     1       1.055   0.764   3.348  1.00  0.00     0.016 A 
ATOM     36  C   UNL     1       3.162   0.415   5.145  1.00  0.00     0.010 A 
ATOM     37  C   UNL     1       0.869  -0.012   4.496  1.00  0.00     0.010 A 
ATOM     38  C   UNL     1       1.916  -0.178   5.413  1.00  0.00    -0.014 A 
BRANCH  38  39
ATOM     39  C   UNL     1       1.672  -0.838   6.720  1.00  0.00     0.031 A 
ATOM     40  C   UNL     1       1.630  -2.330   6.869  1.00  0.00     0.074 A 
ATOM     41  C   UNL     1       1.456  -0.055   7.793  1.00  0.00     0.049 A 
ATOM     42  N   UNL     1       1.489  -3.041   7.961  1.00  0.00    -0.248 NA
ATOM     43  C   UNL     1       1.753  -3.126   5.641  1.00  0.00     0.031 C 
ATOM     44  C   UNL     1       1.421   1.409   7.771  1.00  0.00     0.029 A 
ATOM     45  N   UNL     1       1.224  -0.377   9.105  1.00  0.00    -0.354 N 
ATOM     46  C   UNL     1       1.534  -4.370   7.561  1.00  0.00     0.074 A 
ATOM     47  C   UNL     1       1.661  -4.363   6.115  1.00  0.00     0.031 C 
ATOM     48  C   UNL     1       1.192   1.859   9.015  1.00  0.00     0.029 A 
ATOM     49  C   UNL     1       1.051   0.718   9.914  1.00  0.00     0.049 A 
ATOM     50  H   UNL     1       1.185  -1.304   9.435  1.00  0.00     0.167 HD
ATOM     51  C   UNL     1       1.494  -5.488   8.328  1.00  0.00     0.037 A 
ATOM     52  C   UNL     1       0.808   0.798  11.235  1.00  0.00     0.037 A 
ATOM     53  C   UNL     1       1.336  -5.498   9.763  1.00  0.00     0.049 A 
ATOM     54  C   UNL     1       0.730  -0.457  12.054  1.00  0.00     0.074 A 
ATOM     55  C   UNL     1       1.322  -6.584  10.624  1.00  0.00     0.029 A 
ATOM     56  N   UNL     1       1.147  -4.371  10.549  1.00  0.00    -0.354 N 
ATOM     57  N   UNL     1       0.865  -1.703  11.674  1.00  0.00    -0.248 NA
ATOM     58  C   UNL     1       0.479  -0.288  13.492  1.00  0.00     0.031 C 
ATOM     59  C   UNL     1       1.082  -6.118  11.923  1.00  0.00     0.029 A 
ATOM     60  C   UNL     1       0.991  -4.737  11.879  1.00  0.00     0.049 A 
ATOM     61  H   UNL     1       1.126  -3.446  10.213  1.00  0.00     0.167 HD
ATOM     62  C   UNL     1       0.735  -2.466  12.827  1.00  0.00     0.074 A 
ATOM     63  C   UNL     1       0.536  -1.539  13.923  1.00  0.00     0.031 C 
ATOM     64  C   UNL     1       0.776  -3.814  12.964  1.00  0.00     0.037 A 
BRANCH  51  65
ATOM     65  C   UNL     1       1.637  -6.808   7.627  1.00  0.00     0.057 A 
ATOM     66  C   UNL     1       0.560  -7.699   7.534  1.00  0.00     0.134 A 
ATOM     67  C   UNL     1       2.865  -7.220   7.092  1.00  0.00     0.134 A 
ATOM     68  F   UNL     1      -0.640  -7.373   8.037  1.00  0.00    -0.206 F 
ATOM     69  C   UNL     1       0.701  -8.952   6.934  1.00  0.00     0.040 A 
ATOM     70  C   UNL     1       3.011  -8.461   6.469  1.00  0.00     0.040 A 
ATOM     71  F   UNL     1       3.936  -6.414   7.147  1.00  0.00    -0.206 F 
ATOM     72  C   UNL     1       1.927  -9.334   6.394  1.00  0.00     0.006 A 
ENDBRANCH  51  65
BRANCH  52  73
ATOM     73  C   UNL     1       0.646   2.125  11.875  1.00  0.00     0.057 A 
ATOM     74  C   UNL     1      -0.502   2.897  11.665  1.00  0.00     0.134 A 
ATOM     75  C   UNL     1       1.627   2.639  12.729  1.00  0.00     0.134 A 
ATOM     76  F   UNL     1      -1.474   2.458  10.852  1.00  0.00    -0.206 F 
ATOM     77  C   UNL     1      -0.669   4.136  12.283  1.00  0.00     0.040 A 
ATOM     78  C   UNL     1       1.463   3.865  13.372  1.00  0.00     0.040 A 
ATOM     79  F   UNL     1       2.740   1.933  12.981  1.00  0.00    -0.206 F 
ATOM     80  C   UNL     1       0.312   4.619  13.147  1.00  0.00     0.006 A 
ENDBRANCH  52  73
BRANCH  64  81
ATOM     81  C   UNL     1       0.614  -4.355  14.356  1.00  0.00     0.057 A 
ATOM     82  C   UNL     1       1.703  -4.904  15.044  1.00  0.00     0.134 A 
ATOM     83  C   UNL     1      -0.616  -4.309  15.027  1.00  0.00     0.134 A 
ATOM     84  F   UNL     1       2.909  -4.982  14.460  1.00  0.00    -0.206 F 
ATOM     85  C   UNL     1       1.578  -5.377  16.351  1.00  0.00     0.040 A 
ATOM     86  C   UNL     1      -0.748  -4.755  16.343  1.00  0.00     0.040 A 
ATOM     87  F   UNL     1      -1.695  -3.778  14.432  1.00  0.00    -0.206 F 
ATOM     88  C   UNL     1       0.352  -5.293  17.009  1.00  0.00     0.006 A 
ENDBRANCH  64  81
ENDBRANCH  38  39
ENDBRANCH  31  33
ENDBRANCH  30  31
ENDBRANCH  29  30
ENDBRANCH   1  29
TORSDOF 14
