REMARK SMILES O=C(Cc1ccccc1C(=O)OCCOC(=O)c1ccc(-c2c3nc(c(-c4c(F)cccc4F)c4ccc([nH]4)c(-c4c(F)cccc4F)c4nc(c(-c5c(F)cccc5F)c5ccc2[nH]5)C=C4)C=C3)cc1)Nc1cccc(OC[C@@H]2CCCO2)c1
REMARK SMILES IDX 10 1 11 2 9 3 4 4 5 5 6 6 8 7 7 8 3 9 2 10 1 11 72 12 73 14
REMARK SMILES IDX 74 15 85 16 75 17 77 18 76 19 78 20 79 21 80 22 81 23 84 24
REMARK SMILES IDX 82 25 83 26 12 27 13 28 14 29 15 30 16 31 17 32 18 33 19 34
REMARK SMILES IDX 71 35 20 36 70 37 21 38 22 39 23 40 64 41 24 42 69 43 63 44
REMARK SMILES IDX 65 45 25 46 68 47 62 48 61 49 26 51 52 52 35 53 51 54 36 55
REMARK SMILES IDX 39 56 50 57 66 58 37 59 38 60 49 62 67 63 40 64 27 65 28 66
REMARK SMILES IDX 33 67 29 68 30 69 32 70 34 71 31 72 53 73 54 74 59 75 55 76
REMARK SMILES IDX 56 77 58 78 60 79 57 80 41 81 42 82 47 83 43 84 44 85 46 86
REMARK SMILES IDX 48 87 45 88
REMARK H PARENT 72 13 65 50 39 61
REMARK Flexibility Score: inf
ROOT
ATOM      1  C   UNL     1       5.602   1.370   2.078  1.00  0.00     0.338 C 
ATOM      2  O   UNL     1       6.802   1.582   2.032  1.00  0.00    -0.246 OA
ENDROOT
BRANCH   1   3
ATOM      3  C   UNL     1       5.016  -0.001   2.140  1.00  0.00     0.063 A 
ATOM      4  C   UNL     1       3.804  -0.353   1.516  1.00  0.00    -0.024 A 
ATOM      5  C   UNL     1       3.263  -1.629   1.771  1.00  0.00     0.005 A 
ATOM      6  C   UNL     1       3.955  -2.562   2.544  1.00  0.00     0.000 A 
ATOM      7  C   UNL     1       5.727  -0.965   2.875  1.00  0.00     0.016 A 
ATOM      8  C   UNL     1       5.195  -2.237   3.083  1.00  0.00     0.001 A 
BRANCH   4   9
ATOM      9  C   UNL     1       3.096   0.626   0.609  1.00  0.00     0.136 C 
BRANCH   9  10
ATOM     10  C   UNL     1       2.222   0.026  -0.462  1.00  0.00     0.228 C 
ATOM     11  O   UNL     1       1.040   0.354  -0.536  1.00  0.00    -0.274 OA
ATOM     12  N   UNL     1       2.869  -0.876  -1.301  1.00  0.00    -0.326 N 
ATOM     13  H   UNL     1       3.812  -1.095  -1.120  1.00  0.00     0.169 HD
BRANCH  12  14
ATOM     14  C   UNL     1       2.236  -1.489  -2.398  1.00  0.00     0.044 A 
ATOM     15  C   UNL     1       2.588  -2.789  -2.755  1.00  0.00     0.026 A 
ATOM     16  C   UNL     1       1.215  -0.835  -3.089  1.00  0.00     0.072 A 
ATOM     17  C   UNL     1       1.830  -3.464  -3.713  1.00  0.00     0.006 A 
ATOM     18  C   UNL     1       0.411  -1.515  -3.993  1.00  0.00     0.121 A 
ATOM     19  C   UNL     1       0.729  -2.837  -4.307  1.00  0.00     0.046 A 
BRANCH  18  20
ATOM     20  O   UNL     1      -0.720  -1.014  -4.575  1.00  0.00    -0.491 OA
BRANCH  20  21
ATOM     21  C   UNL     1      -1.119   0.328  -4.263  1.00  0.00     0.261 C 
BRANCH  21  22
ATOM     22  C   UNL     1      -1.662   0.535  -2.844  1.00  0.00     0.156 C 
ATOM     23  C   UNL     1      -2.730  -0.440  -2.396  1.00  0.00     0.038 C 
ATOM     24  O   UNL     1      -2.257   1.840  -2.704  1.00  0.00    -0.375 OA
ATOM     25  C   UNL     1      -3.304   0.303  -1.212  1.00  0.00     0.031 C 
ATOM     26  C   UNL     1      -3.243   1.752  -1.662  1.00  0.00     0.161 C 
ENDBRANCH  21  22
ENDBRANCH  20  21
ENDBRANCH  18  20
ENDBRANCH  12  14
ENDBRANCH   9  10
ENDBRANCH   4   9
ENDBRANCH   1   3
BRANCH   1  27
ATOM     27  O   UNL     1       4.618   2.299   2.180  1.00  0.00    -0.458 OA
BRANCH  27  28
ATOM     28  C   UNL     1       5.001   3.689   2.130  1.00  0.00     0.275 C 
BRANCH  28  29
ATOM     29  C   UNL     1       4.543   4.406   3.398  1.00  0.00     0.275 C 
BRANCH  29  30
ATOM     30  O   UNL     1       5.242   3.844   4.523  1.00  0.00    -0.458 OA
BRANCH  30  31
ATOM     31  C   UNL     1       4.476   3.165   5.405  1.00  0.00     0.338 C 
ATOM     32  O   UNL     1       3.261   3.091   5.450  1.00  0.00    -0.246 OA
BRANCH  31  33
ATOM     33  C   UNL     1       5.356   2.378   6.278  1.00  0.00     0.060 A 
ATOM     34  C   UNL     1       5.884   1.200   5.761  1.00  0.00     0.016 A 
ATOM     35  C   UNL     1       5.549   2.710   7.615  1.00  0.00     0.016 A 
ATOM     36  C   UNL     1       6.554   0.307   6.589  1.00  0.00     0.010 A 
ATOM     37  C   UNL     1       6.287   1.844   8.435  1.00  0.00     0.010 A 
ATOM     38  C   UNL     1       6.766   0.615   7.940  1.00  0.00    -0.014 A 
BRANCH  38  39
ATOM     39  C   UNL     1       7.416  -0.393   8.827  1.00  0.00     0.031 A 
ATOM     40  C   UNL     1       6.668  -0.967  10.003  1.00  0.00     0.074 A 
ATOM     41  C   UNL     1       8.652  -0.853   8.545  1.00  0.00     0.049 A 
ATOM     42  N   UNL     1       7.089  -1.787  10.934  1.00  0.00    -0.248 NA
ATOM     43  C   UNL     1       5.264  -0.556  10.161  1.00  0.00     0.031 C 
ATOM     44  C   UNL     1       9.481  -0.419   7.418  1.00  0.00     0.029 A 
ATOM     45  N   UNL     1       9.418  -1.806   9.170  1.00  0.00    -0.354 N 
ATOM     46  C   UNL     1       6.025  -1.944  11.814  1.00  0.00     0.074 A 
ATOM     47  C   UNL     1       4.940  -1.129  11.311  1.00  0.00     0.031 C 
ATOM     48  C   UNL     1      10.611  -1.142   7.400  1.00  0.00     0.029 A 
ATOM     49  C   UNL     1      10.626  -2.033   8.555  1.00  0.00     0.049 A 
ATOM     50  H   UNL     1       9.129  -2.283   9.982  1.00  0.00     0.167 HD
ATOM     51  C   UNL     1       5.956  -2.699  12.937  1.00  0.00     0.037 A 
ATOM     52  C   UNL     1      11.646  -2.845   8.894  1.00  0.00     0.037 A 
ATOM     53  C   UNL     1       7.012  -3.559  13.408  1.00  0.00     0.049 A 
ATOM     54  C   UNL     1      11.545  -3.671  10.144  1.00  0.00     0.074 A 
ATOM     55  C   UNL     1       7.028  -4.373  14.529  1.00  0.00     0.029 A 
ATOM     56  N   UNL     1       8.232  -3.733  12.773  1.00  0.00    -0.354 N 
ATOM     57  N   UNL     1      10.553  -3.766  10.995  1.00  0.00    -0.248 NA
ATOM     58  C   UNL     1      12.715  -4.491  10.490  1.00  0.00     0.031 C 
ATOM     59  C   UNL     1       8.270  -5.015  14.589  1.00  0.00     0.029 A 
ATOM     60  C   UNL     1       9.011  -4.634  13.482  1.00  0.00     0.049 A 
ATOM     61  H   UNL     1       8.505  -3.283  11.942  1.00  0.00     0.167 HD
ATOM     62  C   UNL     1      10.976  -4.656  11.974  1.00  0.00     0.074 A 
ATOM     63  C   UNL     1      12.301  -5.099  11.592  1.00  0.00     0.031 C 
ATOM     64  C   UNL     1      10.331  -5.061  13.095  1.00  0.00     0.037 A 
BRANCH  51  65
ATOM     65  C   UNL     1       4.702  -2.605  13.758  1.00  0.00     0.057 A 
ATOM     66  C   UNL     1       3.491  -3.174  13.344  1.00  0.00     0.134 A 
ATOM     67  C   UNL     1       4.717  -1.955  15.000  1.00  0.00     0.134 A 
ATOM     68  F   UNL     1       3.404  -3.798  12.159  1.00  0.00    -0.206 F 
ATOM     69  C   UNL     1       2.336  -3.079  14.123  1.00  0.00     0.040 A 
ATOM     70  C   UNL     1       3.575  -1.876  15.799  1.00  0.00     0.040 A 
ATOM     71  F   UNL     1       5.845  -1.392  15.460  1.00  0.00    -0.206 F 
ATOM     72  C   UNL     1       2.378  -2.434  15.358  1.00  0.00     0.006 A 
ENDBRANCH  51  65
BRANCH  52  73
ATOM     73  C   UNL     1      12.869  -2.894   8.052  1.00  0.00     0.057 A 
ATOM     74  C   UNL     1      13.202  -4.041   7.322  1.00  0.00     0.134 A 
ATOM     75  C   UNL     1      13.738  -1.800   7.965  1.00  0.00     0.134 A 
ATOM     76  F   UNL     1      12.424  -5.132   7.386  1.00  0.00    -0.206 F 
ATOM     77  C   UNL     1      14.360  -4.102   6.545  1.00  0.00     0.040 A 
ATOM     78  C   UNL     1      14.883  -1.836   7.168  1.00  0.00     0.040 A 
ATOM     79  F   UNL     1      13.476  -0.671   8.641  1.00  0.00    -0.206 F 
ATOM     80  C   UNL     1      15.200  -2.993   6.460  1.00  0.00     0.006 A 
ENDBRANCH  52  73
BRANCH  64  81
ATOM     81  C   UNL     1      11.050  -6.045  13.971  1.00  0.00     0.057 A 
ATOM     82  C   UNL     1      12.156  -5.671  14.746  1.00  0.00     0.134 A 
ATOM     83  C   UNL     1      10.637  -7.381  14.034  1.00  0.00     0.134 A 
ATOM     84  F   UNL     1      12.610  -4.409  14.718  1.00  0.00    -0.206 F 
ATOM     85  C   UNL     1      12.847  -6.600  15.525  1.00  0.00     0.040 A 
ATOM     86  C   UNL     1      11.305  -8.313  14.829  1.00  0.00     0.040 A 
ATOM     87  F   UNL     1       9.581  -7.803  13.322  1.00  0.00    -0.206 F 
ATOM     88  C   UNL     1      12.420  -7.926  15.569  1.00  0.00     0.006 A 
ENDBRANCH  64  81
ENDBRANCH  38  39
ENDBRANCH  31  33
ENDBRANCH  30  31
ENDBRANCH  29  30
ENDBRANCH  28  29
ENDBRANCH  27  28
ENDBRANCH   1  27
TORSDOF 17
