REMARK SMILES CCCN1CCC[C@@]2(CCN(c3ccc(C(=O)OCCOC(=O)c4ccc(-c5c6nc(c(-c7c(F)cccc7F)c7ccc([nH]7)c(-c7c(F)cccc7F)c7nc(c(-c8c(F)cccc8F)c8ccc5[nH]8)C=C7)C=C6)cc4)cn3)C2)C1=O
REMARK SMILES IDX 19 1 18 2 16 3 17 4 15 5 12 6 13 7 79 8 14 9 78 10 11 11
REMARK SMILES IDX 4 12 5 13 81 14 6 15 8 16 82 17 7 18 9 19 80 20 10 21 3 22
REMARK SMILES IDX 2 23 1 24 20 25 21 26 22 27 23 28 24 29 25 30 77 31 26 32
REMARK SMILES IDX 76 33 27 34 28 35 29 36 70 37 30 38 75 39 69 40 71 41 31 42
REMARK SMILES IDX 74 43 68 44 67 45 32 47 58 48 41 49 57 50 42 51 45 52 56 53
REMARK SMILES IDX 72 54 43 55 44 56 55 58 73 59 46 60 33 61 34 62 39 63 35 64
REMARK SMILES IDX 36 65 38 66 40 67 37 68 59 69 60 70 65 71 61 72 62 73 64 74
REMARK SMILES IDX 66 75 63 76 47 77 48 78 53 79 49 80 50 81 52 82 54 83 51 84
REMARK H PARENT 71 46 45 57
REMARK Flexibility Score: inf
ROOT
ATOM      1  C   UNL     1       3.642  10.429   7.822  1.00  0.00     0.275 C 
ENDROOT
BRANCH   1   2
ATOM      2  O   UNL     1       3.156   9.890   6.575  1.00  0.00    -0.458 OA
BRANCH   2   3
ATOM      3  C   UNL     1       2.652   8.632   6.627  1.00  0.00     0.339 C 
ATOM      4  O   UNL     1       2.609   7.904   7.601  1.00  0.00    -0.246 OA
BRANCH   3   5
ATOM      5  C   UNL     1       2.063   8.267   5.328  1.00  0.00     0.078 A 
ATOM      6  C   UNL     1       0.838   7.427   2.998  1.00  0.00     0.128 A 
ATOM      7  C   UNL     1       2.080   8.068   2.946  1.00  0.00     0.048 A 
ATOM      8  N   UNL     1       0.219   7.204   4.166  1.00  0.00    -0.238 NA
ATOM      9  C   UNL     1       2.694   8.513   4.118  1.00  0.00     0.021 A 
ATOM     10  C   UNL     1       0.854   7.592   5.294  1.00  0.00     0.129 A 
BRANCH   6  11
ATOM     11  N   UNL     1       0.270   6.931   1.843  1.00  0.00    -0.356 N 
ATOM     12  N   UNL     1       0.648   2.816   0.471  1.00  0.00    -0.342 N 
ATOM     13  C   UNL     1       1.278   2.824  -0.840  1.00  0.00     0.119 C 
ATOM     14  C   UNL     1      -0.354   3.733   0.775  1.00  0.00     0.230 C 
ATOM     15  C   UNL     1       1.686   4.219  -1.274  1.00  0.00     0.023 C 
ATOM     16  C   UNL     1      -0.068   5.157   0.283  1.00  0.00     0.069 C 
ATOM     17  O   UNL     1      -1.282   3.471   1.536  1.00  0.00    -0.274 OA
ATOM     18  C   UNL     1       0.499   5.169  -1.142  1.00  0.00     0.021 C 
ATOM     19  C   UNL     1      -1.312   6.066   0.403  1.00  0.00     0.040 C 
ATOM     20  C   UNL     1       0.946   5.763   1.289  1.00  0.00     0.135 C 
ATOM     21  C   UNL     1      -1.168   6.713   1.780  1.00  0.00     0.119 C 
BRANCH  12  22
ATOM     22  C   UNL     1       0.925   1.730   1.406  1.00  0.00     0.119 C 
BRANCH  22  23
ATOM     23  C   UNL     1       0.260   0.389   1.109  1.00  0.00     0.018 C 
ATOM     24  C   UNL     1       0.834  -0.327  -0.102  1.00  0.00     0.006 C 
ENDBRANCH  22  23
ENDBRANCH  12  22
ENDBRANCH   6  11
ENDBRANCH   3   5
ENDBRANCH   2   3
ENDBRANCH   1   2
BRANCH   1  25
ATOM     25  C   UNL     1       2.628  11.387   8.453  1.00  0.00     0.275 C 
BRANCH  25  26
ATOM     26  O   UNL     1       1.493  10.671   8.980  1.00  0.00    -0.458 OA
BRANCH  26  27
ATOM     27  C   UNL     1       0.404  10.675   8.181  1.00  0.00     0.338 C 
ATOM     28  O   UNL     1       0.280  11.223   7.098  1.00  0.00    -0.246 OA
BRANCH  27  29
ATOM     29  C   UNL     1      -0.649   9.816   8.737  1.00  0.00     0.060 A 
ATOM     30  C   UNL     1      -0.606   8.466   8.419  1.00  0.00     0.016 A 
ATOM     31  C   UNL     1      -1.779  10.351   9.346  1.00  0.00     0.016 A 
ATOM     32  C   UNL     1      -1.744   7.680   8.538  1.00  0.00     0.010 A 
ATOM     33  C   UNL     1      -2.872   9.515   9.616  1.00  0.00     0.010 A 
ATOM     34  C   UNL     1      -2.890   8.180   9.168  1.00  0.00    -0.014 A 
BRANCH  34  35
ATOM     35  C   UNL     1      -4.093   7.312   9.334  1.00  0.00     0.031 A 
ATOM     36  C   UNL     1      -5.441   7.767   8.829  1.00  0.00     0.074 A 
ATOM     37  C   UNL     1      -3.982   6.101   9.921  1.00  0.00     0.049 A 
ATOM     38  N   UNL     1      -6.626   7.252   9.047  1.00  0.00    -0.248 NA
ATOM     39  C   UNL     1      -5.462   8.969   7.981  1.00  0.00     0.031 C 
ATOM     40  C   UNL     1      -2.737   5.499  10.407  1.00  0.00     0.029 A 
ATOM     41  N   UNL     1      -4.933   5.150  10.206  1.00  0.00    -0.354 N 
ATOM     42  C   UNL     1      -7.531   8.089   8.405  1.00  0.00     0.074 A 
ATOM     43  C   UNL     1      -6.762   9.162   7.810  1.00  0.00     0.031 C 
ATOM     44  C   UNL     1      -2.990   4.272  10.881  1.00  0.00     0.029 A 
ATOM     45  C   UNL     1      -4.427   4.040  10.842  1.00  0.00     0.049 A 
ATOM     46  H   UNL     1      -5.885   5.253   9.976  1.00  0.00     0.167 HD
ATOM     47  C   UNL     1      -8.878   7.971   8.313  1.00  0.00     0.037 A 
ATOM     48  C   UNL     1      -5.047   2.977  11.386  1.00  0.00     0.037 A 
ATOM     49  C   UNL     1      -9.633   6.876   8.870  1.00  0.00     0.049 A 
ATOM     50  C   UNL     1      -6.547   2.913  11.344  1.00  0.00     0.074 A 
ATOM     51  C   UNL     1     -11.002   6.667   8.840  1.00  0.00     0.029 A 
ATOM     52  N   UNL     1      -9.080   5.797   9.543  1.00  0.00    -0.354 N 
ATOM     53  N   UNL     1      -7.396   3.742  10.787  1.00  0.00    -0.248 NA
ATOM     54  C   UNL     1      -7.176   1.772  12.022  1.00  0.00     0.031 C 
ATOM     55  C   UNL     1     -11.280   5.485   9.534  1.00  0.00     0.029 A 
ATOM     56  C   UNL     1     -10.081   4.927   9.946  1.00  0.00     0.049 A 
ATOM     57  H   UNL     1      -8.118   5.668   9.711  1.00  0.00     0.167 HD
ATOM     58  C   UNL     1      -8.655   3.206  11.017  1.00  0.00     0.074 A 
ATOM     59  C   UNL     1      -8.457   1.973  11.750  1.00  0.00     0.031 C 
ATOM     60  C   UNL     1      -9.867   3.692  10.656  1.00  0.00     0.037 A 
BRANCH  47  61
ATOM     61  C   UNL     1      -9.632   9.061   7.603  1.00  0.00     0.057 A 
ATOM     62  C   UNL     1      -9.558   9.239   6.216  1.00  0.00     0.134 A 
ATOM     63  C   UNL     1     -10.482   9.919   8.315  1.00  0.00     0.134 A 
ATOM     64  F   UNL     1      -8.758   8.460   5.472  1.00  0.00    -0.206 F 
ATOM     65  C   UNL     1     -10.280  10.244   5.567  1.00  0.00     0.040 A 
ATOM     66  C   UNL     1     -11.232  10.907   7.675  1.00  0.00     0.040 A 
ATOM     67  F   UNL     1     -10.611   9.801   9.646  1.00  0.00    -0.206 F 
ATOM     68  C   UNL     1     -11.127  11.076   6.296  1.00  0.00     0.006 A 
ENDBRANCH  47  61
BRANCH  48  69
ATOM     69  C   UNL     1      -4.262   1.913  12.066  1.00  0.00     0.057 A 
ATOM     70  C   UNL     1      -4.235   0.605  11.569  1.00  0.00     0.134 A 
ATOM     71  C   UNL     1      -3.545   2.167  13.243  1.00  0.00     0.134 A 
ATOM     72  F   UNL     1      -4.919   0.290  10.459  1.00  0.00    -0.206 F 
ATOM     73  C   UNL     1      -3.549  -0.416  12.229  1.00  0.00     0.040 A 
ATOM     74  C   UNL     1      -2.824   1.164  13.893  1.00  0.00     0.040 A 
ATOM     75  F   UNL     1      -3.524   3.398  13.773  1.00  0.00    -0.206 F 
ATOM     76  C   UNL     1      -2.835  -0.135  13.393  1.00  0.00     0.006 A 
ENDBRANCH  48  69
BRANCH  60  77
ATOM     77  C   UNL     1     -11.066   2.855  10.993  1.00  0.00     0.057 A 
ATOM     78  C   UNL     1     -11.521   2.700  12.309  1.00  0.00     0.134 A 
ATOM     79  C   UNL     1     -11.788   2.212   9.979  1.00  0.00     0.134 A 
ATOM     80  F   UNL     1     -10.865   3.275  13.328  1.00  0.00    -0.206 F 
ATOM     81  C   UNL     1     -12.633   1.911  12.606  1.00  0.00     0.040 A 
ATOM     82  C   UNL     1     -12.919   1.447  10.261  1.00  0.00     0.040 A 
ATOM     83  F   UNL     1     -11.411   2.326   8.696  1.00  0.00    -0.206 F 
ATOM     84  C   UNL     1     -13.340   1.288  11.579  1.00  0.00     0.006 A 
ENDBRANCH  60  77
ENDBRANCH  34  35
ENDBRANCH  27  29
ENDBRANCH  26  27
ENDBRANCH  25  26
ENDBRANCH   1  25
TORSDOF 14
