REMARK SMILES Cc1cccc(S(=O)(=O)Nc2cc(C(=O)OCCOC(=O)c3ccc(-c4c5nc(c(-c6c(F)cccc6F)c6ccc([nH]6)c(-c6c(F)cccc6F)c6nc(c(-c7c(F)cccc7F)c7ccc4[nH]7)C=C6)C=C5)cc3)cnc2N2CCC[C@H](C)C2)c1
REMARK SMILES IDX 17 1 16 2 14 3 15 4 13 5 11 6 12 7 78 8 77 9 76 10 10 11
REMARK SMILES IDX 7 13 8 14 9 15 6 16 1 17 2 18 3 19 86 20 4 21 5 22 79 23
REMARK SMILES IDX 80 24 85 25 81 26 83 27 82 28 84 29 18 30 19 31 20 32 21 33
REMARK SMILES IDX 22 34 23 35 75 36 24 37 74 38 25 39 26 40 27 41 68 42 28 43
REMARK SMILES IDX 73 44 67 45 69 46 29 47 72 48 66 49 65 50 30 52 56 53 39 54
REMARK SMILES IDX 55 55 40 56 43 57 54 58 70 59 41 60 42 61 53 63 71 64 44 65
REMARK SMILES IDX 31 66 32 67 37 68 33 69 34 70 36 71 38 72 35 73 57 74 58 75
REMARK SMILES IDX 63 76 59 77 60 78 62 79 64 80 61 81 45 82 46 83 51 84 47 85
REMARK SMILES IDX 48 86 50 87 52 88 49 89
REMARK H PARENT 10 12 69 51 43 62
REMARK Flexibility Score: inf
ROOT
ATOM      1  C   UNL     1       2.543   1.636  -4.640  1.00  0.00     0.275 C 
ENDROOT
BRANCH   1   2
ATOM      2  O   UNL     1       2.251   2.864  -3.953  1.00  0.00    -0.458 OA
BRANCH   2   3
ATOM      3  C   UNL     1       1.792   2.629  -2.712  1.00  0.00     0.339 C 
ATOM      4  O   UNL     1       1.674   1.532  -2.188  1.00  0.00    -0.246 OA
BRANCH   3   5
ATOM      5  C   UNL     1       1.331   3.774  -1.948  1.00  0.00     0.080 A 
ATOM      6  C   UNL     1      -0.251   4.089  -0.160  1.00  0.00     0.092 A 
ATOM      7  C   UNL     1       0.060   3.601  -1.422  1.00  0.00     0.048 A 
ATOM      8  C   UNL     1       0.689   4.952   0.475  1.00  0.00     0.153 A 
ATOM      9  N   UNL     1       1.880   5.226  -0.142  1.00  0.00    -0.236 NA
ATOM     10  C   UNL     1       2.210   4.598  -1.294  1.00  0.00     0.129 A 
BRANCH   6  11
ATOM     11  N   UNL     1      -1.378   3.529   0.536  1.00  0.00    -0.276 N 
ATOM     12  H   UNL     1      -1.404   3.672   1.510  1.00  0.00     0.180 HD
BRANCH  11  13
ATOM     13  S   UNL     1      -2.649   2.664  -0.123  1.00  0.00     0.262 S 
ATOM     14  O   UNL     1      -3.077   3.351  -1.323  1.00  0.00    -0.201 OA
ATOM     15  O   UNL     1      -3.561   2.501   0.993  1.00  0.00    -0.201 OA
BRANCH  13  16
ATOM     16  C   UNL     1      -2.177   1.012  -0.605  1.00  0.00     0.088 A 
ATOM     17  C   UNL     1       0.756  -1.175  -1.677  1.00  0.00     0.044 C 
ATOM     18  C   UNL     1      -0.624  -0.695  -1.350  1.00  0.00    -0.050 A 
ATOM     19  C   UNL     1      -1.688  -1.508  -1.737  1.00  0.00     0.003 A 
ATOM     20  C   UNL     1      -0.869   0.550  -0.728  1.00  0.00     0.025 A 
ATOM     21  C   UNL     1      -2.991  -1.079  -1.548  1.00  0.00     0.002 A 
ATOM     22  C   UNL     1      -3.235   0.181  -1.003  1.00  0.00     0.022 A 
ENDBRANCH  13  16
ENDBRANCH  11  13
ENDBRANCH   6  11
BRANCH   8  23
ATOM     23  N   UNL     1       0.521   5.579   1.698  1.00  0.00    -0.355 N 
ATOM     24  C   UNL     1      -0.400   5.249   2.778  1.00  0.00     0.118 C 
ATOM     25  C   UNL     1       1.089   6.931   1.828  1.00  0.00     0.121 C 
ATOM     26  C   UNL     1      -1.600   6.204   2.732  1.00  0.00     0.022 C 
ATOM     27  C   UNL     1      -0.049   7.960   1.677  1.00  0.00     0.005 C 
ATOM     28  C   UNL     1      -1.163   7.674   2.702  1.00  0.00     0.007 C 
ATOM     29  C   UNL     1      -0.587   7.999   0.242  1.00  0.00     0.009 C 
ENDBRANCH   8  23
ENDBRANCH   3   5
ENDBRANCH   2   3
ENDBRANCH   1   2
BRANCH   1  30
ATOM     30  C   UNL     1       3.908   1.660  -5.317  1.00  0.00     0.275 C 
BRANCH  30  31
ATOM     31  O   UNL     1       4.995   2.388  -4.672  1.00  0.00    -0.458 OA
BRANCH  31  32
ATOM     32  C   UNL     1       5.202   2.653  -3.360  1.00  0.00     0.338 C 
ATOM     33  O   UNL     1       5.707   3.713  -2.997  1.00  0.00    -0.246 OA
BRANCH  32  34
ATOM     34  C   UNL     1       4.845   1.640  -2.347  1.00  0.00     0.060 A 
ATOM     35  C   UNL     1       4.589   2.026  -1.011  1.00  0.00     0.016 A 
ATOM     36  C   UNL     1       4.723   0.314  -2.717  1.00  0.00     0.016 A 
ATOM     37  C   UNL     1       4.137   1.097  -0.062  1.00  0.00     0.010 A 
ATOM     38  C   UNL     1       4.161  -0.566  -1.825  1.00  0.00     0.010 A 
ATOM     39  C   UNL     1       3.925  -0.211  -0.474  1.00  0.00    -0.014 A 
BRANCH  39  40
ATOM     40  C   UNL     1       3.690  -1.382   0.382  1.00  0.00     0.031 A 
ATOM     41  C   UNL     1       2.387  -1.771   0.971  1.00  0.00     0.074 A 
ATOM     42  C   UNL     1       4.701  -2.273   0.239  1.00  0.00     0.049 A 
ATOM     43  N   UNL     1       2.021  -3.006   0.996  1.00  0.00    -0.248 NA
ATOM     44  C   UNL     1       1.337  -0.877   1.485  1.00  0.00     0.031 C 
ATOM     45  C   UNL     1       4.789  -3.700   0.491  1.00  0.00     0.029 A 
ATOM     46  N   UNL     1       6.031  -1.922  -0.049  1.00  0.00    -0.354 N 
ATOM     47  C   UNL     1       0.744  -3.088   1.490  1.00  0.00     0.074 A 
ATOM     48  C   UNL     1       0.309  -1.729   1.693  1.00  0.00     0.031 C 
ATOM     49  C   UNL     1       6.075  -4.000   0.760  1.00  0.00     0.029 A 
ATOM     50  C   UNL     1       6.798  -2.735   0.795  1.00  0.00     0.049 A 
ATOM     51  H   UNL     1       6.351  -1.255  -0.699  1.00  0.00     0.167 HD
ATOM     52  C   UNL     1       0.279  -4.322   1.822  1.00  0.00     0.037 A 
ATOM     53  C   UNL     1       7.300  -2.129   1.914  1.00  0.00     0.037 A 
ATOM     54  C   UNL     1       1.412  -5.081   2.318  1.00  0.00     0.049 A 
ATOM     55  C   UNL     1       6.632  -2.686   3.155  1.00  0.00     0.074 A 
ATOM     56  C   UNL     1       2.294  -6.005   1.797  1.00  0.00     0.029 A 
ATOM     57  N   UNL     1       1.980  -4.591   3.484  1.00  0.00    -0.354 N 
ATOM     58  N   UNL     1       5.404  -3.142   3.205  1.00  0.00    -0.248 NA
ATOM     59  C   UNL     1       7.365  -2.911   4.393  1.00  0.00     0.031 C 
ATOM     60  C   UNL     1       3.479  -5.937   2.596  1.00  0.00     0.029 A 
ATOM     61  C   UNL     1       3.288  -4.996   3.599  1.00  0.00     0.049 A 
ATOM     62  H   UNL     1       1.509  -4.029   4.141  1.00  0.00     0.167 HD
ATOM     63  C   UNL     1       5.215  -3.798   4.395  1.00  0.00     0.074 A 
ATOM     64  C   UNL     1       6.464  -3.602   5.109  1.00  0.00     0.031 C 
ATOM     65  C   UNL     1       4.086  -4.503   4.712  1.00  0.00     0.037 A 
BRANCH  52  66
ATOM     66  C   UNL     1      -1.105  -4.881   1.672  1.00  0.00     0.057 A 
ATOM     67  C   UNL     1      -1.322  -6.267   1.847  1.00  0.00     0.134 A 
ATOM     68  C   UNL     1      -2.203  -4.176   1.161  1.00  0.00     0.134 A 
ATOM     69  F   UNL     1      -0.366  -7.070   2.338  1.00  0.00    -0.206 F 
ATOM     70  C   UNL     1      -2.514  -6.908   1.486  1.00  0.00     0.040 A 
ATOM     71  C   UNL     1      -3.409  -4.806   0.801  1.00  0.00     0.040 A 
ATOM     72  F   UNL     1      -2.148  -2.853   0.967  1.00  0.00    -0.206 F 
ATOM     73  C   UNL     1      -3.561  -6.179   0.945  1.00  0.00     0.006 A 
ENDBRANCH  52  66
BRANCH  53  74
ATOM     74  C   UNL     1       7.722  -0.708   1.636  1.00  0.00     0.057 A 
ATOM     75  C   UNL     1       8.605  -0.492   0.548  1.00  0.00     0.134 A 
ATOM     76  C   UNL     1       7.038   0.421   2.098  1.00  0.00     0.134 A 
ATOM     77  F   UNL     1       9.302  -1.521   0.036  1.00  0.00    -0.206 F 
ATOM     78  C   UNL     1       8.689   0.728  -0.132  1.00  0.00     0.040 A 
ATOM     79  C   UNL     1       7.154   1.667   1.451  1.00  0.00     0.040 A 
ATOM     80  F   UNL     1       6.170   0.328   3.114  1.00  0.00    -0.206 F 
ATOM     81  C   UNL     1       7.941   1.811   0.306  1.00  0.00     0.006 A 
ENDBRANCH  53  74
BRANCH  65  82
ATOM     82  C   UNL     1       3.644  -4.819   6.128  1.00  0.00     0.057 A 
ATOM     83  C   UNL     1       4.103  -4.127   7.259  1.00  0.00     0.134 A 
ATOM     84  C   UNL     1       2.583  -5.722   6.383  1.00  0.00     0.134 A 
ATOM     85  F   UNL     1       4.985  -3.123   7.165  1.00  0.00    -0.206 F 
ATOM     86  C   UNL     1       3.622  -4.380   8.548  1.00  0.00     0.040 A 
ATOM     87  C   UNL     1       2.039  -5.921   7.655  1.00  0.00     0.040 A 
ATOM     88  F   UNL     1       1.991  -6.422   5.404  1.00  0.00    -0.206 F 
ATOM     89  C   UNL     1       2.579  -5.270   8.750  1.00  0.00     0.006 A 
ENDBRANCH  65  82
ENDBRANCH  39  40
ENDBRANCH  32  34
ENDBRANCH  31  32
ENDBRANCH  30  31
ENDBRANCH   1  30
TORSDOF 15
