REMARK SMILES CC1(C)[C@H](C(=O)Nc2ccccc2C(N)=O)[C@@H]1C(=O)OCCOC(=O)c1ccc(-c2c3nc(c(-c4c(F)cccc4F)c4ccc([nH]4)c(-c4c(F)cccc4F)c4nc(c(-c5c(F)cccc5F)c5ccc2[nH]5)C=C4)C=C3)cc1
REMARK SMILES IDX 21 1 20 2 18 3 19 4 17 5 1 6 2 7 3 8 4 9 5 10 6 11 7 12 8 14
REMARK SMILES IDX 9 15 13 16 10 17 12 18 11 19 14 20 15 21 16 22 22 25 23 26
REMARK SMILES IDX 24 27 25 28 26 29 27 30 79 31 28 32 78 33 29 34 30 35 31 36
REMARK SMILES IDX 72 37 32 38 77 39 71 40 73 41 33 42 76 43 70 44 69 45 34 47
REMARK SMILES IDX 60 48 43 49 59 50 44 51 47 52 58 53 74 54 45 55 46 56 57 58
REMARK SMILES IDX 75 59 48 60 35 61 36 62 41 63 37 64 38 65 40 66 42 67 39 68
REMARK SMILES IDX 61 69 62 70 67 71 63 72 64 73 66 74 68 75 65 76 49 77 50 78
REMARK SMILES IDX 55 79 51 80 52 81 54 82 56 83 53 84
REMARK H PARENT 7 13 15 23 15 24 73 46 47 57
REMARK Flexibility Score: inf
ROOT
ATOM      1  C   UNL     1      -3.514   2.418   2.356  1.00  0.00     0.274 C 
ENDROOT
BRANCH   1   2
ATOM      2  O   UNL     1      -3.108   1.393   1.428  1.00  0.00    -0.462 OA
BRANCH   2   3
ATOM      3  C   UNL     1      -1.772   1.138   1.444  1.00  0.00     0.310 C 
ATOM      4  O   UNL     1      -0.972   1.732   2.151  1.00  0.00    -0.252 OA
BRANCH   3   5
ATOM      5  C   UNL     1      -1.385  -0.041   0.605  1.00  0.00     0.118 C 
ATOM      6  C   UNL     1       0.592  -1.669   0.074  1.00  0.00     0.013 C 
ATOM      7  C   UNL     1       0.065  -0.237   0.182  1.00  0.00    -0.009 C 
ATOM      8  C   UNL     1       1.132   0.637   0.778  1.00  0.00     0.013 C 
ATOM      9  C   UNL     1      -0.986   0.086  -0.871  1.00  0.00     0.100 C 
BRANCH   9  10
ATOM     10  C   UNL     1      -1.751   1.131  -1.601  1.00  0.00     0.228 C 
ATOM     11  O   UNL     1      -2.710   0.727  -2.266  1.00  0.00    -0.274 OA
ATOM     12  N   UNL     1      -1.639   2.484  -1.494  1.00  0.00    -0.325 N 
ATOM     13  H   UNL     1      -2.376   2.977  -1.922  1.00  0.00     0.169 HD
BRANCH  12  14
ATOM     14  C   UNL     1      -0.689   3.307  -0.900  1.00  0.00     0.053 A 
ATOM     15  C   UNL     1      -1.237   4.319  -0.096  1.00  0.00     0.027 A 
ATOM     16  C   UNL     1       0.703   3.188  -1.034  1.00  0.00     0.063 A 
ATOM     17  C   UNL     1      -0.423   5.084   0.729  1.00  0.00     0.002 A 
ATOM     18  C   UNL     1       1.517   3.987  -0.209  1.00  0.00     0.016 A 
ATOM     19  C   UNL     1       0.953   4.892   0.699  1.00  0.00     0.001 A 
BRANCH  16  20
ATOM     20  C   UNL     1       1.312   2.293  -2.067  1.00  0.00     0.250 C 
ATOM     21  N   UNL     1       2.607   1.885  -1.890  1.00  0.00    -0.366 N 
ATOM     22  O   UNL     1       0.702   1.913  -3.057  1.00  0.00    -0.269 OA
ATOM     23  H   UNL     1       3.113   2.181  -1.099  1.00  0.00     0.159 HD
ATOM     24  H   UNL     1       3.033   1.296  -2.554  1.00  0.00     0.159 HD
ENDBRANCH  16  20
ENDBRANCH  12  14
ENDBRANCH   9  10
ENDBRANCH   3   5
ENDBRANCH   2   3
ENDBRANCH   1   2
BRANCH   1  25
ATOM     25  C   UNL     1      -3.818   1.874   3.762  1.00  0.00     0.275 C 
BRANCH  25  26
ATOM     26  O   UNL     1      -2.658   1.341   4.437  1.00  0.00    -0.458 OA
BRANCH  26  27
ATOM     27  C   UNL     1      -2.425   0.023   4.219  1.00  0.00     0.338 C 
ATOM     28  O   UNL     1      -3.125  -0.740   3.570  1.00  0.00    -0.246 OA
BRANCH  27  29
ATOM     29  C   UNL     1      -1.098  -0.381   4.728  1.00  0.00     0.060 A 
ATOM     30  C   UNL     1      -0.262  -1.079   3.850  1.00  0.00     0.016 A 
ATOM     31  C   UNL     1      -0.702  -0.177   6.050  1.00  0.00     0.016 A 
ATOM     32  C   UNL     1       0.969  -1.571   4.273  1.00  0.00     0.010 A 
ATOM     33  C   UNL     1       0.525  -0.700   6.488  1.00  0.00     0.010 A 
ATOM     34  C   UNL     1       1.359  -1.411   5.604  1.00  0.00    -0.014 A 
BRANCH  34  35
ATOM     35  C   UNL     1       2.573  -2.119   6.079  1.00  0.00     0.031 A 
ATOM     36  C   UNL     1       2.420  -3.433   6.792  1.00  0.00     0.074 A 
ATOM     37  C   UNL     1       3.800  -1.637   5.811  1.00  0.00     0.049 A 
ATOM     38  N   UNL     1       3.338  -4.213   7.303  1.00  0.00    -0.248 NA
ATOM     39  C   UNL     1       1.046  -3.937   6.943  1.00  0.00     0.031 C 
ATOM     40  C   UNL     1       4.082  -0.413   5.063  1.00  0.00     0.029 A 
ATOM     41  N   UNL     1       5.040  -2.125   6.139  1.00  0.00    -0.354 N 
ATOM     42  C   UNL     1       2.655  -5.295   7.843  1.00  0.00     0.074 A 
ATOM     43  C   UNL     1       1.244  -5.059   7.620  1.00  0.00     0.031 C 
ATOM     44  C   UNL     1       5.413  -0.239   4.999  1.00  0.00     0.029 A 
ATOM     45  C   UNL     1       6.074  -1.318   5.731  1.00  0.00     0.049 A 
ATOM     46  H   UNL     1       5.175  -2.973   6.621  1.00  0.00     0.167 HD
ATOM     47  C   UNL     1       3.158  -6.388   8.464  1.00  0.00     0.037 A 
ATOM     48  C   UNL     1       7.399  -1.427   5.947  1.00  0.00     0.037 A 
ATOM     49  C   UNL     1       4.562  -6.619   8.688  1.00  0.00     0.049 A 
ATOM     50  C   UNL     1       7.928  -2.607   6.722  1.00  0.00     0.074 A 
ATOM     51  C   UNL     1       5.170  -7.695   9.310  1.00  0.00     0.029 A 
ATOM     52  N   UNL     1       5.576  -5.754   8.305  1.00  0.00    -0.354 N 
ATOM     53  N   UNL     1       7.276  -3.626   7.228  1.00  0.00    -0.248 NA
ATOM     54  C   UNL     1       9.379  -2.652   6.952  1.00  0.00     0.031 C 
ATOM     55  C   UNL     1       6.547  -7.454   9.355  1.00  0.00     0.029 A 
ATOM     56  C   UNL     1       6.804  -6.260   8.701  1.00  0.00     0.049 A 
ATOM     57  H   UNL     1       5.443  -4.905   7.823  1.00  0.00     0.167 HD
ATOM     58  C   UNL     1       8.238  -4.449   7.802  1.00  0.00     0.074 A 
ATOM     59  C   UNL     1       9.519  -3.815   7.572  1.00  0.00     0.031 C 
ATOM     60  C   UNL     1       8.075  -5.626   8.456  1.00  0.00     0.037 A 
BRANCH  47  61
ATOM     61  C   UNL     1       2.178  -7.400   8.984  1.00  0.00     0.057 A 
ATOM     62  C   UNL     1       1.436  -8.226   8.129  1.00  0.00     0.134 A 
ATOM     63  C   UNL     1       1.992  -7.565  10.362  1.00  0.00     0.134 A 
ATOM     64  F   UNL     1       1.555  -8.110   6.798  1.00  0.00    -0.206 F 
ATOM     65  C   UNL     1       0.527  -9.162   8.627  1.00  0.00     0.040 A 
ATOM     66  C   UNL     1       1.108  -8.517  10.872  1.00  0.00     0.040 A 
ATOM     67  F   UNL     1       2.673  -6.810  11.237  1.00  0.00    -0.206 F 
ATOM     68  C   UNL     1       0.366  -9.314  10.003  1.00  0.00     0.006 A 
ENDBRANCH  47  61
BRANCH  48  69
ATOM     69  C   UNL     1       8.327  -0.380   5.445  1.00  0.00     0.057 A 
ATOM     70  C   UNL     1       9.266  -0.656   4.445  1.00  0.00     0.134 A 
ATOM     71  C   UNL     1       8.320   0.915   5.980  1.00  0.00     0.134 A 
ATOM     72  F   UNL     1       9.341  -1.883   3.910  1.00  0.00    -0.206 F 
ATOM     73  C   UNL     1      10.178   0.308   4.011  1.00  0.00     0.040 A 
ATOM     74  C   UNL     1       9.206   1.897   5.535  1.00  0.00     0.040 A 
ATOM     75  F   UNL     1       7.446   1.246   6.942  1.00  0.00    -0.206 F 
ATOM     76  C   UNL     1      10.146   1.591   4.553  1.00  0.00     0.006 A 
ENDBRANCH  48  69
BRANCH  60  77
ATOM     77  C   UNL     1       9.315  -6.335   8.924  1.00  0.00     0.057 A 
ATOM     78  C   UNL     1      10.097  -5.855   9.982  1.00  0.00     0.134 A 
ATOM     79  C   UNL     1       9.711  -7.540   8.326  1.00  0.00     0.134 A 
ATOM     80  F   UNL     1       9.783  -4.702  10.592  1.00  0.00    -0.206 F 
ATOM     81  C   UNL     1      11.242  -6.531  10.409  1.00  0.00     0.040 A 
ATOM     82  C   UNL     1      10.835  -8.241   8.765  1.00  0.00     0.040 A 
ATOM     83  F   UNL     1       9.002  -8.064   7.315  1.00  0.00    -0.206 F 
ATOM     84  C   UNL     1      11.610  -7.732   9.805  1.00  0.00     0.006 A 
ENDBRANCH  60  77
ENDBRANCH  34  35
ENDBRANCH  27  29
ENDBRANCH  26  27
ENDBRANCH  25  26
ENDBRANCH   1  25
TORSDOF 14
