REMARK SMILES COc1ccc2c(c1)[C@H]([NH2+][C@@H](C(=O)OCCOC(=O)c1ccc(-c3c4nc(c(-c5c(F)cccc5F)c5ccc([nH]5)c(-c5c(F)cccc5F)c5nc(c(-c6c(F)cccc6F)c6ccc3[nH]6)C=C5)C=C4)cc1)C1CC1)CC2
REMARK SMILES IDX 15 1 14 2 12 3 13 4 11 5 10 6 9 9 3 10 4 11 8 12 5 13 7 14
REMARK SMILES IDX 6 15 78 16 77 17 2 18 1 19 74 20 75 21 76 22 16 23 17 24
REMARK SMILES IDX 18 25 19 26 20 27 21 28 73 29 22 30 72 31 23 32 24 33 25 34
REMARK SMILES IDX 66 35 26 36 71 37 65 38 67 39 27 40 70 41 64 42 63 43 28 45
REMARK SMILES IDX 54 46 37 47 53 48 38 49 41 50 52 51 68 52 39 53 40 54 51 56
REMARK SMILES IDX 69 57 42 58 29 59 30 60 35 61 31 62 32 63 34 64 36 65 33 66
REMARK SMILES IDX 55 67 56 68 61 69 57 70 58 71 60 72 62 73 59 74 43 75 44 76
REMARK SMILES IDX 49 77 45 78 46 79 48 80 50 81 47 82
REMARK H PARENT 10 7 10 8 67 44 41 55
REMARK Flexibility Score: inf
ROOT
ATOM      1  C   UNL     1      -3.363   6.599  -4.370  1.00  0.00     0.274 C 
ENDROOT
BRANCH   1   2
ATOM      2  O   UNL     1      -2.543   6.558  -3.182  1.00  0.00    -0.458 OA
BRANCH   2   3
ATOM      3  C   UNL     1      -2.172   7.764  -2.659  1.00  0.00     0.365 C 
ATOM      4  O   UNL     1      -2.548   8.844  -3.108  1.00  0.00    -0.245 OA
BRANCH   3   5
ATOM      5  C   UNL     1      -1.228   7.641  -1.419  1.00  0.00     0.297 C 
BRANCH   5   6
ATOM      6  N   UNL     1      -0.942   6.226  -1.115  1.00  0.00    -0.328 N 
ATOM      7  H   UNL     1      -1.839   5.756  -0.995  1.00  0.00     0.347 HD
ATOM      8  H   UNL     1      -0.371   5.912  -1.900  1.00  0.00     0.347 HD
BRANCH   6   9
ATOM      9  C   UNL     1      -0.134   5.916   0.059  1.00  0.00     0.215 C 
ATOM     10  C   UNL     1       0.854   2.213  -0.424  1.00  0.00     0.119 A 
ATOM     11  C   UNL     1       2.166   2.303   0.069  1.00  0.00     0.047 A 
ATOM     12  C   UNL     1       0.044   3.356  -0.497  1.00  0.00     0.056 A 
ATOM     13  C   UNL     1       2.662   3.514   0.549  1.00  0.00     0.008 A 
ATOM     14  C   UNL     1       0.544   4.566  -0.035  1.00  0.00     0.016 A 
ATOM     15  C   UNL     1       1.839   4.625   0.501  1.00  0.00    -0.038 A 
ATOM     16  C   UNL     1       2.143   5.986   1.028  1.00  0.00     0.042 C 
ATOM     17  C   UNL     1       1.100   6.819   0.286  1.00  0.00     0.075 C 
BRANCH  10  18
ATOM     18  O   UNL     1       0.281   1.052  -0.875  1.00  0.00    -0.497 OA
ATOM     19  C   UNL     1       0.769  -0.136  -0.259  1.00  0.00     0.278 C 
ENDBRANCH  10  18
ENDBRANCH   6   9
ENDBRANCH   5   6
BRANCH   5  20
ATOM     20  C   UNL     1      -1.796   8.384  -0.224  1.00  0.00     0.059 C 
ATOM     21  C   UNL     1      -0.977   9.402   0.544  1.00  0.00     0.011 C 
ATOM     22  C   UNL     1      -2.103   9.869  -0.315  1.00  0.00     0.011 C 
ENDBRANCH   5  20
ENDBRANCH   3   5
ENDBRANCH   2   3
ENDBRANCH   1   2
BRANCH   1  23
ATOM     23  C   UNL     1      -4.749   6.034  -4.078  1.00  0.00     0.275 C 
BRANCH  23  24
ATOM     24  O   UNL     1      -5.382   6.852  -3.079  1.00  0.00    -0.458 OA
BRANCH  24  25
ATOM     25  C   UNL     1      -5.888   6.194  -2.013  1.00  0.00     0.338 C 
ATOM     26  O   UNL     1      -5.961   4.992  -1.838  1.00  0.00    -0.246 OA
BRANCH  25  27
ATOM     27  C   UNL     1      -6.317   7.179  -1.009  1.00  0.00     0.060 A 
ATOM     28  C   UNL     1      -5.365   8.028  -0.450  1.00  0.00     0.016 A 
ATOM     29  C   UNL     1      -7.626   7.177  -0.531  1.00  0.00     0.016 A 
ATOM     30  C   UNL     1      -5.696   8.824   0.644  1.00  0.00     0.010 A 
ATOM     31  C   UNL     1      -7.978   8.040   0.513  1.00  0.00     0.010 A 
ATOM     32  C   UNL     1      -7.007   8.846   1.135  1.00  0.00    -0.014 A 
BRANCH  32  33
ATOM     33  C   UNL     1      -7.338   9.653   2.341  1.00  0.00     0.031 A 
ATOM     34  C   UNL     1      -7.808   8.968   3.595  1.00  0.00     0.074 A 
ATOM     35  C   UNL     1      -7.190  10.992   2.338  1.00  0.00     0.049 A 
ATOM     36  N   UNL     1      -8.295   9.490   4.692  1.00  0.00    -0.248 NA
ATOM     37  C   UNL     1      -7.725   7.499   3.615  1.00  0.00     0.031 C 
ATOM     38  C   UNL     1      -6.691  11.789   1.217  1.00  0.00     0.029 A 
ATOM     39  N   UNL     1      -7.442  11.920   3.319  1.00  0.00    -0.354 N 
ATOM     40  C   UNL     1      -8.637   8.415   5.503  1.00  0.00     0.074 A 
ATOM     41  C   UNL     1      -8.288   7.211   4.779  1.00  0.00     0.031 C 
ATOM     42  C   UNL     1      -6.645  13.080   1.583  1.00  0.00     0.029 A 
ATOM     43  C   UNL     1      -7.179  13.212   2.935  1.00  0.00     0.049 A 
ATOM     44  H   UNL     1      -7.778  11.681   4.213  1.00  0.00     0.167 HD
ATOM     45  C   UNL     1      -9.197   8.430   6.736  1.00  0.00     0.037 A 
ATOM     46  C   UNL     1      -7.380  14.377   3.580  1.00  0.00     0.037 A 
ATOM     47  C   UNL     1      -9.485   9.622   7.487  1.00  0.00     0.049 A 
ATOM     48  C   UNL     1      -8.007  14.371   4.945  1.00  0.00     0.074 A 
ATOM     49  C   UNL     1     -10.037   9.733   8.752  1.00  0.00     0.029 A 
ATOM     50  N   UNL     1      -9.226  10.911   7.049  1.00  0.00    -0.354 N 
ATOM     51  N   UNL     1      -8.388  13.350   5.673  1.00  0.00    -0.248 NA
ATOM     52  C   UNL     1      -8.255  15.680   5.566  1.00  0.00     0.031 C 
ATOM     53  C   UNL     1     -10.132  11.093   9.070  1.00  0.00     0.029 A 
ATOM     54  C   UNL     1      -9.615  11.825   8.014  1.00  0.00     0.049 A 
ATOM     55  H   UNL     1      -8.825  11.142   6.180  1.00  0.00     0.167 HD
ATOM     56  C   UNL     1      -8.926  13.891   6.833  1.00  0.00     0.074 A 
ATOM     57  C   UNL     1      -8.798  15.330   6.725  1.00  0.00     0.031 C 
ATOM     58  C   UNL     1      -9.487  13.253   7.888  1.00  0.00     0.037 A 
BRANCH  45  59
ATOM     59  C   UNL     1      -9.574   7.108   7.330  1.00  0.00     0.057 A 
ATOM     60  C   UNL     1      -8.626   6.241   7.886  1.00  0.00     0.134 A 
ATOM     61  C   UNL     1     -10.916   6.707   7.357  1.00  0.00     0.134 A 
ATOM     62  F   UNL     1      -7.324   6.561   7.873  1.00  0.00    -0.206 F 
ATOM     63  C   UNL     1      -8.998   5.010   8.429  1.00  0.00     0.040 A 
ATOM     64  C   UNL     1     -11.302   5.488   7.914  1.00  0.00     0.040 A 
ATOM     65  F   UNL     1     -11.872   7.494   6.841  1.00  0.00    -0.206 F 
ATOM     66  C   UNL     1     -10.341   4.633   8.448  1.00  0.00     0.006 A 
ENDBRANCH  45  59
BRANCH  46  67
ATOM     67  C   UNL     1      -7.026  15.654   2.916  1.00  0.00     0.057 A 
ATOM     68  C   UNL     1      -5.926  16.409   3.337  1.00  0.00     0.134 A 
ATOM     69  C   UNL     1      -7.774  16.144   1.838  1.00  0.00     0.134 A 
ATOM     70  F   UNL     1      -5.189  16.002   4.381  1.00  0.00    -0.206 F 
ATOM     71  C   UNL     1      -5.581  17.607   2.710  1.00  0.00     0.040 A 
ATOM     72  C   UNL     1      -7.428  17.329   1.188  1.00  0.00     0.040 A 
ATOM     73  F   UNL     1      -8.840  15.465   1.391  1.00  0.00    -0.206 F 
ATOM     74  C   UNL     1      -6.329  18.066   1.627  1.00  0.00     0.006 A 
ENDBRANCH  46  67
BRANCH  58  75
ATOM     75  C   UNL     1     -10.002  14.106   9.005  1.00  0.00     0.057 A 
ATOM     76  C   UNL     1     -11.221  14.788   8.899  1.00  0.00     0.134 A 
ATOM     77  C   UNL     1      -9.294  14.220  10.207  1.00  0.00     0.134 A 
ATOM     78  F   UNL     1     -11.938  14.727   7.767  1.00  0.00    -0.206 F 
ATOM     79  C   UNL     1     -11.711  15.566   9.948  1.00  0.00     0.040 A 
ATOM     80  C   UNL     1      -9.782  14.983  11.268  1.00  0.00     0.040 A 
ATOM     81  F   UNL     1      -8.123  13.587  10.369  1.00  0.00    -0.206 F 
ATOM     82  C   UNL     1     -10.993  15.661  11.139  1.00  0.00     0.006 A 
ENDBRANCH  58  75
ENDBRANCH  32  33
ENDBRANCH  25  27
ENDBRANCH  24  25
ENDBRANCH  23  24
ENDBRANCH   1  23
TORSDOF 15
