REMARK SMILES CCSc1cccc(-c2ccc([C@@H](C)C(=O)OCCOC(=O)c3ccc(-c4c5nc(c(-c6c(F)cccc6F)c6ccc([nH]6)c(-c6c(F)cccc6F)c6nc(c(-c7c(F)cccc7F)c7ccc4[nH]7)C=C6)C=C5)cc3)cc2)c1
REMARK SMILES IDX 18 1 17 2 15 3 16 4 13 5 14 6 12 7 9 8 10 9 78 10 11 11
REMARK SMILES IDX 77 12 8 13 4 14 5 15 79 16 6 17 7 18 3 19 2 20 1 21 19 22
REMARK SMILES IDX 20 23 21 24 22 25 23 26 24 27 76 28 25 29 75 30 26 31 27 32
REMARK SMILES IDX 28 33 69 34 29 35 74 36 68 37 70 38 30 39 73 40 67 41 66 42
REMARK SMILES IDX 31 44 57 45 40 46 56 47 41 48 44 49 55 50 71 51 42 52 43 53
REMARK SMILES IDX 54 55 72 56 45 57 32 58 33 59 38 60 34 61 35 62 37 63 39 64
REMARK SMILES IDX 36 65 58 66 59 67 64 68 60 69 61 70 63 71 65 72 62 73 46 74
REMARK SMILES IDX 47 75 52 76 48 77 49 78 51 79 53 80 50 81
REMARK H PARENT 70 43 44 54
REMARK Flexibility Score: inf
ROOT
ATOM      1  C   UNL     1       7.793  10.086  -3.477  1.00  0.00     0.274 C 
ENDROOT
BRANCH   1   2
ATOM      2  O   UNL     1       7.938   9.111  -2.426  1.00  0.00    -0.462 OA
BRANCH   2   3
ATOM      3  C   UNL     1       8.212   9.583  -1.183  1.00  0.00     0.313 C 
ATOM      4  O   UNL     1       8.396  10.768  -0.919  1.00  0.00    -0.252 OA
BRANCH   3   5
ATOM      5  C   UNL     1       8.341   8.492  -0.126  1.00  0.00     0.126 C 
ATOM      6  C   UNL     1       9.813   8.115   0.045  1.00  0.00     0.025 C 
BRANCH   5   7
ATOM      7  C   UNL     1       7.448   7.273  -0.312  1.00  0.00    -0.034 A 
ATOM      8  C   UNL     1       5.812   4.959  -0.573  1.00  0.00    -0.018 A 
ATOM      9  C   UNL     1       6.867   5.215  -1.465  1.00  0.00     0.009 A 
ATOM     10  C   UNL     1       5.568   5.899   0.434  1.00  0.00     0.009 A 
ATOM     11  C   UNL     1       7.673   6.348  -1.337  1.00  0.00     0.005 A 
ATOM     12  C   UNL     1       6.379   7.034   0.569  1.00  0.00     0.005 A 
BRANCH   8  13
ATOM     13  C   UNL     1       5.040   3.711  -0.682  1.00  0.00    -0.017 A 
ATOM     14  C   UNL     1       2.939   2.496  -0.982  1.00  0.00     0.008 A 
ATOM     15  C   UNL     1       3.650   1.295  -1.048  1.00  0.00     0.015 A 
ATOM     16  C   UNL     1       3.640   3.701  -0.812  1.00  0.00     0.023 A 
ATOM     17  C   UNL     1       5.031   1.281  -0.882  1.00  0.00     0.002 A 
ATOM     18  C   UNL     1       5.716   2.478  -0.695  1.00  0.00     0.009 A 
BRANCH  14  19
ATOM     19  S   UNL     1       1.173   2.521  -1.233  1.00  0.00    -0.126 SA
BRANCH  19  20
ATOM     20  C   UNL     1       0.579   1.643   0.257  1.00  0.00     0.071 C 
ATOM     21  C   UNL     1       0.627   0.129   0.126  1.00  0.00     0.016 C 
ENDBRANCH  19  20
ENDBRANCH  14  19
ENDBRANCH   8  13
ENDBRANCH   5   7
ENDBRANCH   3   5
ENDBRANCH   2   3
ENDBRANCH   1   2
BRANCH   1  22
ATOM     22  C   UNL     1       6.319  10.368  -3.776  1.00  0.00     0.275 C 
BRANCH  22  23
ATOM     23  O   UNL     1       5.694  11.053  -2.675  1.00  0.00    -0.458 OA
BRANCH  23  24
ATOM     24  C   UNL     1       4.942  10.271  -1.868  1.00  0.00     0.338 C 
ATOM     25  O   UNL     1       4.679   9.090  -2.006  1.00  0.00    -0.246 OA
BRANCH  24  26
ATOM     26  C   UNL     1       4.557  11.031  -0.670  1.00  0.00     0.060 A 
ATOM     27  C   UNL     1       5.137  10.662   0.544  1.00  0.00     0.016 A 
ATOM     28  C   UNL     1       3.572  12.017  -0.716  1.00  0.00     0.016 A 
ATOM     29  C   UNL     1       4.718  11.254   1.729  1.00  0.00     0.010 A 
ATOM     30  C   UNL     1       3.158  12.624   0.476  1.00  0.00     0.010 A 
ATOM     31  C   UNL     1       3.713  12.230   1.707  1.00  0.00    -0.014 A 
BRANCH  31  32
ATOM     32  C   UNL     1       3.219  12.778   2.992  1.00  0.00     0.031 A 
ATOM     33  C   UNL     1       1.899  12.323   3.543  1.00  0.00     0.074 A 
ATOM     34  C   UNL     1       3.988  13.630   3.694  1.00  0.00     0.049 A 
ATOM     35  N   UNL     1       1.302  12.672   4.655  1.00  0.00    -0.248 NA
ATOM     36  C   UNL     1       1.152  11.342   2.740  1.00  0.00     0.031 C 
ATOM     37  C   UNL     1       5.304  14.116   3.280  1.00  0.00     0.029 A 
ATOM     38  N   UNL     1       3.776  14.227   4.910  1.00  0.00    -0.354 N 
ATOM     39  C   UNL     1       0.106  11.968   4.679  1.00  0.00     0.074 A 
ATOM     40  C   UNL     1       0.052  11.185   3.463  1.00  0.00     0.031 C 
ATOM     41  C   UNL     1       5.790  14.925   4.236  1.00  0.00     0.029 A 
ATOM     42  C   UNL     1       4.808  15.039   5.310  1.00  0.00     0.049 A 
ATOM     43  H   UNL     1       2.961  14.087   5.445  1.00  0.00     0.167 HD
ATOM     44  C   UNL     1      -0.856  11.970   5.632  1.00  0.00     0.037 A 
ATOM     45  C   UNL     1       4.941  15.796   6.415  1.00  0.00     0.037 A 
ATOM     46  C   UNL     1      -0.797  12.737   6.849  1.00  0.00     0.049 A 
ATOM     47  C   UNL     1       3.845  15.803   7.442  1.00  0.00     0.074 A 
ATOM     48  C   UNL     1      -1.724  12.801   7.876  1.00  0.00     0.029 A 
ATOM     49  N   UNL     1       0.250  13.573   7.203  1.00  0.00    -0.354 N 
ATOM     50  N   UNL     1       2.716  15.136   7.451  1.00  0.00    -0.248 NA
ATOM     51  C   UNL     1       4.040  16.671   8.612  1.00  0.00     0.031 C 
ATOM     52  C   UNL     1      -1.249  13.699   8.839  1.00  0.00     0.029 A 
ATOM     53  C   UNL     1      -0.012  14.167   8.427  1.00  0.00     0.049 A 
ATOM     54  H   UNL     1       1.061  13.723   6.665  1.00  0.00     0.167 HD
ATOM     55  C   UNL     1       2.075  15.491   8.630  1.00  0.00     0.074 A 
ATOM     56  C   UNL     1       2.948  16.418   9.320  1.00  0.00     0.031 C 
ATOM     57  C   UNL     1       0.868  15.089   9.098  1.00  0.00     0.037 A 
BRANCH  44  58
ATOM     58  C   UNL     1      -2.071  11.128   5.381  1.00  0.00     0.057 A 
ATOM     59  C   UNL     1      -2.042   9.734   5.508  1.00  0.00     0.134 A 
ATOM     60  C   UNL     1      -3.289  11.723   5.031  1.00  0.00     0.134 A 
ATOM     61  F   UNL     1      -0.901   9.104   5.826  1.00  0.00    -0.206 F 
ATOM     62  C   UNL     1      -3.179   8.958   5.278  1.00  0.00     0.040 A 
ATOM     63  C   UNL     1      -4.438  10.960   4.817  1.00  0.00     0.040 A 
ATOM     64  F   UNL     1      -3.383  13.054   4.895  1.00  0.00    -0.206 F 
ATOM     65  C   UNL     1      -4.383   9.572   4.937  1.00  0.00     0.006 A 
ENDBRANCH  44  58
BRANCH  45  66
ATOM     66  C   UNL     1       6.163  16.614   6.607  1.00  0.00     0.057 A 
ATOM     67  C   UNL     1       7.115  16.278   7.574  1.00  0.00     0.134 A 
ATOM     68  C   UNL     1       6.401  17.755   5.831  1.00  0.00     0.134 A 
ATOM     69  F   UNL     1       6.929  15.209   8.363  1.00  0.00    -0.206 F 
ATOM     70  C   UNL     1       8.258  17.054   7.773  1.00  0.00     0.040 A 
ATOM     71  C   UNL     1       7.550  18.527   6.004  1.00  0.00     0.040 A 
ATOM     72  F   UNL     1       5.524  18.127   4.888  1.00  0.00    -0.206 F 
ATOM     73  C   UNL     1       8.480  18.180   6.982  1.00  0.00     0.006 A 
ENDBRANCH  45  66
BRANCH  57  74
ATOM     74  C   UNL     1       0.437  15.639  10.424  1.00  0.00     0.057 A 
ATOM     75  C   UNL     1      -0.009  16.959  10.562  1.00  0.00     0.134 A 
ATOM     76  C   UNL     1       0.453  14.835  11.571  1.00  0.00     0.134 A 
ATOM     77  F   UNL     1      -0.035  17.782   9.503  1.00  0.00    -0.206 F 
ATOM     78  C   UNL     1      -0.403  17.469  11.800  1.00  0.00     0.040 A 
ATOM     79  C   UNL     1       0.043  15.328  12.810  1.00  0.00     0.040 A 
ATOM     80  F   UNL     1       0.865  13.560  11.504  1.00  0.00    -0.206 F 
ATOM     81  C   UNL     1      -0.381  16.650  12.928  1.00  0.00     0.006 A 
ENDBRANCH  57  74
ENDBRANCH  31  32
ENDBRANCH  24  26
ENDBRANCH  23  24
ENDBRANCH  22  23
ENDBRANCH   1  22
TORSDOF 15
