REMARK SMILES C[C@H]1[C@H](C(=O)OCCOC(=O)c2ccc(-c3c4nc(c(-c5c(F)cccc5F)c5ccc([nH]5)c(-c5c(F)cccc5F)c5nc(c(-c6c(F)cccc6F)c6ccc3[nH]6)C=C5)C=C4)cc2)CC[N@@H+]1Cc1cscn1
REMARK SMILES IDX 7 1 6 2 4 3 5 4 3 5 1 6 2 7 68 8 66 9 67 10 69 12 70 13
REMARK SMILES IDX 71 14 74 15 72 16 73 17 8 18 9 19 10 20 11 21 12 22 13 23
REMARK SMILES IDX 65 24 14 25 64 26 15 27 16 28 17 29 58 30 18 31 63 32 57 33
REMARK SMILES IDX 59 34 19 35 62 36 56 37 55 38 20 40 46 41 29 42 45 43 30 44
REMARK SMILES IDX 33 45 44 46 60 47 31 48 32 49 43 51 61 52 34 53 21 54 22 55
REMARK SMILES IDX 27 56 23 57 24 58 26 59 28 60 25 61 47 62 48 63 53 64 49 65
REMARK SMILES IDX 50 66 52 67 54 68 51 69 35 70 36 71 41 72 37 73 38 74 40 75
REMARK SMILES IDX 42 76 39 77
REMARK H PARENT 68 11 59 39 33 50
REMARK Flexibility Score: inf
ROOT
ATOM      1  C   UNL     1      -0.384   3.075   3.283  1.00  0.00     0.274 C 
ENDROOT
BRANCH   1   2
ATOM      2  O   UNL     1      -0.287   1.984   2.348  1.00  0.00    -0.462 OA
BRANCH   2   3
ATOM      3  C   UNL     1      -0.742   2.192   1.092  1.00  0.00     0.315 C 
ATOM      4  O   UNL     1      -1.300   3.219   0.717  1.00  0.00    -0.252 OA
BRANCH   3   5
ATOM      5  C   UNL     1      -0.497   1.032   0.145  1.00  0.00     0.162 C 
ATOM      6  C   UNL     1       1.665  -0.214  -0.247  1.00  0.00     0.076 C 
ATOM      7  C   UNL     1       0.413  -0.104   0.638  1.00  0.00     0.195 C 
ATOM      8  N   UNL     1      -0.355  -1.350   0.469  1.00  0.00    -0.327 N 
ATOM      9  C   UNL     1      -1.815   0.384  -0.250  1.00  0.00     0.083 C 
ATOM     10  C   UNL     1      -1.482  -1.084  -0.414  1.00  0.00     0.263 C 
ATOM     11  H   UNL     1       0.235  -2.045   0.011  1.00  0.00     0.348 HD
BRANCH   8  12
ATOM     12  C   UNL     1      -0.663  -2.060   1.716  1.00  0.00     0.320 C 
BRANCH  12  13
ATOM     13  C   UNL     1      -1.447  -1.282   2.737  1.00  0.00     0.105 A 
ATOM     14  C   UNL     1      -2.806  -1.015   2.727  1.00  0.00     0.096 A 
ATOM     15  N   UNL     1      -0.789  -0.821   3.874  1.00  0.00    -0.244 NA
ATOM     16  S   UNL     1      -3.254  -0.116   4.115  1.00  0.00    -0.130 S 
ATOM     17  C   UNL     1      -1.636  -0.204   4.665  1.00  0.00     0.176 A 
ENDBRANCH  12  13
ENDBRANCH   8  12
ENDBRANCH   3   5
ENDBRANCH   2   3
ENDBRANCH   1   2
BRANCH   1  18
ATOM     18  C   UNL     1       1.002   3.647   3.579  1.00  0.00     0.275 C 
BRANCH  18  19
ATOM     19  O   UNL     1       1.526   4.333   2.428  1.00  0.00    -0.458 OA
BRANCH  19  20
ATOM     20  C   UNL     1       2.272   3.567   1.601  1.00  0.00     0.338 C 
ATOM     21  O   UNL     1       2.606   2.406   1.750  1.00  0.00    -0.246 OA
BRANCH  20  22
ATOM     22  C   UNL     1       2.541   4.322   0.374  1.00  0.00     0.060 A 
ATOM     23  C   UNL     1       1.853   3.969  -0.788  1.00  0.00     0.016 A 
ATOM     24  C   UNL     1       3.519   5.314   0.352  1.00  0.00     0.016 A 
ATOM     25  C   UNL     1       2.150   4.589  -1.994  1.00  0.00     0.010 A 
ATOM     26  C   UNL     1       3.803   5.953  -0.854  1.00  0.00     0.010 A 
ATOM     27  C   UNL     1       3.129   5.585  -2.034  1.00  0.00    -0.014 A 
BRANCH  27  28
ATOM     28  C   UNL     1       3.495   6.223  -3.314  1.00  0.00     0.031 A 
ATOM     29  C   UNL     1       4.836   5.933  -3.916  1.00  0.00     0.074 A 
ATOM     30  C   UNL     1       2.645   7.079  -3.907  1.00  0.00     0.049 A 
ATOM     31  N   UNL     1       5.462   6.555  -4.879  1.00  0.00    -0.248 NA
ATOM     32  C   UNL     1       5.574   4.794  -3.347  1.00  0.00     0.031 C 
ATOM     33  C   UNL     1       1.287   7.377  -3.449  1.00  0.00     0.029 A 
ATOM     34  N   UNL     1       2.810   7.875  -5.010  1.00  0.00    -0.354 N 
ATOM     35  C   UNL     1       6.687   5.914  -5.002  1.00  0.00     0.074 A 
ATOM     36  C   UNL     1       6.715   4.851  -4.021  1.00  0.00     0.031 C 
ATOM     37  C   UNL     1       0.750   8.308  -4.253  1.00  0.00     0.029 A 
ATOM     38  C   UNL     1       1.748   8.716  -5.236  1.00  0.00     0.049 A 
ATOM     39  H   UNL     1       3.610   7.847  -5.583  1.00  0.00     0.167 HD
ATOM     40  C   UNL     1       7.697   6.202  -5.855  1.00  0.00     0.037 A 
ATOM     41  C   UNL     1       1.622   9.739  -6.101  1.00  0.00     0.037 A 
ATOM     42  C   UNL     1       7.639   7.249  -6.840  1.00  0.00     0.049 A 
ATOM     43  C   UNL     1       2.779  10.081  -6.997  1.00  0.00     0.074 A 
ATOM     44  C   UNL     1       8.604   7.630  -7.756  1.00  0.00     0.029 A 
ATOM     45  N   UNL     1       6.546   8.080  -7.037  1.00  0.00    -0.354 N 
ATOM     46  N   UNL     1       3.954   9.504  -7.082  1.00  0.00    -0.248 NA
ATOM     47  C   UNL     1       2.602  11.223  -7.904  1.00  0.00     0.031 C 
ATOM     48  C   UNL     1       8.104   8.712  -8.487  1.00  0.00     0.029 A 
ATOM     49  C   UNL     1       6.815   8.980  -8.053  1.00  0.00     0.049 A 
ATOM     50  H   UNL     1       5.703   8.036  -6.530  1.00  0.00     0.167 HD
ATOM     51  C   UNL     1       4.646  10.194  -8.067  1.00  0.00     0.074 A 
ATOM     52  C   UNL     1       3.759  11.232  -8.552  1.00  0.00     0.031 C 
ATOM     53  C   UNL     1       5.903   9.988  -8.530  1.00  0.00     0.037 A 
BRANCH  40  54
ATOM     54  C   UNL     1       8.958   5.402  -5.729  1.00  0.00     0.057 A 
ATOM     55  C   UNL     1       9.043   4.074  -6.162  1.00  0.00     0.134 A 
ATOM     56  C   UNL     1      10.112   5.981  -5.185  1.00  0.00     0.134 A 
ATOM     57  F   UNL     1       7.969   3.456  -6.676  1.00  0.00    -0.206 F 
ATOM     58  C   UNL     1      10.227   3.342  -6.040  1.00  0.00     0.040 A 
ATOM     59  C   UNL     1      11.307   5.268  -5.079  1.00  0.00     0.040 A 
ATOM     60  F   UNL     1      10.098   7.251  -4.753  1.00  0.00    -0.206 F 
ATOM     61  C   UNL     1      11.364   3.942  -5.502  1.00  0.00     0.006 A 
ENDBRANCH  40  54
BRANCH  41  62
ATOM     62  C   UNL     1       0.371  10.535  -6.125  1.00  0.00     0.057 A 
ATOM     63  C   UNL     1      -0.516  10.455  -7.203  1.00  0.00     0.134 A 
ATOM     64  C   UNL     1       0.026  11.385  -5.066  1.00  0.00     0.134 A 
ATOM     65  F   UNL     1      -0.230   9.675  -8.255  1.00  0.00    -0.206 F 
ATOM     66  C   UNL     1      -1.700  11.195  -7.231  1.00  0.00     0.040 A 
ATOM     67  C   UNL     1      -1.165  12.112  -5.070  1.00  0.00     0.040 A 
ATOM     68  F   UNL     1       0.833  11.503  -4.002  1.00  0.00    -0.206 F 
ATOM     69  C   UNL     1      -2.030  12.022  -6.159  1.00  0.00     0.006 A 
ENDBRANCH  41  62
BRANCH  53  70
ATOM     70  C   UNL     1       6.373  10.864  -9.649  1.00  0.00     0.057 A 
ATOM     71  C   UNL     1       6.794  12.180  -9.428  1.00  0.00     0.134 A 
ATOM     72  C   UNL     1       6.470  10.357 -10.951  1.00  0.00     0.134 A 
ATOM     73  F   UNL     1       6.713  12.724  -8.204  1.00  0.00    -0.206 F 
ATOM     74  C   UNL     1       7.290  12.966 -10.468  1.00  0.00     0.040 A 
ATOM     75  C   UNL     1       6.983  11.127 -11.994  1.00  0.00     0.040 A 
ATOM     76  F   UNL     1       6.088   9.100 -11.222  1.00  0.00    -0.206 F 
ATOM     77  C   UNL     1       7.394  12.436 -11.754  1.00  0.00     0.006 A 
ENDBRANCH  53  70
ENDBRANCH  27  28
ENDBRANCH  20  22
ENDBRANCH  19  20
ENDBRANCH  18  19
ENDBRANCH   1  18
TORSDOF 13
