REMARK SMILES Cc1n[nH]c(CN(C)C(=O)N[C@](C)(C(=O)OCCOC(=O)c2ccc(-c3c4nc(c(-c5c(F)cccc5F)c5ccc([nH]5)c(-c5c(F)cccc5F)c5nc(c(-c6c(F)cccc6F)c6ccc3[nH]6)C=C5)C=C4)cc2)C(F)(F)F)n1
REMARK SMILES IDX 17 1 16 2 14 3 15 4 12 5 13 6 11 7 9 8 10 9 7 11 8 12 6 13
REMARK SMILES IDX 5 14 1 15 2 16 3 17 80 18 4 19 76 21 77 22 78 23 79 24 18 25
REMARK SMILES IDX 19 26 20 27 21 28 22 29 23 30 75 31 24 32 74 33 25 34 26 35
REMARK SMILES IDX 27 36 68 37 28 38 73 39 67 40 69 41 29 42 72 43 66 44 65 45
REMARK SMILES IDX 30 47 56 48 39 49 55 50 40 51 43 52 54 53 70 54 41 55 42 56
REMARK SMILES IDX 53 58 71 59 44 60 31 61 32 62 37 63 33 64 34 65 36 66 38 67
REMARK SMILES IDX 35 68 57 69 58 70 63 71 59 72 60 73 62 74 64 75 61 76 45 77
REMARK SMILES IDX 46 78 51 79 47 80 48 81 50 82 52 83 49 84
REMARK H PARENT 11 10 4 20 69 46 43 57
REMARK Flexibility Score: inf
ROOT
ATOM      1  C   UNL     1       4.183   3.678   7.013  1.00  0.00     0.274 C 
ENDROOT
BRANCH   1   2
ATOM      2  O   UNL     1       3.475   2.432   7.215  1.00  0.00    -0.460 OA
BRANCH   2   3
ATOM      3  C   UNL     1       2.119   2.466   7.047  1.00  0.00     0.341 C 
ATOM      4  O   UNL     1       1.525   3.469   6.667  1.00  0.00    -0.249 OA
BRANCH   3   5
ATOM      5  C   UNL     1       1.447   1.111   7.317  1.00  0.00     0.232 C 
ATOM      6  C   UNL     1       1.534   0.141   6.142  1.00  0.00     0.058 C 
BRANCH   5   7
ATOM      7  N   UNL     1       1.933   0.560   8.630  1.00  0.00    -0.315 N 
ATOM      8  C   UNL     1       2.759  -0.310   9.200  1.00  0.00     0.318 C 
ATOM      9  O   UNL     1       2.638  -0.364  10.433  1.00  0.00    -0.249 OA
ATOM     10  H   UNL     1       1.450   1.029   9.349  1.00  0.00     0.166 HD
BRANCH   8  11
ATOM     11  N   UNL     1       3.636  -1.117   8.558  1.00  0.00    -0.320 N 
ATOM     12  C   UNL     1       4.143  -1.003   7.205  1.00  0.00     0.149 C 
BRANCH  11  13
ATOM     13  C   UNL     1       4.363  -2.072   9.398  1.00  0.00     0.197 C 
BRANCH  13  14
ATOM     14  C   UNL     1       5.517  -1.361  10.018  1.00  0.00     0.144 A 
ATOM     15  C   UNL     1       8.237   0.869  10.229  1.00  0.00     0.092 C 
ATOM     16  C   UNL     1       7.146  -0.098  10.451  1.00  0.00     0.147 A 
ATOM     17  N   UNL     1       6.668  -0.383  11.668  1.00  0.00    -0.159 NA
ATOM     18  N   UNL     1       6.500  -0.720   9.418  1.00  0.00    -0.215 NA
ATOM     19  N   UNL     1       5.615  -1.161  11.366  1.00  0.00    -0.262 N 
ATOM     20  H   UNL     1       4.993  -1.538  12.030  1.00  0.00     0.192 HD
ENDBRANCH  13  14
ENDBRANCH  11  13
ENDBRANCH   8  11
ENDBRANCH   5   7
BRANCH   5  21
ATOM     21  C   UNL     1      -0.057   1.454   7.457  1.00  0.00     0.422 C 
ATOM     22  F   UNL     1      -0.599   1.989   6.340  1.00  0.00    -0.168 F 
ATOM     23  F   UNL     1      -0.770   0.326   7.721  1.00  0.00    -0.168 F 
ATOM     24  F   UNL     1      -0.285   2.298   8.491  1.00  0.00    -0.168 F 
ENDBRANCH   5  21
ENDBRANCH   3   5
ENDBRANCH   2   3
ENDBRANCH   1   2
BRANCH   1  25
ATOM     25  C   UNL     1       4.623   3.927   5.567  1.00  0.00     0.275 C 
BRANCH  25  26
ATOM     26  O   UNL     1       3.523   4.200   4.693  1.00  0.00    -0.458 OA
BRANCH  26  27
ATOM     27  C   UNL     1       2.972   3.087   4.162  1.00  0.00     0.338 C 
ATOM     28  O   UNL     1       3.275   1.935   4.419  1.00  0.00    -0.246 OA
BRANCH  27  29
ATOM     29  C   UNL     1       1.981   3.409   3.132  1.00  0.00     0.060 A 
ATOM     30  C   UNL     1       1.084   2.392   2.785  1.00  0.00     0.016 A 
ATOM     31  C   UNL     1       2.130   4.556   2.349  1.00  0.00     0.016 A 
ATOM     32  C   UNL     1       0.468   2.432   1.554  1.00  0.00     0.010 A 
ATOM     33  C   UNL     1       1.509   4.597   1.115  1.00  0.00     0.010 A 
ATOM     34  C   UNL     1       0.763   3.492   0.695  1.00  0.00    -0.014 A 
BRANCH  34  35
ATOM     35  C   UNL     1       0.336   3.358  -0.687  1.00  0.00     0.031 A 
ATOM     36  C   UNL     1      -1.117   3.469  -0.948  1.00  0.00     0.074 A 
ATOM     37  C   UNL     1       1.235   3.231  -1.681  1.00  0.00     0.049 A 
ATOM     38  N   UNL     1      -1.883   2.636  -1.576  1.00  0.00    -0.248 NA
ATOM     39  C   UNL     1      -1.815   4.636  -0.392  1.00  0.00     0.031 C 
ATOM     40  C   UNL     1       2.693   3.355  -1.601  1.00  0.00     0.029 A 
ATOM     41  N   UNL     1       1.006   3.092  -3.015  1.00  0.00    -0.354 N 
ATOM     42  C   UNL     1      -3.137   3.235  -1.622  1.00  0.00     0.074 A 
ATOM     43  C   UNL     1      -3.064   4.418  -0.802  1.00  0.00     0.031 C 
ATOM     44  C   UNL     1       3.185   3.532  -2.845  1.00  0.00     0.029 A 
ATOM     45  C   UNL     1       2.096   3.422  -3.802  1.00  0.00     0.049 A 
ATOM     46  H   UNL     1       0.147   2.786  -3.386  1.00  0.00     0.167 HD
ATOM     47  C   UNL     1      -4.120   2.817  -2.462  1.00  0.00     0.037 A 
ATOM     48  C   UNL     1       2.078   3.687  -5.129  1.00  0.00     0.037 A 
ATOM     49  C   UNL     1      -3.889   1.499  -2.978  1.00  0.00     0.049 A 
ATOM     50  C   UNL     1       0.832   3.110  -5.693  1.00  0.00     0.074 A 
ATOM     51  C   UNL     1      -3.769   0.245  -2.412  1.00  0.00     0.029 A 
ATOM     52  N   UNL     1      -3.435   1.371  -4.266  1.00  0.00    -0.354 N 
ATOM     53  N   UNL     1       0.611   1.832  -5.829  1.00  0.00    -0.248 NA
ATOM     54  C   UNL     1      -0.355   3.952  -5.740  1.00  0.00     0.031 C 
ATOM     55  C   UNL     1      -2.823  -0.443  -3.225  1.00  0.00     0.029 A 
ATOM     56  C   UNL     1      -2.436   0.432  -4.239  1.00  0.00     0.049 A 
ATOM     57  H   UNL     1      -3.763   1.858  -5.057  1.00  0.00     0.167 HD
ATOM     58  C   UNL     1      -0.742   1.675  -5.559  1.00  0.00     0.074 A 
ATOM     59  C   UNL     1      -1.304   3.019  -5.626  1.00  0.00     0.031 C 
ATOM     60  C   UNL     1      -1.229   0.515  -5.027  1.00  0.00     0.037 A 
BRANCH  47  61
ATOM     61  C   UNL     1      -5.163   3.732  -3.027  1.00  0.00     0.057 A 
ATOM     62  C   UNL     1      -6.354   3.212  -3.555  1.00  0.00     0.134 A 
ATOM     63  C   UNL     1      -4.912   5.091  -3.301  1.00  0.00     0.134 A 
ATOM     64  F   UNL     1      -6.671   1.919  -3.390  1.00  0.00    -0.206 F 
ATOM     65  C   UNL     1      -7.226   3.989  -4.325  1.00  0.00     0.040 A 
ATOM     66  C   UNL     1      -5.798   5.888  -4.026  1.00  0.00     0.040 A 
ATOM     67  F   UNL     1      -3.757   5.678  -2.956  1.00  0.00    -0.206 F 
ATOM     68  C   UNL     1      -6.950   5.332  -4.562  1.00  0.00     0.006 A 
ENDBRANCH  47  61
BRANCH  48  69
ATOM     69  C   UNL     1       2.947   4.623  -5.874  1.00  0.00     0.057 A 
ATOM     70  C   UNL     1       3.046   4.570  -7.270  1.00  0.00     0.134 A 
ATOM     71  C   UNL     1       3.538   5.744  -5.259  1.00  0.00     0.134 A 
ATOM     72  F   UNL     1       2.468   3.573  -7.956  1.00  0.00    -0.206 F 
ATOM     73  C   UNL     1       3.695   5.568  -8.009  1.00  0.00     0.040 A 
ATOM     74  C   UNL     1       4.205   6.736  -5.981  1.00  0.00     0.040 A 
ATOM     75  F   UNL     1       3.421   5.959  -3.941  1.00  0.00    -0.206 F 
ATOM     76  C   UNL     1       4.276   6.656  -7.364  1.00  0.00     0.006 A 
ENDBRANCH  48  69
BRANCH  60  77
ATOM     77  C   UNL     1      -0.312  -0.673  -4.984  1.00  0.00     0.057 A 
ATOM     78  C   UNL     1       0.861  -0.712  -4.215  1.00  0.00     0.134 A 
ATOM     79  C   UNL     1      -0.701  -1.863  -5.607  1.00  0.00     0.134 A 
ATOM     80  F   UNL     1       1.250   0.346  -3.492  1.00  0.00    -0.206 F 
ATOM     81  C   UNL     1       1.640  -1.867  -4.117  1.00  0.00     0.040 A 
ATOM     82  C   UNL     1       0.051  -3.034  -5.489  1.00  0.00     0.040 A 
ATOM     83  F   UNL     1      -1.849  -1.919  -6.302  1.00  0.00    -0.206 F 
ATOM     84  C   UNL     1       1.233  -3.036  -4.752  1.00  0.00     0.006 A 
ENDBRANCH  60  77
ENDBRANCH  34  35
ENDBRANCH  27  29
ENDBRANCH  26  27
ENDBRANCH  25  26
ENDBRANCH   1  25
TORSDOF 16
