REMARK SMILES O=C(OCCOC(=O)c1ccc(-c2c3nc(c(-c4c(F)cccc4F)c4ccc([nH]4)c(-c4c(F)cccc4F)c4nc(c(-c5c(F)cccc5F)c5ccc2[nH]5)C=C4)C=C3)cc1)C1=Cc2c(cc(Cl)c(Cl)c2Cl)O[C@H]1C(F)(F)F
REMARK SMILES IDX 5 1 4 2 3 3 2 4 1 5 63 6 64 7 75 8 65 9 74 10 66 11 72 12
REMARK SMILES IDX 67 13 70 14 73 15 68 16 71 17 69 18 76 19 77 20 78 21 79 22
REMARK SMILES IDX 6 23 7 24 8 25 9 26 10 27 62 28 11 29 61 30 12 31 13 32
REMARK SMILES IDX 14 33 55 34 15 35 60 36 54 37 56 38 16 39 59 40 53 41 52 42
REMARK SMILES IDX 17 44 43 45 26 46 42 47 27 48 30 49 41 50 57 51 28 52 29 53
REMARK SMILES IDX 40 55 58 56 31 57 18 58 19 59 24 60 20 61 21 62 23 63 25 64
REMARK SMILES IDX 22 65 44 66 45 67 50 68 46 69 47 70 49 71 51 72 48 73 32 74
REMARK SMILES IDX 33 75 38 76 34 77 35 78 37 79 39 80 36 81
REMARK H PARENT 56 43 30 54
REMARK Flexibility Score: inf
ROOT
ATOM      1  C   UNL     1       2.472  -2.377  -1.410  1.00  0.00     0.275 C 
ENDROOT
BRANCH   1   2
ATOM      2  C   UNL     1       2.367  -1.736  -0.015  1.00  0.00     0.275 C 
BRANCH   2   3
ATOM      3  O   UNL     1       1.931  -0.355  -0.057  1.00  0.00    -0.459 OA
BRANCH   3   4
ATOM      4  C   UNL     1       2.641   0.779  -0.246  1.00  0.00     0.338 C 
ATOM      5  O   UNL     1       2.062   1.860  -0.162  1.00  0.00    -0.246 OA
BRANCH   4   6
ATOM      6  C   UNL     1       4.119   0.776  -0.353  1.00  0.00     0.087 C 
ATOM      7  C   UNL     1       4.914  -0.249  -0.681  1.00  0.00     0.029 C 
ATOM      8  C   UNL     1       4.761   2.134  -0.110  1.00  0.00     0.316 C 
ATOM      9  C   UNL     1       6.140  -0.335   0.117  1.00  0.00     0.038 A 
ATOM     10  O   UNL     1       6.146   2.082   0.341  1.00  0.00    -0.475 OA
ATOM     11  C   UNL     1       6.672   0.853   0.618  1.00  0.00     0.131 A 
ATOM     12  C   UNL     1       6.678  -1.569   0.557  1.00  0.00     0.072 A 
ATOM     13  C   UNL     1       7.761   0.833   1.483  1.00  0.00     0.069 A 
ATOM     14  C   UNL     1       7.738  -1.594   1.482  1.00  0.00     0.079 A 
ATOM     15  Cl  UNL     1       5.966  -3.072   0.029  1.00  0.00    -0.082 Cl
ATOM     16  C   UNL     1       8.283  -0.383   1.927  1.00  0.00     0.064 A 
ATOM     17  Cl  UNL     1       8.339  -3.103   2.104  1.00  0.00    -0.081 Cl
ATOM     18  Cl  UNL     1       9.587  -0.313   3.060  1.00  0.00    -0.083 Cl
BRANCH   8  19
ATOM     19  C   UNL     1       4.713   2.966  -1.416  1.00  0.00     0.430 C 
ATOM     20  F   UNL     1       3.472   3.081  -1.931  1.00  0.00    -0.167 F 
ATOM     21  F   UNL     1       5.176   4.223  -1.216  1.00  0.00    -0.167 F 
ATOM     22  F   UNL     1       5.482   2.405  -2.385  1.00  0.00    -0.167 F 
ENDBRANCH   8  19
ENDBRANCH   4   6
ENDBRANCH   3   4
ENDBRANCH   2   3
ENDBRANCH   1   2
BRANCH   1  23
ATOM     23  O   UNL     1       2.433  -1.386  -2.447  1.00  0.00    -0.458 OA
BRANCH  23  24
ATOM     24  C   UNL     1       1.173  -0.972  -2.736  1.00  0.00     0.338 C 
ATOM     25  O   UNL     1       0.137  -1.517  -2.386  1.00  0.00    -0.246 OA
BRANCH  24  26
ATOM     26  C   UNL     1       1.228   0.363  -3.364  1.00  0.00     0.060 A 
ATOM     27  C   UNL     1       0.246   1.288  -2.992  1.00  0.00     0.016 A 
ATOM     28  C   UNL     1       2.217   0.712  -4.289  1.00  0.00     0.016 A 
ATOM     29  C   UNL     1       0.211   2.545  -3.590  1.00  0.00     0.010 A 
ATOM     30  C   UNL     1       2.185   1.976  -4.883  1.00  0.00     0.010 A 
ATOM     31  C   UNL     1       1.157   2.882  -4.565  1.00  0.00    -0.014 A 
BRANCH  31  32
ATOM     32  C   UNL     1       0.972   4.117  -5.361  1.00  0.00     0.031 A 
ATOM     33  C   UNL     1       0.377   4.001  -6.737  1.00  0.00     0.074 A 
ATOM     34  C   UNL     1       1.296   5.320  -4.856  1.00  0.00     0.049 A 
ATOM     35  N   UNL     1       0.108   4.940  -7.606  1.00  0.00    -0.248 NA
ATOM     36  C   UNL     1       0.039   2.642  -7.197  1.00  0.00     0.031 C 
ATOM     37  C   UNL     1       1.858   5.557  -3.528  1.00  0.00     0.029 A 
ATOM     38  N   UNL     1       1.205   6.572  -5.410  1.00  0.00    -0.354 N 
ATOM     39  C   UNL     1      -0.431   4.289  -8.708  1.00  0.00     0.074 A 
ATOM     40  C   UNL     1      -0.414   2.873  -8.420  1.00  0.00     0.031 C 
ATOM     41  C   UNL     1       2.089   6.873  -3.379  1.00  0.00     0.029 A 
ATOM     42  C   UNL     1       1.699   7.568  -4.603  1.00  0.00     0.049 A 
ATOM     43  H   UNL     1       0.823   6.740  -6.302  1.00  0.00     0.167 HD
ATOM     44  C   UNL     1      -0.914   4.828  -9.851  1.00  0.00     0.037 A 
ATOM     45  C   UNL     1       1.834   8.887  -4.839  1.00  0.00     0.037 A 
ATOM     46  C   UNL     1      -0.945   6.239 -10.126  1.00  0.00     0.049 A 
ATOM     47  C   UNL     1       1.347   9.451  -6.148  1.00  0.00     0.074 A 
ATOM     48  C   UNL     1      -1.472   6.889 -11.227  1.00  0.00     0.029 A 
ATOM     49  N   UNL     1      -0.417   7.213  -9.294  1.00  0.00    -0.354 N 
ATOM     50  N   UNL     1       0.760   8.837  -7.147  1.00  0.00    -0.248 NA
ATOM     51  C   UNL     1       1.535  10.894  -6.361  1.00  0.00     0.031 C 
ATOM     52  C   UNL     1      -1.213   8.256 -11.087  1.00  0.00     0.029 A 
ATOM     53  C   UNL     1      -0.565   8.459  -9.879  1.00  0.00     0.049 A 
ATOM     54  H   UNL     1       0.002   7.045  -8.419  1.00  0.00     0.167 HD
ATOM     55  C   UNL     1       0.485   9.819  -8.091  1.00  0.00     0.074 A 
ATOM     56  C   UNL     1       0.954  11.072  -7.540  1.00  0.00     0.031 C 
ATOM     57  C   UNL     1      -0.100   9.695  -9.307  1.00  0.00     0.037 A 
BRANCH  44  58
ATOM     58  C   UNL     1      -1.441   3.891 -10.894  1.00  0.00     0.057 A 
ATOM     59  C   UNL     1      -2.668   3.234 -10.744  1.00  0.00     0.134 A 
ATOM     60  C   UNL     1      -0.734   3.683 -12.085  1.00  0.00     0.134 A 
ATOM     61  F   UNL     1      -3.386   3.381  -9.621  1.00  0.00    -0.206 F 
ATOM     62  C   UNL     1      -3.168   2.391 -11.738  1.00  0.00     0.040 A 
ATOM     63  C   UNL     1      -1.234   2.860 -13.094  1.00  0.00     0.040 A 
ATOM     64  F   UNL     1       0.447   4.285 -12.290  1.00  0.00    -0.206 F 
ATOM     65  C   UNL     1      -2.454   2.209 -12.921  1.00  0.00     0.006 A 
ENDBRANCH  44  58
BRANCH  45  66
ATOM     66  C   UNL     1       2.477   9.771  -3.833  1.00  0.00     0.057 A 
ATOM     67  C   UNL     1       1.754  10.766  -3.166  1.00  0.00     0.134 A 
ATOM     68  C   UNL     1       3.848   9.681  -3.563  1.00  0.00     0.134 A 
ATOM     69  F   UNL     1       0.442  10.920  -3.400  1.00  0.00    -0.206 F 
ATOM     70  C   UNL     1       2.375  11.660  -2.291  1.00  0.00     0.040 A 
ATOM     71  C   UNL     1       4.477  10.550  -2.671  1.00  0.00     0.040 A 
ATOM     72  F   UNL     1       4.599   8.750  -4.170  1.00  0.00    -0.206 F 
ATOM     73  C   UNL     1       3.742  11.552  -2.041  1.00  0.00     0.006 A 
ENDBRANCH  45  66
BRANCH  57  74
ATOM     74  C   UNL     1      -0.283  10.945 -10.115  1.00  0.00     0.057 A 
ATOM     75  C   UNL     1       0.797  11.575 -10.745  1.00  0.00     0.134 A 
ATOM     76  C   UNL     1      -1.559  11.485 -10.318  1.00  0.00     0.134 A 
ATOM     77  F   UNL     1       2.045  11.113 -10.579  1.00  0.00    -0.206 F 
ATOM     78  C   UNL     1       0.615  12.708 -11.539  1.00  0.00     0.040 A 
ATOM     79  C   UNL     1      -1.756  12.602 -11.130  1.00  0.00     0.040 A 
ATOM     80  F   UNL     1      -2.636  10.922  -9.750  1.00  0.00    -0.206 F 
ATOM     81  C   UNL     1      -0.666  13.219 -11.741  1.00  0.00     0.006 A 
ENDBRANCH  57  74
ENDBRANCH  31  32
ENDBRANCH  24  26
ENDBRANCH  23  24
ENDBRANCH   1  23
TORSDOF 12
