REMARK SMILES Cc1cscc1C(=O)NC1(C(=O)OCCOC(=O)c2ccc(-c3c4nc(c(-c5c(F)cccc5F)c5ccc([nH]5)c(-c5c(F)cccc5F)c5nc(c(-c6c(F)cccc6F)c6ccc3[nH]6)C=C5)C=C4)cc2)CCCC1
REMARK SMILES IDX 14 1 13 2 11 3 12 4 10 5 73 6 76 7 74 8 75 9 9 10 7 11 8 12
REMARK SMILES IDX 6 14 1 15 2 16 3 17 4 18 5 19 15 20 16 21 17 22 18 23 19 24
REMARK SMILES IDX 20 25 72 26 21 27 71 28 22 29 23 30 24 31 65 32 25 33 70 34
REMARK SMILES IDX 64 35 66 36 26 37 69 38 63 39 62 40 27 42 53 43 36 44 52 45
REMARK SMILES IDX 37 46 40 47 51 48 67 49 38 50 39 51 50 53 68 54 41 55 28 56
REMARK SMILES IDX 29 57 34 58 30 59 31 60 33 61 35 62 32 63 54 64 55 65 60 66
REMARK SMILES IDX 56 67 57 68 59 69 61 70 58 71 42 72 43 73 48 74 44 75 45 76
REMARK SMILES IDX 47 77 49 78 46 79
REMARK H PARENT 9 13 66 41 40 52
REMARK Flexibility Score: inf
ROOT
ATOM      1  C   UNL     1       5.946   0.519   2.732  1.00  0.00     0.274 C 
ENDROOT
BRANCH   1   2
ATOM      2  O   UNL     1       5.434   0.392   1.390  1.00  0.00    -0.460 OA
BRANCH   2   3
ATOM      3  C   UNL     1       4.089   0.533   1.217  1.00  0.00     0.331 C 
ATOM      4  O   UNL     1       3.288   0.688   2.131  1.00  0.00    -0.249 OA
BRANCH   3   5
ATOM      5  C   UNL     1       3.679   0.424  -0.280  1.00  0.00     0.138 C 
ATOM      6  C   UNL     1       3.569  -1.028  -0.715  1.00  0.00     0.040 C 
ATOM      7  C   UNL     1       4.795   0.975  -1.223  1.00  0.00     0.040 C 
ATOM      8  C   UNL     1       4.976  -1.438  -1.130  1.00  0.00     0.003 C 
ATOM      9  C   UNL     1       5.549  -0.216  -1.808  1.00  0.00     0.003 C 
BRANCH   5  10
ATOM     10  N   UNL     1       2.514   1.321  -0.482  1.00  0.00    -0.336 N 
ATOM     11  C   UNL     1       1.188   1.532  -0.289  1.00  0.00     0.253 C 
ATOM     12  O   UNL     1       0.949   2.745  -0.427  1.00  0.00    -0.269 OA
ATOM     13  H   UNL     1       2.852   2.108  -0.968  1.00  0.00     0.165 HD
BRANCH  11  14
ATOM     14  C   UNL     1       0.057   0.620  -0.037  1.00  0.00     0.053 A 
ATOM     15  C   UNL     1       0.853  -1.837   0.564  1.00  0.00     0.046 C 
ATOM     16  C   UNL     1      -0.146  -0.783   0.281  1.00  0.00    -0.028 A 
ATOM     17  C   UNL     1      -1.494  -1.122   0.316  1.00  0.00     0.069 A 
ATOM     18  S   UNL     1      -2.534   0.191   0.081  1.00  0.00    -0.151 S 
ATOM     19  C   UNL     1      -1.204   1.225  -0.109  1.00  0.00     0.079 A 
ENDBRANCH  11  14
ENDBRANCH   5  10
ENDBRANCH   3   5
ENDBRANCH   2   3
ENDBRANCH   1   2
BRANCH   1  20
ATOM     20  C   UNL     1       6.790   1.784   2.849  1.00  0.00     0.275 C 
BRANCH  20  21
ATOM     21  O   UNL     1       5.947   2.930   2.644  1.00  0.00    -0.458 OA
BRANCH  21  22
ATOM     22  C   UNL     1       6.263   3.715   1.589  1.00  0.00     0.338 C 
ATOM     23  O   UNL     1       7.203   3.603   0.825  1.00  0.00    -0.246 OA
BRANCH  22  24
ATOM     24  C   UNL     1       5.247   4.769   1.464  1.00  0.00     0.060 A 
ATOM     25  C   UNL     1       3.946   4.428   1.092  1.00  0.00     0.016 A 
ATOM     26  C   UNL     1       5.616   6.104   1.621  1.00  0.00     0.016 A 
ATOM     27  C   UNL     1       3.020   5.431   0.811  1.00  0.00     0.010 A 
ATOM     28  C   UNL     1       4.665   7.104   1.410  1.00  0.00     0.010 A 
ATOM     29  C   UNL     1       3.367   6.780   0.974  1.00  0.00    -0.014 A 
BRANCH  29  30
ATOM     30  C   UNL     1       2.398   7.863   0.660  1.00  0.00     0.031 A 
ATOM     31  C   UNL     1       2.699   8.845  -0.439  1.00  0.00     0.074 A 
ATOM     32  C   UNL     1       1.259   7.987   1.368  1.00  0.00     0.049 A 
ATOM     33  N   UNL     1       2.100   9.970  -0.735  1.00  0.00    -0.248 NA
ATOM     34  C   UNL     1       3.838   8.523  -1.315  1.00  0.00     0.031 C 
ATOM     35  C   UNL     1       0.818   7.083   2.432  1.00  0.00     0.029 A 
ATOM     36  N   UNL     1       0.265   8.932   1.301  1.00  0.00    -0.354 N 
ATOM     37  C   UNL     1       2.816  10.514  -1.794  1.00  0.00     0.074 A 
ATOM     38  C   UNL     1       3.894   9.595  -2.092  1.00  0.00     0.031 C 
ATOM     39  C   UNL     1      -0.364   7.508   2.906  1.00  0.00     0.029 A 
ATOM     40  C   UNL     1      -0.731   8.747   2.229  1.00  0.00     0.049 A 
ATOM     41  H   UNL     1       0.266   9.670   0.650  1.00  0.00     0.167 HD
ATOM     42  C   UNL     1       2.595  11.676  -2.454  1.00  0.00     0.037 A 
ATOM     43  C   UNL     1      -1.799   9.510   2.528  1.00  0.00     0.037 A 
ATOM     44  C   UNL     1       1.492  12.563  -2.193  1.00  0.00     0.049 A 
ATOM     45  C   UNL     1      -2.017  10.799   1.789  1.00  0.00     0.074 A 
ATOM     46  C   UNL     1       1.179  13.759  -2.816  1.00  0.00     0.029 A 
ATOM     47  N   UNL     1       0.509  12.338  -1.242  1.00  0.00    -0.354 N 
ATOM     48  N   UNL     1      -1.300  11.333   0.831  1.00  0.00    -0.248 NA
ATOM     49  C   UNL     1      -3.183  11.601   2.188  1.00  0.00     0.031 C 
ATOM     50  C   UNL     1       0.017  14.269  -2.226  1.00  0.00     0.029 A 
ATOM     51  C   UNL     1      -0.408  13.375  -1.257  1.00  0.00     0.049 A 
ATOM     52  H   UNL     1       0.469  11.556  -0.645  1.00  0.00     0.167 HD
ATOM     53  C   UNL     1      -1.928  12.528   0.508  1.00  0.00     0.074 A 
ATOM     54  C   UNL     1      -3.096  12.632   1.358  1.00  0.00     0.031 C 
ATOM     55  C   UNL     1      -1.564  13.460  -0.405  1.00  0.00     0.037 A 
BRANCH  42  56
ATOM     56  C   UNL     1       3.585  12.072  -3.508  1.00  0.00     0.057 A 
ATOM     57  C   UNL     1       3.606  11.470  -4.771  1.00  0.00     0.134 A 
ATOM     58  C   UNL     1       4.505  13.100  -3.263  1.00  0.00     0.134 A 
ATOM     59  F   UNL     1       2.761  10.469  -5.061  1.00  0.00    -0.206 F 
ATOM     60  C   UNL     1       4.518  11.867  -5.751  1.00  0.00     0.040 A 
ATOM     61  C   UNL     1       5.408  13.519  -4.241  1.00  0.00     0.040 A 
ATOM     62  F   UNL     1       4.533  13.720  -2.074  1.00  0.00    -0.206 F 
ATOM     63  C   UNL     1       5.418  12.899  -5.489  1.00  0.00     0.006 A 
ENDBRANCH  42  56
BRANCH  43  64
ATOM     64  C   UNL     1      -2.724   9.091   3.609  1.00  0.00     0.057 A 
ATOM     65  C   UNL     1      -4.016   8.639   3.320  1.00  0.00     0.134 A 
ATOM     66  C   UNL     1      -2.339   9.131   4.954  1.00  0.00     0.134 A 
ATOM     67  F   UNL     1      -4.450   8.603   2.051  1.00  0.00    -0.206 F 
ATOM     68  C   UNL     1      -4.896   8.248   4.330  1.00  0.00     0.040 A 
ATOM     69  C   UNL     1      -3.200   8.723   5.973  1.00  0.00     0.040 A 
ATOM     70  F   UNL     1      -1.113   9.556   5.295  1.00  0.00    -0.206 F 
ATOM     71  C   UNL     1      -4.485   8.283   5.662  1.00  0.00     0.006 A 
ENDBRANCH  43  64
BRANCH  55  72
ATOM     72  C   UNL     1      -2.449  14.660  -0.539  1.00  0.00     0.057 A 
ATOM     73  C   UNL     1      -2.420  15.700   0.398  1.00  0.00     0.134 A 
ATOM     74  C   UNL     1      -3.317  14.790  -1.630  1.00  0.00     0.134 A 
ATOM     75  F   UNL     1      -1.618  15.626   1.471  1.00  0.00    -0.206 F 
ATOM     76  C   UNL     1      -3.236  16.823   0.263  1.00  0.00     0.040 A 
ATOM     77  C   UNL     1      -4.126  15.916  -1.785  1.00  0.00     0.040 A 
ATOM     78  F   UNL     1      -3.387  13.829  -2.563  1.00  0.00    -0.206 F 
ATOM     79  C   UNL     1      -4.090  16.935  -0.834  1.00  0.00     0.006 A 
ENDBRANCH  55  72
ENDBRANCH  29  30
ENDBRANCH  22  24
ENDBRANCH  21  22
ENDBRANCH  20  21
ENDBRANCH   1  20
TORSDOF 13
