REMARK SMILES O=C(OCCOC(=O)C1CCN(S(=O)(=O)c2ccc3nc(O)sc3c2)CC1)c1ccc(-c2c3nc(c(-c4c(F)cccc4F)c4ccc([nH]4)c(-c4c(F)cccc4F)c4nc(c(-c5c(F)cccc5F)c5ccc2[nH]5)C=C4)C=C3)cc1
REMARK SMILES IDX 5 1 4 2 3 3 2 4 1 5 28 6 29 7 81 8 30 9 80 10 31 11 32 12
REMARK SMILES IDX 33 13 74 14 34 15 79 16 73 17 75 18 35 19 78 20 72 21 71 22
REMARK SMILES IDX 36 24 62 25 45 26 61 27 46 28 49 29 60 30 76 31 47 32 48 33
REMARK SMILES IDX 59 35 77 36 50 37 37 38 38 39 43 40 39 41 40 42 42 43 44 44
REMARK SMILES IDX 41 45 63 46 64 47 69 48 65 49 66 50 68 51 70 52 67 53 51 54
REMARK SMILES IDX 52 55 57 56 53 57 54 58 56 59 58 60 55 61 6 62 7 63 8 64
REMARK SMILES IDX 9 65 10 66 27 67 11 68 26 69 12 70 13 71 14 72 15 73 16 74
REMARK SMILES IDX 17 75 25 76 18 77 24 78 19 79 23 80 20 81 21 82 22 83
REMARK H PARENT 75 23 49 34 22 84
REMARK Flexibility Score: inf
ROOT
ATOM      1  C   UNL     1       4.037   1.657  -0.407  1.00  0.00     0.274 C 
ENDROOT
BRANCH   1   2
ATOM      2  C   UNL     1       4.678   0.346  -0.886  1.00  0.00     0.275 C 
BRANCH   2   3
ATOM      3  O   UNL     1       5.370  -0.273   0.220  1.00  0.00    -0.458 OA
BRANCH   3   4
ATOM      4  C   UNL     1       4.636  -1.172   0.924  1.00  0.00     0.338 C 
ATOM      5  O   UNL     1       3.810  -1.945   0.464  1.00  0.00    -0.246 OA
BRANCH   4   6
ATOM      6  C   UNL     1       4.726  -0.871   2.384  1.00  0.00     0.060 A 
ATOM      7  C   UNL     1       4.067  -1.718   3.292  1.00  0.00     0.016 A 
ATOM      8  C   UNL     1       5.054   0.435   2.772  1.00  0.00     0.016 A 
ATOM      9  C   UNL     1       3.629  -1.212   4.528  1.00  0.00     0.010 A 
ATOM     10  C   UNL     1       4.539   0.956   3.957  1.00  0.00     0.010 A 
ATOM     11  C   UNL     1       3.804   0.147   4.843  1.00  0.00    -0.014 A 
BRANCH  11  12
ATOM     12  C   UNL     1       3.462   0.605   6.224  1.00  0.00     0.031 A 
ATOM     13  C   UNL     1       4.791   1.025   6.812  1.00  0.00     0.074 A 
ATOM     14  C   UNL     1       2.430   1.401   6.599  1.00  0.00     0.049 A 
ATOM     15  N   UNL     1       5.339   2.186   6.594  1.00  0.00    -0.248 NA
ATOM     16  C   UNL     1       5.738  -0.020   7.211  1.00  0.00     0.031 C 
ATOM     17  C   UNL     1       1.941   2.596   5.908  1.00  0.00     0.029 A 
ATOM     18  N   UNL     1       1.778   1.440   7.828  1.00  0.00    -0.354 N 
ATOM     19  C   UNL     1       6.707   1.996   6.682  1.00  0.00     0.074 A 
ATOM     20  C   UNL     1       6.907   0.620   7.078  1.00  0.00     0.031 C 
ATOM     21  C   UNL     1       1.206   3.327   6.773  1.00  0.00     0.029 A 
ATOM     22  C   UNL     1       1.112   2.640   8.068  1.00  0.00     0.049 A 
ATOM     23  H   UNL     1       1.788   0.691   8.467  1.00  0.00     0.167 HD
ATOM     24  C   UNL     1       7.613   2.957   6.370  1.00  0.00     0.037 A 
ATOM     25  C   UNL     1       1.086   3.285   9.274  1.00  0.00     0.037 A 
ATOM     26  C   UNL     1       7.090   4.239   6.007  1.00  0.00     0.049 A 
ATOM     27  C   UNL     1       2.352   4.095   9.242  1.00  0.00     0.074 A 
ATOM     28  C   UNL     1       6.986   5.037   4.889  1.00  0.00     0.029 A 
ATOM     29  N   UNL     1       6.547   4.989   7.021  1.00  0.00    -0.354 N 
ATOM     30  N   UNL     1       2.522   5.247   8.653  1.00  0.00    -0.248 NA
ATOM     31  C   UNL     1       3.589   3.387   9.570  1.00  0.00     0.031 C 
ATOM     32  C   UNL     1       5.995   6.020   5.209  1.00  0.00     0.029 A 
ATOM     33  C   UNL     1       5.534   5.742   6.495  1.00  0.00     0.049 A 
ATOM     34  H   UNL     1       6.836   4.985   7.962  1.00  0.00     0.167 HD
ATOM     35  C   UNL     1       3.863   5.252   8.252  1.00  0.00     0.074 A 
ATOM     36  C   UNL     1       4.476   4.119   8.911  1.00  0.00     0.031 C 
ATOM     37  C   UNL     1       4.331   6.036   7.236  1.00  0.00     0.037 A 
BRANCH  24  38
ATOM     38  C   UNL     1       9.052   2.818   6.634  1.00  0.00     0.057 A 
ATOM     39  C   UNL     1       9.973   2.315   5.717  1.00  0.00     0.134 A 
ATOM     40  C   UNL     1       9.537   3.402   7.811  1.00  0.00     0.134 A 
ATOM     41  F   UNL     1       9.563   1.743   4.575  1.00  0.00    -0.206 F 
ATOM     42  C   UNL     1      11.345   2.436   5.950  1.00  0.00     0.040 A 
ATOM     43  C   UNL     1      10.898   3.542   8.047  1.00  0.00     0.040 A 
ATOM     44  F   UNL     1       8.678   3.889   8.723  1.00  0.00    -0.206 F 
ATOM     45  C   UNL     1      11.808   3.069   7.107  1.00  0.00     0.006 A 
ENDBRANCH  24  38
BRANCH  25  46
ATOM     46  C   UNL     1       0.583   2.582  10.489  1.00  0.00     0.057 A 
ATOM     47  C   UNL     1       1.290   2.305  11.668  1.00  0.00     0.134 A 
ATOM     48  C   UNL     1      -0.763   2.174  10.484  1.00  0.00     0.134 A 
ATOM     49  F   UNL     1       2.535   2.752  11.868  1.00  0.00    -0.206 F 
ATOM     50  C   UNL     1       0.740   1.550  12.713  1.00  0.00     0.040 A 
ATOM     51  C   UNL     1      -1.337   1.447  11.533  1.00  0.00     0.040 A 
ATOM     52  F   UNL     1      -1.560   2.496   9.453  1.00  0.00    -0.206 F 
ATOM     53  C   UNL     1      -0.573   1.102  12.641  1.00  0.00     0.006 A 
ENDBRANCH  25  46
BRANCH  37  54
ATOM     54  C   UNL     1       3.381   7.075   6.753  1.00  0.00     0.057 A 
ATOM     55  C   UNL     1       2.791   7.020   5.484  1.00  0.00     0.134 A 
ATOM     56  C   UNL     1       3.051   8.158   7.574  1.00  0.00     0.134 A 
ATOM     57  F   UNL     1       3.036   5.996   4.649  1.00  0.00    -0.206 F 
ATOM     58  C   UNL     1       1.933   8.026   5.036  1.00  0.00     0.040 A 
ATOM     59  C   UNL     1       2.172   9.153   7.149  1.00  0.00     0.040 A 
ATOM     60  F   UNL     1       3.590   8.273   8.799  1.00  0.00    -0.206 F 
ATOM     61  C   UNL     1       1.619   9.095   5.872  1.00  0.00     0.006 A 
ENDBRANCH  37  54
ENDBRANCH  11  12
ENDBRANCH   4   6
ENDBRANCH   3   4
ENDBRANCH   2   3
ENDBRANCH   1   2
BRANCH   1  62
ATOM     62  O   UNL     1       3.170   1.413   0.723  1.00  0.00    -0.462 OA
BRANCH  62  63
ATOM     63  C   UNL     1       1.853   1.736   0.665  1.00  0.00     0.309 C 
ATOM     64  O   UNL     1       1.288   2.195  -0.316  1.00  0.00    -0.252 OA
BRANCH  63  65
ATOM     65  C   UNL     1       1.216   1.569   2.047  1.00  0.00     0.102 C 
ATOM     66  C   UNL     1       1.422   0.205   2.661  1.00  0.00     0.032 C 
ATOM     67  C   UNL     1      -0.269   1.820   2.097  1.00  0.00     0.032 C 
ATOM     68  C   UNL     1       0.679  -0.952   2.046  1.00  0.00     0.103 C 
ATOM     69  C   UNL     1      -1.032   0.746   1.342  1.00  0.00     0.103 C 
ATOM     70  N   UNL     1      -0.742  -0.653   1.783  1.00  0.00    -0.198 NA
BRANCH  70  71
ATOM     71  S   UNL     1      -1.392  -1.891   0.743  1.00  0.00     0.243 S 
ATOM     72  O   UNL     1      -1.071  -1.545  -0.630  1.00  0.00    -0.207 OA
ATOM     73  O   UNL     1      -1.023  -3.171   1.300  1.00  0.00    -0.207 OA
BRANCH  71  74
ATOM     74  C   UNL     1      -3.136  -1.686   0.964  1.00  0.00     0.084 A 
ATOM     75  C   UNL     1      -3.745  -0.537   0.465  1.00  0.00     0.024 A 
ATOM     76  C   UNL     1      -3.847  -2.644   1.695  1.00  0.00     0.043 A 
ATOM     77  C   UNL     1      -5.045  -0.221   0.844  1.00  0.00     0.031 A 
ATOM     78  C   UNL     1      -5.179  -2.342   2.004  1.00  0.00     0.059 A 
ATOM     79  C   UNL     1      -5.777  -1.134   1.624  1.00  0.00     0.085 A 
ATOM     80  S   UNL     1      -6.334  -3.279   2.876  1.00  0.00    -0.077 S 
ATOM     81  N   UNL     1      -7.074  -0.949   2.059  1.00  0.00    -0.203 NA
ATOM     82  C   UNL     1      -7.452  -2.016   2.705  1.00  0.00     0.271 A 
BRANCH  82  83
ATOM     83  O   UNL     1      -8.678  -2.062   3.187  1.00  0.00    -0.486 OA
ATOM     84  H   UNL     1      -9.256  -1.335   3.064  1.00  0.00     0.296 HD
ENDBRANCH  82  83
ENDBRANCH  71  74
ENDBRANCH  70  71
ENDBRANCH  63  65
ENDBRANCH  62  63
ENDBRANCH   1  62
TORSDOF 14
