REMARK SMILES COc1cccc([C@H]2CC(c3ccc(S(C)(=O)=O)cc3)=NN2c2ccc(C(=O)OCCOC(=O)c3ccc(-c4c5nc(c(-c6c(F)cccc6F)c6ccc([nH]6)c(-c6c(F)cccc6F)c6nc(c(-c7c(F)cccc7F)c7ccc4[nH]7)C=C6)C=C5)cc3)cc2)c1
REMARK SMILES IDX 30 1 29 2 27 3 28 4 26 5 23 6 24 7 90 8 25 9 89 10 22 11
REMARK SMILES IDX 8 12 9 13 10 14 21 15 7 16 3 17 4 18 91 19 5 20 6 21 2 22
REMARK SMILES IDX 1 23 11 24 12 25 20 26 13 27 19 28 14 29 15 30 16 31 17 32
REMARK SMILES IDX 18 33 31 34 32 35 33 36 34 37 35 38 36 39 88 40 37 41 87 42
REMARK SMILES IDX 38 43 39 44 40 45 81 46 41 47 86 48 80 49 82 50 42 51 85 52
REMARK SMILES IDX 79 53 78 54 43 56 69 57 52 58 68 59 53 60 56 61 67 62 83 63
REMARK SMILES IDX 54 64 55 65 66 67 84 68 57 69 44 70 45 71 50 72 46 73 47 74
REMARK SMILES IDX 49 75 51 76 48 77 70 78 71 79 76 80 72 81 73 82 75 83 77 84
REMARK SMILES IDX 74 85 58 86 59 87 64 88 60 89 61 90 63 91 65 92 62 93
REMARK H PARENT 82 55 56 66
REMARK Flexibility Score: inf
ROOT
ATOM      1  C   UNL     1       5.045   2.893   9.764  1.00  0.00     0.275 C 
ENDROOT
BRANCH   1   2
ATOM      2  O   UNL     1       5.205   1.867   8.761  1.00  0.00    -0.458 OA
BRANCH   2   3
ATOM      3  C   UNL     1       4.411   1.998   7.671  1.00  0.00     0.338 C 
ATOM      4  O   UNL     1       3.594   2.883   7.466  1.00  0.00    -0.246 OA
BRANCH   3   5
ATOM      5  C   UNL     1       4.700   0.948   6.672  1.00  0.00     0.060 A 
ATOM      6  C   UNL     1       4.981  -0.989   4.644  1.00  0.00     0.060 A 
ATOM      7  C   UNL     1       5.063   0.372   4.348  1.00  0.00     0.029 A 
ATOM      8  C   UNL     1       4.802  -1.365   5.985  1.00  0.00     0.029 A 
ATOM      9  C   UNL     1       4.880   1.327   5.340  1.00  0.00     0.018 A 
ATOM     10  C   UNL     1       4.686  -0.406   7.004  1.00  0.00     0.018 A 
BRANCH   6  11
ATOM     11  N   UNL     1       5.035  -1.913   3.612  1.00  0.00    -0.257 N 
ATOM     12  C   UNL     1       4.001  -2.916   3.355  1.00  0.00     0.144 C 
ATOM     13  C   UNL     1       4.443  -3.519   2.015  1.00  0.00     0.091 C 
ATOM     14  C   UNL     1       5.643  -2.664   1.719  1.00  0.00     0.071 C 
ATOM     15  N   UNL     1       5.939  -1.769   2.606  1.00  0.00    -0.176 NA
BRANCH  12  16
ATOM     16  C   UNL     1       2.596  -2.325   3.312  1.00  0.00    -0.019 A 
ATOM     17  C   UNL     1       0.891  -0.892   2.311  1.00  0.00     0.119 A 
ATOM     18  C   UNL     1      -0.002  -1.259   3.318  1.00  0.00     0.046 A 
ATOM     19  C   UNL     1       2.191  -1.407   2.321  1.00  0.00     0.052 A 
ATOM     20  C   UNL     1       0.385  -2.151   4.315  1.00  0.00     0.004 A 
ATOM     21  C   UNL     1       1.674  -2.682   4.311  1.00  0.00     0.006 A 
BRANCH  17  22
ATOM     22  O   UNL     1       0.390  -0.001   1.402  1.00  0.00    -0.497 OA
ATOM     23  C   UNL     1       1.022   0.023   0.129  1.00  0.00     0.278 C 
ENDBRANCH  17  22
ENDBRANCH  12  16
BRANCH  14  24
ATOM     24  C   UNL     1       6.470  -2.911   0.532  1.00  0.00    -0.002 A 
ATOM     25  C   UNL     1       7.835  -3.153   0.721  1.00  0.00     0.011 A 
ATOM     26  C   UNL     1       5.904  -2.953  -0.743  1.00  0.00     0.011 A 
ATOM     27  C   UNL     1       8.637  -3.486  -0.369  1.00  0.00     0.021 A 
ATOM     28  C   UNL     1       6.711  -3.258  -1.842  1.00  0.00     0.021 A 
ATOM     29  C   UNL     1       8.070  -3.534  -1.647  1.00  0.00     0.067 A 
BRANCH  29  30
ATOM     30  S   UNL     1       9.084  -4.027  -3.023  1.00  0.00     0.175 S 
ATOM     31  C   UNL     1      10.349  -2.788  -3.111  1.00  0.00     0.163 C 
ATOM     32  O   UNL     1       9.700  -5.286  -2.651  1.00  0.00    -0.224 OA
ATOM     33  O   UNL     1       8.276  -3.917  -4.223  1.00  0.00    -0.224 OA
ENDBRANCH  29  30
ENDBRANCH  14  24
ENDBRANCH   6  11
ENDBRANCH   3   5
ENDBRANCH   2   3
ENDBRANCH   1   2
BRANCH   1  34
ATOM     34  C   UNL     1       6.132   3.963   9.658  1.00  0.00     0.275 C 
BRANCH  34  35
ATOM     35  O   UNL     1       5.988   4.707   8.434  1.00  0.00    -0.458 OA
BRANCH  35  36
ATOM     36  C   UNL     1       6.999   4.567   7.547  1.00  0.00     0.338 C 
ATOM     37  O   UNL     1       8.028   3.928   7.685  1.00  0.00    -0.246 OA
BRANCH  36  38
ATOM     38  C   UNL     1       6.688   5.287   6.302  1.00  0.00     0.060 A 
ATOM     39  C   UNL     1       5.627   4.850   5.520  1.00  0.00     0.016 A 
ATOM     40  C   UNL     1       7.555   6.261   5.813  1.00  0.00     0.016 A 
ATOM     41  C   UNL     1       5.524   5.253   4.191  1.00  0.00     0.010 A 
ATOM     42  C   UNL     1       7.353   6.782   4.528  1.00  0.00     0.010 A 
ATOM     43  C   UNL     1       6.367   6.248   3.678  1.00  0.00    -0.014 A 
BRANCH  43  44
ATOM     44  C   UNL     1       6.226   6.714   2.264  1.00  0.00     0.031 A 
ATOM     45  C   UNL     1       7.418   6.722   1.337  1.00  0.00     0.074 A 
ATOM     46  C   UNL     1       5.031   7.133   1.797  1.00  0.00     0.049 A 
ATOM     47  N   UNL     1       7.549   7.283   0.160  1.00  0.00    -0.248 NA
ATOM     48  C   UNL     1       8.626   6.022   1.800  1.00  0.00     0.031 C 
ATOM     49  C   UNL     1       3.776   7.142   2.553  1.00  0.00     0.029 A 
ATOM     50  N   UNL     1       4.673   7.634   0.568  1.00  0.00    -0.354 N 
ATOM     51  C   UNL     1       8.867   7.061  -0.225  1.00  0.00     0.074 A 
ATOM     52  C   UNL     1       9.496   6.316   0.844  1.00  0.00     0.031 C 
ATOM     53  C   UNL     1       2.785   7.576   1.763  1.00  0.00     0.029 A 
ATOM     54  C   UNL     1       3.347   7.987   0.484  1.00  0.00     0.049 A 
ATOM     55  H   UNL     1       5.306   7.730  -0.180  1.00  0.00     0.167 HD
ATOM     56  C   UNL     1       9.494   7.446  -1.364  1.00  0.00     0.037 A 
ATOM     57  C   UNL     1       2.662   8.624  -0.483  1.00  0.00     0.037 A 
ATOM     58  C   UNL     1       8.848   8.134  -2.454  1.00  0.00     0.049 A 
ATOM     59  C   UNL     1       3.386   9.080  -1.715  1.00  0.00     0.074 A 
ATOM     60  C   UNL     1       9.392   8.543  -3.660  1.00  0.00     0.029 A 
ATOM     61  N   UNL     1       7.511   8.502  -2.475  1.00  0.00    -0.354 N 
ATOM     62  N   UNL     1       4.644   8.915  -2.041  1.00  0.00    -0.248 NA
ATOM     63  C   UNL     1       2.600   9.835  -2.701  1.00  0.00     0.031 C 
ATOM     64  C   UNL     1       8.394   9.193  -4.394  1.00  0.00     0.029 A 
ATOM     65  C   UNL     1       7.217   9.149  -3.665  1.00  0.00     0.049 A 
ATOM     66  H   UNL     1       6.866   8.329  -1.751  1.00  0.00     0.167 HD
ATOM     67  C   UNL     1       4.800   9.535  -3.273  1.00  0.00     0.074 A 
ATOM     68  C   UNL     1       3.502  10.059  -3.646  1.00  0.00     0.031 C 
ATOM     69  C   UNL     1       5.921   9.664  -4.023  1.00  0.00     0.037 A 
BRANCH  56  70
ATOM     70  C   UNL     1      10.966   7.166  -1.482  1.00  0.00     0.057 A 
ATOM     71  C   UNL     1      11.471   5.876  -1.685  1.00  0.00     0.134 A 
ATOM     72  C   UNL     1      11.891   8.219  -1.433  1.00  0.00     0.134 A 
ATOM     73  F   UNL     1      10.644   4.821  -1.734  1.00  0.00    -0.206 F 
ATOM     74  C   UNL     1      12.843   5.640  -1.812  1.00  0.00     0.040 A 
ATOM     75  C   UNL     1      13.261   7.999  -1.585  1.00  0.00     0.040 A 
ATOM     76  F   UNL     1      11.476   9.482  -1.251  1.00  0.00    -0.206 F 
ATOM     77  C   UNL     1      13.741   6.705  -1.769  1.00  0.00     0.006 A 
ENDBRANCH  56  70
BRANCH  57  78
ATOM     78  C   UNL     1       1.218   8.922  -0.293  1.00  0.00     0.057 A 
ATOM     79  C   UNL     1       0.240   8.292  -1.069  1.00  0.00     0.134 A 
ATOM     80  C   UNL     1       0.783   9.835   0.677  1.00  0.00     0.134 A 
ATOM     81  F   UNL     1       0.596   7.428  -2.031  1.00  0.00    -0.206 F 
ATOM     82  C   UNL     1      -1.118   8.563  -0.894  1.00  0.00     0.040 A 
ATOM     83  C   UNL     1      -0.573  10.092   0.885  1.00  0.00     0.040 A 
ATOM     84  F   UNL     1       1.670  10.472   1.455  1.00  0.00    -0.206 F 
ATOM     85  C   UNL     1      -1.528   9.458   0.093  1.00  0.00     0.006 A 
ENDBRANCH  57  78
BRANCH  69  86
ATOM     86  C   UNL     1       5.781  10.375  -5.336  1.00  0.00     0.057 A 
ATOM     87  C   UNL     1       5.610  11.763  -5.408  1.00  0.00     0.134 A 
ATOM     88  C   UNL     1       5.838   9.665  -6.542  1.00  0.00     0.134 A 
ATOM     89  F   UNL     1       5.530  12.498  -4.289  1.00  0.00    -0.206 F 
ATOM     90  C   UNL     1       5.478  12.418  -6.634  1.00  0.00     0.040 A 
ATOM     91  C   UNL     1       5.732  10.311  -7.774  1.00  0.00     0.040 A 
ATOM     92  F   UNL     1       6.005   8.334  -6.541  1.00  0.00    -0.206 F 
ATOM     93  C   UNL     1       5.545  11.691  -7.822  1.00  0.00     0.006 A 
ENDBRANCH  69  86
ENDBRANCH  43  44
ENDBRANCH  36  38
ENDBRANCH  35  36
ENDBRANCH  34  35
ENDBRANCH   1  34
TORSDOF 16
