REMARK SMILES O=C(OCCOC(=O)c1ccc(-c2c3nc(c(-c4c(F)cccc4F)c4ccc([nH]4)c(-c4c(F)cccc4F)c4nc(c(-c5c(F)cccc5F)c5ccc2[nH]5)C=C4)C=C3)cc1)c1ccc(CN2C(=O)CSC2=S)cc1
REMARK SMILES IDX 4 1 3 2 2 3 1 4 63 5 64 6 76 7 65 8 75 9 66 10 67 11 68 12
REMARK SMILES IDX 69 13 73 14 70 15 71 16 72 17 74 18 5 19 6 20 7 21 8 22 9 23
REMARK SMILES IDX 10 24 62 25 11 26 61 27 12 28 13 29 14 30 55 31 15 32 60 33
REMARK SMILES IDX 54 34 56 35 16 36 59 37 53 38 52 39 17 41 43 42 26 43 42 44
REMARK SMILES IDX 27 45 30 46 41 47 57 48 28 49 29 50 40 52 58 53 31 54 18 55
REMARK SMILES IDX 19 56 24 57 20 58 21 59 23 60 25 61 22 62 44 63 45 64 50 65
REMARK SMILES IDX 46 66 47 67 49 68 51 69 48 70 32 71 33 72 38 73 34 74 35 75
REMARK SMILES IDX 37 76 39 77 36 78
REMARK H PARENT 56 40 30 51
REMARK Flexibility Score: inf
ROOT
ATOM      1  C   UNL     1       3.954  -1.210  -0.815  1.00  0.00     0.275 C 
ENDROOT
BRANCH   1   2
ATOM      2  O   UNL     1       2.832  -1.000   0.063  1.00  0.00    -0.458 OA
BRANCH   2   3
ATOM      3  C   UNL     1       2.740  -0.245   1.185  1.00  0.00     0.338 C 
ATOM      4  O   UNL     1       1.854  -0.516   1.995  1.00  0.00    -0.246 OA
BRANCH   3   5
ATOM      5  C   UNL     1       3.559   0.990   1.443  1.00  0.00     0.060 A 
ATOM      6  C   UNL     1       4.684   1.396   0.732  1.00  0.00     0.016 A 
ATOM      7  C   UNL     1       3.110   1.849   2.466  1.00  0.00     0.016 A 
ATOM      8  C   UNL     1       5.276   2.640   0.952  1.00  0.00     0.006 A 
ATOM      9  C   UNL     1       3.740   3.076   2.730  1.00  0.00     0.006 A 
ATOM     10  C   UNL     1       4.816   3.499   1.951  1.00  0.00    -0.028 A 
BRANCH  10  11
ATOM     11  C   UNL     1       5.496   4.836   2.171  1.00  0.00     0.162 C 
BRANCH  11  12
ATOM     12  N   UNL     1       6.877   4.637   2.610  1.00  0.00    -0.293 N 
ATOM     13  C   UNL     1       7.868   4.500   1.654  1.00  0.00     0.238 C 
ATOM     14  C   UNL     1       7.266   4.527   3.925  1.00  0.00     0.143 C 
ATOM     15  O   UNL     1       7.734   4.712   0.453  1.00  0.00    -0.273 OA
ATOM     16  C   UNL     1       9.143   3.966   2.241  1.00  0.00     0.177 C 
ATOM     17  S   UNL     1       8.986   4.185   4.018  1.00  0.00    -0.086 SA
ATOM     18  S   UNL     1       6.331   4.685   5.296  1.00  0.00    -0.052 S 
ENDBRANCH  11  12
ENDBRANCH  10  11
ENDBRANCH   3   5
ENDBRANCH   2   3
ENDBRANCH   1   2
BRANCH   1  19
ATOM     19  C   UNL     1       3.843  -0.406  -2.119  1.00  0.00     0.275 C 
BRANCH  19  20
ATOM     20  O   UNL     1       3.506   0.974  -1.883  1.00  0.00    -0.458 OA
BRANCH  20  21
ATOM     21  C   UNL     1       2.179   1.259  -1.937  1.00  0.00     0.338 C 
ATOM     22  O   UNL     1       1.299   0.507  -2.325  1.00  0.00    -0.246 OA
BRANCH  21  23
ATOM     23  C   UNL     1       1.895   2.581  -1.324  1.00  0.00     0.060 A 
ATOM     24  C   UNL     1       0.684   2.722  -0.634  1.00  0.00     0.016 A 
ATOM     25  C   UNL     1       2.767   3.672  -1.415  1.00  0.00     0.016 A 
ATOM     26  C   UNL     1       0.328   3.950  -0.070  1.00  0.00     0.010 A 
ATOM     27  C   UNL     1       2.414   4.902  -0.834  1.00  0.00     0.010 A 
ATOM     28  C   UNL     1       1.179   5.059  -0.179  1.00  0.00    -0.014 A 
BRANCH  28  29
ATOM     29  C   UNL     1       0.725   6.386   0.322  1.00  0.00     0.031 A 
ATOM     30  C   UNL     1       0.250   7.435  -0.648  1.00  0.00     0.074 A 
ATOM     31  C   UNL     1       0.682   6.654   1.642  1.00  0.00     0.049 A 
ATOM     32  N   UNL     1      -0.265   8.615  -0.403  1.00  0.00    -0.248 NA
ATOM     33  C   UNL     1       0.362   7.113  -2.078  1.00  0.00     0.031 C 
ATOM     34  C   UNL     1       1.082   5.735   2.703  1.00  0.00     0.029 A 
ATOM     35  N   UNL     1       0.275   7.782   2.315  1.00  0.00    -0.354 N 
ATOM     36  C   UNL     1      -0.567   9.162  -1.642  1.00  0.00     0.074 A 
ATOM     37  C   UNL     1      -0.119   8.213  -2.640  1.00  0.00     0.031 C 
ATOM     38  C   UNL     1       0.923   6.339   3.893  1.00  0.00     0.029 A 
ATOM     39  C   UNL     1       0.398   7.686   3.680  1.00  0.00     0.049 A 
ATOM     40  H   UNL     1      -0.072   8.583   1.861  1.00  0.00     0.167 HD
ATOM     41  C   UNL     1      -1.189  10.330  -1.929  1.00  0.00     0.037 A 
ATOM     42  C   UNL     1       0.112   8.575   4.651  1.00  0.00     0.037 A 
ATOM     43  C   UNL     1      -1.640  11.288  -0.954  1.00  0.00     0.049 A 
ATOM     44  C   UNL     1      -0.505   9.903   4.300  1.00  0.00     0.074 A 
ATOM     45  C   UNL     1      -2.309  12.483  -1.166  1.00  0.00     0.029 A 
ATOM     46  N   UNL     1      -1.461  11.171   0.414  1.00  0.00    -0.354 N 
ATOM     47  N   UNL     1      -0.855  10.370   3.127  1.00  0.00    -0.248 NA
ATOM     48  C   UNL     1      -0.789  10.819   5.417  1.00  0.00     0.031 C 
ATOM     49  C   UNL     1      -2.495  13.109   0.071  1.00  0.00     0.029 A 
ATOM     50  C   UNL     1      -1.980  12.285   1.056  1.00  0.00     0.049 A 
ATOM     51  H   UNL     1      -1.028  10.409   0.864  1.00  0.00     0.167 HD
ATOM     52  C   UNL     1      -1.433  11.611   3.369  1.00  0.00     0.074 A 
ATOM     53  C   UNL     1      -1.396  11.822   4.799  1.00  0.00     0.031 C 
ATOM     54  C   UNL     1      -1.953  12.492   2.480  1.00  0.00     0.037 A 
BRANCH  41  55
ATOM     55  C   UNL     1      -1.436  10.638  -3.375  1.00  0.00     0.057 A 
ATOM     56  C   UNL     1      -2.435   9.977  -4.101  1.00  0.00     0.134 A 
ATOM     57  C   UNL     1      -0.712  11.642  -4.030  1.00  0.00     0.134 A 
ATOM     58  F   UNL     1      -3.155   8.999  -3.531  1.00  0.00    -0.206 F 
ATOM     59  C   UNL     1      -2.696  10.293  -5.435  1.00  0.00     0.040 A 
ATOM     60  C   UNL     1      -0.978  11.981  -5.357  1.00  0.00     0.040 A 
ATOM     61  F   UNL     1       0.253  12.316  -3.387  1.00  0.00    -0.206 F 
ATOM     62  C   UNL     1      -1.971  11.304  -6.064  1.00  0.00     0.006 A 
ENDBRANCH  41  55
BRANCH  42  63
ATOM     63  C   UNL     1       0.390   8.246   6.072  1.00  0.00     0.057 A 
ATOM     64  C   UNL     1      -0.648   8.028   6.985  1.00  0.00     0.134 A 
ATOM     65  C   UNL     1       1.701   8.210   6.560  1.00  0.00     0.134 A 
ATOM     66  F   UNL     1      -1.925   8.078   6.579  1.00  0.00    -0.206 F 
ATOM     67  C   UNL     1      -0.394   7.817   8.341  1.00  0.00     0.040 A 
ATOM     68  C   UNL     1       1.971   7.977   7.909  1.00  0.00     0.040 A 
ATOM     69  F   UNL     1       2.738   8.414   5.733  1.00  0.00    -0.206 F 
ATOM     70  C   UNL     1       0.920   7.791   8.806  1.00  0.00     0.006 A 
ENDBRANCH  42  63
BRANCH  54  71
ATOM     71  C   UNL     1      -2.557  13.754   3.028  1.00  0.00     0.057 A 
ATOM     72  C   UNL     1      -1.769  14.782   3.561  1.00  0.00     0.134 A 
ATOM     73  C   UNL     1      -3.943  13.955   2.996  1.00  0.00     0.134 A 
ATOM     74  F   UNL     1      -0.436  14.648   3.634  1.00  0.00    -0.206 F 
ATOM     75  C   UNL     1      -2.339  15.952   4.066  1.00  0.00     0.040 A 
ATOM     76  C   UNL     1      -4.523  15.132   3.474  1.00  0.00     0.040 A 
ATOM     77  F   UNL     1      -4.757  13.015   2.491  1.00  0.00    -0.206 F 
ATOM     78  C   UNL     1      -3.720  16.132   4.018  1.00  0.00     0.006 A 
ENDBRANCH  54  71
ENDBRANCH  28  29
ENDBRANCH  21  23
ENDBRANCH  20  21
ENDBRANCH  19  20
ENDBRANCH   1  19
TORSDOF 13
