REMARK SMILES O=C(/C=C/C(=O)OCCOC(=O)c1ccc(-c2c3nc(c(-c4c(F)cccc4F)c4ccc([nH]4)c(-c4c(F)cccc4F)c4nc(c(-c5c(F)cccc5F)c5ccc2[nH]5)C=C4)C=C3)cc1)NNC(=O)CSc1ccc2ccccc2n1
REMARK SMILES IDX 7 1 5 2 6 3 4 4 3 5 2 6 1 7 67 8 68 10 69 11 70 13 71 14
REMARK SMILES IDX 72 15 73 16 74 17 82 18 75 19 81 20 76 21 80 22 77 23 79 24
REMARK SMILES IDX 78 25 8 26 9 27 10 28 11 29 12 30 13 31 14 32 66 33 15 34
REMARK SMILES IDX 65 35 16 36 17 37 18 38 59 39 19 40 64 41 58 42 60 43 20 44
REMARK SMILES IDX 63 45 57 46 56 47 21 49 47 50 30 51 46 52 31 53 34 54 45 55
REMARK SMILES IDX 61 56 32 57 33 58 44 60 62 61 35 62 22 63 23 64 28 65 24 66
REMARK SMILES IDX 25 67 27 68 29 69 26 70 48 71 49 72 54 73 50 74 51 75 53 76
REMARK SMILES IDX 55 77 52 78 36 79 37 80 42 81 38 82 39 83 41 84 43 85 40 86
REMARK H PARENT 67 9 68 12 60 48 34 59
REMARK Flexibility Score: inf
ROOT
ATOM      1  O   UNL     1       4.261   3.213  -1.753  1.00  0.00    -0.459 OA
ENDROOT
BRANCH   1   2
ATOM      2  C   UNL     1       4.710   1.964  -2.014  1.00  0.00     0.331 C 
ATOM      3  O   UNL     1       5.740   1.671  -2.602  1.00  0.00    -0.247 OA
BRANCH   2   4
ATOM      4  C   UNL     1       3.861   0.914  -1.418  1.00  0.00     0.099 C 
ATOM      5  C   UNL     1       2.787   1.139  -0.649  1.00  0.00     0.080 C 
BRANCH   5   6
ATOM      6  C   UNL     1       2.051   0.022  -0.011  1.00  0.00     0.262 C 
ATOM      7  O   UNL     1       0.829   0.037   0.065  1.00  0.00    -0.268 OA
ATOM      8  N   UNL     1       2.863  -0.929   0.575  1.00  0.00    -0.264 N 
ATOM      9  H   UNL     1       3.842  -0.875   0.486  1.00  0.00     0.191 HD
BRANCH   8  10
ATOM     10  N   UNL     1       2.272  -1.967   1.293  1.00  0.00    -0.267 N 
ATOM     11  C   UNL     1       2.669  -3.282   1.244  1.00  0.00     0.248 C 
ATOM     12  H   UNL     1       1.514  -1.741   1.879  1.00  0.00     0.191 HD
ATOM     13  O   UNL     1       2.083  -4.121   1.931  1.00  0.00    -0.272 OA
BRANCH  11  14
ATOM     14  C   UNL     1       3.837  -3.663   0.350  1.00  0.00     0.178 C 
BRANCH  14  15
ATOM     15  S   UNL     1       3.193  -4.159  -1.277  1.00  0.00    -0.096 SA
BRANCH  15  16
ATOM     16  C   UNL     1       4.652  -4.213  -2.291  1.00  0.00     0.097 A 
ATOM     17  C   UNL     1       5.939  -4.410  -1.810  1.00  0.00     0.036 A 
ATOM     18  N   UNL     1       4.399  -4.042  -3.608  1.00  0.00    -0.241 NA
ATOM     19  C   UNL     1       7.003  -4.386  -2.711  1.00  0.00     0.013 A 
ATOM     20  C   UNL     1       5.419  -4.038  -4.481  1.00  0.00     0.072 A 
ATOM     21  C   UNL     1       6.759  -4.184  -4.074  1.00  0.00     0.000 A 
ATOM     22  C   UNL     1       5.155  -3.876  -5.834  1.00  0.00     0.029 A 
ATOM     23  C   UNL     1       7.796  -4.123  -5.023  1.00  0.00     0.010 A 
ATOM     24  C   UNL     1       6.181  -3.818  -6.781  1.00  0.00     0.002 A 
ATOM     25  C   UNL     1       7.505  -3.930  -6.373  1.00  0.00     0.001 A 
ENDBRANCH  15  16
ENDBRANCH  14  15
ENDBRANCH  11  14
ENDBRANCH   8  10
ENDBRANCH   5   6
ENDBRANCH   2   4
ENDBRANCH   1   2
BRANCH   1  26
ATOM     26  C   UNL     1       5.120   4.290  -2.176  1.00  0.00     0.275 C 
BRANCH  26  27
ATOM     27  C   UNL     1       5.928   4.866  -1.007  1.00  0.00     0.275 C 
BRANCH  27  28
ATOM     28  O   UNL     1       6.905   3.934  -0.505  1.00  0.00    -0.458 OA
BRANCH  28  29
ATOM     29  C   UNL     1       6.464   3.114   0.475  1.00  0.00     0.338 C 
ATOM     30  O   UNL     1       5.349   3.094   0.978  1.00  0.00    -0.246 OA
BRANCH  29  31
ATOM     31  C   UNL     1       7.476   2.091   0.784  1.00  0.00     0.060 A 
ATOM     32  C   UNL     1       7.059   0.756   0.776  1.00  0.00     0.016 A 
ATOM     33  C   UNL     1       8.786   2.421   1.141  1.00  0.00     0.016 A 
ATOM     34  C   UNL     1       7.944  -0.255   1.135  1.00  0.00     0.010 A 
ATOM     35  C   UNL     1       9.677   1.401   1.500  1.00  0.00     0.010 A 
ATOM     36  C   UNL     1       9.258   0.060   1.508  1.00  0.00    -0.014 A 
BRANCH  36  37
ATOM     37  C   UNL     1      10.168  -1.036   1.918  1.00  0.00     0.031 A 
ATOM     38  C   UNL     1      10.482  -1.262   3.368  1.00  0.00     0.074 A 
ATOM     39  C   UNL     1      10.666  -1.864   0.982  1.00  0.00     0.049 A 
ATOM     40  N   UNL     1      11.216  -2.197   3.917  1.00  0.00    -0.248 NA
ATOM     41  C   UNL     1       9.891  -0.317   4.326  1.00  0.00     0.031 C 
ATOM     42  C   UNL     1      10.417  -1.758  -0.456  1.00  0.00     0.029 A 
ATOM     43  N   UNL     1      11.477  -2.963   1.102  1.00  0.00    -0.354 N 
ATOM     44  C   UNL     1      11.181  -1.952   5.284  1.00  0.00     0.074 A 
ATOM     45  C   UNL     1      10.373  -0.766   5.477  1.00  0.00     0.031 C 
ATOM     46  C   UNL     1      11.052  -2.760  -1.084  1.00  0.00     0.029 A 
ATOM     47  C   UNL     1      11.776  -3.559  -0.098  1.00  0.00     0.049 A 
ATOM     48  H   UNL     1      11.813  -3.294   1.967  1.00  0.00     0.167 HD
ATOM     49  C   UNL     1      11.762  -2.656   6.285  1.00  0.00     0.037 A 
ATOM     50  C   UNL     1      12.555  -4.621  -0.373  1.00  0.00     0.037 A 
ATOM     51  C   UNL     1      12.564  -3.837   6.092  1.00  0.00     0.049 A 
ATOM     52  C   UNL     1      13.235  -5.351   0.751  1.00  0.00     0.074 A 
ATOM     53  C   UNL     1      13.164  -4.639   7.048  1.00  0.00     0.029 A 
ATOM     54  N   UNL     1      12.889  -4.379   4.858  1.00  0.00    -0.354 N 
ATOM     55  N   UNL     1      13.164  -5.130   2.041  1.00  0.00    -0.248 NA
ATOM     56  C   UNL     1      14.104  -6.476   0.379  1.00  0.00     0.031 C 
ATOM     57  C   UNL     1      13.889  -5.640   6.390  1.00  0.00     0.029 A 
ATOM     58  C   UNL     1      13.705  -5.487   5.025  1.00  0.00     0.049 A 
ATOM     59  H   UNL     1      12.585  -4.028   3.990  1.00  0.00     0.167 HD
ATOM     60  C   UNL     1      13.966  -6.095   2.636  1.00  0.00     0.074 A 
ATOM     61  C   UNL     1      14.499  -6.914   1.566  1.00  0.00     0.031 C 
ATOM     62  C   UNL     1      14.237  -6.286   3.951  1.00  0.00     0.037 A 
BRANCH  49  63
ATOM     63  C   UNL     1      11.568  -2.150   7.684  1.00  0.00     0.057 A 
ATOM     64  C   UNL     1      10.344  -2.272   8.352  1.00  0.00     0.134 A 
ATOM     65  C   UNL     1      12.628  -1.554   8.379  1.00  0.00     0.134 A 
ATOM     66  F   UNL     1       9.285  -2.821   7.737  1.00  0.00    -0.206 F 
ATOM     67  C   UNL     1      10.173  -1.797   9.654  1.00  0.00     0.040 A 
ATOM     68  C   UNL     1      12.476  -1.095   9.689  1.00  0.00     0.040 A 
ATOM     69  F   UNL     1      13.829  -1.411   7.798  1.00  0.00    -0.206 F 
ATOM     70  C   UNL     1      11.243  -1.211  10.328  1.00  0.00     0.006 A 
ENDBRANCH  49  63
BRANCH  50  71
ATOM     71  C   UNL     1      12.731  -5.059  -1.778  1.00  0.00     0.057 A 
ATOM     72  C   UNL     1      12.145  -6.241  -2.245  1.00  0.00     0.134 A 
ATOM     73  C   UNL     1      13.479  -4.303  -2.688  1.00  0.00     0.134 A 
ATOM     74  F   UNL     1      11.430  -7.013  -1.414  1.00  0.00    -0.206 F 
ATOM     75  C   UNL     1      12.305  -6.661  -3.566  1.00  0.00     0.040 A 
ATOM     76  C   UNL     1      13.629  -4.700  -4.017  1.00  0.00     0.040 A 
ATOM     77  F   UNL     1      14.060  -3.158  -2.300  1.00  0.00    -0.206 F 
ATOM     78  C   UNL     1      13.044  -5.886  -4.457  1.00  0.00     0.006 A 
ENDBRANCH  50  71
BRANCH  62  79
ATOM     79  C   UNL     1      15.139  -7.432   4.302  1.00  0.00     0.057 A 
ATOM     80  C   UNL     1      16.518  -7.384   4.062  1.00  0.00     0.134 A 
ATOM     81  C   UNL     1      14.627  -8.588   4.905  1.00  0.00     0.134 A 
ATOM     82  F   UNL     1      17.068  -6.311   3.473  1.00  0.00    -0.206 F 
ATOM     83  C   UNL     1      17.353  -8.454   4.389  1.00  0.00     0.040 A 
ATOM     84  C   UNL     1      15.456  -9.655   5.258  1.00  0.00     0.040 A 
ATOM     85  F   UNL     1      13.316  -8.696   5.168  1.00  0.00    -0.206 F 
ATOM     86  C   UNL     1      16.822  -9.591   4.994  1.00  0.00     0.006 A 
ENDBRANCH  62  79
ENDBRANCH  36  37
ENDBRANCH  29  31
ENDBRANCH  28  29
ENDBRANCH  27  28
ENDBRANCH  26  27
ENDBRANCH   1  26
TORSDOF 16
