REMARK SMILES COc1cc([C@H]2CC(c3ccc(S(C)(=O)=O)cc3)=NN2c2ccc(C(=O)OCCOC(=O)c3ccc(-c4c5nc(c(-c6c(F)cccc6F)c6ccc([nH]6)c(-c6c(F)cccc6F)c6nc(c(-c7c(F)cccc7F)c7ccc4[nH]7)C=C6)C=C5)cc3)cc2)cc(OC)c1OC
REMARK SMILES IDX 28 1 27 2 25 3 26 4 24 5 21 6 22 7 88 8 23 9 87 10 20 11
REMARK SMILES IDX 6 12 7 13 8 14 19 15 5 16 3 17 4 18 93 19 90 20 89 21 2 22
REMARK SMILES IDX 1 23 94 24 95 25 91 26 92 27 9 28 10 29 18 30 11 31 17 32
REMARK SMILES IDX 12 33 13 34 14 35 15 36 16 37 29 38 30 39 31 40 32 41 33 42
REMARK SMILES IDX 34 43 86 44 35 45 85 46 36 47 37 48 38 49 79 50 39 51 84 52
REMARK SMILES IDX 78 53 80 54 40 55 83 56 77 57 76 58 41 60 67 61 50 62 66 63
REMARK SMILES IDX 51 64 54 65 65 66 81 67 52 68 53 69 64 71 82 72 55 73 42 74
REMARK SMILES IDX 43 75 48 76 44 77 45 78 47 79 49 80 46 81 68 82 69 83 74 84
REMARK SMILES IDX 70 85 71 86 73 87 75 88 72 89 56 90 57 91 62 92 58 93 59 94
REMARK SMILES IDX 61 95 63 96 60 97
REMARK H PARENT 80 59 54 70
REMARK Flexibility Score: inf
ROOT
ATOM      1  C   UNL     1      -0.601   6.616  -7.530  1.00  0.00     0.275 C 
ENDROOT
BRANCH   1   2
ATOM      2  O   UNL     1      -0.825   6.700  -6.106  1.00  0.00    -0.458 OA
BRANCH   2   3
ATOM      3  C   UNL     1       0.280   6.509  -5.344  1.00  0.00     0.338 C 
ATOM      4  O   UNL     1       1.412   6.298  -5.743  1.00  0.00    -0.246 OA
BRANCH   3   5
ATOM      5  C   UNL     1      -0.032   6.645  -3.906  1.00  0.00     0.060 A 
ATOM      6  C   UNL     1      -0.330   6.725  -1.099  1.00  0.00     0.060 A 
ATOM      7  C   UNL     1       0.609   7.531  -1.750  1.00  0.00     0.029 A 
ATOM      8  C   UNL     1      -1.154   5.912  -1.893  1.00  0.00     0.029 A 
ATOM      9  C   UNL     1       0.779   7.469  -3.128  1.00  0.00     0.018 A 
ATOM     10  C   UNL     1      -1.023   5.880  -3.292  1.00  0.00     0.018 A 
BRANCH   6  11
ATOM     11  N   UNL     1      -0.402   6.761   0.284  1.00  0.00    -0.257 N 
ATOM     12  C   UNL     1      -0.586   5.612   1.173  1.00  0.00     0.144 C 
ATOM     13  C   UNL     1      -0.560   6.263   2.569  1.00  0.00     0.091 C 
ATOM     14  C   UNL     1      -0.292   7.694   2.197  1.00  0.00     0.071 C 
ATOM     15  N   UNL     1      -0.210   7.944   0.931  1.00  0.00    -0.176 NA
BRANCH  12  16
ATOM     16  C   UNL     1       0.483   4.541   0.974  1.00  0.00    -0.015 A 
ATOM     17  C   UNL     1       1.145   2.336   0.145  1.00  0.00     0.164 A 
ATOM     18  C   UNL     1       0.168   3.328   0.347  1.00  0.00     0.056 A 
ATOM     19  C   UNL     1       2.479   2.530   0.553  1.00  0.00     0.203 A 
ATOM     20  C   UNL     1       2.807   3.751   1.176  1.00  0.00     0.164 A 
ATOM     21  C   UNL     1       1.816   4.736   1.362  1.00  0.00     0.056 A 
BRANCH  17  22
ATOM     22  O   UNL     1       0.787   1.224  -0.579  1.00  0.00    -0.493 OA
ATOM     23  C   UNL     1      -0.120   0.384   0.134  1.00  0.00     0.278 C 
ENDBRANCH  17  22
BRANCH  19  24
ATOM     24  O   UNL     1       3.502   1.647   0.334  1.00  0.00    -0.490 OA
ATOM     25  C   UNL     1       3.216   0.265   0.188  1.00  0.00     0.278 C 
ENDBRANCH  19  24
BRANCH  20  26
ATOM     26  O   UNL     1       4.022   4.164   1.666  1.00  0.00    -0.493 OA
ATOM     27  C   UNL     1       5.130   3.279   1.621  1.00  0.00     0.278 C 
ENDBRANCH  20  26
ENDBRANCH  12  16
BRANCH  14  28
ATOM     28  C   UNL     1      -0.217   8.749   3.214  1.00  0.00    -0.002 A 
ATOM     29  C   UNL     1      -1.151   9.791   3.161  1.00  0.00     0.011 A 
ATOM     30  C   UNL     1       0.759   8.714   4.211  1.00  0.00     0.011 A 
ATOM     31  C   UNL     1      -1.140  10.785   4.141  1.00  0.00     0.021 A 
ATOM     32  C   UNL     1       0.789   9.722   5.179  1.00  0.00     0.021 A 
ATOM     33  C   UNL     1      -0.166  10.745   5.146  1.00  0.00     0.067 A 
BRANCH  33  34
ATOM     34  S   UNL     1      -0.208  11.972   6.435  1.00  0.00     0.175 S 
ATOM     35  C   UNL     1       0.093  13.509   5.606  1.00  0.00     0.163 C 
ATOM     36  O   UNL     1      -1.559  11.986   6.950  1.00  0.00    -0.224 OA
ATOM     37  O   UNL     1       0.924  11.720   7.314  1.00  0.00    -0.224 OA
ENDBRANCH  33  34
ENDBRANCH  14  28
ENDBRANCH   6  11
ENDBRANCH   3   5
ENDBRANCH   2   3
ENDBRANCH   1   2
BRANCH   1  38
ATOM     38  C   UNL     1      -0.404   7.994  -8.162  1.00  0.00     0.275 C 
BRANCH  38  39
ATOM     39  O   UNL     1       0.816   8.600  -7.693  1.00  0.00    -0.458 OA
BRANCH  39  40
ATOM     40  C   UNL     1       0.665   9.758  -7.016  1.00  0.00     0.338 C 
ATOM     41  O   UNL     1      -0.375  10.361  -6.796  1.00  0.00    -0.246 OA
BRANCH  40  42
ATOM     42  C   UNL     1       1.962  10.244  -6.518  1.00  0.00     0.060 A 
ATOM     43  C   UNL     1       2.646   9.501  -5.563  1.00  0.00     0.016 A 
ATOM     44  C   UNL     1       2.395  11.529  -6.837  1.00  0.00     0.016 A 
ATOM     45  C   UNL     1       3.648  10.097  -4.800  1.00  0.00     0.010 A 
ATOM     46  C   UNL     1       3.499  12.073  -6.169  1.00  0.00     0.010 A 
ATOM     47  C   UNL     1       4.100  11.392  -5.094  1.00  0.00    -0.014 A 
BRANCH  47  48
ATOM     48  C   UNL     1       5.152  12.048  -4.258  1.00  0.00     0.031 A 
ATOM     49  C   UNL     1       4.900  13.402  -3.637  1.00  0.00     0.074 A 
ATOM     50  C   UNL     1       6.335  11.440  -4.032  1.00  0.00     0.049 A 
ATOM     51  N   UNL     1       5.743  14.222  -3.058  1.00  0.00    -0.248 NA
ATOM     52  C   UNL     1       3.520  13.911  -3.691  1.00  0.00     0.031 C 
ATOM     53  C   UNL     1       6.719  10.113  -4.519  1.00  0.00     0.029 A 
ATOM     54  N   UNL     1       7.437  11.858  -3.323  1.00  0.00    -0.354 N 
ATOM     55  C   UNL     1       5.014  15.365  -2.748  1.00  0.00     0.074 A 
ATOM     56  C   UNL     1       3.660  15.135  -3.202  1.00  0.00     0.031 C 
ATOM     57  C   UNL     1       7.939   9.807  -4.055  1.00  0.00     0.029 A 
ATOM     58  C   UNL     1       8.470  10.952  -3.325  1.00  0.00     0.049 A 
ATOM     59  H   UNL     1       7.481  12.725  -2.858  1.00  0.00     0.167 HD
ATOM     60  C   UNL     1       5.435  16.503  -2.142  1.00  0.00     0.037 A 
ATOM     61  C   UNL     1       9.723  11.040  -2.840  1.00  0.00     0.037 A 
ATOM     62  C   UNL     1       6.763  16.704  -1.621  1.00  0.00     0.049 A 
ATOM     63  C   UNL     1      10.170  12.311  -2.179  1.00  0.00     0.074 A 
ATOM     64  C   UNL     1       7.279  17.816  -0.977  1.00  0.00     0.029 A 
ATOM     65  N   UNL     1       7.779  15.760  -1.661  1.00  0.00    -0.354 N 
ATOM     66  N   UNL     1       9.492  13.410  -1.960  1.00  0.00    -0.248 NA
ATOM     67  C   UNL     1      11.564  12.361  -1.717  1.00  0.00     0.031 C 
ATOM     68  C   UNL     1       8.615  17.556  -0.652  1.00  0.00     0.029 A 
ATOM     69  C   UNL     1       8.918  16.267  -1.057  1.00  0.00     0.049 A 
ATOM     70  H   UNL     1       7.701  14.863  -2.059  1.00  0.00     0.167 HD
ATOM     71  C   UNL     1      10.370  14.276  -1.323  1.00  0.00     0.074 A 
ATOM     72  C   UNL     1      11.624  13.568  -1.174  1.00  0.00     0.031 C 
ATOM     73  C   UNL     1      10.156  15.547  -0.905  1.00  0.00     0.037 A 
BRANCH  60  74
ATOM     74  C   UNL     1       4.457  17.638  -2.034  1.00  0.00     0.057 A 
ATOM     75  C   UNL     1       3.380  17.618  -1.140  1.00  0.00     0.134 A 
ATOM     76  C   UNL     1       4.625  18.790  -2.816  1.00  0.00     0.134 A 
ATOM     77  F   UNL     1       3.155  16.544  -0.369  1.00  0.00    -0.206 F 
ATOM     78  C   UNL     1       2.491  18.692  -1.045  1.00  0.00     0.040 A 
ATOM     79  C   UNL     1       3.758  19.879  -2.712  1.00  0.00     0.040 A 
ATOM     80  F   UNL     1       5.642  18.880  -3.687  1.00  0.00    -0.206 F 
ATOM     81  C   UNL     1       2.683  19.829  -1.828  1.00  0.00     0.006 A 
ENDBRANCH  60  74
BRANCH  61  82
ATOM     82  C   UNL     1      10.659   9.898  -3.000  1.00  0.00     0.057 A 
ATOM     83  C   UNL     1      11.078   9.146  -1.898  1.00  0.00     0.134 A 
ATOM     84  C   UNL     1      11.149   9.526  -4.259  1.00  0.00     0.134 A 
ATOM     85  F   UNL     1      10.665   9.468  -0.663  1.00  0.00    -0.206 F 
ATOM     86  C   UNL     1      11.956   8.069  -2.039  1.00  0.00     0.040 A 
ATOM     87  C   UNL     1      12.003   8.435  -4.418  1.00  0.00     0.040 A 
ATOM     88  F   UNL     1      10.784  10.207  -5.356  1.00  0.00    -0.206 F 
ATOM     89  C   UNL     1      12.413   7.706  -3.304  1.00  0.00     0.006 A 
ENDBRANCH  61  82
BRANCH  73  90
ATOM     90  C   UNL     1      11.292  16.235  -0.208  1.00  0.00     0.057 A 
ATOM     91  C   UNL     1      12.412  16.704  -0.907  1.00  0.00     0.134 A 
ATOM     92  C   UNL     1      11.254  16.445   1.175  1.00  0.00     0.134 A 
ATOM     93  F   UNL     1      12.514  16.518  -2.232  1.00  0.00    -0.206 F 
ATOM     94  C   UNL     1      13.466  17.338  -0.249  1.00  0.00     0.040 A 
ATOM     95  C   UNL     1      12.292  17.099   1.841  1.00  0.00     0.040 A 
ATOM     96  F   UNL     1      10.207  16.026   1.900  1.00  0.00    -0.206 F 
ATOM     97  C   UNL     1      13.405  17.541   1.130  1.00  0.00     0.006 A 
ENDBRANCH  73  90
ENDBRANCH  47  48
ENDBRANCH  40  42
ENDBRANCH  39  40
ENDBRANCH  38  39
ENDBRANCH   1  38
TORSDOF 18
