REMARK SMILES O=C(OCCOC(=O)[C@@H](c1ccccc1)N1C(=O)/C(=C\c2ccc(-c3ccc(F)cc3)o2)SC1=S)c1ccc(-c2c3nc(c(-c4c(F)cccc4F)c4ccc([nH]4)c(-c4c(F)cccc4F)c4nc(c(-c5c(F)cccc5F)c5ccc2[nH]5)C=C4)C=C3)cc1
REMARK SMILES IDX 5 1 4 2 3 3 2 4 1 5 36 6 37 7 89 8 38 9 88 10 39 11 40 12
REMARK SMILES IDX 41 13 82 14 42 15 87 16 81 17 83 18 43 19 86 20 80 21 79 22
REMARK SMILES IDX 44 24 70 25 53 26 69 27 54 28 57 29 68 30 84 31 55 32 56 33
REMARK SMILES IDX 67 35 85 36 58 37 45 38 46 39 51 40 47 41 48 42 50 43 52 44
REMARK SMILES IDX 49 45 71 46 72 47 77 48 73 49 74 50 76 51 78 52 75 53 59 54
REMARK SMILES IDX 60 55 65 56 61 57 62 58 64 59 66 60 63 61 6 62 7 63 8 64
REMARK SMILES IDX 9 65 10 66 11 67 15 68 12 69 14 70 13 71 16 72 17 73 34 74
REMARK SMILES IDX 18 75 19 76 33 77 35 78 20 79 21 80 22 81 32 82 23 83 24 84
REMARK SMILES IDX 25 85 26 86 31 87 27 88 30 89 28 90 29 91
REMARK H PARENT 83 23 57 34
REMARK Flexibility Score: inf
ROOT
ATOM      1  C   UNL     1       4.225  -2.193  -0.790  1.00  0.00     0.274 C 
ENDROOT
BRANCH   1   2
ATOM      2  C   UNL     1       4.287  -1.720   0.680  1.00  0.00     0.275 C 
BRANCH   2   3
ATOM      3  O   UNL     1       3.003  -1.359   1.173  1.00  0.00    -0.458 OA
BRANCH   3   4
ATOM      4  C   UNL     1       2.423  -0.162   0.982  1.00  0.00     0.338 C 
ATOM      5  O   UNL     1       1.307   0.048   1.449  1.00  0.00    -0.246 OA
BRANCH   4   6
ATOM      6  C   UNL     1       3.053   0.927   0.163  1.00  0.00     0.060 A 
ATOM      7  C   UNL     1       4.611   0.888  -0.748  1.00  0.00     0.016 A 
ATOM      8  C   UNL     1       2.022   2.331   0.162  1.00  0.00     0.016 A 
ATOM      9  C   UNL     1       5.231   2.186  -1.740  1.00  0.00     0.010 A 
ATOM     10  C   UNL     1       2.563   3.760  -0.745  1.00  0.00     0.010 A 
ATOM     11  C   UNL     1       4.295   3.711  -1.816  1.00  0.00    -0.014 A 
BRANCH  11  12
ATOM     12  C   UNL     1       5.257   4.585  -2.846  1.00  0.00     0.031 A 
ATOM     13  C   UNL     1       6.020   5.712  -2.245  1.00  0.00     0.074 A 
ATOM     14  C   UNL     1       5.759   4.310  -4.100  1.00  0.00     0.049 A 
ATOM     15  N   UNL     1       6.152   6.942  -2.644  1.00  0.00    -0.248 NA
ATOM     16  C   UNL     1       6.638   5.404  -0.953  1.00  0.00     0.031 C 
ATOM     17  C   UNL     1       5.693   3.062  -4.880  1.00  0.00     0.029 A 
ATOM     18  N   UNL     1       6.248   5.212  -5.064  1.00  0.00    -0.354 N 
ATOM     19  C   UNL     1       6.680   7.594  -1.539  1.00  0.00     0.074 A 
ATOM     20  C   UNL     1       6.740   6.630  -0.466  1.00  0.00     0.031 C 
ATOM     21  C   UNL     1       5.885   3.325  -6.195  1.00  0.00     0.029 A 
ATOM     22  C   UNL     1       6.071   4.759  -6.381  1.00  0.00     0.049 A 
ATOM     23  H   UNL     1       6.670   6.073  -4.838  1.00  0.00     0.167 HD
ATOM     24  C   UNL     1       7.108   8.873  -1.462  1.00  0.00     0.037 A 
ATOM     25  C   UNL     1       5.934   5.452  -7.549  1.00  0.00     0.037 A 
ATOM     26  C   UNL     1       7.287   9.667  -2.645  1.00  0.00     0.049 A 
ATOM     27  C   UNL     1       6.209   6.933  -7.494  1.00  0.00     0.074 A 
ATOM     28  C   UNL     1       7.840  10.924  -2.773  1.00  0.00     0.029 A 
ATOM     29  N   UNL     1       6.991   9.219  -3.928  1.00  0.00    -0.354 N 
ATOM     30  N   UNL     1       6.463   7.685  -6.449  1.00  0.00    -0.248 NA
ATOM     31  C   UNL     1       6.250   7.651  -8.777  1.00  0.00     0.031 C 
ATOM     32  C   UNL     1       7.849  11.249  -4.133  1.00  0.00     0.029 A 
ATOM     33  C   UNL     1       7.366  10.167  -4.857  1.00  0.00     0.049 A 
ATOM     34  H   UNL     1       6.574   8.353  -4.142  1.00  0.00     0.167 HD
ATOM     35  C   UNL     1       6.811   8.931  -6.953  1.00  0.00     0.074 A 
ATOM     36  C   UNL     1       6.658   8.854  -8.394  1.00  0.00     0.031 C 
ATOM     37  C   UNL     1       7.260  10.023  -6.288  1.00  0.00     0.037 A 
BRANCH  24  38
ATOM     38  C   UNL     1       7.386   9.440  -0.098  1.00  0.00     0.057 A 
ATOM     39  C   UNL     1       8.303   8.879   0.804  1.00  0.00     0.134 A 
ATOM     40  C   UNL     1       6.640  10.535   0.361  1.00  0.00     0.134 A 
ATOM     41  F   UNL     1       9.076   7.843   0.439  1.00  0.00    -0.206 F 
ATOM     42  C   UNL     1       8.379   9.299   2.133  1.00  0.00     0.040 A 
ATOM     43  C   UNL     1       6.761  11.012   1.667  1.00  0.00     0.040 A 
ATOM     44  F   UNL     1       5.758  11.148  -0.443  1.00  0.00    -0.206 F 
ATOM     45  C   UNL     1       7.607  10.371   2.568  1.00  0.00     0.006 A 
ENDBRANCH  24  38
BRANCH  25  46
ATOM     46  C   UNL     1       5.469   4.856  -8.862  1.00  0.00     0.057 A 
ATOM     47  C   UNL     1       6.330   4.264  -9.784  1.00  0.00     0.134 A 
ATOM     48  C   UNL     1       4.152   5.010  -9.329  1.00  0.00     0.134 A 
ATOM     49  F   UNL     1       7.651   4.292  -9.570  1.00  0.00    -0.206 F 
ATOM     50  C   UNL     1       5.870   3.723 -11.003  1.00  0.00     0.040 A 
ATOM     51  C   UNL     1       3.643   4.378 -10.473  1.00  0.00     0.040 A 
ATOM     52  F   UNL     1       3.361   5.924  -8.775  1.00  0.00    -0.206 F 
ATOM     53  C   UNL     1       4.512   3.711 -11.317  1.00  0.00     0.006 A 
ENDBRANCH  25  46
BRANCH  37  54
ATOM     54  C   UNL     1       7.794  11.154  -7.107  1.00  0.00     0.057 A 
ATOM     55  C   UNL     1       6.968  12.054  -7.783  1.00  0.00     0.134 A 
ATOM     56  C   UNL     1       9.175  11.400  -7.108  1.00  0.00     0.134 A 
ATOM     57  F   UNL     1       5.641  11.859  -7.827  1.00  0.00    -0.206 F 
ATOM     58  C   UNL     1       7.498  13.167  -8.434  1.00  0.00     0.040 A 
ATOM     59  C   UNL     1       9.713  12.527  -7.723  1.00  0.00     0.040 A 
ATOM     60  F   UNL     1      10.015  10.573  -6.466  1.00  0.00    -0.206 F 
ATOM     61  C   UNL     1       8.872  13.414  -8.389  1.00  0.00     0.006 A 
ENDBRANCH  37  54
ENDBRANCH  11  12
ENDBRANCH   4   6
ENDBRANCH   3   4
ENDBRANCH   2   3
ENDBRANCH   1   2
BRANCH   1  62
ATOM     62  O   UNL     1       3.889  -1.153  -1.761  1.00  0.00    -0.460 OA
BRANCH  62  63
ATOM     63  C   UNL     1       2.612  -0.692  -1.926  1.00  0.00     0.334 C 
ATOM     64  O   UNL     1       1.629  -1.336  -1.580  1.00  0.00    -0.249 OA
BRANCH  63  65
ATOM     65  C   UNL     1       2.541   0.745  -2.583  1.00  0.00     0.232 C 
BRANCH  65  66
ATOM     66  C   UNL     1       3.049   2.228  -1.774  1.00  0.00    -0.014 A 
ATOM     67  C   UNL     1       4.063   2.847  -0.123  1.00  0.00     0.006 A 
ATOM     68  C   UNL     1       2.345   3.596  -2.763  1.00  0.00     0.006 A 
ATOM     69  C   UNL     1       4.224   4.587   0.248  1.00  0.00     0.000 A 
ATOM     70  C   UNL     1       2.640   5.285  -2.291  1.00  0.00     0.000 A 
ATOM     71  C   UNL     1       3.530   5.742  -0.847  1.00  0.00     0.000 A 
ENDBRANCH  65  66
BRANCH  65  72
ATOM     72  N   UNL     1       2.743   0.729  -4.120  1.00  0.00    -0.274 N 
ATOM     73  C   UNL     1       1.998   1.591  -4.897  1.00  0.00     0.267 C 
ATOM     74  C   UNL     1       3.213  -0.281  -4.945  1.00  0.00     0.149 C 
ATOM     75  O   UNL     1       0.857   1.961  -4.654  1.00  0.00    -0.268 OA
ATOM     76  C   UNL     1       2.574   1.769  -6.251  1.00  0.00     0.084 C 
ATOM     77  S   UNL     1       3.383   0.309  -6.628  1.00  0.00    -0.054 SA
ATOM     78  S   UNL     1       3.497  -1.902  -4.681  1.00  0.00    -0.052 S 
ATOM     79  C   UNL     1       2.546   2.866  -7.029  1.00  0.00     0.068 C 
BRANCH  79  80
ATOM     80  C   UNL     1       2.380   4.187  -6.497  1.00  0.00     0.128 A 
ATOM     81  C   UNL     1       2.998   4.663  -5.367  1.00  0.00     0.051 A 
ATOM     82  O   UNL     1       1.818   5.302  -7.090  1.00  0.00    -0.457 OA
ATOM     83  C   UNL     1       3.046   6.055  -5.353  1.00  0.00     0.051 A 
ATOM     84  C   UNL     1       2.266   6.415  -6.407  1.00  0.00     0.134 A 
BRANCH  84  85
ATOM     85  C   UNL     1       1.895   7.718  -6.895  1.00  0.00     0.017 A 
ATOM     86  C   UNL     1       0.544   8.001  -7.064  1.00  0.00     0.015 A 
ATOM     87  C   UNL     1       2.856   8.725  -7.096  1.00  0.00     0.015 A 
ATOM     88  C   UNL     1       0.150   9.274  -7.455  1.00  0.00     0.040 A 
ATOM     89  C   UNL     1       2.464   9.993  -7.519  1.00  0.00     0.040 A 
ATOM     90  C   UNL     1       1.111  10.253  -7.694  1.00  0.00     0.123 A 
ATOM     91  F   UNL     1       0.719  11.471  -8.086  1.00  0.00    -0.207 F 
ENDBRANCH  84  85
ENDBRANCH  79  80
ENDBRANCH  65  72
ENDBRANCH  63  65
ENDBRANCH  62  63
ENDBRANCH   1  62
TORSDOF 15
