REMARK SMILES Cc1ccnc(C(=O)c2[nH]c3cc(F)ccc3c2CC(=O)OCCOC(=O)c2ccc(-c3c4nc(c(-c5c(F)cccc5F)c5ccc([nH]5)c(-c5c(F)cccc5F)c5nc(c(-c6c(F)cccc6F)c6ccc3[nH]6)C=C5)C=C4)cc2)c1
REMARK SMILES IDX 23 1 22 2 20 3 21 4 19 5 18 6 9 7 10 8 11 9 17 11 12 12
REMARK SMILES IDX 16 13 13 14 15 15 14 16 7 17 8 18 6 19 1 20 2 21 3 22 82 23
REMARK SMILES IDX 4 24 5 25 24 26 25 27 26 28 27 29 28 30 29 31 81 32 30 33
REMARK SMILES IDX 80 34 31 35 32 36 33 37 74 38 34 39 79 40 73 41 75 42 35 43
REMARK SMILES IDX 78 44 72 45 71 46 36 48 62 49 45 50 61 51 46 52 49 53 60 54
REMARK SMILES IDX 76 55 47 56 48 57 59 59 77 60 50 61 37 62 38 63 43 64 39 65
REMARK SMILES IDX 40 66 42 67 44 68 41 69 63 70 64 71 69 72 65 73 66 74 68 75
REMARK SMILES IDX 70 76 67 77 51 78 52 79 57 80 53 81 54 82 56 83 58 84 55 85
REMARK H PARENT 10 10 75 47 49 58
REMARK Flexibility Score: inf
ROOT
ATOM      1  C   UNL     1       5.202  -5.320   0.714  1.00  0.00     0.274 C 
ENDROOT
BRANCH   1   2
ATOM      2  O   UNL     1       3.764  -5.254   0.573  1.00  0.00    -0.462 OA
BRANCH   2   3
ATOM      3  C   UNL     1       3.063  -5.061   1.716  1.00  0.00     0.310 C 
ATOM      4  O   UNL     1       3.569  -5.068   2.838  1.00  0.00    -0.252 OA
BRANCH   3   5
ATOM      5  C   UNL     1       1.607  -4.692   1.539  1.00  0.00     0.161 C 
BRANCH   5   6
ATOM      6  C   UNL     1       0.886  -5.021   0.269  1.00  0.00     0.000 A 
ATOM      7  C   UNL     1       0.741  -4.242  -0.879  1.00  0.00     0.093 A 
ATOM      8  N   UNL     1      -0.063  -4.944  -1.745  1.00  0.00    -0.351 N 
ATOM      9  C   UNL     1      -0.572  -6.064  -1.147  1.00  0.00     0.049 A 
ATOM     10  H   UNL     1      -0.249  -4.676  -2.674  1.00  0.00     0.167 HD
ATOM     11  C   UNL     1       0.060  -6.187   0.088  1.00  0.00     0.004 A 
ATOM     12  C   UNL     1      -1.528  -6.971  -1.612  1.00  0.00     0.066 A 
ATOM     13  C   UNL     1      -0.247  -7.313   0.886  1.00  0.00     0.013 A 
ATOM     14  C   UNL     1      -1.825  -8.053  -0.790  1.00  0.00     0.125 A 
ATOM     15  C   UNL     1      -1.193  -8.241   0.432  1.00  0.00     0.040 A 
ATOM     16  F   UNL     1      -2.748  -8.938  -1.192  1.00  0.00    -0.207 F 
BRANCH   7  17
ATOM     17  C   UNL     1       1.284  -2.962  -1.315  1.00  0.00     0.227 C 
ATOM     18  O   UNL     1       2.042  -2.918  -2.283  1.00  0.00    -0.285 OA
BRANCH  17  19
ATOM     19  C   UNL     1       0.695  -1.672  -0.787  1.00  0.00     0.113 A 
ATOM     20  C   UNL     1      -2.607  -0.264   0.459  1.00  0.00     0.044 C 
ATOM     21  C   UNL     1      -1.189  -0.381  -0.018  1.00  0.00    -0.047 A 
ATOM     22  C   UNL     1      -0.473   0.775  -0.328  1.00  0.00     0.023 A 
ATOM     23  C   UNL     1      -0.586  -1.629  -0.233  1.00  0.00     0.036 A 
ATOM     24  C   UNL     1       0.802   0.644  -0.845  1.00  0.00     0.112 A 
ATOM     25  N   UNL     1       1.394  -0.542  -1.086  1.00  0.00    -0.253 NA
ENDBRANCH  17  19
ENDBRANCH   7  17
ENDBRANCH   5   6
ENDBRANCH   3   5
ENDBRANCH   2   3
ENDBRANCH   1   2
BRANCH   1  26
ATOM     26  C   UNL     1       5.888  -4.005   0.309  1.00  0.00     0.275 C 
BRANCH  26  27
ATOM     27  O   UNL     1       5.626  -2.920   1.228  1.00  0.00    -0.458 OA
BRANCH  27  28
ATOM     28  C   UNL     1       4.479  -2.267   0.963  1.00  0.00     0.338 C 
ATOM     29  O   UNL     1       3.668  -2.548   0.090  1.00  0.00    -0.246 OA
BRANCH  28  30
ATOM     30  C   UNL     1       4.156  -1.213   1.921  1.00  0.00     0.060 A 
ATOM     31  C   UNL     1       3.092  -1.461   2.788  1.00  0.00     0.016 A 
ATOM     32  C   UNL     1       4.673   0.075   1.778  1.00  0.00     0.016 A 
ATOM     33  C   UNL     1       2.481  -0.411   3.452  1.00  0.00     0.010 A 
ATOM     34  C   UNL     1       4.105   1.123   2.513  1.00  0.00     0.010 A 
ATOM     35  C   UNL     1       2.986   0.891   3.330  1.00  0.00    -0.014 A 
BRANCH  35  36
ATOM     36  C   UNL     1       2.339   1.964   4.121  1.00  0.00     0.031 A 
ATOM     37  C   UNL     1       1.501   3.025   3.470  1.00  0.00     0.074 A 
ATOM     38  C   UNL     1       2.433   1.902   5.463  1.00  0.00     0.049 A 
ATOM     39  N   UNL     1       0.776   3.960   4.030  1.00  0.00    -0.248 NA
ATOM     40  C   UNL     1       1.458   3.033   2.001  1.00  0.00     0.031 C 
ATOM     41  C   UNL     1       3.192   0.893   6.205  1.00  0.00     0.029 A 
ATOM     42  N   UNL     1       1.865   2.678   6.438  1.00  0.00    -0.354 N 
ATOM     43  C   UNL     1       0.173   4.651   2.989  1.00  0.00     0.074 A 
ATOM     44  C   UNL     1       0.641   4.051   1.757  1.00  0.00     0.031 C 
ATOM     45  C   UNL     1       3.014   1.089   7.519  1.00  0.00     0.029 A 
ATOM     46  C   UNL     1       2.175   2.266   7.709  1.00  0.00     0.049 A 
ATOM     47  H   UNL     1       1.291   3.454   6.245  1.00  0.00     0.167 HD
ATOM     48  C   UNL     1      -0.696   5.688   3.057  1.00  0.00     0.037 A 
ATOM     49  C   UNL     1       1.837   2.790   8.900  1.00  0.00     0.037 A 
ATOM     50  C   UNL     1      -1.123   6.313   4.282  1.00  0.00     0.049 A 
ATOM     51  C   UNL     1       0.964   4.007   8.939  1.00  0.00     0.074 A 
ATOM     52  C   UNL     1      -1.980   7.388   4.452  1.00  0.00     0.029 A 
ATOM     53  N   UNL     1      -0.709   5.930   5.549  1.00  0.00    -0.354 N 
ATOM     54  N   UNL     1       0.391   4.642   7.946  1.00  0.00    -0.248 NA
ATOM     55  C   UNL     1       0.702   4.586  10.262  1.00  0.00     0.031 C 
ATOM     56  C   UNL     1      -2.052   7.680   5.820  1.00  0.00     0.029 A 
ATOM     57  C   UNL     1      -1.268   6.765   6.503  1.00  0.00     0.049 A 
ATOM     58  H   UNL     1      -0.106   5.176   5.742  1.00  0.00     0.167 HD
ATOM     59  C   UNL     1      -0.302   5.696   8.522  1.00  0.00     0.074 A 
ATOM     60  C   UNL     1      -0.098   5.598   9.954  1.00  0.00     0.031 C 
ATOM     61  C   UNL     1      -1.036   6.662   7.920  1.00  0.00     0.037 A 
BRANCH  48  62
ATOM     62  C   UNL     1      -1.234   6.226   1.766  1.00  0.00     0.057 A 
ATOM     63  C   UNL     1      -2.255   5.568   1.068  1.00  0.00     0.134 A 
ATOM     64  C   UNL     1      -0.771   7.440   1.245  1.00  0.00     0.134 A 
ATOM     65  F   UNL     1      -2.728   4.391   1.505  1.00  0.00    -0.206 F 
ATOM     66  C   UNL     1      -2.797   6.101  -0.103  1.00  0.00     0.040 A 
ATOM     67  C   UNL     1      -1.312   7.988   0.080  1.00  0.00     0.040 A 
ATOM     68  F   UNL     1       0.207   8.118   1.865  1.00  0.00    -0.206 F 
ATOM     69  C   UNL     1      -2.330   7.318  -0.596  1.00  0.00     0.006 A 
ENDBRANCH  48  62
BRANCH  49  70
ATOM     70  C   UNL     1       2.361   2.180  10.144  1.00  0.00     0.057 A 
ATOM     71  C   UNL     1       1.522   1.490  11.024  1.00  0.00     0.134 A 
ATOM     72  C   UNL     1       3.720   2.263  10.471  1.00  0.00     0.134 A 
ATOM     73  F   UNL     1       0.209   1.394  10.771  1.00  0.00    -0.206 F 
ATOM     74  C   UNL     1       2.017   0.908  12.193  1.00  0.00     0.040 A 
ATOM     75  C   UNL     1       4.231   1.667  11.623  1.00  0.00     0.040 A 
ATOM     76  F   UNL     1       4.573   2.909   9.662  1.00  0.00    -0.206 F 
ATOM     77  C   UNL     1       3.377   0.991  12.490  1.00  0.00     0.006 A 
ENDBRANCH  49  70
BRANCH  61  78
ATOM     78  C   UNL     1      -1.660   7.683   8.821  1.00  0.00     0.057 A 
ATOM     79  C   UNL     1      -0.896   8.698   9.412  1.00  0.00     0.134 A 
ATOM     80  C   UNL     1      -3.029   7.646   9.109  1.00  0.00     0.134 A 
ATOM     81  F   UNL     1       0.424   8.773   9.188  1.00  0.00    -0.206 F 
ATOM     82  C   UNL     1      -1.470   9.626  10.282  1.00  0.00     0.040 A 
ATOM     83  C   UNL     1      -3.617   8.580   9.962  1.00  0.00     0.040 A 
ATOM     84  F   UNL     1      -3.812   6.699   8.571  1.00  0.00    -0.206 F 
ATOM     85  C   UNL     1      -2.835   9.569  10.557  1.00  0.00     0.006 A 
ENDBRANCH  61  78
ENDBRANCH  35  36
ENDBRANCH  28  30
ENDBRANCH  27  28
ENDBRANCH  26  27
ENDBRANCH   1  26
TORSDOF 14
