REMARK SMILES C[C@]12CC[C@H]3[C@@H](CCC4=CC(=O)C=C[C@@]43C)[C@@H]1CC[C@H]2O[C@@H]1O[C@H](C(=O)OCCOC(=O)c2ccc(-c3c4nc(c(-c5c(F)cccc5F)c5ccc([nH]5)c(-c5c(F)cccc5F)c5nc(c(-c6c(F)cccc6F)c6ccc3[nH]6)C=C5)C=C4)cc2)[C@@H](O)[C@H](O)[C@H]1O
REMARK SMILES IDX 28 1 27 2 25 3 26 4 24 5 22 6 23 7 91 8 89 9 87 10 21 11
REMARK SMILES IDX 20 12 1 13 2 14 3 15 17 16 4 17 6 18 18 19 19 20 5 21 7 22
REMARK SMILES IDX 15 23 8 24 9 25 14 26 16 27 10 28 13 29 11 30 12 31 92 32
REMARK SMILES IDX 90 34 88 36 29 38 30 39 31 40 32 41 33 42 34 43 86 44 35 45
REMARK SMILES IDX 85 46 36 47 37 48 38 49 79 50 39 51 84 52 78 53 80 54 40 55
REMARK SMILES IDX 83 56 77 57 76 58 41 60 67 61 50 62 66 63 51 64 54 65 65 66
REMARK SMILES IDX 81 67 52 68 53 69 64 71 82 72 55 73 42 74 43 75 48 76 44 77
REMARK SMILES IDX 45 78 47 79 49 80 46 81 68 82 69 83 74 84 70 85 71 86 73 87
REMARK SMILES IDX 75 88 72 89 56 90 57 91 62 92 58 93 59 94 61 95 63 96 60 97
REMARK H PARENT 92 33 90 35 88 37 80 59 54 70
REMARK Flexibility Score: inf
ROOT
ATOM      1  C   UNL     1       4.871  -5.084  -1.188  1.00  0.00     0.274 C 
ENDROOT
BRANCH   1   2
ATOM      2  O   UNL     1       4.152  -3.865  -1.468  1.00  0.00    -0.460 OA
BRANCH   2   3
ATOM      3  C   UNL     1       4.063  -2.958  -0.470  1.00  0.00     0.338 C 
ATOM      4  O   UNL     1       4.503  -3.110   0.666  1.00  0.00    -0.249 OA
BRANCH   3   5
ATOM      5  C   UNL     1       3.345  -1.671  -0.887  1.00  0.00     0.262 C 
ATOM      6  C   UNL     1       2.740  -0.113  -2.621  1.00  0.00     0.282 C 
ATOM      7  O   UNL     1       3.299  -1.385  -2.280  1.00  0.00    -0.332 OA
ATOM      8  C   UNL     1       1.460   0.279  -1.831  1.00  0.00     0.202 C 
ATOM      9  C   UNL     1       1.451  -0.209  -0.376  1.00  0.00     0.180 C 
ATOM     10  C   UNL     1       1.925  -1.668  -0.316  1.00  0.00     0.186 C 
BRANCH   6  11
ATOM     11  O   UNL     1       2.671   0.104  -4.041  1.00  0.00    -0.346 OA
BRANCH  11  12
ATOM     12  C   UNL     1       1.784  -0.492  -4.994  1.00  0.00     0.127 C 
ATOM     13  C   UNL     1       1.369  -2.232  -6.808  1.00  0.00     0.014 C 
ATOM     14  C   UNL     1       2.049  -1.964  -5.427  1.00  0.00    -0.003 C 
ATOM     15  C   UNL     1       3.505  -2.409  -5.524  1.00  0.00     0.010 C 
ATOM     16  C   UNL     1       1.342  -2.702  -4.287  1.00  0.00     0.001 C 
ATOM     17  C   UNL     1       3.619  -3.937  -5.695  1.00  0.00     0.006 C 
ATOM     18  C   UNL     1       1.389  -4.228  -4.376  1.00  0.00    -0.003 C 
ATOM     19  C   UNL     1      -0.002  -1.972  -4.153  1.00  0.00     0.007 C 
ATOM     20  C   UNL     1       0.280  -0.530  -4.654  1.00  0.00     0.033 C 
ATOM     21  C   UNL     1       2.858  -4.730  -4.603  1.00  0.00     0.006 C 
ATOM     22  C   UNL     1       0.863  -4.844  -3.064  1.00  0.00     0.009 C 
ATOM     23  C   UNL     1       2.904  -6.301  -4.743  1.00  0.00     0.010 C 
ATOM     24  C   UNL     1       0.932  -6.369  -3.056  1.00  0.00     0.032 C 
ATOM     25  C   UNL     1       2.289  -6.894  -3.464  1.00  0.00    -0.056 C 
ATOM     26  C   UNL     1       4.317  -6.829  -4.969  1.00  0.00    -0.012 C 
ATOM     27  C   UNL     1       2.101  -6.807  -5.960  1.00  0.00     0.021 C 
ATOM     28  C   UNL     1       2.912  -7.810  -2.700  1.00  0.00     0.052 C 
ATOM     29  C   UNL     1       4.923  -7.759  -4.218  1.00  0.00     0.048 C 
ATOM     30  C   UNL     1       4.267  -8.306  -3.017  1.00  0.00     0.178 C 
ATOM     31  O   UNL     1       4.849  -9.086  -2.275  1.00  0.00    -0.290 OA
ENDBRANCH  11  12
ENDBRANCH   6  11
BRANCH   8  32
ATOM     32  O   UNL     1       1.221   1.693  -1.900  1.00  0.00    -0.385 OA
ATOM     33  H   UNL     1       1.947   2.165  -1.463  1.00  0.00     0.211 HD
ENDBRANCH   8  32
BRANCH   9  34
ATOM     34  O   UNL     1       0.132  -0.072   0.174  1.00  0.00    -0.387 OA
ATOM     35  H   UNL     1      -0.491  -0.606  -0.343  1.00  0.00     0.211 HD
ENDBRANCH   9  34
BRANCH  10  36
ATOM     36  O   UNL     1       1.799  -2.166   1.013  1.00  0.00    -0.387 OA
ATOM     37  H   UNL     1       2.314  -1.608   1.617  1.00  0.00     0.211 HD
ENDBRANCH  10  36
ENDBRANCH   3   5
ENDBRANCH   2   3
ENDBRANCH   1   2
BRANCH   1  38
ATOM     38  C   UNL     1       5.933  -5.325  -2.261  1.00  0.00     0.275 C 
BRANCH  38  39
ATOM     39  O   UNL     1       7.039  -4.454  -2.041  1.00  0.00    -0.458 OA
BRANCH  39  40
ATOM     40  C   UNL     1       6.918  -3.232  -2.602  1.00  0.00     0.338 C 
ATOM     41  O   UNL     1       6.159  -2.862  -3.475  1.00  0.00    -0.246 OA
BRANCH  40  42
ATOM     42  C   UNL     1       7.687  -2.352  -1.728  1.00  0.00     0.060 A 
ATOM     43  C   UNL     1       7.023  -1.261  -1.161  1.00  0.00     0.016 A 
ATOM     44  C   UNL     1       8.998  -2.685  -1.383  1.00  0.00     0.016 A 
ATOM     45  C   UNL     1       7.671  -0.495  -0.210  1.00  0.00     0.010 A 
ATOM     46  C   UNL     1       9.654  -1.910  -0.445  1.00  0.00     0.010 A 
ATOM     47  C   UNL     1       8.994  -0.808   0.121  1.00  0.00    -0.014 A 
BRANCH  47  48
ATOM     48  C   UNL     1       9.777   0.164   0.889  1.00  0.00     0.031 A 
ATOM     49  C   UNL     1      10.671   1.075   0.107  1.00  0.00     0.074 A 
ATOM     50  C   UNL     1       9.661   0.208   2.224  1.00  0.00     0.049 A 
ATOM     51  N   UNL     1      11.539   1.948   0.534  1.00  0.00    -0.248 NA
ATOM     52  C   UNL     1      10.587   0.975  -1.363  1.00  0.00     0.031 C 
ATOM     53  C   UNL     1       8.774  -0.637   3.025  1.00  0.00     0.029 A 
ATOM     54  N   UNL     1      10.300   0.993   3.140  1.00  0.00    -0.354 N 
ATOM     55  C   UNL     1      12.121   2.478  -0.611  1.00  0.00     0.074 A 
ATOM     56  C   UNL     1      11.533   1.815  -1.749  1.00  0.00     0.031 C 
ATOM     57  C   UNL     1       8.932  -0.326   4.323  1.00  0.00     0.029 A 
ATOM     58  C   UNL     1       9.958   0.705   4.438  1.00  0.00     0.049 A 
ATOM     59  H   UNL     1      10.944   1.697   2.894  1.00  0.00     0.167 HD
ATOM     60  C   UNL     1      13.064   3.442  -0.687  1.00  0.00     0.037 A 
ATOM     61  C   UNL     1      10.455   1.215   5.579  1.00  0.00     0.037 A 
ATOM     62  C   UNL     1      13.612   4.080   0.477  1.00  0.00     0.049 A 
ATOM     63  C   UNL     1      11.519   2.274   5.462  1.00  0.00     0.074 A 
ATOM     64  C   UNL     1      14.569   5.072   0.552  1.00  0.00     0.029 A 
ATOM     65  N   UNL     1      13.234   3.779   1.780  1.00  0.00    -0.354 N 
ATOM     66  N   UNL     1      12.071   2.777   4.380  1.00  0.00    -0.248 NA
ATOM     67  C   UNL     1      12.025   2.843   6.715  1.00  0.00     0.031 C 
ATOM     68  C   UNL     1      14.801   5.341   1.905  1.00  0.00     0.029 A 
ATOM     69  C   UNL     1      13.944   4.561   2.670  1.00  0.00     0.049 A 
ATOM     70  H   UNL     1      12.559   3.107   2.032  1.00  0.00     0.167 HD
ATOM     71  C   UNL     1      12.962   3.745   4.819  1.00  0.00     0.074 A 
ATOM     72  C   UNL     1      12.865   3.765   6.266  1.00  0.00     0.031 C 
ATOM     73  C   UNL     1      13.789   4.549   4.103  1.00  0.00     0.037 A 
BRANCH  60  74
ATOM     74  C   UNL     1      13.566   3.818  -2.049  1.00  0.00     0.057 A 
ATOM     75  C   UNL     1      12.767   4.499  -2.978  1.00  0.00     0.134 A 
ATOM     76  C   UNL     1      14.871   3.494  -2.439  1.00  0.00     0.134 A 
ATOM     77  F   UNL     1      11.496   4.813  -2.682  1.00  0.00    -0.206 F 
ATOM     78  C   UNL     1      13.242   4.828  -4.250  1.00  0.00     0.040 A 
ATOM     79  C   UNL     1      15.367   3.842  -3.697  1.00  0.00     0.040 A 
ATOM     80  F   UNL     1      15.687   2.832  -1.605  1.00  0.00    -0.206 F 
ATOM     81  C   UNL     1      14.550   4.507  -4.608  1.00  0.00     0.006 A 
ENDBRANCH  60  74
BRANCH  61  82
ATOM     82  C   UNL     1       9.966   0.737   6.897  1.00  0.00     0.057 A 
ATOM     83  C   UNL     1       9.252   1.577   7.759  1.00  0.00     0.134 A 
ATOM     84  C   UNL     1      10.205  -0.573   7.333  1.00  0.00     0.134 A 
ATOM     85  F   UNL     1       8.997   2.846   7.407  1.00  0.00    -0.206 F 
ATOM     86  C   UNL     1       8.821   1.145   9.016  1.00  0.00     0.040 A 
ATOM     87  C   UNL     1       9.754  -1.028   8.574  1.00  0.00     0.040 A 
ATOM     88  F   UNL     1      10.873  -1.436   6.553  1.00  0.00    -0.206 F 
ATOM     89  C   UNL     1       9.069  -0.164   9.424  1.00  0.00     0.006 A 
ENDBRANCH  61  82
BRANCH  73  90
ATOM     90  C   UNL     1      14.591   5.549   4.879  1.00  0.00     0.057 A 
ATOM     91  C   UNL     1      15.674   5.170   5.681  1.00  0.00     0.134 A 
ATOM     92  C   UNL     1      14.292   6.914   4.785  1.00  0.00     0.134 A 
ATOM     93  F   UNL     1      16.001   3.876   5.817  1.00  0.00    -0.206 F 
ATOM     94  C   UNL     1      16.413   6.115   6.390  1.00  0.00     0.040 A 
ATOM     95  C   UNL     1      15.045   7.870   5.463  1.00  0.00     0.040 A 
ATOM     96  F   UNL     1      13.275   7.339   4.020  1.00  0.00    -0.206 F 
ATOM     97  C   UNL     1      16.104   7.470   6.276  1.00  0.00     0.006 A 
ENDBRANCH  73  90
ENDBRANCH  47  48
ENDBRANCH  40  42
ENDBRANCH  39  40
ENDBRANCH  38  39
ENDBRANCH   1  38
TORSDOF 16
