REMARK SMILES CCN1CC(=O)N(C[C@@H]([NH3+])C(=O)OCCOC(=O)c2ccc(-c3c4nc(c(-c5c(F)cccc5F)c5ccc([nH]5)c(-c5c(F)cccc5F)c5nc(c(-c6c(F)cccc6F)c6ccc3[nH]6)C=C5)C=C4)cc2)CC1=O
REMARK SMILES IDX 14 1 13 2 11 3 12 4 9 5 8 6 7 7 3 8 4 9 74 10 5 11 73 12
REMARK SMILES IDX 75 13 6 14 2 15 1 16 10 17 15 21 16 22 17 23 18 24 19 25
REMARK SMILES IDX 20 26 72 27 21 28 71 29 22 30 23 31 24 32 65 33 25 34 70 35
REMARK SMILES IDX 64 36 66 37 26 38 69 39 63 40 62 41 27 43 53 44 36 45 52 46
REMARK SMILES IDX 37 47 40 48 51 49 67 50 38 51 39 52 50 54 68 55 41 56 28 57
REMARK SMILES IDX 29 58 34 59 30 60 31 61 33 62 35 63 32 64 54 65 55 66 60 67
REMARK SMILES IDX 56 68 57 69 59 70 61 71 58 72 42 73 43 74 48 75 44 76 45 77
REMARK SMILES IDX 47 78 49 79 46 80
REMARK H PARENT 10 18 10 19 10 20 66 42 40 53
REMARK Flexibility Score: inf
ROOT
ATOM      1  C   UNL     1      -1.746  -6.765   7.538  1.00  0.00     0.274 C 
ENDROOT
BRANCH   1   2
ATOM      2  O   UNL     1      -1.159  -5.869   6.574  1.00  0.00    -0.458 OA
BRANCH   2   3
ATOM      3  C   UNL     1       0.147  -5.552   6.768  1.00  0.00     0.366 C 
ATOM      4  O   UNL     1       0.833  -5.957   7.705  1.00  0.00    -0.245 OA
BRANCH   3   5
ATOM      5  C   UNL     1       0.710  -4.565   5.731  1.00  0.00     0.311 C 
BRANCH   5   6
ATOM      6  C   UNL     1      -0.187  -4.404   4.488  1.00  0.00     0.197 C 
BRANCH   6   7
ATOM      7  N   UNL     1       0.403  -3.596   3.413  1.00  0.00    -0.325 N 
ATOM      8  N   UNL     1       0.594  -2.062   1.128  1.00  0.00    -0.332 N 
ATOM      9  C   UNL     1       1.512  -3.201   1.250  1.00  0.00     0.219 C 
ATOM     10  C   UNL     1       0.123  -1.429   2.277  1.00  0.00     0.242 C 
ATOM     11  C   UNL     1       1.079  -4.187   2.352  1.00  0.00     0.242 C 
ATOM     12  C   UNL     1       0.481  -2.148   3.573  1.00  0.00     0.220 C 
ATOM     13  O   UNL     1      -0.402  -0.319   2.276  1.00  0.00    -0.273 OA
ATOM     14  O   UNL     1       1.417  -5.368   2.350  1.00  0.00    -0.273 OA
BRANCH   8  15
ATOM     15  C   UNL     1       0.417  -1.413  -0.165  1.00  0.00     0.116 C 
ATOM     16  C   UNL     1       1.323  -0.204  -0.352  1.00  0.00     0.027 C 
ENDBRANCH   8  15
ENDBRANCH   6   7
ENDBRANCH   5   6
BRANCH   5  17
ATOM     17  N   UNL     1       1.016  -3.281   6.420  1.00  0.00    -0.344 N 
ATOM     18  H   UNL     1       0.158  -2.892   6.811  1.00  0.00     0.345 HD
ATOM     19  H   UNL     1       1.414  -2.622   5.751  1.00  0.00     0.345 HD
ATOM     20  H   UNL     1       1.685  -3.450   7.171  1.00  0.00     0.345 HD
ENDBRANCH   5  17
ENDBRANCH   3   5
ENDBRANCH   2   3
ENDBRANCH   1   2
BRANCH   1  21
ATOM     21  C   UNL     1      -1.868  -8.190   6.990  1.00  0.00     0.275 C 
BRANCH  21  22
ATOM     22  O   UNL     1      -0.581  -8.769   6.702  1.00  0.00    -0.458 OA
BRANCH  22  23
ATOM     23  C   UNL     1      -0.152  -8.586   5.430  1.00  0.00     0.338 C 
ATOM     24  O   UNL     1      -0.744  -8.019   4.529  1.00  0.00    -0.246 OA
BRANCH  23  25
ATOM     25  C   UNL     1       1.240  -9.045   5.305  1.00  0.00     0.060 A 
ATOM     26  C   UNL     1       2.214  -8.091   5.005  1.00  0.00     0.016 A 
ATOM     27  C   UNL     1       1.576 -10.397   5.393  1.00  0.00     0.016 A 
ATOM     28  C   UNL     1       3.535  -8.475   4.804  1.00  0.00     0.010 A 
ATOM     29  C   UNL     1       2.903 -10.786   5.176  1.00  0.00     0.010 A 
ATOM     30  C   UNL     1       3.887  -9.827   4.875  1.00  0.00    -0.014 A 
BRANCH  30  31
ATOM     31  C   UNL     1       5.279 -10.234   4.569  1.00  0.00     0.031 A 
ATOM     32  C   UNL     1       5.598 -10.858   3.242  1.00  0.00     0.074 A 
ATOM     33  C   UNL     1       6.255 -10.012   5.467  1.00  0.00     0.049 A 
ATOM     34  N   UNL     1       6.727 -11.364   2.817  1.00  0.00    -0.248 NA
ATOM     35  C   UNL     1       4.501 -10.923   2.263  1.00  0.00     0.031 C 
ATOM     36  C   UNL     1       6.077  -9.364   6.766  1.00  0.00     0.029 A 
ATOM     37  N   UNL     1       7.593 -10.314   5.423  1.00  0.00    -0.354 N 
ATOM     38  C   UNL     1       6.472 -11.829   1.533  1.00  0.00     0.074 A 
ATOM     39  C   UNL     1       5.080 -11.551   1.250  1.00  0.00     0.031 C 
ATOM     40  C   UNL     1       7.261  -9.324   7.400  1.00  0.00     0.029 A 
ATOM     41  C   UNL     1       8.268  -9.982   6.571  1.00  0.00     0.049 A 
ATOM     42  H   UNL     1       8.027 -10.729   4.642  1.00  0.00     0.167 HD
ATOM     43  C   UNL     1       7.325 -12.432   0.672  1.00  0.00     0.037 A 
ATOM     44  C   UNL     1       9.546 -10.212   6.927  1.00  0.00     0.037 A 
ATOM     45  C   UNL     1       8.716 -12.683   0.948  1.00  0.00     0.049 A 
ATOM     46  C   UNL     1      10.458 -10.929   5.970  1.00  0.00     0.074 A 
ATOM     47  C   UNL     1       9.664 -13.274   0.131  1.00  0.00     0.029 A 
ATOM     48  N   UNL     1       9.357 -12.352   2.131  1.00  0.00    -0.354 N 
ATOM     49  N   UNL     1      10.205 -11.374   4.763  1.00  0.00    -0.248 NA
ATOM     50  C   UNL     1      11.832 -11.182   6.428  1.00  0.00     0.031 C 
ATOM     51  C   UNL     1      10.873 -13.331   0.833  1.00  0.00     0.029 A 
ATOM     52  C   UNL     1      10.685 -12.742   2.073  1.00  0.00     0.049 A 
ATOM     53  H   UNL     1       8.932 -11.906   2.899  1.00  0.00     0.167 HD
ATOM     54  C   UNL     1      11.389 -11.943   4.312  1.00  0.00     0.074 A 
ATOM     55  C   UNL     1      12.365 -11.772   5.367  1.00  0.00     0.031 C 
ATOM     56  C   UNL     1      11.644 -12.555   3.130  1.00  0.00     0.037 A 
BRANCH  43  57
ATOM     57  C   UNL     1       6.774 -12.892  -0.643  1.00  0.00     0.057 A 
ATOM     58  C   UNL     1       6.499 -11.997  -1.684  1.00  0.00     0.134 A 
ATOM     59  C   UNL     1       6.568 -14.255  -0.888  1.00  0.00     0.134 A 
ATOM     60  F   UNL     1       6.664 -10.677  -1.508  1.00  0.00    -0.206 F 
ATOM     61  C   UNL     1       6.026 -12.442  -2.920  1.00  0.00     0.040 A 
ATOM     62  C   UNL     1       6.115 -14.714  -2.126  1.00  0.00     0.040 A 
ATOM     63  F   UNL     1       6.818 -15.164   0.067  1.00  0.00    -0.206 F 
ATOM     64  C   UNL     1       5.841 -13.805  -3.146  1.00  0.00     0.006 A 
ENDBRANCH  43  57
BRANCH  44  65
ATOM     65  C   UNL     1      10.032  -9.797   8.266  1.00  0.00     0.057 A 
ATOM     66  C   UNL     1      10.964  -8.764   8.412  1.00  0.00     0.134 A 
ATOM     67  C   UNL     1       9.595 -10.443   9.429  1.00  0.00     0.134 A 
ATOM     68  F   UNL     1      11.438  -8.125   7.333  1.00  0.00    -0.206 F 
ATOM     69  C   UNL     1      11.457  -8.398   9.666  1.00  0.00     0.040 A 
ATOM     70  C   UNL     1      10.061 -10.072  10.690  1.00  0.00     0.040 A 
ATOM     71  F   UNL     1       8.704 -11.443   9.354  1.00  0.00    -0.206 F 
ATOM     72  C   UNL     1      11.001  -9.050  10.810  1.00  0.00     0.006 A 
ENDBRANCH  44  65
BRANCH  56  73
ATOM     73  C   UNL     1      13.039 -13.055   2.907  1.00  0.00     0.057 A 
ATOM     74  C   UNL     1      13.515 -14.211   3.536  1.00  0.00     0.134 A 
ATOM     75  C   UNL     1      13.903 -12.390   2.028  1.00  0.00     0.134 A 
ATOM     76  F   UNL     1      12.740 -14.884   4.401  1.00  0.00    -0.206 F 
ATOM     77  C   UNL     1      14.810 -14.680   3.312  1.00  0.00     0.040 A 
ATOM     78  C   UNL     1      15.192 -12.861   1.779  1.00  0.00     0.040 A 
ATOM     79  F   UNL     1      13.503 -11.280   1.389  1.00  0.00    -0.206 F 
ATOM     80  C   UNL     1      15.651 -14.007   2.427  1.00  0.00     0.006 A 
ENDBRANCH  56  73
ENDBRANCH  30  31
ENDBRANCH  23  25
ENDBRANCH  22  23
ENDBRANCH  21  22
ENDBRANCH   1  21
TORSDOF 15
