REMARK SMILES O=C(Cn1nc(-c2ccc(Br)cc2)ccc1=O)N[C@H](C(=O)OCCOC(=O)c1ccc(-c2c3nc(c(-c4c(F)cccc4F)c4ccc([nH]4)c(-c4c(F)cccc4F)c4nc(c(-c5c(F)cccc5F)c5ccc2[nH]5)C=C4)C=C3)cc1)c1ccccc1
REMARK SMILES IDX 23 1 22 2 20 3 21 4 19 5 18 6 1 7 2 8 3 10 4 11 5 12 16 13
REMARK SMILES IDX 6 14 15 15 17 16 14 17 7 18 8 19 13 20 9 21 12 22 10 23
REMARK SMILES IDX 11 24 82 25 83 26 87 27 84 28 86 29 85 30 24 31 25 32 26 33
REMARK SMILES IDX 27 34 28 35 29 36 81 37 30 38 80 39 31 40 32 41 33 42 74 43
REMARK SMILES IDX 34 44 79 45 73 46 75 47 35 48 78 49 72 50 71 51 36 53 62 54
REMARK SMILES IDX 45 55 61 56 46 57 49 58 60 59 76 60 47 61 48 62 59 64 77 65
REMARK SMILES IDX 50 66 37 67 38 68 43 69 39 70 40 71 42 72 44 73 41 74 63 75
REMARK SMILES IDX 64 76 69 77 65 78 66 79 68 80 70 81 67 82 51 83 52 84 57 85
REMARK SMILES IDX 53 86 54 87 56 88 58 89 55 90
REMARK H PARENT 18 9 75 52 49 63
REMARK Flexibility Score: inf
ROOT
ATOM      1  C   UNL     1       4.054   1.422   0.010  1.00  0.00     0.274 C 
ENDROOT
BRANCH   1   2
ATOM      2  O   UNL     1       3.434   0.613  -1.002  1.00  0.00    -0.460 OA
BRANCH   2   3
ATOM      3  C   UNL     1       3.517  -0.740  -0.806  1.00  0.00     0.333 C 
ATOM      4  O   UNL     1       3.910  -1.251   0.239  1.00  0.00    -0.249 OA
BRANCH   3   5
ATOM      5  C   UNL     1       2.863  -1.519  -1.979  1.00  0.00     0.223 C 
BRANCH   5   6
ATOM      6  N   UNL     1       3.091  -1.035  -3.339  1.00  0.00    -0.337 N 
ATOM      7  O   UNL     1       5.180  -0.172  -2.931  1.00  0.00    -0.273 OA
ATOM      8  C   UNL     1       4.318  -0.541  -3.727  1.00  0.00     0.242 C 
ATOM      9  H   UNL     1       2.354  -1.063  -3.991  1.00  0.00     0.164 HD
BRANCH   8  10
ATOM     10  C   UNL     1       4.525  -0.395  -5.230  1.00  0.00     0.248 C 
BRANCH  10  11
ATOM     11  N   UNL     1       4.528  -1.672  -5.939  1.00  0.00    -0.220 N 
ATOM     12  N   UNL     1       4.256  -1.581  -7.296  1.00  0.00    -0.169 NA
ATOM     13  C   UNL     1       5.226  -2.754  -5.404  1.00  0.00     0.267 A 
ATOM     14  C   UNL     1       4.459  -2.640  -8.014  1.00  0.00     0.091 A 
ATOM     15  C   UNL     1       5.203  -3.993  -6.204  1.00  0.00     0.075 A 
ATOM     16  O   UNL     1       5.813  -2.769  -4.328  1.00  0.00    -0.268 OA
ATOM     17  C   UNL     1       4.829  -3.965  -7.482  1.00  0.00     0.036 A 
BRANCH  14  18
ATOM     18  C   UNL     1       4.430  -2.537  -9.486  1.00  0.00     0.002 A 
ATOM     19  C   UNL     1       5.354  -1.673 -10.089  1.00  0.00     0.011 A 
ATOM     20  C   UNL     1       3.567  -3.313 -10.262  1.00  0.00     0.011 A 
ATOM     21  C   UNL     1       5.428  -1.598 -11.479  1.00  0.00     0.016 A 
ATOM     22  C   UNL     1       3.636  -3.225 -11.655  1.00  0.00     0.016 A 
ATOM     23  C   UNL     1       4.569  -2.375 -12.255  1.00  0.00     0.018 A 
ATOM     24  Br  UNL     1       4.675  -2.280 -14.140  1.00  0.00    -0.051 Br
ENDBRANCH  14  18
ENDBRANCH  10  11
ENDBRANCH   8  10
ENDBRANCH   5   6
BRANCH   5  25
ATOM     25  C   UNL     1       3.023  -3.034  -1.889  1.00  0.00    -0.014 A 
ATOM     26  C   UNL     1       4.275  -3.624  -1.662  1.00  0.00     0.006 A 
ATOM     27  C   UNL     1       1.902  -3.874  -2.011  1.00  0.00     0.006 A 
ATOM     28  C   UNL     1       4.394  -5.007  -1.502  1.00  0.00     0.000 A 
ATOM     29  C   UNL     1       2.024  -5.258  -1.854  1.00  0.00     0.000 A 
ATOM     30  C   UNL     1       3.268  -5.822  -1.588  1.00  0.00     0.000 A 
ENDBRANCH   5  25
ENDBRANCH   3   5
ENDBRANCH   2   3
ENDBRANCH   1   2
BRANCH   1  31
ATOM     31  C   UNL     1       3.040   1.911   1.048  1.00  0.00     0.275 C 
BRANCH  31  32
ATOM     32  O   UNL     1       2.569   0.839   1.884  1.00  0.00    -0.458 OA
BRANCH  32  33
ATOM     33  C   UNL     1       1.507   0.145   1.400  1.00  0.00     0.338 C 
ATOM     34  O   UNL     1       0.846   0.414   0.414  1.00  0.00    -0.246 OA
BRANCH  33  35
ATOM     35  C   UNL     1       1.357  -1.123   2.148  1.00  0.00     0.060 A 
ATOM     36  C   UNL     1       1.609  -1.213   3.519  1.00  0.00     0.016 A 
ATOM     37  C   UNL     1       0.963  -2.259   1.428  1.00  0.00     0.016 A 
ATOM     38  C   UNL     1       1.464  -2.442   4.166  1.00  0.00     0.010 A 
ATOM     39  C   UNL     1       0.831  -3.488   2.070  1.00  0.00     0.010 A 
ATOM     40  C   UNL     1       1.073  -3.584   3.445  1.00  0.00    -0.014 A 
BRANCH  40  41
ATOM     41  C   UNL     1       0.826  -4.859   4.152  1.00  0.00     0.031 A 
ATOM     42  C   UNL     1       1.842  -5.958   4.149  1.00  0.00     0.074 A 
ATOM     43  C   UNL     1      -0.351  -5.019   4.783  1.00  0.00     0.049 A 
ATOM     44  N   UNL     1       1.827  -7.088   4.810  1.00  0.00    -0.248 NA
ATOM     45  C   UNL     1       3.021  -5.772   3.291  1.00  0.00     0.031 C 
ATOM     46  C   UNL     1      -1.435  -4.035   4.801  1.00  0.00     0.029 A 
ATOM     47  N   UNL     1      -0.831  -6.062   5.530  1.00  0.00    -0.354 N 
ATOM     48  C   UNL     1       3.008  -7.735   4.476  1.00  0.00     0.074 A 
ATOM     49  C   UNL     1       3.689  -6.897   3.510  1.00  0.00     0.031 C 
ATOM     50  C   UNL     1      -2.449  -4.516   5.538  1.00  0.00     0.029 A 
ATOM     51  C   UNL     1      -2.087  -5.838   6.037  1.00  0.00     0.049 A 
ATOM     52  H   UNL     1      -0.325  -6.891   5.688  1.00  0.00     0.167 HD
ATOM     53  C   UNL     1       3.485  -8.911   4.952  1.00  0.00     0.037 A 
ATOM     54  C   UNL     1      -2.853  -6.610   6.830  1.00  0.00     0.037 A 
ATOM     55  C   UNL     1       2.786  -9.751   5.892  1.00  0.00     0.049 A 
ATOM     56  C   UNL     1      -2.314  -7.925   7.314  1.00  0.00     0.074 A 
ATOM     57  C   UNL     1       3.206 -10.935   6.473  1.00  0.00     0.029 A 
ATOM     58  N   UNL     1       1.508  -9.503   6.373  1.00  0.00    -0.354 N 
ATOM     59  N   UNL     1      -1.147  -8.476   7.083  1.00  0.00    -0.248 NA
ATOM     60  C   UNL     1      -3.194  -8.719   8.182  1.00  0.00     0.031 C 
ATOM     61  C   UNL     1       2.165 -11.426   7.271  1.00  0.00     0.029 A 
ATOM     62  C   UNL     1       1.113 -10.526   7.220  1.00  0.00     0.049 A 
ATOM     63  H   UNL     1       0.963  -8.715   6.147  1.00  0.00     0.167 HD
ATOM     64  C   UNL     1      -1.139  -9.664   7.800  1.00  0.00     0.074 A 
ATOM     65  C   UNL     1      -2.415  -9.750   8.481  1.00  0.00     0.031 C 
ATOM     66  C   UNL     1      -0.161 -10.597   7.890  1.00  0.00     0.037 A 
BRANCH  53  67
ATOM     67  C   UNL     1       4.835  -9.354   4.471  1.00  0.00     0.057 A 
ATOM     68  C   UNL     1       4.973 -10.455   3.617  1.00  0.00     0.134 A 
ATOM     69  C   UNL     1       6.008  -8.715   4.896  1.00  0.00     0.134 A 
ATOM     70  F   UNL     1       3.892 -11.118   3.180  1.00  0.00    -0.206 F 
ATOM     71  C   UNL     1       6.228 -10.904   3.203  1.00  0.00     0.040 A 
ATOM     72  C   UNL     1       7.267  -9.142   4.472  1.00  0.00     0.040 A 
ATOM     73  F   UNL     1       5.945  -7.653   5.713  1.00  0.00    -0.206 F 
ATOM     74  C   UNL     1       7.380 -10.244   3.627  1.00  0.00     0.006 A 
ENDBRANCH  53  67
BRANCH  54  75
ATOM     75  C   UNL     1      -4.190  -6.133   7.253  1.00  0.00     0.057 A 
ATOM     76  C   UNL     1      -5.261  -6.073   6.354  1.00  0.00     0.134 A 
ATOM     77  C   UNL     1      -4.426  -5.726   8.571  1.00  0.00     0.134 A 
ATOM     78  F   UNL     1      -5.095  -6.442   5.076  1.00  0.00    -0.206 F 
ATOM     79  C   UNL     1      -6.520  -5.621   6.751  1.00  0.00     0.040 A 
ATOM     80  C   UNL     1      -5.685  -5.292   8.986  1.00  0.00     0.040 A 
ATOM     81  F   UNL     1      -3.440  -5.775   9.479  1.00  0.00    -0.206 F 
ATOM     82  C   UNL     1      -6.736  -5.235   8.073  1.00  0.00     0.006 A 
ENDBRANCH  54  75
BRANCH  66  83
ATOM     83  C   UNL     1      -0.426 -11.776   8.777  1.00  0.00     0.057 A 
ATOM     84  C   UNL     1       0.228 -11.904  10.009  1.00  0.00     0.134 A 
ATOM     85  C   UNL     1      -1.310 -12.796   8.404  1.00  0.00     0.134 A 
ATOM     86  F   UNL     1       1.090 -10.964  10.424  1.00  0.00    -0.206 F 
ATOM     87  C   UNL     1       0.014 -13.007  10.837  1.00  0.00     0.040 A 
ATOM     88  C   UNL     1      -1.550 -13.892   9.234  1.00  0.00     0.040 A 
ATOM     89  F   UNL     1      -1.981 -12.724   7.244  1.00  0.00    -0.206 F 
ATOM     90  C   UNL     1      -0.882 -14.002  10.453  1.00  0.00     0.006 A 
ENDBRANCH  66  83
ENDBRANCH  40  41
ENDBRANCH  33  35
ENDBRANCH  32  33
ENDBRANCH  31  32
ENDBRANCH   1  31
TORSDOF 16
