REMARK SMILES O=C(COc1ccccc1/C=N/NC(=O)C1CC1)OCCOC(=O)c1ccc(-c2c3nc(c(-c4c(F)cccc4F)c4ccc([nH]4)c(-c4c(F)cccc4F)c4nc(c(-c5c(F)cccc5F)c5ccc2[nH]5)C=C4)C=C3)cc1
REMARK SMILES IDX 19 1 2 2 1 3 3 4 4 5 5 6 6 7 10 8 7 9 9 10 8 11 11 12 12 13
REMARK SMILES IDX 13 14 14 15 15 17 16 18 17 19 18 20 20 21 21 22 22 23 23 24
REMARK SMILES IDX 24 25 25 26 26 27 78 28 27 29 77 30 28 31 29 32 30 33 71 34
REMARK SMILES IDX 31 35 76 36 70 37 72 38 32 39 75 40 69 41 68 42 33 44 59 45
REMARK SMILES IDX 42 46 58 47 43 48 46 49 57 50 73 51 44 52 45 53 56 55 74 56
REMARK SMILES IDX 47 57 34 58 35 59 40 60 36 61 37 62 39 63 41 64 38 65 60 66
REMARK SMILES IDX 61 67 66 68 62 69 63 70 65 71 67 72 64 73 48 74 49 75 54 76
REMARK SMILES IDX 50 77 51 78 53 79 55 80 52 81
REMARK H PARENT 13 16 72 43 46 54
REMARK Flexibility Score: inf
ROOT
ATOM      1  O   UNL     1       3.684  -0.083   0.506  1.00  0.00    -0.460 OA
ENDROOT
BRANCH   1   2
ATOM      2  C   UNL     1       3.009   0.621  -0.440  1.00  0.00     0.344 C 
ATOM      3  O   UNL     1       1.887   0.304  -0.817  1.00  0.00    -0.248 OA
BRANCH   2   4
ATOM      4  C   UNL     1       3.686   1.863  -0.936  1.00  0.00     0.352 C 
BRANCH   4   5
ATOM      5  O   UNL     1       4.193   2.546   0.212  1.00  0.00    -0.481 OA
BRANCH   5   6
ATOM      6  C   UNL     1       3.341   3.548   0.573  1.00  0.00     0.129 A 
ATOM      7  C   UNL     1       3.688   4.815   0.084  1.00  0.00     0.047 A 
ATOM      8  C   UNL     1       2.256   3.387   1.446  1.00  0.00     0.037 A 
ATOM      9  C   UNL     1       2.957   5.934   0.463  1.00  0.00     0.004 A 
ATOM     10  C   UNL     1       1.530   4.523   1.823  1.00  0.00     0.013 A 
ATOM     11  C   UNL     1       1.880   5.788   1.333  1.00  0.00     0.001 A 
BRANCH   8  12
ATOM     12  C   UNL     1       1.903   2.144   2.181  1.00  0.00     0.145 C 
ATOM     13  N   UNL     1       1.206   1.156   1.700  1.00  0.00    -0.181 NA
BRANCH  13  14
ATOM     14  N   UNL     1       0.827   0.240   2.651  1.00  0.00    -0.247 N 
ATOM     15  C   UNL     1       0.428  -1.073   2.470  1.00  0.00     0.243 C 
ATOM     16  H   UNL     1       0.842   0.558   3.582  1.00  0.00     0.193 HD
ATOM     17  O   UNL     1      -0.101  -1.668   3.410  1.00  0.00    -0.273 OA
BRANCH  15  18
ATOM     18  C   UNL     1       0.674  -1.807   1.198  1.00  0.00     0.080 C 
ATOM     19  C   UNL     1       2.039  -2.324   0.820  1.00  0.00     0.014 C 
ATOM     20  C   UNL     1       1.028  -3.297   1.296  1.00  0.00     0.014 C 
ENDBRANCH  15  18
ENDBRANCH  13  14
ENDBRANCH   8  12
ENDBRANCH   5   6
ENDBRANCH   4   5
ENDBRANCH   2   4
ENDBRANCH   1   2
BRANCH   1  21
ATOM     21  C   UNL     1       5.085  -0.362   0.341  1.00  0.00     0.274 C 
BRANCH  21  22
ATOM     22  C   UNL     1       5.272  -1.456  -0.713  1.00  0.00     0.275 C 
BRANCH  22  23
ATOM     23  O   UNL     1       4.719  -1.005  -1.966  1.00  0.00    -0.458 OA
BRANCH  23  24
ATOM     24  C   UNL     1       3.860  -1.850  -2.595  1.00  0.00     0.338 C 
ATOM     25  O   UNL     1       3.626  -3.015  -2.328  1.00  0.00    -0.246 OA
BRANCH  24  26
ATOM     26  C   UNL     1       3.184  -1.075  -3.650  1.00  0.00     0.060 A 
ATOM     27  C   UNL     1       1.874  -0.621  -3.461  1.00  0.00     0.016 A 
ATOM     28  C   UNL     1       3.883  -0.748  -4.808  1.00  0.00     0.016 A 
ATOM     29  C   UNL     1       1.297   0.267  -4.370  1.00  0.00     0.010 A 
ATOM     30  C   UNL     1       3.280   0.079  -5.753  1.00  0.00     0.010 A 
ATOM     31  C   UNL     1       1.996   0.612  -5.528  1.00  0.00    -0.014 A 
BRANCH  31  32
ATOM     32  C   UNL     1       1.375   1.420  -6.598  1.00  0.00     0.031 A 
ATOM     33  C   UNL     1       0.713   0.700  -7.732  1.00  0.00     0.074 A 
ATOM     34  C   UNL     1       1.513   2.758  -6.618  1.00  0.00     0.049 A 
ATOM     35  N   UNL     1       0.362   1.149  -8.906  1.00  0.00    -0.248 NA
ATOM     36  C   UNL     1       0.428  -0.728  -7.515  1.00  0.00     0.031 C 
ATOM     37  C   UNL     1       2.084   3.567  -5.543  1.00  0.00     0.029 A 
ATOM     38  N   UNL     1       1.225   3.666  -7.608  1.00  0.00    -0.354 N 
ATOM     39  C   UNL     1      -0.153   0.053  -9.584  1.00  0.00     0.074 A 
ATOM     40  C   UNL     1      -0.073  -1.081  -8.689  1.00  0.00     0.031 C 
ATOM     41  C   UNL     1       2.158   4.846  -5.954  1.00  0.00     0.029 A 
ATOM     42  C   UNL     1       1.688   4.932  -7.336  1.00  0.00     0.049 A 
ATOM     43  H   UNL     1       0.737   3.433  -8.431  1.00  0.00     0.167 HD
ATOM     44  C   UNL     1      -0.632   0.001 -10.848  1.00  0.00     0.037 A 
ATOM     45  C   UNL     1       1.775   6.014  -8.135  1.00  0.00     0.037 A 
ATOM     46  C   UNL     1      -0.703   1.139 -11.724  1.00  0.00     0.049 A 
ATOM     47  C   UNL     1       1.307   5.910  -9.566  1.00  0.00     0.074 A 
ATOM     48  C   UNL     1      -1.213   1.204 -13.008  1.00  0.00     0.029 A 
ATOM     49  N   UNL     1      -0.235   2.406 -11.411  1.00  0.00    -0.354 N 
ATOM     50  N   UNL     1       0.788   4.882 -10.196  1.00  0.00    -0.248 NA
ATOM     51  C   UNL     1       1.448   7.111 -10.404  1.00  0.00     0.031 C 
ATOM     52  C   UNL     1      -0.994   2.494 -13.497  1.00  0.00     0.029 A 
ATOM     53  C   UNL     1      -0.405   3.250 -12.495  1.00  0.00     0.049 A 
ATOM     54  H   UNL     1       0.158   2.666 -10.547  1.00  0.00     0.167 HD
ATOM     55  C   UNL     1       0.516   5.320 -11.487  1.00  0.00     0.074 A 
ATOM     56  C   UNL     1       0.914   6.710 -11.549  1.00  0.00     0.031 C 
ATOM     57  C   UNL     1      -0.013   4.635 -12.530  1.00  0.00     0.037 A 
BRANCH  44  58
ATOM     58  C   UNL     1      -1.068  -1.331 -11.376  1.00  0.00     0.057 A 
ATOM     59  C   UNL     1      -2.239  -1.961 -10.938  1.00  0.00     0.134 A 
ATOM     60  C   UNL     1      -0.326  -1.969 -12.379  1.00  0.00     0.134 A 
ATOM     61  F   UNL     1      -2.986  -1.411  -9.968  1.00  0.00    -0.206 F 
ATOM     62  C   UNL     1      -2.650  -3.184 -11.470  1.00  0.00     0.040 A 
ATOM     63  C   UNL     1      -0.741  -3.178 -12.937  1.00  0.00     0.040 A 
ATOM     64  F   UNL     1       0.806  -1.418 -12.843  1.00  0.00    -0.206 F 
ATOM     65  C   UNL     1      -1.905  -3.790 -12.480  1.00  0.00     0.006 A 
ENDBRANCH  44  58
BRANCH  45  66
ATOM     66  C   UNL     1       2.384   7.276  -7.636  1.00  0.00     0.057 A 
ATOM     67  C   UNL     1       1.626   8.446  -7.507  1.00  0.00     0.134 A 
ATOM     68  C   UNL     1       3.748   7.360  -7.329  1.00  0.00     0.134 A 
ATOM     69  F   UNL     1       0.320   8.441  -7.812  1.00  0.00    -0.206 F 
ATOM     70  C   UNL     1       2.205   9.657  -7.119  1.00  0.00     0.040 A 
ATOM     71  C   UNL     1       4.335   8.557  -6.910  1.00  0.00     0.040 A 
ATOM     72  F   UNL     1       4.535   6.279  -7.431  1.00  0.00    -0.206 F 
ATOM     73  C   UNL     1       3.564   9.713  -6.816  1.00  0.00     0.006 A 
ENDBRANCH  45  66
BRANCH  57  74
ATOM     74  C   UNL     1      -0.228   5.380 -13.816  1.00  0.00     0.057 A 
ATOM     75  C   UNL     1       0.839   5.746 -14.646  1.00  0.00     0.134 A 
ATOM     76  C   UNL     1      -1.524   5.668 -14.263  1.00  0.00     0.134 A 
ATOM     77  F   UNL     1       2.105   5.511 -14.270  1.00  0.00    -0.206 F 
ATOM     78  C   UNL     1       0.624   6.383 -15.870  1.00  0.00     0.040 A 
ATOM     79  C   UNL     1      -1.753   6.277 -15.498  1.00  0.00     0.040 A 
ATOM     80  F   UNL     1      -2.591   5.334 -13.521  1.00  0.00    -0.206 F 
ATOM     81  C   UNL     1      -0.676   6.639 -16.303  1.00  0.00     0.006 A 
ENDBRANCH  57  74
ENDBRANCH  31  32
ENDBRANCH  24  26
ENDBRANCH  23  24
ENDBRANCH  22  23
ENDBRANCH  21  22
ENDBRANCH   1  21
TORSDOF 16
