REMARK SMILES C[C@H]1C[C@](C(=O)OCCOC(=O)c2ccc(-c3c4nc(c(-c5c(F)cccc5F)c5ccc([nH]5)c(-c5c(F)cccc5F)c5nc(c(-c6c(F)cccc6F)c6ccc3[nH]6)C=C5)C=C4)cc2)(N(C=O)C2CC2)CS1
REMARK SMILES IDX 8 1 7 2 5 3 6 4 4 5 1 6 2 7 3 8 74 9 73 10 67 11 68 12 69 13
REMARK SMILES IDX 70 14 71 15 72 16 9 17 10 18 11 19 12 20 13 21 14 22 66 23
REMARK SMILES IDX 15 24 65 25 16 26 17 27 18 28 59 29 19 30 64 31 58 32 60 33
REMARK SMILES IDX 20 34 63 35 57 36 56 37 21 39 47 40 30 41 46 42 31 43 34 44
REMARK SMILES IDX 45 45 61 46 32 47 33 48 44 50 62 51 35 52 22 53 23 54 28 55
REMARK SMILES IDX 24 56 25 57 27 58 29 59 26 60 48 61 49 62 54 63 50 64 51 65
REMARK SMILES IDX 53 66 55 67 52 68 36 69 37 70 42 71 38 72 39 73 41 74 43 75
REMARK SMILES IDX 40 76
REMARK H PARENT 60 38 34 49
REMARK Flexibility Score: inf
ROOT
ATOM      1  C   UNL     1      -1.070   5.729   2.192  1.00  0.00     0.274 C 
ENDROOT
BRANCH   1   2
ATOM      2  O   UNL     1      -0.348   4.598   1.651  1.00  0.00    -0.460 OA
BRANCH   2   3
ATOM      3  C   UNL     1       0.497   3.965   2.518  1.00  0.00     0.333 C 
ATOM      4  O   UNL     1       0.560   4.226   3.716  1.00  0.00    -0.249 OA
BRANCH   3   5
ATOM      5  C   UNL     1       1.546   3.086   1.790  1.00  0.00     0.150 C 
ATOM      6  C   UNL     1      -0.763   0.314   1.004  1.00  0.00     0.019 C 
ATOM      7  C   UNL     1       0.693   0.747   1.102  1.00  0.00     0.046 C 
ATOM      8  C   UNL     1       0.941   2.198   0.668  1.00  0.00     0.055 C 
ATOM      9  S   UNL     1       1.310   0.570   2.781  1.00  0.00    -0.156 SA
ATOM     10  C   UNL     1       2.227   2.118   2.781  1.00  0.00     0.110 C 
BRANCH   5  11
ATOM     11  N   UNL     1       2.541   4.115   1.334  1.00  0.00    -0.325 N 
BRANCH  11  12
ATOM     12  C   UNL     1       3.332   4.800   2.261  1.00  0.00     0.341 C 
ATOM     13  O   UNL     1       4.228   5.591   1.993  1.00  0.00    -0.279 OA
ENDBRANCH  11  12
BRANCH  11  14
ATOM     14  C   UNL     1       2.776   4.393  -0.065  1.00  0.00     0.086 C 
ATOM     15  C   UNL     1       1.741   4.529  -1.152  1.00  0.00     0.027 C 
ATOM     16  C   UNL     1       2.391   5.754  -0.604  1.00  0.00     0.027 C 
ENDBRANCH  11  14
ENDBRANCH   5  11
ENDBRANCH   3   5
ENDBRANCH   2   3
ENDBRANCH   1   2
BRANCH   1  17
ATOM     17  C   UNL     1      -2.532   5.383   2.448  1.00  0.00     0.275 C 
BRANCH  17  18
ATOM     18  O   UNL     1      -2.598   4.259   3.338  1.00  0.00    -0.458 OA
BRANCH  18  19
ATOM     19  C   UNL     1      -3.329   3.208   2.902  1.00  0.00     0.338 C 
ATOM     20  O   UNL     1      -4.024   3.154   1.903  1.00  0.00    -0.246 OA
BRANCH  19  21
ATOM     21  C   UNL     1      -3.130   2.055   3.802  1.00  0.00     0.060 A 
ATOM     22  C   UNL     1      -1.853   1.732   4.257  1.00  0.00     0.016 A 
ATOM     23  C   UNL     1      -4.200   1.201   4.070  1.00  0.00     0.016 A 
ATOM     24  C   UNL     1      -1.626   0.510   4.883  1.00  0.00     0.010 A 
ATOM     25  C   UNL     1      -3.984   0.021   4.788  1.00  0.00     0.010 A 
ATOM     26  C   UNL     1      -2.685  -0.361   5.165  1.00  0.00    -0.014 A 
BRANCH  26  27
ATOM     27  C   UNL     1      -2.423  -1.683   5.798  1.00  0.00     0.031 A 
ATOM     28  C   UNL     1      -2.859  -2.951   5.112  1.00  0.00     0.074 A 
ATOM     29  C   UNL     1      -1.770  -1.764   6.974  1.00  0.00     0.049 A 
ATOM     30  N   UNL     1      -2.929  -4.168   5.589  1.00  0.00    -0.248 NA
ATOM     31  C   UNL     1      -3.291  -2.832   3.709  1.00  0.00     0.031 C 
ATOM     32  C   UNL     1      -1.231  -0.631   7.729  1.00  0.00     0.029 A 
ATOM     33  N   UNL     1      -1.435  -2.856   7.735  1.00  0.00    -0.354 N 
ATOM     34  C   UNL     1      -3.485  -4.941   4.577  1.00  0.00     0.074 A 
ATOM     35  C   UNL     1      -3.716  -4.062   3.451  1.00  0.00     0.031 C 
ATOM     36  C   UNL     1      -0.587  -1.090   8.812  1.00  0.00     0.029 A 
ATOM     37  C   UNL     1      -0.752  -2.537   8.883  1.00  0.00     0.049 A 
ATOM     38  H   UNL     1      -1.663  -3.780   7.483  1.00  0.00     0.167 HD
ATOM     39  C   UNL     1      -3.784  -6.262   4.594  1.00  0.00     0.037 A 
ATOM     40  C   UNL     1      -0.341  -3.311   9.904  1.00  0.00     0.037 A 
ATOM     41  C   UNL     1      -3.478  -7.151   5.684  1.00  0.00     0.049 A 
ATOM     42  C   UNL     1      -0.673  -4.773   9.898  1.00  0.00     0.074 A 
ATOM     43  C   UNL     1      -3.740  -8.506   5.795  1.00  0.00     0.029 A 
ATOM     44  N   UNL     1      -2.809  -6.777   6.840  1.00  0.00    -0.354 N 
ATOM     45  N   UNL     1      -1.306  -5.470   8.987  1.00  0.00    -0.248 NA
ATOM     46  C   UNL     1      -0.266  -5.547  11.078  1.00  0.00     0.031 C 
ATOM     47  C   UNL     1      -3.242  -8.950   7.026  1.00  0.00     0.029 A 
ATOM     48  C   UNL     1      -2.648  -7.875   7.668  1.00  0.00     0.049 A 
ATOM     49  H   UNL     1      -2.496  -5.866   7.042  1.00  0.00     0.167 HD
ATOM     50  C   UNL     1      -1.385  -6.761   9.487  1.00  0.00     0.074 A 
ATOM     51  C   UNL     1      -0.707  -6.758  10.768  1.00  0.00     0.031 C 
ATOM     52  C   UNL     1      -1.981  -7.849   8.943  1.00  0.00     0.037 A 
BRANCH  39  53
ATOM     53  C   UNL     1      -4.516  -6.822   3.412  1.00  0.00     0.057 A 
ATOM     54  C   UNL     1      -3.877  -7.097   2.199  1.00  0.00     0.134 A 
ATOM     55  C   UNL     1      -5.881  -7.127   3.511  1.00  0.00     0.134 A 
ATOM     56  F   UNL     1      -2.577  -6.812   2.035  1.00  0.00    -0.206 F 
ATOM     57  C   UNL     1      -4.573  -7.646   1.119  1.00  0.00     0.040 A 
ATOM     58  C   UNL     1      -6.582  -7.694   2.446  1.00  0.00     0.040 A 
ATOM     59  F   UNL     1      -6.551  -6.889   4.649  1.00  0.00    -0.206 F 
ATOM     60  C   UNL     1      -5.927  -7.952   1.244  1.00  0.00     0.006 A 
ENDBRANCH  39  53
BRANCH  40  61
ATOM     61  C   UNL     1       0.383  -2.699  11.044  1.00  0.00     0.057 A 
ATOM     62  C   UNL     1       1.749  -2.927  11.235  1.00  0.00     0.134 A 
ATOM     63  C   UNL     1      -0.267  -1.855  11.953  1.00  0.00     0.134 A 
ATOM     64  F   UNL     1       2.419  -3.745  10.410  1.00  0.00    -0.206 F 
ATOM     65  C   UNL     1       2.446  -2.336  12.290  1.00  0.00     0.040 A 
ATOM     66  C   UNL     1       0.421  -1.240  12.998  1.00  0.00     0.040 A 
ATOM     67  F   UNL     1      -1.577  -1.598  11.820  1.00  0.00    -0.206 F 
ATOM     68  C   UNL     1       1.782  -1.482  13.170  1.00  0.00     0.006 A 
ENDBRANCH  40  61
BRANCH  52  69
ATOM     69  C   UNL     1      -1.921  -9.117   9.735  1.00  0.00     0.057 A 
ATOM     70  C   UNL     1      -2.759  -9.327  10.837  1.00  0.00     0.134 A 
ATOM     71  C   UNL     1      -1.030 -10.138   9.389  1.00  0.00     0.134 A 
ATOM     72  F   UNL     1      -3.623  -8.377  11.225  1.00  0.00    -0.206 F 
ATOM     73  C   UNL     1      -2.699 -10.506  11.581  1.00  0.00     0.040 A 
ATOM     74  C   UNL     1      -0.972 -11.328  10.116  1.00  0.00     0.040 A 
ATOM     75  F   UNL     1      -0.203  -9.996   8.342  1.00  0.00    -0.206 F 
ATOM     76  C   UNL     1      -1.805 -11.512  11.218  1.00  0.00     0.006 A 
ENDBRANCH  52  69
ENDBRANCH  26  27
ENDBRANCH  19  21
ENDBRANCH  18  19
ENDBRANCH  17  18
ENDBRANCH   1  17
TORSDOF 14
