REMARK SMILES [NH3+]C[C@@]1([C@@H](O)C(=O)OCCOC(=O)c2ccc(-c3c4nc(c(-c5c(F)cccc5F)c5ccc([nH]5)c(-c5c(F)cccc5F)c5nc(c(-c6c(F)cccc6F)c6ccc3[nH]6)C=C5)C=C4)cc2)CCOc2ccccc21
REMARK SMILES IDX 9 1 8 2 6 3 7 4 4 5 3 6 68 7 76 8 69 9 71 10 75 11 70 12
REMARK SMILES IDX 72 13 74 14 73 15 2 16 1 17 5 21 10 23 11 24 12 25 13 26
REMARK SMILES IDX 14 27 15 28 67 29 16 30 66 31 17 32 18 33 19 34 60 35 20 36
REMARK SMILES IDX 65 37 59 38 61 39 21 40 64 41 58 42 57 43 22 45 48 46 31 47
REMARK SMILES IDX 47 48 32 49 35 50 46 51 62 52 33 53 34 54 45 56 63 57 36 58
REMARK SMILES IDX 23 59 24 60 29 61 25 62 26 63 28 64 30 65 27 66 49 67 50 68
REMARK SMILES IDX 55 69 51 70 52 71 54 72 56 73 53 74 37 75 38 76 43 77 39 78
REMARK SMILES IDX 40 79 42 80 44 81 41 82
REMARK H PARENT 1 18 1 19 1 20 5 22 61 44 35 55
REMARK Flexibility Score: inf
ROOT
ATOM      1  C   UNL     1       2.640   3.663   1.140  1.00  0.00     0.274 C 
ENDROOT
BRANCH   1   2
ATOM      2  O   UNL     1       2.339   2.713   0.095  1.00  0.00    -0.460 OA
BRANCH   2   3
ATOM      3  C   UNL     1       1.300   1.878   0.335  1.00  0.00     0.336 C 
ATOM      4  O   UNL     1       0.559   1.964   1.313  1.00  0.00    -0.249 OA
BRANCH   3   5
ATOM      5  C   UNL     1       1.214   0.675  -0.609  1.00  0.00     0.240 C 
BRANCH   5   6
ATOM      6  C   UNL     1       1.550   0.817  -2.137  1.00  0.00     0.088 C 
ATOM      7  C   UNL     1       0.719   1.991  -2.715  1.00  0.00     0.063 C 
ATOM      8  C   UNL     1       1.089  -0.469  -2.883  1.00  0.00     0.009 A 
ATOM      9  C   UNL     1       0.610   1.900  -4.224  1.00  0.00     0.231 C 
ATOM     10  C   UNL     1       0.258  -0.403  -4.013  1.00  0.00     0.123 A 
ATOM     11  C   UNL     1       1.514  -1.746  -2.468  1.00  0.00     0.008 A 
ATOM     12  O   UNL     1      -0.171   0.764  -4.586  1.00  0.00    -0.493 OA
ATOM     13  C   UNL     1      -0.205  -1.566  -4.636  1.00  0.00     0.047 A 
ATOM     14  C   UNL     1       1.063  -2.908  -3.099  1.00  0.00     0.001 A 
ATOM     15  C   UNL     1       0.191  -2.819  -4.176  1.00  0.00     0.004 A 
BRANCH   6  16
ATOM     16  C   UNL     1       3.077   0.971  -2.445  1.00  0.00     0.274 C 
BRANCH  16  17
ATOM     17  N   UNL     1       3.685   2.289  -2.256  1.00  0.00    -0.357 N 
ATOM     18  H   UNL     1       4.676   2.243  -2.493  1.00  0.00     0.344 HD
ATOM     19  H   UNL     1       3.580   2.575  -1.283  1.00  0.00     0.344 HD
ATOM     20  H   UNL     1       3.222   2.967  -2.862  1.00  0.00     0.344 HD
ENDBRANCH  16  17
ENDBRANCH   6  16
ENDBRANCH   5   6
BRANCH   5  21
ATOM     21  O   UNL     1       1.992  -0.337   0.054  1.00  0.00    -0.380 OA
ATOM     22  H   UNL     1       2.913  -0.042   0.125  1.00  0.00     0.211 HD
ENDBRANCH   5  21
ENDBRANCH   3   5
ENDBRANCH   2   3
ENDBRANCH   1   2
BRANCH   1  23
ATOM     23  C   UNL     1       2.063   5.043   0.837  1.00  0.00     0.275 C 
BRANCH  23  24
ATOM     24  O   UNL     1       0.629   4.983   0.775  1.00  0.00    -0.458 OA
BRANCH  24  25
ATOM     25  C   UNL     1       0.095   5.077  -0.462  1.00  0.00     0.338 C 
ATOM     26  O   UNL     1       0.674   5.262  -1.517  1.00  0.00    -0.246 OA
BRANCH  25  27
ATOM     27  C   UNL     1      -1.353   4.855  -0.372  1.00  0.00     0.060 A 
ATOM     28  C   UNL     1      -1.845   3.548  -0.373  1.00  0.00     0.016 A 
ATOM     29  C   UNL     1      -2.221   5.944  -0.377  1.00  0.00     0.016 A 
ATOM     30  C   UNL     1      -3.216   3.320  -0.402  1.00  0.00     0.010 A 
ATOM     31  C   UNL     1      -3.597   5.715  -0.367  1.00  0.00     0.010 A 
ATOM     32  C   UNL     1      -4.102   4.403  -0.391  1.00  0.00    -0.014 A 
BRANCH  32  33
ATOM     33  C   UNL     1      -5.562   4.168  -0.420  1.00  0.00     0.031 A 
ATOM     34  C   UNL     1      -6.347   4.505  -1.652  1.00  0.00     0.074 A 
ATOM     35  C   UNL     1      -6.177   3.673   0.668  1.00  0.00     0.049 A 
ATOM     36  N   UNL     1      -7.643   4.529  -1.823  1.00  0.00    -0.248 NA
ATOM     37  C   UNL     1      -5.571   4.870  -2.847  1.00  0.00     0.031 C 
ATOM     38  C   UNL     1      -5.509   3.269   1.907  1.00  0.00     0.029 A 
ATOM     39  N   UNL     1      -7.505   3.441   0.912  1.00  0.00    -0.354 N 
ATOM     40  C   UNL     1      -7.841   4.942  -3.133  1.00  0.00     0.074 A 
ATOM     41  C   UNL     1      -6.533   5.162  -3.712  1.00  0.00     0.031 C 
ATOM     42  C   UNL     1      -6.434   2.847   2.784  1.00  0.00     0.029 A 
ATOM     43  C   UNL     1      -7.757   3.002   2.188  1.00  0.00     0.049 A 
ATOM     44  H   UNL     1      -8.210   3.575   0.238  1.00  0.00     0.167 HD
ATOM     45  C   UNL     1      -9.012   5.124  -3.788  1.00  0.00     0.037 A 
ATOM     46  C   UNL     1      -8.926   2.789   2.820  1.00  0.00     0.037 A 
ATOM     47  C   UNL     1     -10.308   4.881  -3.211  1.00  0.00     0.049 A 
ATOM     48  C   UNL     1     -10.211   3.039   2.085  1.00  0.00     0.074 A 
ATOM     49  C   UNL     1     -11.554   5.019  -3.798  1.00  0.00     0.029 A 
ATOM     50  N   UNL     1     -10.523   4.445  -1.913  1.00  0.00    -0.354 N 
ATOM     51  N   UNL     1     -10.391   3.450   0.853  1.00  0.00    -0.248 NA
ATOM     52  C   UNL     1     -11.456   2.809   2.830  1.00  0.00     0.031 C 
ATOM     53  C   UNL     1     -12.524   4.696  -2.843  1.00  0.00     0.029 A 
ATOM     54  C   UNL     1     -11.881   4.323  -1.673  1.00  0.00     0.049 A 
ATOM     55  H   UNL     1      -9.814   4.250  -1.258  1.00  0.00     0.167 HD
ATOM     56  C   UNL     1     -11.765   3.513   0.670  1.00  0.00     0.074 A 
ATOM     57  C   UNL     1     -12.373   3.085   1.913  1.00  0.00     0.031 C 
ATOM     58  C   UNL     1     -12.463   3.893  -0.428  1.00  0.00     0.037 A 
BRANCH  45  59
ATOM     59  C   UNL     1      -8.944   5.639  -5.194  1.00  0.00     0.057 A 
ATOM     60  C   UNL     1      -8.557   4.824  -6.264  1.00  0.00     0.134 A 
ATOM     61  C   UNL     1      -9.302   6.962  -5.482  1.00  0.00     0.134 A 
ATOM     62  F   UNL     1      -8.187   3.552  -6.050  1.00  0.00    -0.206 F 
ATOM     63  C   UNL     1      -8.514   5.311  -7.571  1.00  0.00     0.040 A 
ATOM     64  C   UNL     1      -9.282   7.455  -6.787  1.00  0.00     0.040 A 
ATOM     65  F   UNL     1      -9.683   7.793  -4.501  1.00  0.00    -0.206 F 
ATOM     66  C   UNL     1      -8.883   6.629  -7.837  1.00  0.00     0.006 A 
ENDBRANCH  45  59
BRANCH  46  67
ATOM     67  C   UNL     1      -8.930   2.347   4.235  1.00  0.00     0.057 A 
ATOM     68  C   UNL     1      -9.312   1.049   4.585  1.00  0.00     0.134 A 
ATOM     69  C   UNL     1      -8.547   3.212   5.268  1.00  0.00     0.134 A 
ATOM     70  F   UNL     1      -9.709   0.184   3.641  1.00  0.00    -0.206 F 
ATOM     71  C   UNL     1      -9.323   0.626   5.915  1.00  0.00     0.040 A 
ATOM     72  C   UNL     1      -8.532   2.796   6.599  1.00  0.00     0.040 A 
ATOM     73  F   UNL     1      -8.168   4.468   4.994  1.00  0.00    -0.206 F 
ATOM     74  C   UNL     1      -8.926   1.500   6.926  1.00  0.00     0.006 A 
ENDBRANCH  46  67
BRANCH  58  75
ATOM     75  C   UNL     1     -13.957   3.838  -0.336  1.00  0.00     0.057 A 
ATOM     76  C   UNL     1     -14.685   4.804   0.368  1.00  0.00     0.134 A 
ATOM     77  C   UNL     1     -14.674   2.825  -0.984  1.00  0.00     0.134 A 
ATOM     78  F   UNL     1     -14.053   5.790   1.021  1.00  0.00    -0.206 F 
ATOM     79  C   UNL     1     -16.078   4.754   0.439  1.00  0.00     0.040 A 
ATOM     80  C   UNL     1     -16.067   2.776  -0.936  1.00  0.00     0.040 A 
ATOM     81  F   UNL     1     -14.032   1.874  -1.678  1.00  0.00    -0.206 F 
ATOM     82  C   UNL     1     -16.773   3.741  -0.219  1.00  0.00     0.006 A 
ENDBRANCH  58  75
ENDBRANCH  32  33
ENDBRANCH  25  27
ENDBRANCH  24  25
ENDBRANCH  23  24
ENDBRANCH   1  23
TORSDOF 15
