REMARK SMILES Cc1ccc(S(=O)(=O)n2cc(C(=O)C(=O)N[C@@H](Cc3c[nH]c4ccccc34)C(=O)NCC(=O)OCCOC(=O)c3ccc(-c4c5nc(c(-c6c(F)cccc6F)c6ccc([nH]6)c(-c6c(F)cccc6F)c6nc(c(-c7c(F)cccc7F)c7ccc4[nH]7)C=C6)C=C5)cc3)c3ccccc32)cc1
REMARK SMILES IDX 32 1 33 2 31 3 30 4 28 5 29 6 17 8 16 9 14 10 15 11 12 13
REMARK SMILES IDX 13 14 11 15 9 16 10 17 99 18 94 19 98 20 95 21 97 22 96 23
REMARK SMILES IDX 6 24 7 25 8 26 5 27 1 28 2 29 3 30 101 31 4 32 100 33 18 34
REMARK SMILES IDX 19 35 20 36 27 37 21 38 22 39 26 40 23 42 25 43 24 44 34 45
REMARK SMILES IDX 35 46 36 47 37 48 38 49 39 50 40 51 41 52 93 53 42 54 92 55
REMARK SMILES IDX 43 56 44 57 45 58 86 59 46 60 91 61 85 62 87 63 47 64 90 65
REMARK SMILES IDX 84 66 83 67 48 69 74 70 57 71 73 72 58 73 61 74 72 75 88 76
REMARK SMILES IDX 59 77 60 78 71 80 89 81 62 82 49 83 50 84 55 85 51 86 52 87
REMARK SMILES IDX 54 88 56 89 53 90 75 91 76 92 81 93 77 94 78 95 80 96 82 97
REMARK SMILES IDX 79 98 63 99 64 100 69 101 65 102 66 103 68 104 70 105 67 106
REMARK H PARENT 30 7 16 12 21 41 87 68 61 79
REMARK Flexibility Score: inf
ROOT
ATOM      1  C   UNL     1     -11.066   3.435  -4.608  1.00  0.00     0.325 C 
ATOM      2  O   UNL     1     -12.051   3.138  -5.268  1.00  0.00    -0.250 OA
ENDROOT
BRANCH   1   3
ATOM      3  C   UNL     1     -10.552   2.638  -3.391  1.00  0.00     0.238 C 
BRANCH   3   4
ATOM      4  N   UNL     1     -11.616   1.993  -2.621  1.00  0.00    -0.343 N 
ATOM      5  C   UNL     1     -11.677   1.514  -1.343  1.00  0.00     0.243 C 
ATOM      6  O   UNL     1     -12.735   0.957  -1.020  1.00  0.00    -0.273 OA
ATOM      7  H   UNL     1     -12.455   1.881  -3.124  1.00  0.00     0.164 HD
BRANCH   5   8
ATOM      8  C   UNL     1     -10.470   1.518  -0.347  1.00  0.00     0.176 C 
BRANCH   8   9
ATOM      9  N   UNL     1      -9.346   2.384  -0.689  1.00  0.00    -0.337 N 
ATOM     10  C   UNL     1      -8.033   2.151  -1.024  1.00  0.00     0.293 C 
ATOM     11  O   UNL     1      -7.241   3.075  -1.168  1.00  0.00    -0.265 OA
ATOM     12  H   UNL     1      -9.578   3.341  -0.678  1.00  0.00     0.164 HD
BRANCH  10  13
ATOM     13  C   UNL     1      -7.589   0.740  -1.340  1.00  0.00     0.252 C 
ATOM     14  O   UNL     1      -8.270   0.163  -2.190  1.00  0.00    -0.283 OA
BRANCH  13  15
ATOM     15  C   UNL     1      -6.503   0.070  -0.621  1.00  0.00     0.054 A 
ATOM     16  N   UNL     1      -4.585  -0.532   0.414  1.00  0.00    -0.240 N 
ATOM     17  C   UNL     1      -5.245   0.526  -0.212  1.00  0.00     0.117 A 
ATOM     18  C   UNL     1      -5.529  -1.551   0.626  1.00  0.00     0.065 A 
ATOM     19  C   UNL     1      -6.560  -1.312  -0.276  1.00  0.00     0.012 A 
ATOM     20  C   UNL     1      -5.435  -2.772   1.321  1.00  0.00     0.028 A 
ATOM     21  C   UNL     1      -7.418  -2.375  -0.628  1.00  0.00     0.011 A 
ATOM     22  C   UNL     1      -6.261  -3.822   0.918  1.00  0.00     0.002 A 
ATOM     23  C   UNL     1      -7.214  -3.639  -0.074  1.00  0.00     0.001 A 
BRANCH  16  24
ATOM     24  S   UNL     1      -3.036  -1.174  -0.086  1.00  0.00     0.268 S 
ATOM     25  O   UNL     1      -3.272  -1.577  -1.462  1.00  0.00    -0.201 OA
ATOM     26  O   UNL     1      -2.740  -2.156   0.948  1.00  0.00    -0.201 OA
BRANCH  24  27
ATOM     27  C   UNL     1      -1.549  -0.238  -0.118  1.00  0.00     0.088 A 
ATOM     28  C   UNL     1       2.543   1.147  -0.026  1.00  0.00     0.044 C 
ATOM     29  C   UNL     1       1.107   0.710  -0.096  1.00  0.00    -0.051 A 
ATOM     30  C   UNL     1       0.858  -0.624  -0.391  1.00  0.00     0.005 A 
ATOM     31  C   UNL     1       0.015   1.565   0.175  1.00  0.00     0.005 A 
ATOM     32  C   UNL     1      -0.448  -1.079  -0.411  1.00  0.00     0.022 A 
ATOM     33  C   UNL     1      -1.324   1.098   0.171  1.00  0.00     0.022 A 
ENDBRANCH  24  27
ENDBRANCH  16  24
ENDBRANCH  13  15
ENDBRANCH  10  13
ENDBRANCH   8   9
BRANCH   8  34
ATOM     34  C   UNL     1     -10.957   1.828   1.112  1.00  0.00     0.072 C 
BRANCH  34  35
ATOM     35  C   UNL     1     -11.602   3.184   1.378  1.00  0.00    -0.020 A 
ATOM     36  C   UNL     1     -12.841   3.330   2.026  1.00  0.00     0.087 A 
ATOM     37  C   UNL     1     -11.166   4.505   0.992  1.00  0.00     0.003 A 
ATOM     38  N   UNL     1     -13.403   4.605   2.004  1.00  0.00    -0.361 N 
ATOM     39  C   UNL     1     -12.662   5.451   1.217  1.00  0.00     0.046 A 
ATOM     40  C   UNL     1      -9.730   5.310   0.165  1.00  0.00     0.010 A 
ATOM     41  H   UNL     1     -14.220   4.864   2.488  1.00  0.00     0.166 HD
ATOM     42  C   UNL     1     -12.900   7.018   0.295  1.00  0.00     0.026 A 
ATOM     43  C   UNL     1      -9.845   7.004  -0.528  1.00  0.00     0.001 A 
ATOM     44  C   UNL     1     -11.484   7.773  -0.623  1.00  0.00     0.002 A 
ENDBRANCH  34  35
ENDBRANCH   8  34
ENDBRANCH   5   8
ENDBRANCH   3   4
ENDBRANCH   1   3
BRANCH   1  45
ATOM     45  O   UNL     1     -10.265   4.512  -4.839  1.00  0.00    -0.461 OA
BRANCH  45  46
ATOM     46  C   UNL     1     -10.497   5.501  -5.884  1.00  0.00     0.274 C 
BRANCH  46  47
ATOM     47  C   UNL     1     -11.932   5.848  -6.355  1.00  0.00     0.275 C 
BRANCH  47  48
ATOM     48  O   UNL     1     -12.694   6.679  -5.453  1.00  0.00    -0.458 OA
BRANCH  48  49
ATOM     49  C   UNL     1     -13.597   6.036  -4.664  1.00  0.00     0.338 C 
ATOM     50  O   UNL     1     -14.761   5.825  -4.950  1.00  0.00    -0.246 OA
BRANCH  49  51
ATOM     51  C   UNL     1     -12.990   5.771  -3.346  1.00  0.00     0.060 A 
ATOM     52  C   UNL     1     -13.580   5.021  -2.366  1.00  0.00     0.016 A 
ATOM     53  C   UNL     1     -11.700   6.169  -3.116  1.00  0.00     0.016 A 
ATOM     54  C   UNL     1     -12.936   4.985  -1.100  1.00  0.00     0.010 A 
ATOM     55  C   UNL     1     -10.998   5.728  -2.003  1.00  0.00     0.010 A 
ATOM     56  C   UNL     1     -11.617   5.696  -0.667  1.00  0.00    -0.014 A 
BRANCH  56  57
ATOM     57  C   UNL     1     -10.997   6.672   1.125  1.00  0.00     0.031 A 
ATOM     58  C   UNL     1      -9.874   6.143   2.336  1.00  0.00     0.074 A 
ATOM     59  C   UNL     1     -11.128   8.022   1.711  1.00  0.00     0.049 A 
ATOM     60  N   UNL     1      -8.579   6.386   2.358  1.00  0.00    -0.248 NA
ATOM     61  C   UNL     1     -10.310   5.305   3.475  1.00  0.00     0.031 C 
ATOM     62  C   UNL     1     -10.203   8.779   2.579  1.00  0.00     0.029 A 
ATOM     63  N   UNL     1     -12.073   9.065   1.440  1.00  0.00    -0.354 N 
ATOM     64  C   UNL     1      -8.036   5.734   3.461  1.00  0.00     0.074 A 
ATOM     65  C   UNL     1      -9.141   4.957   4.011  1.00  0.00     0.031 C 
ATOM     66  C   UNL     1     -10.750   9.952   2.947  1.00  0.00     0.029 A 
ATOM     67  C   UNL     1     -12.113   9.964   2.479  1.00  0.00     0.049 A 
ATOM     68  H   UNL     1     -12.619   9.128   0.623  1.00  0.00     0.167 HD
ATOM     69  C   UNL     1      -7.253   6.392   4.364  1.00  0.00     0.037 A 
ATOM     70  C   UNL     1     -13.270  10.148   3.164  1.00  0.00     0.037 A 
ATOM     71  C   UNL     1      -7.857   7.556   4.983  1.00  0.00     0.049 A 
ATOM     72  C   UNL     1     -13.010   9.843   4.602  1.00  0.00     0.074 A 
ATOM     73  C   UNL     1      -7.582   8.911   4.944  1.00  0.00     0.029 A 
ATOM     74  N   UNL     1      -9.022   7.417   5.731  1.00  0.00    -0.354 N 
ATOM     75  N   UNL     1     -12.043   9.050   4.974  1.00  0.00    -0.248 NA
ATOM     76  C   UNL     1     -13.707  10.454   5.725  1.00  0.00     0.031 C 
ATOM     77  C   UNL     1      -8.633   9.588   5.617  1.00  0.00     0.029 A 
ATOM     78  C   UNL     1      -9.530   8.643   6.091  1.00  0.00     0.049 A 
ATOM     79  H   UNL     1      -9.429   6.554   5.972  1.00  0.00     0.167 HD
ATOM     80  C   UNL     1     -11.846   9.204   6.307  1.00  0.00     0.074 A 
ATOM     81  C   UNL     1     -12.973  10.001   6.759  1.00  0.00     0.031 C 
ATOM     82  C   UNL     1     -10.720   8.757   6.924  1.00  0.00     0.037 A 
BRANCH  69  83
ATOM     83  C   UNL     1      -5.801   5.983   4.421  1.00  0.00     0.057 A 
ATOM     84  C   UNL     1      -4.833   6.726   5.120  1.00  0.00     0.134 A 
ATOM     85  C   UNL     1      -5.318   4.802   3.814  1.00  0.00     0.134 A 
ATOM     86  F   UNL     1      -5.151   7.849   5.777  1.00  0.00    -0.206 F 
ATOM     87  C   UNL     1      -3.485   6.339   5.190  1.00  0.00     0.040 A 
ATOM     88  C   UNL     1      -3.974   4.405   3.879  1.00  0.00     0.040 A 
ATOM     89  F   UNL     1      -6.139   3.969   3.154  1.00  0.00    -0.206 F 
ATOM     90  C   UNL     1      -3.050   5.177   4.567  1.00  0.00     0.006 A 
ENDBRANCH  69  83
BRANCH  70  91
ATOM     91  C   UNL     1     -14.507   9.914   2.358  1.00  0.00     0.057 A 
ATOM     92  C   UNL     1     -14.666  10.640   1.153  1.00  0.00     0.134 A 
ATOM     93  C   UNL     1     -15.358   8.820   2.533  1.00  0.00     0.134 A 
ATOM     94  F   UNL     1     -13.872  11.693   0.892  1.00  0.00    -0.206 F 
ATOM     95  C   UNL     1     -15.548  10.246   0.141  1.00  0.00     0.040 A 
ATOM     96  C   UNL     1     -16.270   8.430   1.533  1.00  0.00     0.040 A 
ATOM     97  F   UNL     1     -15.266   8.049   3.625  1.00  0.00    -0.206 F 
ATOM     98  C   UNL     1     -16.344   9.123   0.323  1.00  0.00     0.006 A 
ENDBRANCH  70  91
BRANCH  82  99
ATOM     99  C   UNL     1     -10.626   8.536   8.397  1.00  0.00     0.057 A 
ATOM    100  C   UNL     1     -11.732   8.148   9.167  1.00  0.00     0.134 A 
ATOM    101  C   UNL     1      -9.382   8.519   9.053  1.00  0.00     0.134 A 
ATOM    102  F   UNL     1     -12.950   8.012   8.621  1.00  0.00    -0.206 F 
ATOM    103  C   UNL     1     -11.620   7.827  10.520  1.00  0.00     0.040 A 
ATOM    104  C   UNL     1      -9.251   8.159  10.394  1.00  0.00     0.040 A 
ATOM    105  F   UNL     1      -8.241   8.814   8.413  1.00  0.00    -0.206 F 
ATOM    106  C   UNL     1     -10.375   7.825  11.136  1.00  0.00     0.006 A 
ENDBRANCH  82  99
ENDBRANCH  56  57
ENDBRANCH  49  51
ENDBRANCH  48  49
ENDBRANCH  47  48
ENDBRANCH  46  47
ENDBRANCH  45  46
ENDBRANCH   1  45
TORSDOF 20
