REMARK SMILES Cc1ccc(Cl)c(Nc2ccccc2C(=O)OCCOC(=O)c2ccc(-c3c4nc(c(-c5c(F)cccc5F)c5ccc([nH]5)c(-c5c(F)cccc5F)c5nc(c(-c6c(F)cccc6F)c6ccc3[nH]6)C=C5)C=C4)cc2)c1Cl
REMARK SMILES IDX 18 1 17 2 15 3 16 4 14 5 9 6 10 7 11 8 13 9 12 10 8 11 7 13
REMARK SMILES IDX 1 14 2 15 3 16 77 17 4 18 78 19 5 20 6 21 19 22 20 23 21 24
REMARK SMILES IDX 22 25 23 26 24 27 76 28 25 29 75 30 26 31 27 32 28 33 69 34
REMARK SMILES IDX 29 35 74 36 68 37 70 38 30 39 73 40 67 41 66 42 31 44 57 45
REMARK SMILES IDX 40 46 56 47 41 48 44 49 55 50 71 51 42 52 43 53 54 55 72 56
REMARK SMILES IDX 45 57 32 58 33 59 38 60 34 61 35 62 37 63 39 64 36 65 58 66
REMARK SMILES IDX 59 67 64 68 60 69 61 70 63 71 65 72 62 73 46 74 47 75 52 76
REMARK SMILES IDX 48 77 49 78 51 79 53 80 50 81
REMARK H PARENT 8 12 70 43 44 54
REMARK Flexibility Score: inf
ROOT
ATOM      1  C   UNL     1       0.219  -0.467   2.796  1.00  0.00     0.275 C 
ENDROOT
BRANCH   1   2
ATOM      2  O   UNL     1       0.200  -1.597   1.899  1.00  0.00    -0.458 OA
BRANCH   2   3
ATOM      3  C   UNL     1       1.385  -1.900   1.307  1.00  0.00     0.340 C 
ATOM      4  O   UNL     1       2.471  -1.416   1.578  1.00  0.00    -0.246 OA
BRANCH   3   5
ATOM      5  C   UNL     1       1.216  -2.978   0.304  1.00  0.00     0.083 A 
ATOM      6  C   UNL     1       0.290  -2.916  -0.755  1.00  0.00     0.053 A 
ATOM      7  C   UNL     1       0.208  -4.031  -1.614  1.00  0.00     0.027 A 
ATOM      8  C   UNL     1       1.036  -5.147  -1.456  1.00  0.00     0.002 A 
ATOM      9  C   UNL     1       2.069  -4.090   0.434  1.00  0.00     0.018 A 
ATOM     10  C   UNL     1       1.977  -5.171  -0.438  1.00  0.00     0.001 A 
BRANCH   6  11
ATOM     11  N   UNL     1      -0.484  -1.790  -1.110  1.00  0.00    -0.352 N 
ATOM     12  H   UNL     1      -1.310  -2.008  -1.600  1.00  0.00     0.167 HD
BRANCH  11  13
ATOM     13  C   UNL     1      -0.288  -0.404  -0.889  1.00  0.00     0.077 A 
ATOM     14  C   UNL     1       2.511   2.193  -0.402  1.00  0.00     0.046 C 
ATOM     15  C   UNL     1       1.149   1.557  -0.493  1.00  0.00    -0.030 A 
ATOM     16  C   UNL     1       0.035   2.274  -0.036  1.00  0.00     0.006 A 
ATOM     17  C   UNL     1       0.973   0.236  -0.961  1.00  0.00     0.069 A 
ATOM     18  C   UNL     1      -1.231   1.694  -0.046  1.00  0.00     0.023 A 
ATOM     19  Cl  UNL     1       2.322  -0.560  -1.725  1.00  0.00    -0.082 Cl
ATOM     20  C   UNL     1      -1.385   0.369  -0.455  1.00  0.00     0.066 A 
ATOM     21  Cl  UNL     1      -2.974  -0.319  -0.368  1.00  0.00    -0.082 Cl
ENDBRANCH  11  13
ENDBRANCH   6  11
ENDBRANCH   3   5
ENDBRANCH   2   3
ENDBRANCH   1   2
BRANCH   1  22
ATOM     22  C   UNL     1       0.149  -0.907   4.254  1.00  0.00     0.275 C 
BRANCH  22  23
ATOM     23  O   UNL     1       1.333  -1.642   4.583  1.00  0.00    -0.458 OA
BRANCH  23  24
ATOM     24  C   UNL     1       1.140  -2.912   4.997  1.00  0.00     0.338 C 
ATOM     25  O   UNL     1       0.073  -3.474   5.228  1.00  0.00    -0.246 OA
BRANCH  24  26
ATOM     26  C   UNL     1       2.436  -3.587   5.120  1.00  0.00     0.060 A 
ATOM     27  C   UNL     1       3.252  -3.701   3.999  1.00  0.00     0.016 A 
ATOM     28  C   UNL     1       2.784  -4.221   6.308  1.00  0.00     0.016 A 
ATOM     29  C   UNL     1       4.362  -4.538   4.020  1.00  0.00     0.010 A 
ATOM     30  C   UNL     1       3.961  -4.976   6.362  1.00  0.00     0.010 A 
ATOM     31  C   UNL     1       4.737  -5.180   5.206  1.00  0.00    -0.014 A 
BRANCH  31  32
ATOM     32  C   UNL     1       5.902  -6.106   5.229  1.00  0.00     0.031 A 
ATOM     33  C   UNL     1       5.712  -7.536   5.661  1.00  0.00     0.074 A 
ATOM     34  C   UNL     1       7.127  -5.682   4.863  1.00  0.00     0.049 A 
ATOM     35  N   UNL     1       6.611  -8.438   5.964  1.00  0.00    -0.248 NA
ATOM     36  C   UNL     1       4.323  -8.009   5.788  1.00  0.00     0.031 C 
ATOM     37  C   UNL     1       7.452  -4.340   4.375  1.00  0.00     0.029 A 
ATOM     38  N   UNL     1       8.332  -6.341   4.843  1.00  0.00    -0.354 N 
ATOM     39  C   UNL     1       5.899  -9.552   6.392  1.00  0.00     0.074 A 
ATOM     40  C   UNL     1       4.494  -9.220   6.298  1.00  0.00     0.031 C 
ATOM     41  C   UNL     1       8.758  -4.284   4.075  1.00  0.00     0.029 A 
ATOM     42  C   UNL     1       9.380  -5.553   4.436  1.00  0.00     0.049 A 
ATOM     43  H   UNL     1       8.434  -7.286   5.098  1.00  0.00     0.167 HD
ATOM     44  C   UNL     1       6.379 -10.741   6.830  1.00  0.00     0.037 A 
ATOM     45  C   UNL     1      10.703  -5.801   4.402  1.00  0.00     0.037 A 
ATOM     46  C   UNL     1       7.774 -11.092   6.848  1.00  0.00     0.049 A 
ATOM     47  C   UNL     1      11.212  -7.127   4.886  1.00  0.00     0.074 A 
ATOM     48  C   UNL     1       8.360 -12.283   7.242  1.00  0.00     0.029 A 
ATOM     49  N   UNL     1       8.802 -10.259   6.434  1.00  0.00    -0.354 N 
ATOM     50  N   UNL     1      10.537  -8.149   5.352  1.00  0.00    -0.248 NA
ATOM     51  C   UNL     1      12.668  -7.324   4.863  1.00  0.00     0.031 C 
ATOM     52  C   UNL     1       9.746 -12.160   7.092  1.00  0.00     0.029 A 
ATOM     53  C   UNL     1      10.020 -10.905   6.571  1.00  0.00     0.049 A 
ATOM     54  H   UNL     1       8.684  -9.343   6.093  1.00  0.00     0.167 HD
ATOM     55  C   UNL     1      11.482  -9.111   5.679  1.00  0.00     0.074 A 
ATOM     56  C   UNL     1      12.777  -8.559   5.334  1.00  0.00     0.031 C 
ATOM     57  C   UNL     1      11.296 -10.336   6.226  1.00  0.00     0.037 A 
BRANCH  44  58
ATOM     58  C   UNL     1       5.388 -11.733   7.364  1.00  0.00     0.057 A 
ATOM     59  C   UNL     1       4.524 -12.454   6.533  1.00  0.00     0.134 A 
ATOM     60  C   UNL     1       5.318 -11.983   8.742  1.00  0.00     0.134 A 
ATOM     61  F   UNL     1       4.528 -12.250   5.207  1.00  0.00    -0.206 F 
ATOM     62  C   UNL     1       3.610 -13.373   7.053  1.00  0.00     0.040 A 
ATOM     63  C   UNL     1       4.426 -12.917   9.272  1.00  0.00     0.040 A 
ATOM     64  F   UNL     1       6.121 -11.329   9.595  1.00  0.00    -0.206 F 
ATOM     65  C   UNL     1       3.564 -13.611   8.426  1.00  0.00     0.006 A 
ENDBRANCH  44  58
BRANCH  45  66
ATOM     66  C   UNL     1      11.636  -4.744   3.940  1.00  0.00     0.057 A 
ATOM     67  C   UNL     1      12.306  -4.853   2.717  1.00  0.00     0.134 A 
ATOM     68  C   UNL     1      11.855  -3.586   4.696  1.00  0.00     0.134 A 
ATOM     69  F   UNL     1      12.155  -5.950   1.960  1.00  0.00    -0.206 F 
ATOM     70  C   UNL     1      13.163  -3.849   2.263  1.00  0.00     0.040 A 
ATOM     71  C   UNL     1      12.688  -2.562   4.242  1.00  0.00     0.040 A 
ATOM     72  F   UNL     1      11.239  -3.421   5.876  1.00  0.00    -0.206 F 
ATOM     73  C   UNL     1      13.347  -2.695   3.022  1.00  0.00     0.006 A 
ENDBRANCH  45  66
BRANCH  57  74
ATOM     74  C   UNL     1      12.522 -11.163   6.469  1.00  0.00     0.057 A 
ATOM     75  C   UNL     1      13.389 -10.892   7.535  1.00  0.00     0.134 A 
ATOM     76  C   UNL     1      12.824 -12.253   5.645  1.00  0.00     0.134 A 
ATOM     77  F   UNL     1      13.160  -9.852   8.350  1.00  0.00    -0.206 F 
ATOM     78  C   UNL     1      14.526 -11.669   7.761  1.00  0.00     0.040 A 
ATOM     79  C   UNL     1      13.947 -13.049   5.873  1.00  0.00     0.040 A 
ATOM     80  F   UNL     1      12.028 -12.566   4.611  1.00  0.00    -0.206 F 
ATOM     81  C   UNL     1      14.804 -12.754   6.931  1.00  0.00     0.006 A 
ENDBRANCH  57  74
ENDBRANCH  31  32
ENDBRANCH  24  26
ENDBRANCH  23  24
ENDBRANCH  22  23
ENDBRANCH   1  22
TORSDOF 13
