REMARK SMILES O=C(OCCOC(=O)c1ccc(F)cc1NC(=O)[C@H]1CCS(=O)(=O)C1)c1ccc(-c2c3nc(c(-c4c(F)cccc4F)c4ccc([nH]4)c(-c4c(F)cccc4F)c4nc(c(-c5c(F)cccc5F)c5ccc2[nH]5)C=C4)C=C3)cc1
REMARK SMILES IDX 4 1 3 2 2 3 1 4 26 5 27 6 79 7 28 8 78 9 29 10 30 11 31 12
REMARK SMILES IDX 72 13 32 14 77 15 71 16 73 17 33 18 76 19 70 20 69 21 34 23
REMARK SMILES IDX 60 24 43 25 59 26 44 27 47 28 58 29 74 30 45 31 46 32 57 34
REMARK SMILES IDX 75 35 48 36 35 37 36 38 41 39 37 40 38 41 40 42 42 43 39 44
REMARK SMILES IDX 61 45 62 46 67 47 63 48 64 49 66 50 68 51 65 52 49 53 50 54
REMARK SMILES IDX 55 55 51 56 52 57 54 58 56 59 53 60 5 61 6 62 7 63 8 64 9 65
REMARK SMILES IDX 10 66 15 67 11 68 14 69 12 70 13 71 16 72 17 73 18 75 19 76
REMARK SMILES IDX 20 77 25 78 21 79 22 80 23 81 24 82
REMARK H PARENT 73 22 47 33 16 74
REMARK Flexibility Score: inf
ROOT
ATOM      1  C   UNL     1      -2.199   0.278  -8.378  1.00  0.00     0.275 C 
ENDROOT
BRANCH   1   2
ATOM      2  O   UNL     1      -1.192   1.176  -7.896  1.00  0.00    -0.458 OA
BRANCH   2   3
ATOM      3  C   UNL     1      -1.295   2.223  -7.052  1.00  0.00     0.338 C 
ATOM      4  O   UNL     1      -0.265   2.811  -6.730  1.00  0.00    -0.246 OA
BRANCH   3   5
ATOM      5  C   UNL     1      -2.572   2.664  -6.397  1.00  0.00     0.060 A 
ATOM      6  C   UNL     1      -3.883   2.353  -6.780  1.00  0.00     0.016 A 
ATOM      7  C   UNL     1      -2.410   3.465  -5.258  1.00  0.00     0.016 A 
ATOM      8  C   UNL     1      -4.990   2.762  -6.024  1.00  0.00     0.010 A 
ATOM      9  C   UNL     1      -3.504   3.856  -4.493  1.00  0.00     0.010 A 
ATOM     10  C   UNL     1      -4.804   3.520  -4.876  1.00  0.00    -0.014 A 
BRANCH  10  11
ATOM     11  C   UNL     1      -5.919   4.164  -4.154  1.00  0.00     0.031 A 
ATOM     12  C   UNL     1      -6.016   5.659  -4.228  1.00  0.00     0.074 A 
ATOM     13  C   UNL     1      -6.749   3.454  -3.371  1.00  0.00     0.049 A 
ATOM     14  N   UNL     1      -6.784   6.473  -3.560  1.00  0.00    -0.248 NA
ATOM     15  C   UNL     1      -5.100   6.326  -5.172  1.00  0.00     0.031 C 
ATOM     16  C   UNL     1      -6.763   1.999  -3.253  1.00  0.00     0.029 A 
ATOM     17  N   UNL     1      -7.711   3.870  -2.487  1.00  0.00    -0.354 N 
ATOM     18  C   UNL     1      -6.440   7.742  -4.002  1.00  0.00     0.074 A 
ATOM     19  C   UNL     1      -5.329   7.601  -4.912  1.00  0.00     0.031 C 
ATOM     20  C   UNL     1      -7.633   1.644  -2.292  1.00  0.00     0.029 A 
ATOM     21  C   UNL     1      -8.235   2.849  -1.730  1.00  0.00     0.049 A 
ATOM     22  H   UNL     1      -7.999   4.808  -2.402  1.00  0.00     0.167 HD
ATOM     23  C   UNL     1      -7.044   8.917  -3.720  1.00  0.00     0.037 A 
ATOM     24  C   UNL     1      -9.089   2.889  -0.690  1.00  0.00     0.037 A 
ATOM     25  C   UNL     1      -8.164   9.027  -2.832  1.00  0.00     0.049 A 
ATOM     26  C   UNL     1      -9.690   4.212  -0.306  1.00  0.00     0.074 A 
ATOM     27  C   UNL     1      -8.920  10.142  -2.533  1.00  0.00     0.029 A 
ATOM     28  N   UNL     1      -8.674   7.973  -2.085  1.00  0.00    -0.354 N 
ATOM     29  N   UNL     1      -9.442   5.398  -0.808  1.00  0.00    -0.248 NA
ATOM     30  C   UNL     1     -10.718   4.207   0.744  1.00  0.00     0.031 C 
ATOM     31  C   UNL     1      -9.855   9.774  -1.562  1.00  0.00     0.029 A 
ATOM     32  C   UNL     1      -9.720   8.417  -1.301  1.00  0.00     0.049 A 
ATOM     33  H   UNL     1      -8.339   7.047  -2.111  1.00  0.00     0.167 HD
ATOM     34  C   UNL     1     -10.318   6.272  -0.181  1.00  0.00     0.074 A 
ATOM     35  C   UNL     1     -11.089   5.482   0.760  1.00  0.00     0.031 C 
ATOM     36  C   UNL     1     -10.486   7.601  -0.389  1.00  0.00     0.037 A 
BRANCH  23  37
ATOM     37  C   UNL     1      -6.507  10.141  -4.399  1.00  0.00     0.057 A 
ATOM     38  C   UNL     1      -5.866  11.144  -3.664  1.00  0.00     0.134 A 
ATOM     39  C   UNL     1      -6.599  10.316  -5.788  1.00  0.00     0.134 A 
ATOM     40  F   UNL     1      -5.747  11.045  -2.332  1.00  0.00    -0.206 F 
ATOM     41  C   UNL     1      -5.322  12.269  -4.287  1.00  0.00     0.040 A 
ATOM     42  C   UNL     1      -6.030  11.419  -6.426  1.00  0.00     0.040 A 
ATOM     43  F   UNL     1      -7.185   9.383  -6.555  1.00  0.00    -0.206 F 
ATOM     44  C   UNL     1      -5.392  12.402  -5.673  1.00  0.00     0.006 A 
ENDBRANCH  23  37
BRANCH  24  45
ATOM     45  C   UNL     1      -9.446   1.627   0.004  1.00  0.00     0.057 A 
ATOM     46  C   UNL     1      -8.538   0.987   0.859  1.00  0.00     0.134 A 
ATOM     47  C   UNL     1     -10.664   0.985  -0.236  1.00  0.00     0.134 A 
ATOM     48  F   UNL     1      -7.346   1.544   1.118  1.00  0.00    -0.206 F 
ATOM     49  C   UNL     1      -8.823  -0.253   1.434  1.00  0.00     0.040 A 
ATOM     50  C   UNL     1     -10.967  -0.250   0.342  1.00  0.00     0.040 A 
ATOM     51  F   UNL     1     -11.575   1.549  -1.042  1.00  0.00    -0.206 F 
ATOM     52  C   UNL     1     -10.041  -0.877   1.173  1.00  0.00     0.006 A 
ENDBRANCH  24  45
BRANCH  36  53
ATOM     53  C   UNL     1     -11.575   8.303   0.363  1.00  0.00     0.057 A 
ATOM     54  C   UNL     1     -12.706   8.773  -0.320  1.00  0.00     0.134 A 
ATOM     55  C   UNL     1     -11.425   8.665   1.705  1.00  0.00     0.134 A 
ATOM     56  F   UNL     1     -12.896   8.469  -1.613  1.00  0.00    -0.206 F 
ATOM     57  C   UNL     1     -13.626   9.620   0.295  1.00  0.00     0.040 A 
ATOM     58  C   UNL     1     -12.354   9.491   2.338  1.00  0.00     0.040 A 
ATOM     59  F   UNL     1     -10.369   8.236   2.412  1.00  0.00    -0.206 F 
ATOM     60  C   UNL     1     -13.446   9.987   1.627  1.00  0.00     0.006 A 
ENDBRANCH  36  53
ENDBRANCH  10  11
ENDBRANCH   3   5
ENDBRANCH   2   3
ENDBRANCH   1   2
BRANCH   1  61
ATOM     61  C   UNL     1      -2.627  -0.804  -7.381  1.00  0.00     0.275 C 
BRANCH  61  62
ATOM     62  O   UNL     1      -2.966  -0.332  -6.063  1.00  0.00    -0.458 OA
BRANCH  62  63
ATOM     63  C   UNL     1      -1.959  -0.292  -5.147  1.00  0.00     0.340 C 
ATOM     64  O   UNL     1      -0.784  -0.532  -5.360  1.00  0.00    -0.246 OA
BRANCH  63  65
ATOM     65  C   UNL     1      -2.469   0.124  -3.811  1.00  0.00     0.083 A 
ATOM     66  C   UNL     1      -3.738  -0.351  -3.424  1.00  0.00     0.021 A 
ATOM     67  C   UNL     1      -1.703   0.931  -2.923  1.00  0.00     0.058 A 
ATOM     68  C   UNL     1      -4.236  -0.068  -2.156  1.00  0.00     0.040 A 
ATOM     69  C   UNL     1      -2.187   1.102  -1.625  1.00  0.00     0.066 A 
ATOM     70  C   UNL     1      -3.448   0.637  -1.265  1.00  0.00     0.125 A 
ATOM     71  F   UNL     1      -3.909   0.887  -0.034  1.00  0.00    -0.207 F 
BRANCH  67  72
ATOM     72  N   UNL     1      -0.514   1.562  -3.368  1.00  0.00    -0.325 N 
ATOM     73  C   UNL     1       0.235   2.624  -2.933  1.00  0.00     0.228 C 
ATOM     74  H   UNL     1      -0.141   1.140  -4.175  1.00  0.00     0.169 HD
ATOM     75  O   UNL     1       1.262   2.873  -3.573  1.00  0.00    -0.274 OA
BRANCH  73  76
ATOM     76  C   UNL     1      -0.108   3.499  -1.728  1.00  0.00     0.095 C 
ATOM     77  C   UNL     1       0.859   4.709  -1.599  1.00  0.00     0.030 C 
ATOM     78  C   UNL     1      -1.456   4.203  -1.774  1.00  0.00     0.150 C 
ATOM     79  C   UNL     1       0.337   5.620  -0.483  1.00  0.00     0.138 C 
ATOM     80  S   UNL     1      -1.413   5.304  -0.384  1.00  0.00     0.151 S 
ATOM     81  O   UNL     1      -1.677   4.524   0.805  1.00  0.00    -0.229 OA
ATOM     82  O   UNL     1      -2.154   6.502  -0.719  1.00  0.00    -0.229 OA
ENDBRANCH  73  76
ENDBRANCH  67  72
ENDBRANCH  63  65
ENDBRANCH  62  63
ENDBRANCH  61  62
ENDBRANCH   1  61
TORSDOF 13
