REMARK SMILES COC(=O)c1ccc(C)c2c1[C@H]1C=CC[C@H]1[C@@H](c1ccc(C(=O)OCCOC(=O)c3ccc(-c4c5nc(c(-c6c(F)cccc6F)c6ccc([nH]6)c(-c6c(F)cccc6F)c6nc(c(-c7c(F)cccc7F)c7ccc4[nH]7)C=C6)C=C5)cc3)cc1)N2
REMARK SMILES IDX 25 1 24 2 22 3 23 4 21 5 18 6 19 7 85 8 20 9 84 10 17 11
REMARK SMILES IDX 5 12 6 13 11 14 7 15 10 16 12 17 8 18 86 19 13 20 16 21 9 22
REMARK SMILES IDX 14 24 15 25 3 26 4 27 2 28 1 29 26 30 27 31 28 32 29 33
REMARK SMILES IDX 30 34 31 35 83 36 32 37 82 38 33 39 34 40 35 41 76 42 36 43
REMARK SMILES IDX 81 44 75 45 77 46 37 47 80 48 74 49 73 50 38 52 64 53 47 54
REMARK SMILES IDX 63 55 48 56 51 57 62 58 78 59 49 60 50 61 61 63 79 64 52 65
REMARK SMILES IDX 39 66 40 67 45 68 41 69 42 70 44 71 46 72 43 73 65 74 66 75
REMARK SMILES IDX 71 76 67 77 68 78 70 79 72 80 69 81 53 82 54 83 59 84 55 85
REMARK SMILES IDX 56 86 58 87 60 88 57 89
REMARK H PARENT 86 23 77 51 51 62
REMARK Flexibility Score: inf
ROOT
ATOM      1  C   UNL     1       5.949   6.580  -5.836  1.00  0.00     0.275 C 
ENDROOT
BRANCH   1   2
ATOM      2  O   UNL     1       5.649   6.914  -4.468  1.00  0.00    -0.458 OA
BRANCH   2   3
ATOM      3  C   UNL     1       4.351   7.199  -4.206  1.00  0.00     0.338 C 
ATOM      4  O   UNL     1       3.449   7.274  -5.026  1.00  0.00    -0.246 OA
BRANCH   3   5
ATOM      5  C   UNL     1       4.114   7.272  -2.744  1.00  0.00     0.060 A 
ATOM      6  C   UNL     1       3.539   7.085   0.029  1.00  0.00    -0.025 A 
ATOM      7  C   UNL     1       2.543   6.904  -0.944  1.00  0.00     0.007 A 
ATOM      8  C   UNL     1       4.822   7.440  -0.430  1.00  0.00     0.007 A 
ATOM      9  C   UNL     1       2.814   7.030  -2.304  1.00  0.00     0.016 A 
ATOM     10  C   UNL     1       5.117   7.506  -1.802  1.00  0.00     0.016 A 
BRANCH   6  11
ATOM     11  C   UNL     1       3.264   6.929   1.533  1.00  0.00     0.114 C 
ATOM     12  C   UNL     1       0.335   3.812   1.585  1.00  0.00     0.065 A 
ATOM     13  C   UNL     1      -0.990   4.109   1.276  1.00  0.00     0.016 A 
ATOM     14  C   UNL     1       1.307   4.822   1.739  1.00  0.00    -0.003 A 
ATOM     15  C   UNL     1      -1.370   5.439   1.160  1.00  0.00     0.006 A 
ATOM     16  C   UNL     1       0.905   6.174   1.683  1.00  0.00     0.042 A 
ATOM     17  C   UNL     1       2.752   4.456   1.985  1.00  0.00     0.050 C 
ATOM     18  C   UNL     1      -0.444   6.478   1.379  1.00  0.00    -0.028 A 
ATOM     19  N   UNL     1       1.854   7.181   1.828  1.00  0.00    -0.377 N 
ATOM     20  C   UNL     1       3.482   3.799   0.838  1.00  0.00    -0.023 C 
ATOM     21  C   UNL     1       3.692   5.639   2.278  1.00  0.00     0.031 C 
ATOM     22  C   UNL     1      -0.966   7.880   1.193  1.00  0.00     0.046 C 
ATOM     23  H   UNL     1       1.573   8.074   2.132  1.00  0.00     0.161 HD
ATOM     24  C   UNL     1       4.778   4.133   0.827  1.00  0.00    -0.030 C 
ATOM     25  C   UNL     1       5.085   5.098   1.925  1.00  0.00     0.034 C 
BRANCH  12  26
ATOM     26  C   UNL     1       0.683   2.406   1.821  1.00  0.00     0.338 C 
ATOM     27  O   UNL     1       0.777   1.911   2.934  1.00  0.00    -0.246 OA
BRANCH  26  28
ATOM     28  O   UNL     1       0.959   1.840   0.628  1.00  0.00    -0.465 OA
ATOM     29  C   UNL     1       1.510   0.529   0.705  1.00  0.00     0.282 C 
ENDBRANCH  26  28
ENDBRANCH  12  26
ENDBRANCH   6  11
ENDBRANCH   3   5
ENDBRANCH   2   3
ENDBRANCH   1   2
BRANCH   1  30
ATOM     30  C   UNL     1       6.171   5.074  -5.994  1.00  0.00     0.275 C 
BRANCH  30  31
ATOM     31  O   UNL     1       4.942   4.333  -5.847  1.00  0.00    -0.458 OA
BRANCH  31  32
ATOM     32  C   UNL     1       4.750   3.754  -4.639  1.00  0.00     0.338 C 
ATOM     33  O   UNL     1       5.498   3.778  -3.676  1.00  0.00    -0.246 OA
BRANCH  32  34
ATOM     34  C   UNL     1       3.417   3.126  -4.597  1.00  0.00     0.060 A 
ATOM     35  C   UNL     1       2.448   3.707  -3.781  1.00  0.00     0.016 A 
ATOM     36  C   UNL     1       3.146   1.930  -5.265  1.00  0.00     0.016 A 
ATOM     37  C   UNL     1       1.202   3.102  -3.620  1.00  0.00     0.010 A 
ATOM     38  C   UNL     1       1.892   1.322  -5.107  1.00  0.00     0.010 A 
ATOM     39  C   UNL     1       0.916   1.894  -4.269  1.00  0.00    -0.014 A 
BRANCH  39  40
ATOM     40  C   UNL     1      -0.383   1.220  -4.011  1.00  0.00     0.031 A 
ATOM     41  C   UNL     1      -0.450   0.025  -3.099  1.00  0.00     0.074 A 
ATOM     42  C   UNL     1      -1.518   1.705  -4.548  1.00  0.00     0.049 A 
ATOM     43  N   UNL     1      -1.505  -0.602  -2.637  1.00  0.00    -0.248 NA
ATOM     44  C   UNL     1       0.829  -0.531  -2.631  1.00  0.00     0.031 C 
ATOM     45  C   UNL     1      -1.611   2.854  -5.447  1.00  0.00     0.029 A 
ATOM     46  N   UNL     1      -2.816   1.272  -4.423  1.00  0.00    -0.354 N 
ATOM     47  C   UNL     1      -1.019  -1.551  -1.747  1.00  0.00     0.074 A 
ATOM     48  C   UNL     1       0.423  -1.511  -1.834  1.00  0.00     0.031 C 
ATOM     49  C   UNL     1      -2.892   3.013  -5.823  1.00  0.00     0.029 A 
ATOM     50  C   UNL     1      -3.706   1.970  -5.201  1.00  0.00     0.049 A 
ATOM     51  H   UNL     1      -3.082   0.531  -3.832  1.00  0.00     0.167 HD
ATOM     52  C   UNL     1      -1.712  -2.334  -0.886  1.00  0.00     0.037 A 
ATOM     53  C   UNL     1      -5.021   1.770  -5.409  1.00  0.00     0.037 A 
ATOM     54  C   UNL     1      -3.140  -2.466  -0.874  1.00  0.00     0.049 A 
ATOM     55  C   UNL     1      -5.732   0.671  -4.663  1.00  0.00     0.074 A 
ATOM     56  C   UNL     1      -3.928  -3.254  -0.055  1.00  0.00     0.029 A 
ATOM     57  N   UNL     1      -3.989  -1.833  -1.765  1.00  0.00    -0.354 N 
ATOM     58  N   UNL     1      -5.282  -0.111  -3.712  1.00  0.00    -0.248 NA
ATOM     59  C   UNL     1      -7.138   0.430  -5.019  1.00  0.00     0.031 C 
ATOM     60  C   UNL     1      -5.251  -3.155  -0.502  1.00  0.00     0.029 A 
ATOM     61  C   UNL     1      -5.287  -2.271  -1.568  1.00  0.00     0.049 A 
ATOM     62  H   UNL     1      -3.711  -1.171  -2.438  1.00  0.00     0.167 HD
ATOM     63  C   UNL     1      -6.357  -0.906  -3.331  1.00  0.00     0.074 A 
ATOM     64  C   UNL     1      -7.482  -0.509  -4.149  1.00  0.00     0.031 C 
ATOM     65  C   UNL     1      -6.406  -1.872  -2.381  1.00  0.00     0.037 A 
BRANCH  52  66
ATOM     66  C   UNL     1      -0.926  -3.081   0.144  1.00  0.00     0.057 A 
ATOM     67  C   UNL     1      -0.543  -4.412  -0.039  1.00  0.00     0.134 A 
ATOM     68  C   UNL     1      -0.583  -2.465   1.355  1.00  0.00     0.134 A 
ATOM     69  F   UNL     1      -0.868  -5.063  -1.165  1.00  0.00    -0.206 F 
ATOM     70  C   UNL     1       0.183  -5.096   0.937  1.00  0.00     0.040 A 
ATOM     71  C   UNL     1       0.165  -3.128   2.327  1.00  0.00     0.040 A 
ATOM     72  F   UNL     1      -0.964  -1.204   1.605  1.00  0.00    -0.206 F 
ATOM     73  C   UNL     1       0.550  -4.450   2.119  1.00  0.00     0.006 A 
ENDBRANCH  52  66
BRANCH  53  74
ATOM     74  C   UNL     1      -5.758   2.589  -6.405  1.00  0.00     0.057 A 
ATOM     75  C   UNL     1      -5.496   2.461  -7.776  1.00  0.00     0.134 A 
ATOM     76  C   UNL     1      -6.788   3.455  -6.025  1.00  0.00     0.134 A 
ATOM     77  F   UNL     1      -4.528   1.638  -8.207  1.00  0.00    -0.206 F 
ATOM     78  C   UNL     1      -6.231   3.163  -8.731  1.00  0.00     0.040 A 
ATOM     79  C   UNL     1      -7.549   4.145  -6.971  1.00  0.00     0.040 A 
ATOM     80  F   UNL     1      -7.107   3.598  -4.730  1.00  0.00    -0.206 F 
ATOM     81  C   UNL     1      -7.269   4.000  -8.329  1.00  0.00     0.006 A 
ENDBRANCH  53  74
BRANCH  65  82
ATOM     82  C   UNL     1      -7.724  -2.551  -2.152  1.00  0.00     0.057 A 
ATOM     83  C   UNL     1      -8.449  -2.329  -0.974  1.00  0.00     0.134 A 
ATOM     84  C   UNL     1      -8.262  -3.449  -3.082  1.00  0.00     0.134 A 
ATOM     85  F   UNL     1      -7.986  -1.488  -0.037  1.00  0.00    -0.206 F 
ATOM     86  C   UNL     1      -9.658  -2.980  -0.727  1.00  0.00     0.040 A 
ATOM     87  C   UNL     1      -9.486  -4.083  -2.860  1.00  0.00     0.040 A 
ATOM     88  F   UNL     1      -7.626  -3.695  -4.237  1.00  0.00    -0.206 F 
ATOM     89  C   UNL     1     -10.183  -3.854  -1.675  1.00  0.00     0.006 A 
ENDBRANCH  65  82
ENDBRANCH  39  40
ENDBRANCH  32  34
ENDBRANCH  31  32
ENDBRANCH  30  31
ENDBRANCH   1  30
TORSDOF 14
