REMARK SMILES O=C(CSc1ccc(Cl)cc1)Nc1cccc(C(=O)Nc2ccc(C(=O)OCCOC(=O)c3ccc(-c4c5nc(c(-c6c(F)cccc6F)c6ccc([nH]6)c(-c6c(F)cccc6F)c6nc(c(-c7c(F)cccc7F)c7ccc4[nH]7)C=C6)C=C5)cc3)cc2)c1
REMARK SMILES IDX 25 1 26 2 24 3 21 4 22 5 88 6 23 7 87 8 20 9 18 10 19 11
REMARK SMILES IDX 17 13 13 14 14 15 89 16 15 17 16 18 12 19 1 20 2 21 3 23
REMARK SMILES IDX 4 24 5 25 6 26 11 27 7 28 10 29 8 30 9 31 27 32 28 33 29 34
REMARK SMILES IDX 30 35 31 36 32 37 33 38 34 39 86 40 35 41 85 42 36 43 37 44
REMARK SMILES IDX 38 45 79 46 39 47 84 48 78 49 80 50 40 51 83 52 77 53 76 54
REMARK SMILES IDX 41 56 67 57 50 58 66 59 51 60 54 61 65 62 81 63 52 64 53 65
REMARK SMILES IDX 64 67 82 68 55 69 42 70 43 71 48 72 44 73 45 74 47 75 49 76
REMARK SMILES IDX 46 77 68 78 69 79 74 80 70 81 71 82 73 83 75 84 72 85 56 86
REMARK SMILES IDX 57 87 62 88 58 89 59 90 61 91 63 92 60 93
REMARK H PARENT 20 12 12 22 80 55 54 66
REMARK Flexibility Score: inf
ROOT
ATOM      1  C   UNL     1       1.960   1.818  -2.224  1.00  0.00     0.338 C 
ATOM      2  O   UNL     1       1.409   2.470  -1.355  1.00  0.00    -0.246 OA
ENDROOT
BRANCH   1   3
ATOM      3  C   UNL     1       1.358   0.579  -2.779  1.00  0.00     0.060 A 
ATOM      4  C   UNL     1       0.099  -1.883  -3.138  1.00  0.00     0.041 A 
ATOM      5  C   UNL     1      -0.674  -0.732  -3.058  1.00  0.00     0.027 A 
ATOM      6  C   UNL     1       1.494  -1.788  -3.230  1.00  0.00     0.027 A 
ATOM      7  C   UNL     1      -0.040   0.480  -2.815  1.00  0.00     0.018 A 
ATOM      8  C   UNL     1       2.130  -0.549  -3.062  1.00  0.00     0.018 A 
BRANCH   4   9
ATOM      9  N   UNL     1      -0.580  -3.089  -2.927  1.00  0.00    -0.322 N 
ATOM     10  C   UNL     1      -0.311  -4.088  -2.008  1.00  0.00     0.255 C 
ATOM     11  O   UNL     1      -1.015  -5.099  -2.007  1.00  0.00    -0.269 OA
ATOM     12  H   UNL     1      -1.355  -3.249  -3.513  1.00  0.00     0.170 HD
BRANCH  10  13
ATOM     13  C   UNL     1       0.768  -3.968  -0.982  1.00  0.00     0.042 A 
ATOM     14  C   UNL     1       2.311  -2.655   0.361  1.00  0.00     0.041 A 
ATOM     15  C   UNL     1       3.006  -3.824   0.679  1.00  0.00     0.026 A 
ATOM     16  C   UNL     1       1.139  -2.750  -0.393  1.00  0.00     0.040 A 
ATOM     17  C   UNL     1       2.542  -5.065   0.240  1.00  0.00     0.003 A 
ATOM     18  C   UNL     1       1.438  -5.135  -0.609  1.00  0.00     0.014 A 
BRANCH  14  19
ATOM     19  N   UNL     1       2.898  -1.424   0.723  1.00  0.00    -0.325 N 
ATOM     20  O   UNL     1       1.109   0.038   0.526  1.00  0.00    -0.274 OA
ATOM     21  C   UNL     1       2.310  -0.171   0.672  1.00  0.00     0.234 C 
ATOM     22  H   UNL     1       3.827  -1.460   1.046  1.00  0.00     0.169 HD
BRANCH  21  23
ATOM     23  C   UNL     1       3.309   0.980   0.724  1.00  0.00     0.175 C 
BRANCH  23  24
ATOM     24  S   UNL     1       4.489   0.842   2.101  1.00  0.00    -0.116 SA
BRANCH  24  25
ATOM     25  C   UNL     1       3.322   0.869   3.443  1.00  0.00     0.008 A 
ATOM     26  C   UNL     1       2.768   2.070   3.897  1.00  0.00     0.016 A 
ATOM     27  C   UNL     1       2.936  -0.340   4.028  1.00  0.00     0.016 A 
ATOM     28  C   UNL     1       1.827   2.057   4.929  1.00  0.00     0.021 A 
ATOM     29  C   UNL     1       1.988  -0.355   5.049  1.00  0.00     0.021 A 
ATOM     30  C   UNL     1       1.440   0.844   5.499  1.00  0.00     0.041 A 
ATOM     31  Cl  UNL     1       0.281   0.825   6.769  1.00  0.00    -0.084 Cl
ENDBRANCH  24  25
ENDBRANCH  23  24
ENDBRANCH  21  23
ENDBRANCH  14  19
ENDBRANCH  10  13
ENDBRANCH   4   9
ENDBRANCH   1   3
BRANCH   1  32
ATOM     32  O   UNL     1       3.174   2.104  -2.755  1.00  0.00    -0.458 OA
BRANCH  32  33
ATOM     33  C   UNL     1       3.769   3.323  -2.253  1.00  0.00     0.275 C 
BRANCH  33  34
ATOM     34  C   UNL     1       3.478   4.519  -3.162  1.00  0.00     0.275 C 
BRANCH  34  35
ATOM     35  O   UNL     1       2.082   4.877  -3.134  1.00  0.00    -0.458 OA
BRANCH  35  36
ATOM     36  C   UNL     1       1.357   4.404  -4.170  1.00  0.00     0.338 C 
ATOM     37  O   UNL     1       1.760   3.745  -5.118  1.00  0.00    -0.246 OA
BRANCH  36  38
ATOM     38  C   UNL     1      -0.069   4.713  -4.001  1.00  0.00     0.060 A 
ATOM     39  C   UNL     1      -0.814   3.928  -3.132  1.00  0.00     0.016 A 
ATOM     40  C   UNL     1      -0.715   5.597  -4.859  1.00  0.00     0.016 A 
ATOM     41  C   UNL     1      -2.197   3.885  -3.227  1.00  0.00     0.010 A 
ATOM     42  C   UNL     1      -2.114   5.670  -4.841  1.00  0.00     0.010 A 
ATOM     43  C   UNL     1      -2.874   4.777  -4.062  1.00  0.00    -0.014 A 
BRANCH  43  44
ATOM     44  C   UNL     1      -4.362   4.751  -4.131  1.00  0.00     0.031 A 
ATOM     45  C   UNL     1      -5.053   4.596  -5.461  1.00  0.00     0.074 A 
ATOM     46  C   UNL     1      -5.098   4.853  -3.005  1.00  0.00     0.049 A 
ATOM     47  N   UNL     1      -6.314   4.770  -5.764  1.00  0.00    -0.248 NA
ATOM     48  C   UNL     1      -4.211   4.213  -6.606  1.00  0.00     0.031 C 
ATOM     49  C   UNL     1      -4.566   4.942  -1.642  1.00  0.00     0.029 A 
ATOM     50  N   UNL     1      -6.459   4.899  -2.825  1.00  0.00    -0.354 N 
ATOM     51  C   UNL     1      -6.405   4.581  -7.138  1.00  0.00     0.074 A 
ATOM     52  C   UNL     1      -5.070   4.286  -7.613  1.00  0.00     0.031 C 
ATOM     53  C   UNL     1      -5.581   4.996  -0.770  1.00  0.00     0.029 A 
ATOM     54  C   UNL     1      -6.832   5.064  -1.511  1.00  0.00     0.049 A 
ATOM     55  H   UNL     1      -7.105   4.822  -3.564  1.00  0.00     0.167 HD
ATOM     56  C   UNL     1      -7.503   4.650  -7.928  1.00  0.00     0.037 A 
ATOM     57  C   UNL     1      -8.036   5.310  -0.963  1.00  0.00     0.037 A 
ATOM     58  C   UNL     1      -8.835   4.894  -7.434  1.00  0.00     0.049 A 
ATOM     59  C   UNL     1      -9.227   5.443  -1.865  1.00  0.00     0.074 A 
ATOM     60  C   UNL     1     -10.019   4.972  -8.147  1.00  0.00     0.029 A 
ATOM     61  N   UNL     1      -9.159   5.086  -6.099  1.00  0.00    -0.354 N 
ATOM     62  N   UNL     1      -9.294   5.321  -3.168  1.00  0.00    -0.248 NA
ATOM     63  C   UNL     1     -10.508   5.766  -1.223  1.00  0.00     0.031 C 
ATOM     64  C   UNL     1     -11.051   5.260  -7.249  1.00  0.00     0.029 A 
ATOM     65  C   UNL     1     -10.521   5.302  -5.970  1.00  0.00     0.049 A 
ATOM     66  H   UNL     1      -8.516   5.071  -5.354  1.00  0.00     0.167 HD
ATOM     67  C   UNL     1     -10.625   5.528  -3.501  1.00  0.00     0.074 A 
ATOM     68  C   UNL     1     -11.333   5.765  -2.259  1.00  0.00     0.031 C 
ATOM     69  C   UNL     1     -11.209   5.525  -4.723  1.00  0.00     0.037 A 
BRANCH  56  70
ATOM     70  C   UNL     1      -7.312   4.498  -9.411  1.00  0.00     0.057 A 
ATOM     71  C   UNL     1      -6.978   3.274 -10.005  1.00  0.00     0.134 A 
ATOM     72  C   UNL     1      -7.504   5.594 -10.264  1.00  0.00     0.134 A 
ATOM     73  F   UNL     1      -6.766   2.187  -9.248  1.00  0.00    -0.206 F 
ATOM     74  C   UNL     1      -6.820   3.151 -11.387  1.00  0.00     0.040 A 
ATOM     75  C   UNL     1      -7.378   5.477 -11.650  1.00  0.00     0.040 A 
ATOM     76  F   UNL     1      -7.831   6.796  -9.766  1.00  0.00    -0.206 F 
ATOM     77  C   UNL     1      -7.029   4.253 -12.215  1.00  0.00     0.006 A 
ENDBRANCH  56  70
BRANCH  57  78
ATOM     78  C   UNL     1      -8.160   5.508   0.505  1.00  0.00     0.057 A 
ATOM     79  C   UNL     1      -8.868   4.602   1.302  1.00  0.00     0.134 A 
ATOM     80  C   UNL     1      -7.578   6.609   1.148  1.00  0.00     0.134 A 
ATOM     81  F   UNL     1      -9.467   3.539   0.745  1.00  0.00    -0.206 F 
ATOM     82  C   UNL     1      -9.007   4.790   2.678  1.00  0.00     0.040 A 
ATOM     83  C   UNL     1      -7.680   6.793   2.527  1.00  0.00     0.040 A 
ATOM     84  F   UNL     1      -6.881   7.515   0.445  1.00  0.00    -0.206 F 
ATOM     85  C   UNL     1      -8.405   5.885   3.295  1.00  0.00     0.006 A 
ENDBRANCH  57  78
BRANCH  69  86
ATOM     86  C   UNL     1     -12.694   5.736  -4.769  1.00  0.00     0.057 A 
ATOM     87  C   UNL     1     -13.276   6.981  -4.502  1.00  0.00     0.134 A 
ATOM     88  C   UNL     1     -13.549   4.680  -5.108  1.00  0.00     0.134 A 
ATOM     89  F   UNL     1     -12.512   8.029  -4.155  1.00  0.00    -0.206 F 
ATOM     90  C   UNL     1     -14.659   7.162  -4.546  1.00  0.00     0.040 A 
ATOM     91  C   UNL     1     -14.930   4.856  -5.185  1.00  0.00     0.040 A 
ATOM     92  F   UNL     1     -13.054   3.463  -5.383  1.00  0.00    -0.206 F 
ATOM     93  C   UNL     1     -15.489   6.099  -4.896  1.00  0.00     0.006 A 
ENDBRANCH  69  86
ENDBRANCH  43  44
ENDBRANCH  36  38
ENDBRANCH  35  36
ENDBRANCH  34  35
ENDBRANCH  33  34
ENDBRANCH  32  33
ENDBRANCH   1  32
TORSDOF 17
