REMARK SMILES C[C@H](C1CC1)n1c(SCC(=O)OCCOC(=O)c2ccc(-c3c4nc(c(-c5c(F)cccc5F)c5ccc([nH]5)c(-c5c(F)cccc5F)c5nc(c(-c6c(F)cccc6F)c6ccc3[nH]6)C=C5)C=C4)cc2)nc2cc(Cl)c(Cl)cc21
REMARK SMILES IDX 13 1 12 2 10 3 11 4 9 5 8 6 7 7 6 8 80 9 72 10 73 11 79 12
REMARK SMILES IDX 74 13 77 14 75 15 78 16 76 17 2 18 1 19 3 20 4 21 5 22 14 23
REMARK SMILES IDX 15 24 16 25 17 26 18 27 19 28 71 29 20 30 70 31 21 32 22 33
REMARK SMILES IDX 23 34 64 35 24 36 69 37 63 38 65 39 25 40 68 41 62 42 61 43
REMARK SMILES IDX 26 45 52 46 35 47 51 48 36 49 39 50 50 51 66 52 37 53 38 54
REMARK SMILES IDX 49 56 67 57 40 58 27 59 28 60 33 61 29 62 30 63 32 64 34 65
REMARK SMILES IDX 31 66 53 67 54 68 59 69 55 70 56 71 58 72 60 73 57 74 41 75
REMARK SMILES IDX 42 76 47 77 43 78 44 79 46 80 48 81 45 82
REMARK H PARENT 65 44 39 55
REMARK Flexibility Score: inf
ROOT
ATOM      1  C   UNL     1       0.655  -0.505  -5.240  1.00  0.00     0.274 C 
ENDROOT
BRANCH   1   2
ATOM      2  O   UNL     1      -0.147  -0.976  -4.125  1.00  0.00    -0.461 OA
BRANCH   2   3
ATOM      3  C   UNL     1       0.237  -2.136  -3.530  1.00  0.00     0.316 C 
ATOM      4  O   UNL     1       1.286  -2.722  -3.789  1.00  0.00    -0.251 OA
BRANCH   3   5
ATOM      5  C   UNL     1      -0.674  -2.627  -2.423  1.00  0.00     0.200 C 
BRANCH   5   6
ATOM      6  S   UNL     1      -2.373  -2.123  -2.442  1.00  0.00    -0.076 SA
BRANCH   6   7
ATOM      7  C   UNL     1      -2.692  -0.667  -1.562  1.00  0.00     0.169 A 
ATOM      8  N   UNL     1      -1.899   0.224  -0.871  1.00  0.00    -0.316 N 
ATOM      9  C   UNL     1      -2.585   1.446  -0.908  1.00  0.00     0.071 A 
ATOM     10  N   UNL     1      -3.929  -0.208  -1.629  1.00  0.00    -0.222 NA
ATOM     11  C   UNL     1      -3.870   1.109  -1.298  1.00  0.00     0.091 A 
ATOM     12  C   UNL     1      -2.212   2.777  -0.650  1.00  0.00     0.050 A 
ATOM     13  C   UNL     1      -4.865   2.093  -1.371  1.00  0.00     0.052 A 
ATOM     14  C   UNL     1      -3.197   3.765  -0.785  1.00  0.00     0.061 A 
ATOM     15  C   UNL     1      -4.512   3.426  -1.123  1.00  0.00     0.061 A 
ATOM     16  Cl  UNL     1      -2.701   5.404  -0.531  1.00  0.00    -0.083 Cl
ATOM     17  Cl  UNL     1      -5.754   4.619  -1.290  1.00  0.00    -0.083 Cl
BRANCH   8  18
ATOM     18  C   UNL     1      -0.581   0.136  -0.237  1.00  0.00     0.090 C 
ATOM     19  C   UNL     1       0.567   0.162  -1.213  1.00  0.00     0.032 C 
BRANCH  18  20
ATOM     20  C   UNL     1      -0.436  -0.703   1.016  1.00  0.00     0.012 C 
ATOM     21  C   UNL     1      -1.013  -2.079   1.230  1.00  0.00     0.006 C 
ATOM     22  C   UNL     1       0.473  -1.912   1.121  1.00  0.00     0.006 C 
ENDBRANCH  18  20
ENDBRANCH   8  18
ENDBRANCH   6   7
ENDBRANCH   5   6
ENDBRANCH   3   5
ENDBRANCH   2   3
ENDBRANCH   1   2
BRANCH   1  23
ATOM     23  C   UNL     1       0.890   1.016  -5.150  1.00  0.00     0.275 C 
BRANCH  23  24
ATOM     24  O   UNL     1       2.254   1.230  -4.729  1.00  0.00    -0.458 OA
BRANCH  24  25
ATOM     25  C   UNL     1       2.471   2.044  -3.673  1.00  0.00     0.338 C 
ATOM     26  O   UNL     1       1.858   3.080  -3.415  1.00  0.00    -0.246 OA
BRANCH  25  27
ATOM     27  C   UNL     1       3.351   1.335  -2.707  1.00  0.00     0.060 A 
ATOM     28  C   UNL     1       3.717   1.914  -1.489  1.00  0.00     0.016 A 
ATOM     29  C   UNL     1       3.562  -0.029  -2.883  1.00  0.00     0.016 A 
ATOM     30  C   UNL     1       4.099   1.089  -0.410  1.00  0.00     0.010 A 
ATOM     31  C   UNL     1       3.925  -0.827  -1.808  1.00  0.00     0.010 A 
ATOM     32  C   UNL     1       4.086  -0.318  -0.520  1.00  0.00    -0.014 A 
BRANCH  32  33
ATOM     33  C   UNL     1       4.246  -1.214   0.664  1.00  0.00     0.031 A 
ATOM     34  C   UNL     1       4.398  -0.595   2.029  1.00  0.00     0.074 A 
ATOM     35  C   UNL     1       4.153  -2.572   0.725  1.00  0.00     0.049 A 
ATOM     36  N   UNL     1       5.486  -0.494   2.725  1.00  0.00    -0.248 NA
ATOM     37  C   UNL     1       3.211  -0.068   2.722  1.00  0.00     0.031 C 
ATOM     38  C   UNL     1       3.687  -3.566  -0.256  1.00  0.00     0.029 A 
ATOM     39  N   UNL     1       4.512  -3.370   1.793  1.00  0.00    -0.354 N 
ATOM     40  C   UNL     1       5.119  -0.032   3.989  1.00  0.00     0.074 A 
ATOM     41  C   UNL     1       3.709   0.259   3.919  1.00  0.00     0.031 C 
ATOM     42  C   UNL     1       3.723  -4.805   0.274  1.00  0.00     0.029 A 
ATOM     43  C   UNL     1       4.322  -4.725   1.584  1.00  0.00     0.049 A 
ATOM     44  H   UNL     1       4.873  -3.005   2.633  1.00  0.00     0.167 HD
ATOM     45  C   UNL     1       5.977  -0.035   5.049  1.00  0.00     0.037 A 
ATOM     46  C   UNL     1       4.707  -5.770   2.347  1.00  0.00     0.037 A 
ATOM     47  C   UNL     1       7.336  -0.266   4.646  1.00  0.00     0.049 A 
ATOM     48  C   UNL     1       5.869  -5.343   3.147  1.00  0.00     0.074 A 
ATOM     49  C   UNL     1       8.251   0.386   3.846  1.00  0.00     0.029 A 
ATOM     50  N   UNL     1       7.851  -1.518   4.858  1.00  0.00    -0.354 N 
ATOM     51  N   UNL     1       7.039  -5.059   2.647  1.00  0.00    -0.248 NA
ATOM     52  C   UNL     1       5.683  -4.990   4.545  1.00  0.00     0.031 C 
ATOM     53  C   UNL     1       9.024  -0.652   3.241  1.00  0.00     0.029 A 
ATOM     54  C   UNL     1       8.531  -1.868   3.718  1.00  0.00     0.049 A 
ATOM     55  H   UNL     1       7.753  -2.062   5.672  1.00  0.00     0.167 HD
ATOM     56  C   UNL     1       7.589  -4.152   3.531  1.00  0.00     0.074 A 
ATOM     57  C   UNL     1       6.801  -4.291   4.748  1.00  0.00     0.031 C 
ATOM     58  C   UNL     1       8.445  -3.178   3.108  1.00  0.00     0.037 A 
BRANCH  45  59
ATOM     59  C   UNL     1       5.580  -0.080   6.500  1.00  0.00     0.057 A 
ATOM     60  C   UNL     1       6.491   0.317   7.497  1.00  0.00     0.134 A 
ATOM     61  C   UNL     1       4.432  -0.749   6.963  1.00  0.00     0.134 A 
ATOM     62  F   UNL     1       7.644   0.922   7.173  1.00  0.00    -0.206 F 
ATOM     63  C   UNL     1       6.281   0.053   8.857  1.00  0.00     0.040 A 
ATOM     64  C   UNL     1       4.194  -0.985   8.322  1.00  0.00     0.040 A 
ATOM     65  F   UNL     1       3.541  -1.275   6.110  1.00  0.00    -0.206 F 
ATOM     66  C   UNL     1       5.128  -0.599   9.275  1.00  0.00     0.006 A 
ENDBRANCH  45  59
BRANCH  46  67
ATOM     67  C   UNL     1       4.141  -7.131   2.396  1.00  0.00     0.057 A 
ATOM     68  C   UNL     1       4.898  -8.237   2.799  1.00  0.00     0.134 A 
ATOM     69  C   UNL     1       2.757  -7.339   2.254  1.00  0.00     0.134 A 
ATOM     70  F   UNL     1       6.221  -8.129   2.982  1.00  0.00    -0.206 F 
ATOM     71  C   UNL     1       4.308  -9.476   3.074  1.00  0.00     0.040 A 
ATOM     72  C   UNL     1       2.156  -8.572   2.518  1.00  0.00     0.040 A 
ATOM     73  F   UNL     1       1.939  -6.329   1.921  1.00  0.00    -0.206 F 
ATOM     74  C   UNL     1       2.931  -9.643   2.946  1.00  0.00     0.006 A 
ENDBRANCH  46  67
BRANCH  58  75
ATOM     75  C   UNL     1       9.107  -3.354   1.770  1.00  0.00     0.057 A 
ATOM     76  C   UNL     1       8.420  -3.364   0.547  1.00  0.00     0.134 A 
ATOM     77  C   UNL     1      10.505  -3.382   1.708  1.00  0.00     0.134 A 
ATOM     78  F   UNL     1       7.088  -3.247   0.500  1.00  0.00    -0.206 F 
ATOM     79  C   UNL     1       9.092  -3.442  -0.677  1.00  0.00     0.040 A 
ATOM     80  C   UNL     1      11.191  -3.429   0.490  1.00  0.00     0.040 A 
ATOM     81  F   UNL     1      11.233  -3.319   2.834  1.00  0.00    -0.206 F 
ATOM     82  C   UNL     1      10.483  -3.469  -0.708  1.00  0.00     0.006 A 
ENDBRANCH  58  75
ENDBRANCH  32  33
ENDBRANCH  25  27
ENDBRANCH  24  25
ENDBRANCH  23  24
ENDBRANCH   1  23
TORSDOF 15
