REMARK SMILES Cc1cc(CNC(=O)C[C@H](C)CC(=O)OCCOC(=O)c2ccc(-c3c4nc(c(-c5c(F)cccc5F)c5ccc([nH]5)c(-c5c(F)cccc5F)c5nc(c(-c6c(F)cccc6F)c6ccc3[nH]6)C=C5)C=C4)cc2)cc(C)c1F
REMARK SMILES IDX 15 1 13 2 14 3 12 4 10 5 11 6 9 7 7 8 6 9 8 11 5 12 4 13
REMARK SMILES IDX 1 14 2 15 3 16 78 17 76 18 79 19 75 20 77 21 16 22 17 23
REMARK SMILES IDX 18 24 19 25 20 26 21 27 22 28 74 29 23 30 73 31 24 32 25 33
REMARK SMILES IDX 26 34 67 35 27 36 72 37 66 38 68 39 28 40 71 41 65 42 64 43
REMARK SMILES IDX 29 45 55 46 38 47 54 48 39 49 42 50 53 51 69 52 40 53 41 54
REMARK SMILES IDX 52 56 70 57 43 58 30 59 31 60 36 61 32 62 33 63 35 64 37 65
REMARK SMILES IDX 34 66 56 67 57 68 62 69 58 70 59 71 61 72 63 73 60 74 44 75
REMARK SMILES IDX 45 76 50 77 46 78 47 79 49 80 51 81 48 82
REMARK H PARENT 6 10 68 44 42 55
REMARK Flexibility Score: inf
ROOT
ATOM      1  O   UNL     1       2.256  -5.662   4.680  1.00  0.00    -0.462 OA
ENDROOT
BRANCH   1   2
ATOM      2  C   UNL     1       0.933  -5.378   4.745  1.00  0.00     0.306 C 
ATOM      3  O   UNL     1       0.281  -5.308   5.780  1.00  0.00    -0.252 OA
BRANCH   2   4
ATOM      4  C   UNL     1       0.326  -5.083   3.385  1.00  0.00     0.126 C 
BRANCH   4   5
ATOM      5  C   UNL     1       1.261  -5.248   2.170  1.00  0.00     0.006 C 
ATOM      6  C   UNL     1       1.503  -6.747   1.942  1.00  0.00     0.009 C 
BRANCH   5   7
ATOM      7  C   UNL     1       0.674  -4.499   0.956  1.00  0.00     0.104 C 
BRANCH   7   8
ATOM      8  C   UNL     1       1.199  -4.942  -0.397  1.00  0.00     0.220 C 
ATOM      9  N   UNL     1       2.460  -4.640  -0.801  1.00  0.00    -0.352 N 
ATOM     10  H   UNL     1       2.752  -5.098  -1.623  1.00  0.00     0.163 HD
ATOM     11  O   UNL     1       0.490  -5.619  -1.146  1.00  0.00    -0.275 OA
BRANCH   9  12
ATOM     12  C   UNL     1       3.445  -3.751  -0.218  1.00  0.00     0.151 C 
BRANCH  12  13
ATOM     13  C   UNL     1       4.753  -4.444   0.097  1.00  0.00    -0.028 A 
ATOM     14  C   UNL     1       5.900  -7.364   2.252  1.00  0.00     0.047 C 
ATOM     15  C   UNL     1       5.957  -6.188   1.326  1.00  0.00    -0.015 A 
ATOM     16  C   UNL     1       4.767  -5.608   0.875  1.00  0.00     0.012 A 
ATOM     17  C   UNL     1       7.163  -5.601   0.954  1.00  0.00     0.129 A 
ATOM     18  C   UNL     1       7.196  -4.462   0.143  1.00  0.00    -0.015 A 
ATOM     19  F   UNL     1       8.313  -6.130   1.398  1.00  0.00    -0.206 F 
ATOM     20  C   UNL     1       5.984  -3.885  -0.277  1.00  0.00     0.012 A 
ATOM     21  C   UNL     1       8.504  -3.856  -0.270  1.00  0.00     0.047 C 
ENDBRANCH  12  13
ENDBRANCH   9  12
ENDBRANCH   7   8
ENDBRANCH   5   7
ENDBRANCH   4   5
ENDBRANCH   2   4
ENDBRANCH   1   2
BRANCH   1  22
ATOM     22  C   UNL     1       2.974  -5.815   5.917  1.00  0.00     0.274 C 
BRANCH  22  23
ATOM     23  C   UNL     1       3.965  -4.661   6.081  1.00  0.00     0.275 C 
BRANCH  23  24
ATOM     24  O   UNL     1       3.264  -3.443   6.396  1.00  0.00    -0.458 OA
BRANCH  24  25
ATOM     25  C   UNL     1       2.935  -2.669   5.338  1.00  0.00     0.338 C 
ATOM     26  O   UNL     1       3.233  -2.824   4.167  1.00  0.00    -0.246 OA
BRANCH  25  27
ATOM     27  C   UNL     1       1.978  -1.654   5.794  1.00  0.00     0.060 A 
ATOM     28  C   UNL     1       0.630  -1.852   5.494  1.00  0.00     0.016 A 
ATOM     29  C   UNL     1       2.400  -0.501   6.454  1.00  0.00     0.016 A 
ATOM     30  C   UNL     1      -0.312  -0.891   5.829  1.00  0.00     0.010 A 
ATOM     31  C   UNL     1       1.449   0.462   6.807  1.00  0.00     0.010 A 
ATOM     32  C   UNL     1       0.094   0.276   6.481  1.00  0.00    -0.014 A 
BRANCH  32  33
ATOM     33  C   UNL     1      -0.910   1.322   6.765  1.00  0.00     0.031 A 
ATOM     34  C   UNL     1      -0.967   2.541   5.895  1.00  0.00     0.074 A 
ATOM     35  C   UNL     1      -1.785   1.149   7.771  1.00  0.00     0.049 A 
ATOM     36  N   UNL     1      -1.724   3.600   6.006  1.00  0.00    -0.248 NA
ATOM     37  C   UNL     1      -0.051   2.571   4.743  1.00  0.00     0.031 C 
ATOM     38  C   UNL     1      -1.857  -0.028   8.639  1.00  0.00     0.029 A 
ATOM     39  N   UNL     1      -2.780   1.969   8.235  1.00  0.00    -0.354 N 
ATOM     40  C   UNL     1      -1.370   4.428   4.950  1.00  0.00     0.074 A 
ATOM     41  C   UNL     1      -0.318   3.758   4.217  1.00  0.00     0.031 C 
ATOM     42  C   UNL     1      -2.836   0.153   9.541  1.00  0.00     0.029 A 
ATOM     43  C   UNL     1      -3.429   1.471   9.338  1.00  0.00     0.049 A 
ATOM     44  H   UNL     1      -3.007   2.832   7.818  1.00  0.00     0.167 HD
ATOM     45  C   UNL     1      -1.881   5.638   4.624  1.00  0.00     0.037 A 
ATOM     46  C   UNL     1      -4.374   2.036  10.112  1.00  0.00     0.037 A 
ATOM     47  C   UNL     1      -2.933   6.293   5.356  1.00  0.00     0.049 A 
ATOM     48  C   UNL     1      -4.862   3.418   9.773  1.00  0.00     0.074 A 
ATOM     49  C   UNL     1      -3.532   7.513   5.100  1.00  0.00     0.029 A 
ATOM     50  N   UNL     1      -3.538   5.778   6.492  1.00  0.00    -0.354 N 
ATOM     51  N   UNL     1      -4.527   4.191   8.768  1.00  0.00    -0.248 NA
ATOM     52  C   UNL     1      -5.854   4.008  10.681  1.00  0.00     0.031 C 
ATOM     53  C   UNL     1      -4.473   7.756   6.107  1.00  0.00     0.029 A 
ATOM     54  C   UNL     1      -4.486   6.669   6.966  1.00  0.00     0.049 A 
ATOM     55  H   UNL     1      -3.325   4.909   6.902  1.00  0.00     0.167 HD
ATOM     56  C   UNL     1      -5.284   5.346   8.909  1.00  0.00     0.074 A 
ATOM     57  C   UNL     1      -6.107   5.165  10.087  1.00  0.00     0.031 C 
ATOM     58  C   UNL     1      -5.297   6.461   8.137  1.00  0.00     0.037 A 
BRANCH  45  59
ATOM     59  C   UNL     1      -1.289   6.344   3.443  1.00  0.00     0.057 A 
ATOM     60  C   UNL     1      -0.457   7.456   3.624  1.00  0.00     0.134 A 
ATOM     61  C   UNL     1      -1.567   5.949   2.129  1.00  0.00     0.134 A 
ATOM     62  F   UNL     1      -0.151   7.883   4.858  1.00  0.00    -0.206 F 
ATOM     63  C   UNL     1       0.070   8.157   2.538  1.00  0.00     0.040 A 
ATOM     64  C   UNL     1      -1.030   6.631   1.035  1.00  0.00     0.040 A 
ATOM     65  F   UNL     1      -2.341   4.880   1.889  1.00  0.00    -0.206 F 
ATOM     66  C   UNL     1      -0.214   7.743   1.239  1.00  0.00     0.006 A 
ENDBRANCH  45  59
BRANCH  46  67
ATOM     67  C   UNL     1      -4.894   1.327  11.307  1.00  0.00     0.057 A 
ATOM     68  C   UNL     1      -4.091   1.124  12.437  1.00  0.00     0.134 A 
ATOM     69  C   UNL     1      -6.221   0.887  11.371  1.00  0.00     0.134 A 
ATOM     70  F   UNL     1      -2.811   1.524  12.440  1.00  0.00    -0.206 F 
ATOM     71  C   UNL     1      -4.590   0.514  13.588  1.00  0.00     0.040 A 
ATOM     72  C   UNL     1      -6.740   0.298  12.525  1.00  0.00     0.040 A 
ATOM     73  F   UNL     1      -7.044   1.076  10.330  1.00  0.00    -0.206 F 
ATOM     74  C   UNL     1      -5.923   0.109  13.638  1.00  0.00     0.006 A 
ENDBRANCH  46  67
BRANCH  58  75
ATOM     75  C   UNL     1      -6.253   7.545   8.532  1.00  0.00     0.057 A 
ATOM     76  C   UNL     1      -7.410   7.783   7.780  1.00  0.00     0.134 A 
ATOM     77  C   UNL     1      -6.023   8.360   9.647  1.00  0.00     0.134 A 
ATOM     78  F   UNL     1      -7.684   7.041   6.697  1.00  0.00    -0.206 F 
ATOM     79  C   UNL     1      -8.307   8.794   8.125  1.00  0.00     0.040 A 
ATOM     80  C   UNL     1      -6.925   9.358  10.017  1.00  0.00     0.040 A 
ATOM     81  F   UNL     1      -4.941   8.169  10.417  1.00  0.00    -0.206 F 
ATOM     82  C   UNL     1      -8.069   9.581   9.251  1.00  0.00     0.006 A 
ENDBRANCH  58  75
ENDBRANCH  32  33
ENDBRANCH  25  27
ENDBRANCH  24  25
ENDBRANCH  23  24
ENDBRANCH  22  23
ENDBRANCH   1  22
TORSDOF 16
