REMARK SMILES CC1=NN(c2ccccc2)C(=O)/C1=C\c1ccc(OCC(=O)OCCOC(=O)c2ccc(-c3c4nc(c(-c5c(F)cccc5F)c5ccc([nH]5)c(-c5c(F)cccc5F)c5nc(c(-c6c(F)cccc6F)c6ccc3[nH]6)C=C5)C=C4)cc2)cc1
REMARK SMILES IDX 24 1 23 2 21 3 22 4 20 5 19 6 18 7 15 8 16 9 84 10 17 11
REMARK SMILES IDX 83 12 14 13 1 14 2 15 3 16 13 17 4 18 11 19 12 20 5 21 6 22
REMARK SMILES IDX 10 23 7 24 9 25 8 26 25 27 26 28 27 29 28 30 29 31 30 32
REMARK SMILES IDX 82 33 31 34 81 35 32 36 33 37 34 38 75 39 35 40 80 41 74 42
REMARK SMILES IDX 76 43 36 44 79 45 73 46 72 47 37 49 63 50 46 51 62 52 47 53
REMARK SMILES IDX 50 54 61 55 77 56 48 57 49 58 60 60 78 61 51 62 38 63 39 64
REMARK SMILES IDX 44 65 40 66 41 67 43 68 45 69 42 70 64 71 65 72 70 73 66 74
REMARK SMILES IDX 67 75 69 76 71 77 68 78 52 79 53 80 58 81 54 82 55 83 57 84
REMARK SMILES IDX 59 85 56 86
REMARK H PARENT 76 48 50 59
REMARK Flexibility Score: inf
ROOT
ATOM      1  C   UNL     1       7.246  -0.732   0.001  1.00  0.00     0.274 C 
ENDROOT
BRANCH   1   2
ATOM      2  O   UNL     1       6.632  -2.031  -0.169  1.00  0.00    -0.460 OA
BRANCH   2   3
ATOM      3  C   UNL     1       6.898  -2.948   0.795  1.00  0.00     0.344 C 
ATOM      4  O   UNL     1       7.650  -2.748   1.748  1.00  0.00    -0.248 OA
BRANCH   3   5
ATOM      5  C   UNL     1       6.204  -4.307   0.603  1.00  0.00     0.351 C 
BRANCH   5   6
ATOM      6  O   UNL     1       5.252  -4.547  -0.415  1.00  0.00    -0.482 OA
BRANCH   6   7
ATOM      7  C   UNL     1       3.956  -4.160  -0.221  1.00  0.00     0.120 A 
ATOM      8  C   UNL     1       1.381  -3.026  -0.158  1.00  0.00    -0.025 A 
ATOM      9  C   UNL     1       1.940  -3.425  -1.370  1.00  0.00     0.012 A 
ATOM     10  C   UNL     1       2.055  -3.332   1.030  1.00  0.00     0.012 A 
ATOM     11  C   UNL     1       3.220  -3.991  -1.396  1.00  0.00     0.047 A 
ATOM     12  C   UNL     1       3.331  -3.918   0.998  1.00  0.00     0.047 A 
BRANCH   8  13
ATOM     13  C   UNL     1       0.143  -2.240  -0.111  1.00  0.00     0.024 C 
ATOM     14  C   UNL     1      -2.461  -0.574   0.158  1.00  0.00     0.069 C 
ATOM     15  C   UNL     1      -1.062  -0.058   0.114  1.00  0.00     0.071 C 
ATOM     16  N   UNL     1      -0.749   1.198   0.299  1.00  0.00    -0.169 NA
ATOM     17  C   UNL     1       0.115  -0.899  -0.170  1.00  0.00     0.065 C 
ATOM     18  N   UNL     1       0.610   1.294   0.006  1.00  0.00    -0.196 N 
ATOM     19  C   UNL     1       1.208   0.084  -0.389  1.00  0.00     0.280 C 
ATOM     20  O   UNL     1       2.307  -0.138  -0.851  1.00  0.00    -0.267 OA
BRANCH  18  21
ATOM     21  C   UNL     1       1.201   2.578  -0.026  1.00  0.00     0.069 A 
ATOM     22  C   UNL     1       0.736   3.596   0.819  1.00  0.00     0.028 A 
ATOM     23  C   UNL     1       2.253   2.867  -0.904  1.00  0.00     0.028 A 
ATOM     24  C   UNL     1       1.329   4.863   0.804  1.00  0.00     0.002 A 
ATOM     25  C   UNL     1       2.814   4.146  -0.953  1.00  0.00     0.002 A 
ATOM     26  C   UNL     1       2.361   5.141  -0.091  1.00  0.00     0.000 A 
ENDBRANCH  18  21
ENDBRANCH   8  13
ENDBRANCH   6   7
ENDBRANCH   5   6
ENDBRANCH   3   5
ENDBRANCH   2   3
ENDBRANCH   1   2
BRANCH   1  27
ATOM     27  C   UNL     1       6.278   0.303   0.585  1.00  0.00     0.275 C 
BRANCH  27  28
ATOM     28  O   UNL     1       5.914  -0.030   1.941  1.00  0.00    -0.458 OA
BRANCH  28  29
ATOM     29  C   UNL     1       4.781  -0.759   2.005  1.00  0.00     0.338 C 
ATOM     30  O   UNL     1       4.085  -1.101   1.069  1.00  0.00    -0.246 OA
BRANCH  29  31
ATOM     31  C   UNL     1       4.444  -1.206   3.356  1.00  0.00     0.060 A 
ATOM     32  C   UNL     1       4.985  -2.402   3.825  1.00  0.00     0.016 A 
ATOM     33  C   UNL     1       3.372  -0.605   4.015  1.00  0.00     0.016 A 
ATOM     34  C   UNL     1       4.422  -3.029   4.933  1.00  0.00     0.010 A 
ATOM     35  C   UNL     1       2.869  -1.189   5.180  1.00  0.00     0.010 A 
ATOM     36  C   UNL     1       3.382  -2.412   5.645  1.00  0.00    -0.014 A 
BRANCH  36  37
ATOM     37  C   UNL     1       2.894  -3.002   6.918  1.00  0.00     0.031 A 
ATOM     38  C   UNL     1       1.462  -3.425   7.091  1.00  0.00     0.074 A 
ATOM     39  C   UNL     1       3.756  -3.112   7.949  1.00  0.00     0.049 A 
ATOM     40  N   UNL     1       0.839  -3.800   8.180  1.00  0.00    -0.248 NA
ATOM     41  C   UNL     1       0.618  -3.422   5.888  1.00  0.00     0.031 C 
ATOM     42  C   UNL     1       5.177  -2.758   7.903  1.00  0.00     0.029 A 
ATOM     43  N   UNL     1       3.562  -3.536   9.239  1.00  0.00    -0.354 N 
ATOM     44  C   UNL     1      -0.475  -4.048   7.804  1.00  0.00     0.074 A 
ATOM     45  C   UNL     1      -0.563  -3.768   6.385  1.00  0.00     0.031 C 
ATOM     46  C   UNL     1       5.728  -2.989   9.101  1.00  0.00     0.029 A 
ATOM     47  C   UNL     1       4.686  -3.423  10.022  1.00  0.00     0.049 A 
ATOM     48  H   UNL     1       2.704  -3.886   9.571  1.00  0.00     0.167 HD
ATOM     49  C   UNL     1      -1.509  -4.468   8.575  1.00  0.00     0.037 A 
ATOM     50  C   UNL     1       4.854  -3.595  11.345  1.00  0.00     0.037 A 
ATOM     51  C   UNL     1      -1.406  -4.755   9.986  1.00  0.00     0.049 A 
ATOM     52  C   UNL     1       3.678  -3.989  12.187  1.00  0.00     0.074 A 
ATOM     53  C   UNL     1      -2.390  -5.214  10.846  1.00  0.00     0.029 A 
ATOM     54  N   UNL     1      -0.255  -4.606  10.746  1.00  0.00    -0.354 N 
ATOM     55  N   UNL     1       2.442  -4.223  11.820  1.00  0.00    -0.248 NA
ATOM     56  C   UNL     1       3.918  -4.135  13.628  1.00  0.00     0.031 C 
ATOM     57  C   UNL     1      -1.851  -5.285  12.134  1.00  0.00     0.029 A 
ATOM     58  C   UNL     1      -0.513  -4.933  12.069  1.00  0.00     0.049 A 
ATOM     59  H   UNL     1       0.617  -4.310  10.397  1.00  0.00     0.167 HD
ATOM     60  C   UNL     1       1.763  -4.570  12.980  1.00  0.00     0.074 A 
ATOM     61  C   UNL     1       2.729  -4.530  14.058  1.00  0.00     0.031 C 
ATOM     62  C   UNL     1       0.456  -4.894  13.135  1.00  0.00     0.037 A 
BRANCH  49  63
ATOM     63  C   UNL     1      -2.857  -4.614   7.924  1.00  0.00     0.057 A 
ATOM     64  C   UNL     1      -3.137  -5.635   7.008  1.00  0.00     0.134 A 
ATOM     65  C   UNL     1      -3.908  -3.752   8.267  1.00  0.00     0.134 A 
ATOM     66  F   UNL     1      -2.177  -6.492   6.629  1.00  0.00    -0.206 F 
ATOM     67  C   UNL     1      -4.405  -5.780   6.439  1.00  0.00     0.040 A 
ATOM     68  C   UNL     1      -5.187  -3.904   7.728  1.00  0.00     0.040 A 
ATOM     69  F   UNL     1      -3.715  -2.758   9.148  1.00  0.00    -0.206 F 
ATOM     70  C   UNL     1      -5.437  -4.917   6.805  1.00  0.00     0.006 A 
ENDBRANCH  49  63
BRANCH  50  71
ATOM     71  C   UNL     1       6.187  -3.359  11.953  1.00  0.00     0.057 A 
ATOM     72  C   UNL     1       6.935  -4.414  12.484  1.00  0.00     0.134 A 
ATOM     73  C   UNL     1       6.749  -2.076  12.009  1.00  0.00     0.134 A 
ATOM     74  F   UNL     1       6.443  -5.662  12.475  1.00  0.00    -0.206 F 
ATOM     75  C   UNL     1       8.186  -4.202  13.065  1.00  0.00     0.040 A 
ATOM     76  C   UNL     1       8.012  -1.855  12.557  1.00  0.00     0.040 A 
ATOM     77  F   UNL     1       6.086  -1.023  11.508  1.00  0.00    -0.206 F 
ATOM     78  C   UNL     1       8.731  -2.920  13.095  1.00  0.00     0.006 A 
ENDBRANCH  50  71
BRANCH  62  79
ATOM     79  C   UNL     1       0.005  -5.273  14.516  1.00  0.00     0.057 A 
ATOM     80  C   UNL     1      -0.105  -4.331  15.548  1.00  0.00     0.134 A 
ATOM     81  C   UNL     1      -0.346  -6.597  14.811  1.00  0.00     0.134 A 
ATOM     82  F   UNL     1       0.233  -3.050  15.338  1.00  0.00    -0.206 F 
ATOM     83  C   UNL     1      -0.524  -4.698  16.828  1.00  0.00     0.040 A 
ATOM     84  C   UNL     1      -0.795  -6.969  16.078  1.00  0.00     0.040 A 
ATOM     85  F   UNL     1      -0.270  -7.548  13.868  1.00  0.00    -0.206 F 
ATOM     86  C   UNL     1      -0.878  -6.019  17.093  1.00  0.00     0.006 A 
ENDBRANCH  62  79
ENDBRANCH  36  37
ENDBRANCH  29  31
ENDBRANCH  28  29
ENDBRANCH  27  28
ENDBRANCH   1  27
TORSDOF 15
