REMARK SMILES O=C1NC[C@@H](CSc2ccnc(C(=O)OCCOC(=O)c3ccc(-c4c5nc(c(-c6c(F)cccc6F)c6ccc([nH]6)c(-c6c(F)cccc6F)c6nc(c(-c7c(F)cccc7F)c7ccc4[nH]7)C=C6)C=C5)cc3)c2)O1
REMARK SMILES IDX 16 1 15 2 13 3 14 4 12 5 8 6 9 7 75 8 10 9 11 10 7 11 6 12
REMARK SMILES IDX 5 13 1 14 2 15 3 16 76 17 4 18 17 20 18 21 19 22 20 23 21 24
REMARK SMILES IDX 22 25 74 26 23 27 73 28 24 29 25 30 26 31 67 32 27 33 72 34
REMARK SMILES IDX 66 35 68 36 28 37 71 38 65 39 64 40 29 42 55 43 38 44 54 45
REMARK SMILES IDX 39 46 42 47 53 48 69 49 40 50 41 51 52 53 70 54 43 55 30 56
REMARK SMILES IDX 31 57 36 58 32 59 33 60 35 61 37 62 34 63 56 64 57 65 62 66
REMARK SMILES IDX 58 67 59 68 61 69 63 70 60 71 44 72 45 73 50 74 46 75 47 76
REMARK SMILES IDX 49 77 51 78 48 79
REMARK H PARENT 3 19 68 41 42 52
REMARK Flexibility Score: inf
ROOT
ATOM      1  C   UNL     1       3.560  -4.735  -6.527  1.00  0.00     0.275 C 
ENDROOT
BRANCH   1   2
ATOM      2  O   UNL     1       2.891  -3.812  -5.643  1.00  0.00    -0.457 OA
BRANCH   2   3
ATOM      3  C   UNL     1       1.865  -4.355  -4.937  1.00  0.00     0.357 C 
ATOM      4  O   UNL     1       1.446  -5.497  -5.079  1.00  0.00    -0.244 OA
BRANCH   3   5
ATOM      5  C   UNL     1       1.341  -3.428  -3.883  1.00  0.00     0.149 A 
ATOM      6  C   UNL     1       0.877  -1.293  -2.922  1.00  0.00     0.011 A 
ATOM      7  C   UNL     1       0.092  -1.941  -1.972  1.00  0.00     0.035 A 
ATOM      8  C   UNL     1       1.510  -2.049  -3.914  1.00  0.00     0.051 A 
ATOM      9  C   UNL     1       0.034  -3.315  -1.974  1.00  0.00     0.113 A 
ATOM     10  N   UNL     1       0.631  -4.063  -2.909  1.00  0.00    -0.249 NA
BRANCH   6  11
ATOM     11  S   UNL     1       0.891   0.487  -2.964  1.00  0.00    -0.122 SA
BRANCH  11  12
ATOM     12  C   UNL     1       1.996   0.939  -1.562  1.00  0.00     0.122 C 
BRANCH  12  13
ATOM     13  C   UNL     1       1.451   0.953  -0.123  1.00  0.00     0.208 C 
ATOM     14  O   UNL     1      -1.804   0.364   0.881  1.00  0.00    -0.225 OA
ATOM     15  C   UNL     1      -0.607   0.368   0.669  1.00  0.00     0.407 C 
ATOM     16  N   UNL     1       0.258  -0.605   1.079  1.00  0.00    -0.318 N 
ATOM     17  O   UNL     1       0.062   1.313  -0.050  1.00  0.00    -0.443 OA
ATOM     18  C   UNL     1       1.585  -0.351   0.642  1.00  0.00     0.165 C 
ATOM     19  H   UNL     1      -0.006  -1.388   1.613  1.00  0.00     0.167 HD
ENDBRANCH  12  13
ENDBRANCH  11  12
ENDBRANCH   6  11
ENDBRANCH   3   5
ENDBRANCH   2   3
ENDBRANCH   1   2
BRANCH   1  20
ATOM     20  C   UNL     1       4.797  -5.362  -5.872  1.00  0.00     0.275 C 
BRANCH  20  21
ATOM     21  O   UNL     1       4.470  -6.268  -4.801  1.00  0.00    -0.458 OA
BRANCH  21  22
ATOM     22  C   UNL     1       4.387  -5.704  -3.573  1.00  0.00     0.338 C 
ATOM     23  O   UNL     1       4.553  -4.530  -3.285  1.00  0.00    -0.246 OA
BRANCH  22  24
ATOM     24  C   UNL     1       3.995  -6.715  -2.578  1.00  0.00     0.060 A 
ATOM     25  C   UNL     1       2.763  -6.576  -1.940  1.00  0.00     0.016 A 
ATOM     26  C   UNL     1       4.882  -7.716  -2.184  1.00  0.00     0.016 A 
ATOM     27  C   UNL     1       2.419  -7.407  -0.877  1.00  0.00     0.010 A 
ATOM     28  C   UNL     1       4.524  -8.573  -1.138  1.00  0.00     0.010 A 
ATOM     29  C   UNL     1       3.299  -8.412  -0.462  1.00  0.00    -0.014 A 
BRANCH  29  30
ATOM     30  C   UNL     1       2.974  -9.266   0.709  1.00  0.00     0.031 A 
ATOM     31  C   UNL     1       3.818  -9.178   1.949  1.00  0.00     0.074 A 
ATOM     32  C   UNL     1       1.942 -10.129   0.657  1.00  0.00     0.049 A 
ATOM     33  N   UNL     1       3.840  -9.959   2.998  1.00  0.00    -0.248 NA
ATOM     34  C   UNL     1       4.775  -8.061   2.010  1.00  0.00     0.031 C 
ATOM     35  C   UNL     1       1.006 -10.265  -0.459  1.00  0.00     0.029 A 
ATOM     36  N   UNL     1       1.520 -11.070   1.563  1.00  0.00    -0.354 N 
ATOM     37  C   UNL     1       4.838  -9.456   3.823  1.00  0.00     0.074 A 
ATOM     38  C   UNL     1       5.407  -8.309   3.148  1.00  0.00     0.031 C 
ATOM     39  C   UNL     1       0.125 -11.238  -0.176  1.00  0.00     0.029 A 
ATOM     40  C   UNL     1       0.478 -11.839   1.105  1.00  0.00     0.049 A 
ATOM     41  H   UNL     1       1.925 -11.183   2.454  1.00  0.00     0.167 HD
ATOM     42  C   UNL     1       5.241  -9.913   5.033  1.00  0.00     0.037 A 
ATOM     43  C   UNL     1      -0.095 -12.937   1.635  1.00  0.00     0.037 A 
ATOM     44  C   UNL     1       4.653 -11.045   5.703  1.00  0.00     0.049 A 
ATOM     45  C   UNL     1       0.420 -13.474   2.942  1.00  0.00     0.074 A 
ATOM     46  C   UNL     1       4.983 -11.588   6.932  1.00  0.00     0.029 A 
ATOM     47  N   UNL     1       3.610 -11.807   5.197  1.00  0.00    -0.354 N 
ATOM     48  N   UNL     1       1.381 -13.012   3.705  1.00  0.00    -0.248 NA
ATOM     49  C   UNL     1      -0.223 -14.690   3.459  1.00  0.00     0.031 C 
ATOM     50  C   UNL     1       4.174 -12.708   7.147  1.00  0.00     0.029 A 
ATOM     51  C   UNL     1       3.297 -12.826   6.081  1.00  0.00     0.049 A 
ATOM     52  H   UNL     1       3.158 -11.647   4.336  1.00  0.00     0.167 HD
ATOM     53  C   UNL     1       1.432 -13.855   4.808  1.00  0.00     0.074 A 
ATOM     54  C   UNL     1       0.404 -14.856   4.615  1.00  0.00     0.031 C 
ATOM     55  C   UNL     1       2.252 -13.800   5.885  1.00  0.00     0.037 A 
BRANCH  42  56
ATOM     56  C   UNL     1       6.398  -9.216   5.690  1.00  0.00     0.057 A 
ATOM     57  C   UNL     1       6.293  -7.920   6.212  1.00  0.00     0.134 A 
ATOM     58  C   UNL     1       7.633  -9.865   5.824  1.00  0.00     0.134 A 
ATOM     59  F   UNL     1       5.143  -7.236   6.106  1.00  0.00    -0.206 F 
ATOM     60  C   UNL     1       7.380  -7.285   6.816  1.00  0.00     0.040 A 
ATOM     61  C   UNL     1       8.719  -9.252   6.452  1.00  0.00     0.040 A 
ATOM     62  F   UNL     1       7.804 -11.110   5.353  1.00  0.00    -0.206 F 
ATOM     63  C   UNL     1       8.596  -7.954   6.943  1.00  0.00     0.006 A 
ENDBRANCH  42  56
BRANCH  43  64
ATOM     64  C   UNL     1      -1.199 -13.621   0.914  1.00  0.00     0.057 A 
ATOM     65  C   UNL     1      -2.502 -13.630   1.425  1.00  0.00     0.134 A 
ATOM     66  C   UNL     1      -0.979 -14.290  -0.298  1.00  0.00     0.134 A 
ATOM     67  F   UNL     1      -2.772 -13.028   2.593  1.00  0.00    -0.206 F 
ATOM     68  C   UNL     1      -3.541 -14.291   0.769  1.00  0.00     0.040 A 
ATOM     69  C   UNL     1      -2.015 -14.929  -0.980  1.00  0.00     0.040 A 
ATOM     70  F   UNL     1       0.246 -14.318  -0.844  1.00  0.00    -0.206 F 
ATOM     71  C   UNL     1      -3.300 -14.938  -0.442  1.00  0.00     0.006 A 
ENDBRANCH  43  64
BRANCH  55  72
ATOM     72  C   UNL     1       2.030 -14.806   6.977  1.00  0.00     0.057 A 
ATOM     73  C   UNL     1       2.377 -16.154   6.833  1.00  0.00     0.134 A 
ATOM     74  C   UNL     1       1.511 -14.400   8.214  1.00  0.00     0.134 A 
ATOM     75  F   UNL     1       2.866 -16.611   5.670  1.00  0.00    -0.206 F 
ATOM     76  C   UNL     1       2.201 -17.067   7.875  1.00  0.00     0.040 A 
ATOM     77  C   UNL     1       1.357 -15.296   9.272  1.00  0.00     0.040 A 
ATOM     78  F   UNL     1       1.165 -13.120   8.420  1.00  0.00    -0.206 F 
ATOM     79  C   UNL     1       1.699 -16.635   9.102  1.00  0.00     0.006 A 
ENDBRANCH  55  72
ENDBRANCH  29  30
ENDBRANCH  22  24
ENDBRANCH  21  22
ENDBRANCH  20  21
ENDBRANCH   1  20
TORSDOF 14
