REMARK SMILES Cc1ccc2nc(CC3(CC(=O)OCCOC(=O)c4ccc(-c5c6nc(c(-c7c(F)cccc7F)c7ccc([nH]7)c(-c7c(F)cccc7F)c7nc(c(-c8c(F)cccc8F)c8ccc5[nH]8)C=C7)C=C6)cc4)CCCCC3)sc2c1
REMARK SMILES IDX 14 1 13 2 11 3 12 4 10 5 9 6 73 7 77 8 74 9 76 10 75 11 8 12
REMARK SMILES IDX 7 13 1 14 2 15 3 16 80 17 4 18 79 19 5 20 78 21 6 22 15 23
REMARK SMILES IDX 16 24 17 25 18 26 19 27 20 28 72 29 21 30 71 31 22 32 23 33
REMARK SMILES IDX 24 34 65 35 25 36 70 37 64 38 66 39 26 40 69 41 63 42 62 43
REMARK SMILES IDX 27 45 53 46 36 47 52 48 37 49 40 50 51 51 67 52 38 53 39 54
REMARK SMILES IDX 50 56 68 57 41 58 28 59 29 60 34 61 30 62 31 63 33 64 35 65
REMARK SMILES IDX 32 66 54 67 55 68 60 69 56 70 57 71 59 72 61 73 58 74 42 75
REMARK SMILES IDX 43 76 48 77 44 78 45 79 47 80 49 81 46 82
REMARK H PARENT 66 44 40 55
REMARK Flexibility Score: inf
ROOT
ATOM      1  C   UNL     1      -5.952  -4.518   1.205  1.00  0.00     0.274 C 
ENDROOT
BRANCH   1   2
ATOM      2  O   UNL     1      -5.396  -3.649   0.198  1.00  0.00    -0.462 OA
BRANCH   2   3
ATOM      3  C   UNL     1      -6.285  -2.962  -0.550  1.00  0.00     0.306 C 
ATOM      4  O   UNL     1      -7.505  -3.046  -0.438  1.00  0.00    -0.252 OA
BRANCH   3   5
ATOM      5  C   UNL     1      -5.663  -2.045  -1.585  1.00  0.00     0.130 C 
BRANCH   5   6
ATOM      6  C   UNL     1      -4.123  -1.785  -1.639  1.00  0.00    -0.013 C 
ATOM      7  C   UNL     1      -3.859  -0.844  -2.859  1.00  0.00     0.008 C 
ATOM      8  C   UNL     1      -3.320  -3.088  -1.889  1.00  0.00     0.008 C 
ATOM      9  C   UNL     1      -4.168  -1.489  -4.215  1.00  0.00     0.001 C 
ATOM     10  C   UNL     1      -3.688  -3.775  -3.203  1.00  0.00     0.001 C 
ATOM     11  C   UNL     1      -3.478  -2.839  -4.390  1.00  0.00     0.000 C 
BRANCH   6  12
ATOM     12  C   UNL     1      -3.693  -1.060  -0.319  1.00  0.00     0.075 C 
BRANCH  12  13
ATOM     13  C   UNL     1      -2.226  -0.733  -0.214  1.00  0.00     0.094 A 
ATOM     14  C   UNL     1       3.664   1.174  -0.009  1.00  0.00     0.044 C 
ATOM     15  C   UNL     1       2.375   0.402  -0.018  1.00  0.00    -0.050 A 
ATOM     16  C   UNL     1       2.383  -0.989   0.106  1.00  0.00     0.006 A 
ATOM     17  C   UNL     1       1.154   1.090  -0.137  1.00  0.00     0.024 A 
ATOM     18  C   UNL     1       1.187  -1.714   0.110  1.00  0.00     0.030 A 
ATOM     19  C   UNL     1      -0.042   0.348  -0.140  1.00  0.00     0.055 A 
ATOM     20  C   UNL     1      -0.043  -1.041  -0.015  1.00  0.00     0.082 A 
ATOM     21  S   UNL     1      -1.671   0.893  -0.288  1.00  0.00    -0.119 S 
ATOM     22  N   UNL     1      -1.290  -1.638  -0.032  1.00  0.00    -0.241 NA
ENDBRANCH  12  13
ENDBRANCH   6  12
ENDBRANCH   5   6
ENDBRANCH   3   5
ENDBRANCH   2   3
ENDBRANCH   1   2
BRANCH   1  23
ATOM     23  C   UNL     1      -5.915  -3.838   2.570  1.00  0.00     0.275 C 
BRANCH  23  24
ATOM     24  O   UNL     1      -6.631  -2.593   2.504  1.00  0.00    -0.458 OA
BRANCH  24  25
ATOM     25  C   UNL     1      -5.959  -1.506   2.944  1.00  0.00     0.338 C 
ATOM     26  O   UNL     1      -4.856  -1.465   3.456  1.00  0.00    -0.246 OA
BRANCH  25  27
ATOM     27  C   UNL     1      -6.781  -0.304   2.726  1.00  0.00     0.060 A 
ATOM     28  C   UNL     1      -7.225   0.033   1.446  1.00  0.00     0.016 A 
ATOM     29  C   UNL     1      -7.033   0.540   3.807  1.00  0.00     0.016 A 
ATOM     30  C   UNL     1      -7.893   1.238   1.234  1.00  0.00     0.010 A 
ATOM     31  C   UNL     1      -7.755   1.716   3.606  1.00  0.00     0.010 A 
ATOM     32  C   UNL     1      -8.174   2.084   2.315  1.00  0.00    -0.014 A 
BRANCH  32  33
ATOM     33  C   UNL     1      -8.900   3.363   2.117  1.00  0.00     0.031 A 
ATOM     34  C   UNL     1      -8.209   4.668   2.392  1.00  0.00     0.074 A 
ATOM     35  C   UNL     1     -10.191   3.349   1.739  1.00  0.00     0.049 A 
ATOM     36  N   UNL     1      -8.716   5.870   2.477  1.00  0.00    -0.248 NA
ATOM     37  C   UNL     1      -6.755   4.608   2.612  1.00  0.00     0.031 C 
ATOM     38  C   UNL     1     -10.967   2.151   1.414  1.00  0.00     0.029 A 
ATOM     39  N   UNL     1     -11.085   4.379   1.585  1.00  0.00    -0.354 N 
ATOM     40  C   UNL     1      -7.654   6.705   2.801  1.00  0.00     0.074 A 
ATOM     41  C   UNL     1      -6.474   5.872   2.899  1.00  0.00     0.031 C 
ATOM     42  C   UNL     1     -12.220   2.513   1.101  1.00  0.00     0.029 A 
ATOM     43  C   UNL     1     -12.352   3.957   1.263  1.00  0.00     0.049 A 
ATOM     44  H   UNL     1     -10.842   5.326   1.693  1.00  0.00     0.167 HD
ATOM     45  C   UNL     1      -7.667   8.044   3.003  1.00  0.00     0.037 A 
ATOM     46  C   UNL     1     -13.501   4.649   1.155  1.00  0.00     0.037 A 
ATOM     47  C   UNL     1      -8.838   8.873   2.875  1.00  0.00     0.049 A 
ATOM     48  C   UNL     1     -13.496   6.128   1.412  1.00  0.00     0.074 A 
ATOM     49  C   UNL     1      -8.948  10.243   3.037  1.00  0.00     0.029 A 
ATOM     50  N   UNL     1     -10.101   8.405   2.547  1.00  0.00    -0.354 N 
ATOM     51  N   UNL     1     -12.493   6.904   1.744  1.00  0.00    -0.248 NA
ATOM     52  C   UNL     1     -14.784   6.824   1.294  1.00  0.00     0.031 C 
ATOM     53  C   UNL     1     -10.286  10.601   2.833  1.00  0.00     0.029 A 
ATOM     54  C   UNL     1     -11.000   9.458   2.513  1.00  0.00     0.049 A 
ATOM     55  H   UNL     1     -10.326   7.464   2.366  1.00  0.00     0.167 HD
ATOM     56  C   UNL     1     -13.025   8.180   1.865  1.00  0.00     0.074 A 
ATOM     57  C   UNL     1     -14.437   8.077   1.555  1.00  0.00     0.031 C 
ATOM     58  C   UNL     1     -12.401   9.334   2.204  1.00  0.00     0.037 A 
BRANCH  45  59
ATOM     59  C   UNL     1      -6.380   8.693   3.413  1.00  0.00     0.057 A 
ATOM     60  C   UNL     1      -5.340   8.917   2.503  1.00  0.00     0.134 A 
ATOM     61  C   UNL     1      -6.194   9.131   4.731  1.00  0.00     0.134 A 
ATOM     62  F   UNL     1      -5.451   8.508   1.230  1.00  0.00    -0.206 F 
ATOM     63  C   UNL     1      -4.153   9.540   2.893  1.00  0.00     0.040 A 
ATOM     64  C   UNL     1      -5.019   9.771   5.128  1.00  0.00     0.040 A 
ATOM     65  F   UNL     1      -7.153   8.948   5.651  1.00  0.00    -0.206 F 
ATOM     66  C   UNL     1      -3.993   9.974   4.208  1.00  0.00     0.006 A 
ENDBRANCH  45  59
BRANCH  46  67
ATOM     67  C   UNL     1     -14.756   3.938   0.818  1.00  0.00     0.057 A 
ATOM     68  C   UNL     1     -15.346   4.074  -0.443  1.00  0.00     0.134 A 
ATOM     69  C   UNL     1     -15.383   3.090   1.739  1.00  0.00     0.134 A 
ATOM     70  F   UNL     1     -14.802   4.890  -1.357  1.00  0.00    -0.206 F 
ATOM     71  C   UNL     1     -16.519   3.395  -0.776  1.00  0.00     0.040 A 
ATOM     72  C   UNL     1     -16.544   2.388   1.412  1.00  0.00     0.040 A 
ATOM     73  F   UNL     1     -14.863   2.916   2.963  1.00  0.00    -0.206 F 
ATOM     74  C   UNL     1     -17.116   2.543   0.151  1.00  0.00     0.006 A 
ENDBRANCH  46  67
BRANCH  58  75
ATOM     75  C   UNL     1     -13.239  10.575   2.232  1.00  0.00     0.057 A 
ATOM     76  C   UNL     1     -14.117  10.843   3.289  1.00  0.00     0.134 A 
ATOM     77  C   UNL     1     -13.146  11.522   1.206  1.00  0.00     0.134 A 
ATOM     78  F   UNL     1     -14.259   9.965   4.294  1.00  0.00    -0.206 F 
ATOM     79  C   UNL     1     -14.888  12.005   3.316  1.00  0.00     0.040 A 
ATOM     80  C   UNL     1     -13.899  12.697   1.230  1.00  0.00     0.040 A 
ATOM     81  F   UNL     1     -12.319  11.324   0.169  1.00  0.00    -0.206 F 
ATOM     82  C   UNL     1     -14.776  12.938   2.286  1.00  0.00     0.006 A 
ENDBRANCH  58  75
ENDBRANCH  32  33
ENDBRANCH  25  27
ENDBRANCH  24  25
ENDBRANCH  23  24
ENDBRANCH   1  23
TORSDOF 14
