REMARK SMILES CCS(=O)(=O)N1CCC[C@@H](C(=O)OCCOC(=O)c2ccc(-c3c4nc(c(-c5c(F)cccc5F)c5ccc([nH]5)c(-c5c(F)cccc5F)c5nc(c(-c6c(F)cccc6F)c6ccc3[nH]6)C=C5)C=C4)cc2)C1
REMARK SMILES IDX 14 1 13 2 11 3 12 4 10 5 6 6 7 7 73 8 8 9 9 10 3 11 4 12
REMARK SMILES IDX 5 13 2 14 1 15 15 16 16 17 17 18 18 19 19 20 20 21 72 22
REMARK SMILES IDX 21 23 71 24 22 25 23 26 24 27 65 28 25 29 70 30 64 31 66 32
REMARK SMILES IDX 26 33 69 34 63 35 62 36 27 38 53 39 36 40 52 41 37 42 40 43
REMARK SMILES IDX 51 44 67 45 38 46 39 47 50 49 68 50 41 51 28 52 29 53 34 54
REMARK SMILES IDX 30 55 31 56 33 57 35 58 32 59 54 60 55 61 60 62 56 63 57 64
REMARK SMILES IDX 59 65 61 66 58 67 42 68 43 69 48 70 44 71 45 72 47 73 49 74
REMARK SMILES IDX 46 75
REMARK H PARENT 66 37 40 48
REMARK Flexibility Score: inf
ROOT
ATOM      1  C   UNL     1       6.030   2.323  -0.698  1.00  0.00     0.274 C 
ENDROOT
BRANCH   1   2
ATOM      2  O   UNL     1       5.346   1.209  -0.088  1.00  0.00    -0.462 OA
BRANCH   2   3
ATOM      3  C   UNL     1       5.947   0.650   0.995  1.00  0.00     0.310 C 
ATOM      4  O   UNL     1       7.041   0.984   1.435  1.00  0.00    -0.252 OA
BRANCH   3   5
ATOM      5  C   UNL     1       5.146  -0.490   1.591  1.00  0.00     0.114 C 
ATOM      6  N   UNL     1       2.900  -1.440   2.046  1.00  0.00    -0.201 NA
ATOM      7  C   UNL     1       3.282  -2.747   1.466  1.00  0.00     0.102 C 
ATOM      8  C   UNL     1       3.636  -0.274   1.491  1.00  0.00     0.117 C 
ATOM      9  C   UNL     1       4.787  -2.958   1.601  1.00  0.00     0.018 C 
ATOM     10  C   UNL     1       5.561  -1.814   0.955  1.00  0.00     0.018 C 
BRANCH   6  11
ATOM     11  S   UNL     1       1.267  -1.227   2.449  1.00  0.00     0.213 S 
ATOM     12  O   UNL     1       1.103   0.093   3.017  1.00  0.00    -0.212 OA
ATOM     13  O   UNL     1       0.864  -2.400   3.199  1.00  0.00    -0.212 OA
BRANCH  11  14
ATOM     14  C   UNL     1       0.389  -1.296   0.885  1.00  0.00     0.151 C 
ATOM     15  C   UNL     1       0.614  -0.122  -0.042  1.00  0.00     0.022 C 
ENDBRANCH  11  14
ENDBRANCH   6  11
ENDBRANCH   3   5
ENDBRANCH   2   3
ENDBRANCH   1   2
BRANCH   1  16
ATOM     16  C   UNL     1       5.460   3.668  -0.236  1.00  0.00     0.275 C 
BRANCH  16  17
ATOM     17  O   UNL     1       5.706   3.901   1.163  1.00  0.00    -0.458 OA
BRANCH  17  18
ATOM     18  C   UNL     1       4.720   3.481   1.989  1.00  0.00     0.338 C 
ATOM     19  O   UNL     1       3.658   2.980   1.662  1.00  0.00    -0.246 OA
BRANCH  18  20
ATOM     20  C   UNL     1       5.169   3.580   3.387  1.00  0.00     0.060 A 
ATOM     21  C   UNL     1       5.219   2.414   4.157  1.00  0.00     0.016 A 
ATOM     22  C   UNL     1       5.470   4.818   3.955  1.00  0.00     0.016 A 
ATOM     23  C   UNL     1       5.577   2.475   5.501  1.00  0.00     0.010 A 
ATOM     24  C   UNL     1       5.818   4.881   5.307  1.00  0.00     0.010 A 
ATOM     25  C   UNL     1       5.863   3.711   6.088  1.00  0.00    -0.014 A 
BRANCH  25  26
ATOM     26  C   UNL     1       6.121   3.805   7.542  1.00  0.00     0.031 A 
ATOM     27  C   UNL     1       5.040   4.326   8.442  1.00  0.00     0.074 A 
ATOM     28  C   UNL     1       7.310   3.435   8.049  1.00  0.00     0.049 A 
ATOM     29  N   UNL     1       5.100   4.658   9.705  1.00  0.00    -0.248 NA
ATOM     30  C   UNL     1       3.711   4.498   7.833  1.00  0.00     0.031 C 
ATOM     31  C   UNL     1       8.409   2.844   7.285  1.00  0.00     0.029 A 
ATOM     32  N   UNL     1       7.795   3.516   9.329  1.00  0.00    -0.354 N 
ATOM     33  C   UNL     1       3.826   5.099  10.038  1.00  0.00     0.074 A 
ATOM     34  C   UNL     1       3.017   5.005   8.841  1.00  0.00     0.031 C 
ATOM     35  C   UNL     1       9.448   2.631   8.110  1.00  0.00     0.029 A 
ATOM     36  C   UNL     1       9.105   3.118   9.444  1.00  0.00     0.049 A 
ATOM     37  H   UNL     1       7.257   3.829  10.092  1.00  0.00     0.167 HD
ATOM     38  C   UNL     1       3.376   5.540  11.236  1.00  0.00     0.037 A 
ATOM     39  C   UNL     1       9.940   3.179  10.498  1.00  0.00     0.037 A 
ATOM     40  C   UNL     1       4.187   5.620  12.422  1.00  0.00     0.049 A 
ATOM     41  C   UNL     1       9.441   3.755  11.797  1.00  0.00     0.074 A 
ATOM     42  C   UNL     1       3.837   6.078  13.680  1.00  0.00     0.029 A 
ATOM     43  N   UNL     1       5.514   5.224  12.494  1.00  0.00    -0.354 N 
ATOM     44  N   UNL     1       8.248   4.210  12.096  1.00  0.00    -0.248 NA
ATOM     45  C   UNL     1      10.407   3.836  12.902  1.00  0.00     0.031 C 
ATOM     46  C   UNL     1       4.962   5.989  14.505  1.00  0.00     0.029 A 
ATOM     47  C   UNL     1       5.999   5.433  13.774  1.00  0.00     0.049 A 
ATOM     48  H   UNL     1       6.034   4.849  11.747  1.00  0.00     0.167 HD
ATOM     49  C   UNL     1       8.308   4.592  13.430  1.00  0.00     0.074 A 
ATOM     50  C   UNL     1       9.656   4.317  13.883  1.00  0.00     0.031 C 
ATOM     51  C   UNL     1       7.335   5.121  14.211  1.00  0.00     0.037 A 
BRANCH  38  52
ATOM     52  C   UNL     1       1.950   5.997  11.313  1.00  0.00     0.057 A 
ATOM     53  C   UNL     1       0.881   5.092  11.284  1.00  0.00     0.134 A 
ATOM     54  C   UNL     1       1.643   7.357  11.445  1.00  0.00     0.134 A 
ATOM     55  F   UNL     1       1.107   3.777  11.145  1.00  0.00    -0.206 F 
ATOM     56  C   UNL     1      -0.444   5.526  11.365  1.00  0.00     0.040 A 
ATOM     57  C   UNL     1       0.324   7.801  11.551  1.00  0.00     0.040 A 
ATOM     58  F   UNL     1       2.620   8.275  11.482  1.00  0.00    -0.206 F 
ATOM     59  C   UNL     1      -0.724   6.884  11.505  1.00  0.00     0.006 A 
ENDBRANCH  38  52
BRANCH  39  60
ATOM     60  C   UNL     1      11.344   2.713  10.370  1.00  0.00     0.057 A 
ATOM     61  C   UNL     1      11.794   1.578  11.055  1.00  0.00     0.134 A 
ATOM     62  C   UNL     1      12.276   3.406   9.588  1.00  0.00     0.134 A 
ATOM     63  F   UNL     1      10.955   0.886  11.840  1.00  0.00    -0.206 F 
ATOM     64  C   UNL     1      13.124   1.160  10.982  1.00  0.00     0.040 A 
ATOM     65  C   UNL     1      13.603   2.984   9.486  1.00  0.00     0.040 A 
ATOM     66  F   UNL     1      11.909   4.502   8.908  1.00  0.00    -0.206 F 
ATOM     67  C   UNL     1      14.032   1.862  10.192  1.00  0.00     0.006 A 
ENDBRANCH  39  60
BRANCH  51  68
ATOM     68  C   UNL     1       7.668   5.372  15.651  1.00  0.00     0.057 A 
ATOM     69  C   UNL     1       8.471   6.445  16.053  1.00  0.00     0.134 A 
ATOM     70  C   UNL     1       7.125   4.557  16.653  1.00  0.00     0.134 A 
ATOM     71  F   UNL     1       9.031   7.254  15.140  1.00  0.00    -0.206 F 
ATOM     72  C   UNL     1       8.736   6.691  17.401  1.00  0.00     0.040 A 
ATOM     73  C   UNL     1       7.362   4.806  18.005  1.00  0.00     0.040 A 
ATOM     74  F   UNL     1       6.340   3.516  16.334  1.00  0.00    -0.206 F 
ATOM     75  C   UNL     1       8.173   5.875  18.381  1.00  0.00     0.006 A 
ENDBRANCH  51  68
ENDBRANCH  25  26
ENDBRANCH  18  20
ENDBRANCH  17  18
ENDBRANCH  16  17
ENDBRANCH   1  16
TORSDOF 13
