REMARK SMILES Cc1c(NCc2ccc(-c3ccc(Cl)cc3)o2)cccc1C(=O)OCCOC(=O)c1ccc(-c2c3nc(c(-c4c(F)cccc4F)c4ccc([nH]4)c(-c4c(F)cccc4F)c4nc(c(-c5c(F)cccc5F)c5ccc2[nH]5)C=C4)C=C3)cc1
REMARK SMILES IDX 25 1 24 2 22 3 23 4 21 5 1 6 2 7 3 8 18 9 20 10 19 11 4 12
REMARK SMILES IDX 5 14 6 15 7 16 17 17 8 18 9 19 10 20 11 21 16 22 12 23 15 24
REMARK SMILES IDX 13 25 14 26 26 27 27 28 28 29 29 30 30 31 31 32 83 33 32 34
REMARK SMILES IDX 82 35 33 36 34 37 35 38 76 39 36 40 81 41 75 42 77 43 37 44
REMARK SMILES IDX 80 45 74 46 73 47 38 49 64 50 47 51 63 52 48 53 51 54 62 55
REMARK SMILES IDX 78 56 49 57 50 58 61 60 79 61 52 62 39 63 40 64 45 65 41 66
REMARK SMILES IDX 42 67 44 68 46 69 43 70 65 71 66 72 71 73 67 74 68 75 70 76
REMARK SMILES IDX 72 77 69 78 53 79 54 80 59 81 55 82 56 83 58 84 60 85 57 86
REMARK H PARENT 4 13 77 48 51 59
REMARK Flexibility Score: inf
ROOT
ATOM      1  C   UNL     1       3.186   2.913  -2.212  1.00  0.00     0.275 C 
ENDROOT
BRANCH   1   2
ATOM      2  O   UNL     1       2.083   1.995  -2.162  1.00  0.00    -0.458 OA
BRANCH   2   3
ATOM      3  C   UNL     1       2.104   1.261  -1.020  1.00  0.00     0.338 C 
ATOM      4  O   UNL     1       2.916   1.400  -0.114  1.00  0.00    -0.246 OA
BRANCH   3   5
ATOM      5  C   UNL     1       1.082   0.197  -0.945  1.00  0.00     0.065 A 
ATOM      6  C   UNL     1       2.927  -1.438  -0.308  1.00  0.00     0.047 C 
ATOM      7  C   UNL     1       1.468  -1.054  -0.413  1.00  0.00    -0.013 A 
ATOM      8  C   UNL     1       0.476  -1.984  -0.037  1.00  0.00     0.038 A 
ATOM      9  C   UNL     1      -0.870  -1.661  -0.261  1.00  0.00     0.026 A 
ATOM     10  C   UNL     1      -0.263   0.472  -1.213  1.00  0.00     0.016 A 
ATOM     11  C   UNL     1      -1.240  -0.454  -0.857  1.00  0.00     0.003 A 
BRANCH   8  12
ATOM     12  N   UNL     1       0.846  -3.215   0.484  1.00  0.00    -0.378 N 
ATOM     13  H   UNL     1       1.568  -3.251   1.152  1.00  0.00     0.161 HD
BRANCH  12  14
ATOM     14  C   UNL     1       0.204  -4.455   0.076  1.00  0.00     0.188 C 
BRANCH  14  15
ATOM     15  C   UNL     1       0.486  -4.881  -1.325  1.00  0.00     0.123 A 
ATOM     16  C   UNL     1       0.916  -4.234  -2.467  1.00  0.00     0.048 A 
ATOM     17  O   UNL     1       0.299  -6.204  -1.590  1.00  0.00    -0.459 OA
ATOM     18  C   UNL     1       1.035  -5.221  -3.472  1.00  0.00     0.051 A 
ATOM     19  C   UNL     1       0.643  -6.407  -2.892  1.00  0.00     0.134 A 
BRANCH  19  20
ATOM     20  C   UNL     1       0.542  -7.775  -3.351  1.00  0.00     0.017 A 
ATOM     21  C   UNL     1       1.625  -8.390  -3.990  1.00  0.00     0.013 A 
ATOM     22  C   UNL     1      -0.641  -8.498  -3.150  1.00  0.00     0.013 A 
ATOM     23  C   UNL     1       1.527  -9.716  -4.418  1.00  0.00     0.021 A 
ATOM     24  C   UNL     1      -0.745  -9.818  -3.588  1.00  0.00     0.021 A 
ATOM     25  C   UNL     1       0.342 -10.422  -4.218  1.00  0.00     0.041 A 
ATOM     26  Cl  UNL     1       0.219 -12.053  -4.751  1.00  0.00    -0.084 Cl
ENDBRANCH  19  20
ENDBRANCH  14  15
ENDBRANCH  12  14
ENDBRANCH   8  12
ENDBRANCH   3   5
ENDBRANCH   2   3
ENDBRANCH   1   2
BRANCH   1  27
ATOM     27  C   UNL     1       2.883   4.235  -2.924  1.00  0.00     0.275 C 
BRANCH  27  28
ATOM     28  O   UNL     1       1.521   4.748  -2.963  1.00  0.00    -0.458 OA
BRANCH  28  29
ATOM     29  C   UNL     1       0.509   4.584  -2.083  1.00  0.00     0.338 C 
ATOM     30  O   UNL     1      -0.669   4.626  -2.434  1.00  0.00    -0.246 OA
BRANCH  29  31
ATOM     31  C   UNL     1       0.840   4.340  -0.675  1.00  0.00     0.060 A 
ATOM     32  C   UNL     1      -0.013   3.528   0.096  1.00  0.00     0.016 A 
ATOM     33  C   UNL     1       2.020   4.848  -0.148  1.00  0.00     0.016 A 
ATOM     34  C   UNL     1       0.363   3.138   1.372  1.00  0.00     0.010 A 
ATOM     35  C   UNL     1       2.468   4.348   1.045  1.00  0.00     0.010 A 
ATOM     36  C   UNL     1       1.611   3.553   1.823  1.00  0.00    -0.014 A 
BRANCH  36  37
ATOM     37  C   UNL     1       1.972   3.564   3.225  1.00  0.00     0.031 A 
ATOM     38  C   UNL     1       2.563   2.390   3.875  1.00  0.00     0.074 A 
ATOM     39  C   UNL     1       1.844   4.816   3.722  1.00  0.00     0.049 A 
ATOM     40  N   UNL     1       2.629   2.240   5.148  1.00  0.00    -0.248 NA
ATOM     41  C   UNL     1       3.095   1.237   3.156  1.00  0.00     0.031 C 
ATOM     42  C   UNL     1       2.349   5.457   4.917  1.00  0.00     0.029 A 
ATOM     43  N   UNL     1       1.009   5.796   3.150  1.00  0.00    -0.354 N 
ATOM     44  C   UNL     1       3.499   1.196   5.405  1.00  0.00     0.074 A 
ATOM     45  C   UNL     1       3.630   0.513   4.146  1.00  0.00     0.031 C 
ATOM     46  C   UNL     1       1.590   6.547   5.162  1.00  0.00     0.029 A 
ATOM     47  C   UNL     1       0.491   6.548   4.197  1.00  0.00     0.049 A 
ATOM     48  H   UNL     1       0.828   5.925   2.191  1.00  0.00     0.167 HD
ATOM     49  C   UNL     1       4.124   1.182   6.619  1.00  0.00     0.037 A 
ATOM     50  C   UNL     1      -0.833   6.364   4.484  1.00  0.00     0.037 A 
ATOM     51  C   UNL     1       3.580   2.274   7.431  1.00  0.00     0.049 A 
ATOM     52  C   UNL     1      -0.954   5.667   5.817  1.00  0.00     0.074 A 
ATOM     53  C   UNL     1       4.011   3.577   7.615  1.00  0.00     0.029 A 
ATOM     54  N   UNL     1       2.238   2.241   7.797  1.00  0.00    -0.354 N 
ATOM     55  N   UNL     1      -0.125   4.754   6.256  1.00  0.00    -0.248 NA
ATOM     56  C   UNL     1      -1.939   6.076   6.809  1.00  0.00     0.031 C 
ATOM     57  C   UNL     1       2.877   4.354   7.981  1.00  0.00     0.029 A 
ATOM     58  C   UNL     1       1.768   3.522   8.025  1.00  0.00     0.049 A 
ATOM     59  H   UNL     1       1.699   1.422   7.882  1.00  0.00     0.167 HD
ATOM     60  C   UNL     1      -0.382   4.532   7.584  1.00  0.00     0.074 A 
ATOM     61  C   UNL     1      -1.541   5.361   7.873  1.00  0.00     0.031 C 
ATOM     62  C   UNL     1       0.381   3.743   8.399  1.00  0.00     0.037 A 
BRANCH  49  63
ATOM     63  C   UNL     1       5.395   0.439   6.998  1.00  0.00     0.057 A 
ATOM     64  C   UNL     1       6.115   0.829   8.151  1.00  0.00     0.134 A 
ATOM     65  C   UNL     1       6.007  -0.601   6.276  1.00  0.00     0.134 A 
ATOM     66  F   UNL     1       5.650   1.766   8.989  1.00  0.00    -0.206 F 
ATOM     67  C   UNL     1       7.357   0.284   8.511  1.00  0.00     0.040 A 
ATOM     68  C   UNL     1       7.255  -1.152   6.622  1.00  0.00     0.040 A 
ATOM     69  F   UNL     1       5.434  -1.167   5.212  1.00  0.00    -0.206 F 
ATOM     70  C   UNL     1       7.941  -0.703   7.738  1.00  0.00     0.006 A 
ENDBRANCH  49  63
BRANCH  50  71
ATOM     71  C   UNL     1      -1.704   6.148   3.275  1.00  0.00     0.057 A 
ATOM     72  C   UNL     1      -1.633   7.081   2.212  1.00  0.00     0.134 A 
ATOM     73  C   UNL     1      -2.394   4.964   2.997  1.00  0.00     0.134 A 
ATOM     74  F   UNL     1      -1.007   8.257   2.390  1.00  0.00    -0.206 F 
ATOM     75  C   UNL     1      -2.111   6.807   0.925  1.00  0.00     0.040 A 
ATOM     76  C   UNL     1      -2.905   4.689   1.713  1.00  0.00     0.040 A 
ATOM     77  F   UNL     1      -2.530   4.014   3.932  1.00  0.00    -0.206 F 
ATOM     78  C   UNL     1      -2.733   5.594   0.666  1.00  0.00     0.006 A 
ENDBRANCH  50  71
BRANCH  62  79
ATOM     79  C   UNL     1      -0.106   3.175   9.706  1.00  0.00     0.057 A 
ATOM     80  C   UNL     1      -1.460   2.934   9.981  1.00  0.00     0.134 A 
ATOM     81  C   UNL     1       0.802   2.675  10.665  1.00  0.00     0.134 A 
ATOM     82  F   UNL     1      -2.424   3.225   9.096  1.00  0.00    -0.206 F 
ATOM     83  C   UNL     1      -1.886   2.321  11.162  1.00  0.00     0.040 A 
ATOM     84  C   UNL     1       0.391   1.992  11.809  1.00  0.00     0.040 A 
ATOM     85  F   UNL     1       2.130   2.792  10.518  1.00  0.00    -0.206 F 
ATOM     86  C   UNL     1      -0.960   1.835  12.074  1.00  0.00     0.006 A 
ENDBRANCH  62  79
ENDBRANCH  36  37
ENDBRANCH  29  31
ENDBRANCH  28  29
ENDBRANCH  27  28
ENDBRANCH   1  27
TORSDOF 15
