REMARK SMILES C/C=C/C[C@H](Cc1cccc(F)c1)C(=O)OCCOC(=O)c1ccc(-c2c3nc(c(-c4c(F)cccc4F)c4ccc([nH]4)c(-c4c(F)cccc4F)c4nc(c(-c5c(F)cccc5F)c5ccc2[nH]5)C=C4)C=C3)cc1
REMARK SMILES IDX 17 1 16 2 14 3 15 4 5 5 4 6 3 7 1 8 2 9 6 10 7 11 8 12 13 13
REMARK SMILES IDX 9 14 11 15 10 16 12 17 18 18 19 19 20 20 21 21 22 22 23 23
REMARK SMILES IDX 75 24 24 25 74 26 25 27 26 28 27 29 68 30 28 31 73 32 67 33
REMARK SMILES IDX 69 34 29 35 72 36 66 37 65 38 30 40 56 41 39 42 55 43 40 44
REMARK SMILES IDX 43 45 54 46 70 47 41 48 42 49 53 51 71 52 44 53 31 54 32 55
REMARK SMILES IDX 37 56 33 57 34 58 36 59 38 60 35 61 57 62 58 63 63 64 59 65
REMARK SMILES IDX 60 66 62 67 64 68 61 69 45 70 46 71 51 72 47 73 48 74 50 75
REMARK SMILES IDX 52 76 49 77
REMARK H PARENT 69 39 43 50
REMARK Flexibility Score: inf
ROOT
ATOM      1  C   UNL     1      -2.418   2.038   7.052  1.00  0.00     0.274 C 
ENDROOT
BRANCH   1   2
ATOM      2  O   UNL     1      -2.005   1.866   5.682  1.00  0.00    -0.462 OA
BRANCH   2   3
ATOM      3  C   UNL     1      -0.915   2.577   5.292  1.00  0.00     0.309 C 
ATOM      4  O   UNL     1      -0.292   3.349   6.013  1.00  0.00    -0.252 OA
BRANCH   3   5
ATOM      5  C   UNL     1      -0.603   2.432   3.811  1.00  0.00     0.107 C 
BRANCH   5   6
ATOM      6  C   UNL     1      -1.337   3.609   3.133  1.00  0.00     0.042 C 
BRANCH   6   7
ATOM      7  C   UNL     1      -1.598   3.447   1.665  1.00  0.00    -0.031 C 
ATOM      8  C   UNL     1      -3.152   3.139  -0.276  1.00  0.00     0.035 C 
ATOM      9  C   UNL     1      -2.840   3.388   1.161  1.00  0.00    -0.035 C 
ENDBRANCH   6   7
ENDBRANCH   5   6
BRANCH   5  10
ATOM     10  C   UNL     1      -0.905   1.026   3.235  1.00  0.00     0.051 C 
BRANCH  10  11
ATOM     11  C   UNL     1       0.198  -0.017   3.333  1.00  0.00    -0.044 A 
ATOM     12  C   UNL     1       1.548   0.276   3.075  1.00  0.00     0.004 A 
ATOM     13  C   UNL     1      -0.153  -1.361   3.541  1.00  0.00     0.043 A 
ATOM     14  C   UNL     1       2.523  -0.730   3.088  1.00  0.00     0.003 A 
ATOM     15  C   UNL     1       0.821  -2.358   3.528  1.00  0.00     0.123 A 
ATOM     16  C   UNL     1       2.158  -2.053   3.314  1.00  0.00     0.039 A 
ATOM     17  F   UNL     1       0.459  -3.637   3.696  1.00  0.00    -0.207 F 
ENDBRANCH  10  11
ENDBRANCH   5  10
ENDBRANCH   3   5
ENDBRANCH   2   3
ENDBRANCH   1   2
BRANCH   1  18
ATOM     18  C   UNL     1      -1.851   0.933   7.940  1.00  0.00     0.275 C 
BRANCH  18  19
ATOM     19  O   UNL     1      -0.414   0.982   7.928  1.00  0.00    -0.458 OA
BRANCH  19  20
ATOM     20  C   UNL     1       0.200  -0.072   7.344  1.00  0.00     0.338 C 
ATOM     21  O   UNL     1      -0.313  -1.085   6.907  1.00  0.00    -0.246 OA
BRANCH  20  22
ATOM     22  C   UNL     1       1.647   0.182   7.305  1.00  0.00     0.060 A 
ATOM     23  C   UNL     1       2.169   1.063   6.359  1.00  0.00     0.016 A 
ATOM     24  C   UNL     1       2.496  -0.538   8.143  1.00  0.00     0.016 A 
ATOM     25  C   UNL     1       3.546   1.192   6.207  1.00  0.00     0.010 A 
ATOM     26  C   UNL     1       3.878  -0.365   8.030  1.00  0.00     0.010 A 
ATOM     27  C   UNL     1       4.414   0.482   7.043  1.00  0.00    -0.014 A 
BRANCH  27  28
ATOM     28  C   UNL     1       5.882   0.587   6.856  1.00  0.00     0.031 A 
ATOM     29  C   UNL     1       6.667  -0.611   6.401  1.00  0.00     0.074 A 
ATOM     30  C   UNL     1       6.510   1.758   7.076  1.00  0.00     0.049 A 
ATOM     31  N   UNL     1       7.963  -0.768   6.326  1.00  0.00    -0.248 NA
ATOM     32  C   UNL     1       5.891  -1.787   5.975  1.00  0.00     0.031 C 
ATOM     33  C   UNL     1       5.857   3.010   7.457  1.00  0.00     0.029 A 
ATOM     34  N   UNL     1       7.842   2.083   7.006  1.00  0.00    -0.354 N 
ATOM     35  C   UNL     1       8.161  -2.070   5.887  1.00  0.00     0.074 A 
ATOM     36  C   UNL     1       6.852  -2.662   5.710  1.00  0.00     0.031 C 
ATOM     37  C   UNL     1       6.786   3.973   7.566  1.00  0.00     0.029 A 
ATOM     38  C   UNL     1       8.104   3.391   7.331  1.00  0.00     0.049 A 
ATOM     39  H   UNL     1       8.541   1.440   6.747  1.00  0.00     0.167 HD
ATOM     40  C   UNL     1       9.331  -2.711   5.657  1.00  0.00     0.037 A 
ATOM     41  C   UNL     1       9.276   4.041   7.461  1.00  0.00     0.037 A 
ATOM     42  C   UNL     1      10.630  -2.108   5.797  1.00  0.00     0.049 A 
ATOM     43  C   UNL     1      10.561   3.293   7.253  1.00  0.00     0.074 A 
ATOM     44  C   UNL     1      11.872  -2.679   5.581  1.00  0.00     0.029 A 
ATOM     45  N   UNL     1      10.853  -0.794   6.176  1.00  0.00    -0.354 N 
ATOM     46  N   UNL     1      10.739   2.044   6.899  1.00  0.00    -0.248 NA
ATOM     47  C   UNL     1      11.808   4.036   7.487  1.00  0.00     0.031 C 
ATOM     48  C   UNL     1      12.849  -1.718   5.857  1.00  0.00     0.029 A 
ATOM     49  C   UNL     1      12.213  -0.539   6.211  1.00  0.00     0.049 A 
ATOM     50  H   UNL     1      10.149  -0.140   6.389  1.00  0.00     0.167 HD
ATOM     51  C   UNL     1      12.113   1.852   6.859  1.00  0.00     0.074 A 
ATOM     52  C   UNL     1      12.724   3.117   7.211  1.00  0.00     0.031 C 
ATOM     53  C   UNL     1      12.805   0.726   6.563  1.00  0.00     0.037 A 
BRANCH  40  54
ATOM     54  C   UNL     1       9.266  -4.152   5.251  1.00  0.00     0.057 A 
ATOM     55  C   UNL     1       9.621  -5.160   6.157  1.00  0.00     0.134 A 
ATOM     56  C   UNL     1       8.917  -4.539   3.952  1.00  0.00     0.134 A 
ATOM     57  F   UNL     1       9.969  -4.852   7.415  1.00  0.00    -0.206 F 
ATOM     58  C   UNL     1       9.642  -6.503   5.781  1.00  0.00     0.040 A 
ATOM     59  C   UNL     1       8.916  -5.882   3.570  1.00  0.00     0.040 A 
ATOM     60  F   UNL     1       8.555  -3.622   3.043  1.00  0.00    -0.206 F 
ATOM     61  C   UNL     1       9.288  -6.867   4.483  1.00  0.00     0.006 A 
ENDBRANCH  40  54
BRANCH  41  62
ATOM     62  C   UNL     1       9.282   5.475   7.837  1.00  0.00     0.057 A 
ATOM     63  C   UNL     1       8.920   5.896   9.123  1.00  0.00     0.134 A 
ATOM     64  C   UNL     1       9.630   6.461   6.908  1.00  0.00     0.134 A 
ATOM     65  F   UNL     1       8.577   4.997  10.057  1.00  0.00    -0.206 F 
ATOM     66  C   UNL     1       8.881   7.247   9.465  1.00  0.00     0.040 A 
ATOM     67  C   UNL     1       9.617   7.816   7.242  1.00  0.00     0.040 A 
ATOM     68  F   UNL     1      10.007   6.116   5.668  1.00  0.00    -0.206 F 
ATOM     69  C   UNL     1       9.233   8.212   8.522  1.00  0.00     0.006 A 
ENDBRANCH  41  62
BRANCH  53  70
ATOM     70  C   UNL     1      14.300   0.810   6.590  1.00  0.00     0.057 A 
ATOM     71  C   UNL     1      15.035   0.834   5.399  1.00  0.00     0.134 A 
ATOM     72  C   UNL     1      15.011   0.801   7.795  1.00  0.00     0.134 A 
ATOM     73  F   UNL     1      14.410   0.836   4.212  1.00  0.00    -0.206 F 
ATOM     74  C   UNL     1      16.430   0.836   5.406  1.00  0.00     0.040 A 
ATOM     75  C   UNL     1      16.406   0.821   7.815  1.00  0.00     0.040 A 
ATOM     76  F   UNL     1      14.361   0.790   8.968  1.00  0.00    -0.206 F 
ATOM     77  C   UNL     1      17.119   0.831   6.617  1.00  0.00     0.006 A 
ENDBRANCH  53  70
ENDBRANCH  27  28
ENDBRANCH  20  22
ENDBRANCH  19  20
ENDBRANCH  18  19
ENDBRANCH   1  18
TORSDOF 15
