REMARK SMILES O=C(OCCOC(=O)[C@H]1CCCCN1C(=O)c1nc(C2CC2)n[nH]1)c1ccc(-c2c3nc(c(-c4c(F)cccc4F)c4ccc([nH]4)c(-c4c(F)cccc4F)c4nc(c(-c5c(F)cccc5F)c5ccc2[nH]5)C=C4)C=C3)cc1
REMARK SMILES IDX 5 1 4 2 3 3 2 4 1 5 25 6 26 7 78 8 27 9 77 10 28 11 29 12
REMARK SMILES IDX 30 13 71 14 31 15 76 16 70 17 72 18 32 19 75 20 69 21 68 22
REMARK SMILES IDX 33 24 59 25 42 26 58 27 43 28 46 29 57 30 73 31 44 32 45 33
REMARK SMILES IDX 56 35 74 36 47 37 34 38 35 39 40 40 36 41 37 42 39 43 41 44
REMARK SMILES IDX 38 45 60 46 61 47 66 48 62 49 63 50 65 51 67 52 64 53 48 54
REMARK SMILES IDX 49 55 54 56 50 57 51 58 53 59 55 60 52 61 6 62 7 63 8 64
REMARK SMILES IDX 9 65 10 66 14 67 11 68 13 69 12 70 15 71 16 72 17 73 18 74
REMARK SMILES IDX 24 75 19 76 23 77 20 79 21 80 22 81
REMARK H PARENT 72 23 46 34 24 78
REMARK Flexibility Score: inf
ROOT
ATOM      1  C   UNL     1       2.015   1.110  -6.448  1.00  0.00     0.274 C 
ENDROOT
BRANCH   1   2
ATOM      2  C   UNL     1       3.323   1.903  -6.626  1.00  0.00     0.275 C 
BRANCH   2   3
ATOM      3  O   UNL     1       4.408   1.256  -5.976  1.00  0.00    -0.458 OA
BRANCH   3   4
ATOM      4  C   UNL     1       5.113   1.866  -5.011  1.00  0.00     0.338 C 
ATOM      5  O   UNL     1       6.298   1.595  -4.836  1.00  0.00    -0.246 OA
BRANCH   4   6
ATOM      6  C   UNL     1       4.432   2.715  -3.992  1.00  0.00     0.060 A 
ATOM      7  C   UNL     1       2.685   2.842  -3.638  1.00  0.00     0.016 A 
ATOM      8  C   UNL     1       5.508   3.119  -2.681  1.00  0.00     0.016 A 
ATOM      9  C   UNL     1       2.179   3.292  -1.803  1.00  0.00     0.010 A 
ATOM     10  C   UNL     1       4.999   3.543  -1.093  1.00  0.00     0.010 A 
ATOM     11  C   UNL     1       3.379   3.745  -0.614  1.00  0.00    -0.014 A 
BRANCH  11  12
ATOM     12  C   UNL     1       2.975   4.920   0.299  1.00  0.00     0.031 A 
ATOM     13  C   UNL     1       3.783   6.232   0.307  1.00  0.00     0.074 A 
ATOM     14  C   UNL     1       1.727   4.956   0.828  1.00  0.00     0.049 A 
ATOM     15  N   UNL     1       3.526   7.353   0.948  1.00  0.00    -0.248 NA
ATOM     16  C   UNL     1       5.004   6.344  -0.513  1.00  0.00     0.031 C 
ATOM     17  C   UNL     1       0.756   3.859   0.785  1.00  0.00     0.029 A 
ATOM     18  N   UNL     1       1.007   5.976   1.413  1.00  0.00    -0.354 N 
ATOM     19  C   UNL     1       4.569   8.230   0.643  1.00  0.00     0.074 A 
ATOM     20  C   UNL     1       5.435   7.565  -0.278  1.00  0.00     0.031 C 
ATOM     21  C   UNL     1      -0.456   4.323   1.112  1.00  0.00     0.029 A 
ATOM     22  C   UNL     1      -0.297   5.637   1.701  1.00  0.00     0.049 A 
ATOM     23  H   UNL     1       1.389   6.862   1.607  1.00  0.00     0.167 HD
ATOM     24  C   UNL     1       4.835   9.467   1.120  1.00  0.00     0.037 A 
ATOM     25  C   UNL     1      -1.240   6.225   2.467  1.00  0.00     0.037 A 
ATOM     26  C   UNL     1       4.003  10.121   2.082  1.00  0.00     0.049 A 
ATOM     27  C   UNL     1      -0.856   7.493   3.161  1.00  0.00     0.074 A 
ATOM     28  C   UNL     1       4.236  11.296   2.767  1.00  0.00     0.029 A 
ATOM     29  N   UNL     1       2.780   9.630   2.507  1.00  0.00    -0.354 N 
ATOM     30  N   UNL     1       0.231   8.210   3.006  1.00  0.00    -0.248 NA
ATOM     31  C   UNL     1      -1.783   8.006   4.175  1.00  0.00     0.031 C 
ATOM     32  C   UNL     1       3.189  11.471   3.675  1.00  0.00     0.029 A 
ATOM     33  C   UNL     1       2.260  10.460   3.479  1.00  0.00     0.049 A 
ATOM     34  H   UNL     1       2.347   8.814   2.168  1.00  0.00     0.167 HD
ATOM     35  C   UNL     1       0.119   9.264   3.897  1.00  0.00     0.074 A 
ATOM     36  C   UNL     1      -1.152   9.101   4.577  1.00  0.00     0.031 C 
ATOM     37  C   UNL     1       0.990  10.274   4.131  1.00  0.00     0.037 A 
BRANCH  24  38
ATOM     38  C   UNL     1       6.163  10.075   0.747  1.00  0.00     0.057 A 
ATOM     39  C   UNL     1       6.462  10.544  -0.540  1.00  0.00     0.134 A 
ATOM     40  C   UNL     1       7.197  10.102   1.694  1.00  0.00     0.134 A 
ATOM     41  F   UNL     1       5.539  10.500  -1.512  1.00  0.00    -0.206 F 
ATOM     42  C   UNL     1       7.746  10.986  -0.876  1.00  0.00     0.040 A 
ATOM     43  C   UNL     1       8.473  10.572   1.380  1.00  0.00     0.040 A 
ATOM     44  F   UNL     1       6.990   9.649   2.940  1.00  0.00    -0.206 F 
ATOM     45  C   UNL     1       8.754  11.005   0.087  1.00  0.00     0.006 A 
ENDBRANCH  24  38
BRANCH  25  46
ATOM     46  C   UNL     1      -2.530   5.523   2.756  1.00  0.00     0.057 A 
ATOM     47  C   UNL     1      -3.770   6.073   2.414  1.00  0.00     0.134 A 
ATOM     48  C   UNL     1      -2.552   4.256   3.367  1.00  0.00     0.134 A 
ATOM     49  F   UNL     1      -3.839   7.295   1.865  1.00  0.00    -0.206 F 
ATOM     50  C   UNL     1      -4.969   5.387   2.644  1.00  0.00     0.040 A 
ATOM     51  C   UNL     1      -3.735   3.541   3.561  1.00  0.00     0.040 A 
ATOM     52  F   UNL     1      -1.407   3.662   3.739  1.00  0.00    -0.206 F 
ATOM     53  C   UNL     1      -4.951   4.109   3.201  1.00  0.00     0.006 A 
ENDBRANCH  25  46
BRANCH  37  54
ATOM     54  C   UNL     1       0.573  11.321   5.111  1.00  0.00     0.057 A 
ATOM     55  C   UNL     1       0.540  11.081   6.488  1.00  0.00     0.134 A 
ATOM     56  C   UNL     1       0.272  12.612   4.661  1.00  0.00     0.134 A 
ATOM     57  F   UNL     1       0.813   9.861   6.975  1.00  0.00    -0.206 F 
ATOM     58  C   UNL     1       0.198  12.090   7.387  1.00  0.00     0.040 A 
ATOM     59  C   UNL     1      -0.038  13.636   5.551  1.00  0.00     0.040 A 
ATOM     60  F   UNL     1       0.303  12.902   3.351  1.00  0.00    -0.206 F 
ATOM     61  C   UNL     1      -0.082  13.374   6.918  1.00  0.00     0.006 A 
ENDBRANCH  37  54
ENDBRANCH  11  12
ENDBRANCH   4   6
ENDBRANCH   3   4
ENDBRANCH   2   3
ENDBRANCH   1   2
BRANCH   1  62
ATOM     62  O   UNL     1       1.504   1.001  -5.088  1.00  0.00    -0.461 OA
BRANCH  62  63
ATOM     63  C   UNL     1       2.221   0.330  -4.121  1.00  0.00     0.328 C 
ATOM     64  O   UNL     1       3.034  -0.547  -4.374  1.00  0.00    -0.250 OA
BRANCH  63  65
ATOM     65  C   UNL     1       2.067   1.026  -2.682  1.00  0.00     0.195 C 
ATOM     66  C   UNL     1       3.601   2.095  -2.151  1.00  0.00     0.037 C 
ATOM     67  N   UNL     1       0.605   1.816  -2.559  1.00  0.00    -0.322 N 
ATOM     68  C   UNL     1       3.518   4.224  -2.742  1.00  0.00     0.005 C 
ATOM     69  C   UNL     1       0.301   3.419  -3.226  1.00  0.00     0.121 C 
ATOM     70  C   UNL     1       1.671   4.763  -3.239  1.00  0.00     0.022 C 
BRANCH  67  71
ATOM     71  C   UNL     1      -0.153   1.230  -1.501  1.00  0.00     0.291 C 
ATOM     72  O   UNL     1       0.377   0.418  -0.737  1.00  0.00    -0.265 OA
BRANCH  71  73
ATOM     73  C   UNL     1      -1.511   1.598  -1.226  1.00  0.00     0.214 A 
ATOM     74  N   UNL     1      -2.463   1.863  -2.087  1.00  0.00    -0.207 NA
ATOM     75  N   UNL     1      -2.066   1.489   0.024  1.00  0.00    -0.255 N 
ATOM     76  C   UNL     1      -3.581   1.956  -1.293  1.00  0.00     0.154 A 
ATOM     77  N   UNL     1      -3.362   1.838   0.020  1.00  0.00    -0.158 NA
ATOM     78  H   UNL     1      -1.575   1.192   0.824  1.00  0.00     0.192 HD
BRANCH  76  79
ATOM     79  C   UNL     1      -4.962   2.136  -1.882  1.00  0.00     0.060 C 
ATOM     80  C   UNL     1      -5.033   2.393  -3.372  1.00  0.00     0.012 C 
ATOM     81  C   UNL     1      -5.486   1.078  -2.829  1.00  0.00     0.012 C 
ENDBRANCH  76  79
ENDBRANCH  71  73
ENDBRANCH  67  71
ENDBRANCH  63  65
ENDBRANCH  62  63
ENDBRANCH   1  62
TORSDOF 14
