REMARK SMILES CC(C)C[C@H](NC(=O)[C@H](Cc1ccccc1)NC(=O)CNC(=O)CNC(=O)OCc1ccccc1)C(=O)OCCOC(=O)c1ccc(-c2c3nc(c(-c4c(F)cccc4F)c4ccc([nH]4)c(-c4c(F)cccc4F)c4nc(c(-c5c(F)cccc5F)c5ccc2[nH]5)C=C4)C=C3)cc1
REMARK SMILES IDX 6 1 7 2 8 3 5 5 4 6 2 7 1 8 3 9 36 10 37 11 38 12 39 13
REMARK SMILES IDX 40 14 41 15 42 16 43 17 44 18 45 19 97 20 46 21 96 22 47 23
REMARK SMILES IDX 48 24 49 25 90 26 50 27 95 28 89 29 91 30 51 31 94 32 88 33
REMARK SMILES IDX 87 34 52 36 78 37 61 38 77 39 62 40 65 41 76 42 92 43 63 44
REMARK SMILES IDX 64 45 75 47 93 48 66 49 53 50 54 51 59 52 55 53 56 54 58 55
REMARK SMILES IDX 60 56 57 57 79 58 80 59 85 60 81 61 82 62 84 63 86 64 83 65
REMARK SMILES IDX 67 66 68 67 73 68 69 69 70 70 72 71 74 72 71 73 9 74 17 75
REMARK SMILES IDX 18 76 19 78 20 79 21 80 22 81 23 83 24 84 25 85 26 86 27 88
REMARK SMILES IDX 28 89 29 90 30 91 31 92 35 93 32 94 34 95 33 96 10 97 11 98
REMARK SMILES IDX 12 99 16 100 13 101 15 102 14 103
REMARK H PARENT 6 4 91 35 65 46 17 77 21 82 25 87
REMARK Flexibility Score: inf
ROOT
ATOM      1  N   UNL     1      -6.846  -1.323   2.700  1.00  0.00    -0.341 N 
ATOM      2  C   UNL     1      -7.766  -0.302   2.852  1.00  0.00     0.243 C 
ATOM      3  O   UNL     1      -8.703  -0.513   3.633  1.00  0.00    -0.273 OA
ATOM      4  H   UNL     1      -6.904  -2.014   3.400  1.00  0.00     0.164 HD
ENDROOT
BRANCH   1   5
ATOM      5  C   UNL     1      -5.794  -1.583   1.696  1.00  0.00     0.192 C 
BRANCH   5   6
ATOM      6  C   UNL     1      -4.560  -0.662   1.766  1.00  0.00     0.040 C 
BRANCH   6   7
ATOM      7  C   UNL     1      -3.104  -1.153   1.644  1.00  0.00    -0.015 C 
ATOM      8  C   UNL     1      -2.611  -1.175   0.187  1.00  0.00     0.007 C 
ATOM      9  C   UNL     1      -2.158  -0.205   2.395  1.00  0.00     0.007 C 
ENDBRANCH   6   7
ENDBRANCH   5   6
BRANCH   5  10
ATOM     10  C   UNL     1      -5.374  -3.037   1.350  1.00  0.00     0.328 C 
ATOM     11  O   UNL     1      -4.686  -3.275   0.359  1.00  0.00    -0.250 OA
BRANCH  10  12
ATOM     12  O   UNL     1      -5.803  -4.016   2.184  1.00  0.00    -0.461 OA
BRANCH  12  13
ATOM     13  C   UNL     1      -5.433  -5.356   1.759  1.00  0.00     0.274 C 
BRANCH  13  14
ATOM     14  C   UNL     1      -6.580  -6.109   1.081  1.00  0.00     0.275 C 
BRANCH  14  15
ATOM     15  O   UNL     1      -6.883  -5.559  -0.208  1.00  0.00    -0.458 OA
BRANCH  15  16
ATOM     16  C   UNL     1      -7.704  -4.489  -0.169  1.00  0.00     0.338 C 
ATOM     17  O   UNL     1      -8.259  -4.005   0.803  1.00  0.00    -0.246 OA
BRANCH  16  18
ATOM     18  C   UNL     1      -7.674  -3.817  -1.468  1.00  0.00     0.060 A 
ATOM     19  C   UNL     1      -7.188  -2.514  -1.491  1.00  0.00     0.016 A 
ATOM     20  C   UNL     1      -8.180  -4.398  -2.618  1.00  0.00     0.016 A 
ATOM     21  C   UNL     1      -7.260  -1.725  -2.610  1.00  0.00     0.010 A 
ATOM     22  C   UNL     1      -8.207  -3.632  -3.781  1.00  0.00     0.010 A 
ATOM     23  C   UNL     1      -7.771  -2.290  -3.765  1.00  0.00    -0.014 A 
BRANCH  23  24
ATOM     24  C   UNL     1      -7.941  -1.430  -4.938  1.00  0.00     0.031 A 
ATOM     25  C   UNL     1      -9.333  -1.135  -5.383  1.00  0.00     0.074 A 
ATOM     26  C   UNL     1      -6.857  -0.931  -5.553  1.00  0.00     0.049 A 
ATOM     27  N   UNL     1      -9.745  -0.651  -6.518  1.00  0.00    -0.248 NA
ATOM     28  C   UNL     1     -10.409  -1.460  -4.429  1.00  0.00     0.031 C 
ATOM     29  C   UNL     1      -5.471  -1.085  -5.098  1.00  0.00     0.029 A 
ATOM     30  N   UNL     1      -6.751  -0.213  -6.710  1.00  0.00    -0.354 N 
ATOM     31  C   UNL     1     -11.130  -0.679  -6.446  1.00  0.00     0.074 A 
ATOM     32  C   UNL     1     -11.490  -1.225  -5.157  1.00  0.00     0.031 C 
ATOM     33  C   UNL     1      -4.652  -0.498  -5.982  1.00  0.00     0.029 A 
ATOM     34  C   UNL     1      -5.450  -0.013  -7.099  1.00  0.00     0.049 A 
ATOM     35  H   UNL     1      -7.527   0.126  -7.212  1.00  0.00     0.167 HD
ATOM     36  C   UNL     1     -12.006  -0.289  -7.397  1.00  0.00     0.037 A 
ATOM     37  C   UNL     1      -4.969   0.443  -8.267  1.00  0.00     0.037 A 
ATOM     38  C   UNL     1     -11.587   0.277  -8.650  1.00  0.00     0.049 A 
ATOM     39  C   UNL     1      -5.963   0.808  -9.333  1.00  0.00     0.074 A 
ATOM     40  C   UNL     1     -12.364   0.734  -9.695  1.00  0.00     0.029 A 
ATOM     41  N   UNL     1     -10.259   0.465  -9.017  1.00  0.00    -0.354 N 
ATOM     42  N   UNL     1      -7.274   0.753  -9.292  1.00  0.00    -0.248 NA
ATOM     43  C   UNL     1      -5.418   1.284 -10.608  1.00  0.00     0.031 C 
ATOM     44  C   UNL     1     -11.505   1.147 -10.718  1.00  0.00     0.029 A 
ATOM     45  C   UNL     1     -10.193   1.006 -10.287  1.00  0.00     0.049 A 
ATOM     46  H   UNL     1      -9.481   0.245  -8.456  1.00  0.00     0.167 HD
ATOM     47  C   UNL     1      -7.715   1.210 -10.524  1.00  0.00     0.074 A 
ATOM     48  C   UNL     1      -6.526   1.551 -11.284  1.00  0.00     0.031 C 
ATOM     49  C   UNL     1      -8.980   1.337 -10.994  1.00  0.00     0.037 A 
BRANCH  36  50
ATOM     50  C   UNL     1     -13.464  -0.519  -7.136  1.00  0.00     0.057 A 
ATOM     51  C   UNL     1     -14.177   0.195  -6.165  1.00  0.00     0.134 A 
ATOM     52  C   UNL     1     -14.166  -1.481  -7.874  1.00  0.00     0.134 A 
ATOM     53  F   UNL     1     -13.560   1.111  -5.404  1.00  0.00    -0.206 F 
ATOM     54  C   UNL     1     -15.530  -0.053  -5.923  1.00  0.00     0.040 A 
ATOM     55  C   UNL     1     -15.525  -1.718  -7.662  1.00  0.00     0.040 A 
ATOM     56  F   UNL     1     -13.543  -2.209  -8.813  1.00  0.00    -0.206 F 
ATOM     57  C   UNL     1     -16.209  -1.007  -6.679  1.00  0.00     0.006 A 
ENDBRANCH  36  50
BRANCH  37  58
ATOM     58  C   UNL     1      -3.505   0.517  -8.497  1.00  0.00     0.057 A 
ATOM     59  C   UNL     1      -2.860   1.748  -8.648  1.00  0.00     0.134 A 
ATOM     60  C   UNL     1      -2.711  -0.637  -8.559  1.00  0.00     0.134 A 
ATOM     61  F   UNL     1      -3.566   2.888  -8.609  1.00  0.00    -0.206 F 
ATOM     62  C   UNL     1      -1.485   1.832  -8.873  1.00  0.00     0.040 A 
ATOM     63  C   UNL     1      -1.331  -0.567  -8.754  1.00  0.00     0.040 A 
ATOM     64  F   UNL     1      -3.263  -1.850  -8.410  1.00  0.00    -0.206 F 
ATOM     65  C   UNL     1      -0.715   0.671  -8.921  1.00  0.00     0.006 A 
ENDBRANCH  37  58
BRANCH  49  66
ATOM     66  C   UNL     1      -9.132   1.903 -12.372  1.00  0.00     0.057 A 
ATOM     67  C   UNL     1      -8.813   1.161 -13.515  1.00  0.00     0.134 A 
ATOM     68  C   UNL     1      -9.661   3.187 -12.553  1.00  0.00     0.134 A 
ATOM     69  F   UNL     1      -8.288  -0.069 -13.403  1.00  0.00    -0.206 F 
ATOM     70  C   UNL     1      -9.000   1.684 -14.793  1.00  0.00     0.040 A 
ATOM     71  C   UNL     1      -9.882   3.708 -13.826  1.00  0.00     0.040 A 
ATOM     72  F   UNL     1      -9.995   3.942 -11.495  1.00  0.00    -0.206 F 
ATOM     73  C   UNL     1      -9.546   2.957 -14.950  1.00  0.00     0.006 A 
ENDBRANCH  49  66
ENDBRANCH  23  24
ENDBRANCH  16  18
ENDBRANCH  15  16
ENDBRANCH  14  15
ENDBRANCH  13  14
ENDBRANCH  12  13
ENDBRANCH  10  12
ENDBRANCH   5  10
ENDBRANCH   1   5
BRANCH   2  74
ATOM     74  C   UNL     1      -7.511   1.175   2.357  1.00  0.00     0.175 C 
BRANCH  74  75
ATOM     75  N   UNL     1      -6.822   1.314   1.093  1.00  0.00    -0.342 N 
ATOM     76  C   UNL     1      -5.658   1.984   0.828  1.00  0.00     0.240 C 
ATOM     77  H   UNL     1      -7.245   0.870   0.323  1.00  0.00     0.164 HD
ATOM     78  O   UNL     1      -5.263   1.960  -0.343  1.00  0.00    -0.273 OA
BRANCH  76  79
ATOM     79  C   UNL     1      -4.755   2.617   1.946  1.00  0.00     0.216 C 
BRANCH  79  80
ATOM     80  N   UNL     1      -5.347   3.193   3.152  1.00  0.00    -0.346 N 
ATOM     81  C   UNL     1      -5.332   2.826   4.469  1.00  0.00     0.239 C 
ATOM     82  H   UNL     1      -5.862   4.015   2.981  1.00  0.00     0.164 HD
ATOM     83  O   UNL     1      -6.090   3.447   5.220  1.00  0.00    -0.273 OA
BRANCH  81  84
ATOM     84  C   UNL     1      -4.540   1.618   4.997  1.00  0.00     0.219 C 
BRANCH  84  85
ATOM     85  N   UNL     1      -5.346   0.411   5.110  1.00  0.00    -0.312 N 
ATOM     86  C   UNL     1      -4.913  -0.881   5.204  1.00  0.00     0.407 C 
ATOM     87  H   UNL     1      -6.322   0.542   5.121  1.00  0.00     0.167 HD
ATOM     88  O   UNL     1      -5.718  -1.804   5.128  1.00  0.00    -0.225 OA
BRANCH  86  89
ATOM     89  O   UNL     1      -3.573  -1.010   5.323  1.00  0.00    -0.445 OA
BRANCH  89  90
ATOM     90  C   UNL     1      -2.948  -2.312   5.151  1.00  0.00     0.270 C 
BRANCH  90  91
ATOM     91  C   UNL     1      -3.639  -3.522   5.726  1.00  0.00    -0.011 A 
ATOM     92  C   UNL     1      -3.901  -4.638   4.918  1.00  0.00     0.007 A 
ATOM     93  C   UNL     1      -4.086  -3.523   7.049  1.00  0.00     0.007 A 
ATOM     94  C   UNL     1      -4.692  -5.685   5.395  1.00  0.00     0.000 A 
ATOM     95  C   UNL     1      -4.885  -4.565   7.518  1.00  0.00     0.000 A 
ATOM     96  C   UNL     1      -5.209  -5.633   6.684  1.00  0.00     0.000 A 
ENDBRANCH  90  91
ENDBRANCH  89  90
ENDBRANCH  86  89
ENDBRANCH  84  85
ENDBRANCH  81  84
ENDBRANCH  79  80
ENDBRANCH  76  79
ENDBRANCH  74  75
BRANCH  74  97
ATOM     97  C   UNL     1      -8.771   2.108   2.486  1.00  0.00     0.070 C 
BRANCH  97  98
ATOM     98  C   UNL     1      -8.923   3.472   1.792  1.00  0.00    -0.045 A 
ATOM     99  C   UNL     1      -7.936   4.151   1.070  1.00  0.00     0.004 A 
ATOM    100  C   UNL     1     -10.168   4.122   1.869  1.00  0.00     0.004 A 
ATOM    101  C   UNL     1      -8.172   5.347   0.383  1.00  0.00     0.000 A 
ATOM    102  C   UNL     1     -10.413   5.336   1.202  1.00  0.00     0.000 A 
ATOM    103  C   UNL     1      -9.419   5.938   0.438  1.00  0.00     0.000 A 
ENDBRANCH  97  98
ENDBRANCH  74  97
ENDBRANCH   2  74
TORSDOF 25
