REMARK SMILES CC1(C)CC[C@@]2(C(=O)OCCOC(=O)c3ccc(-c4c5nc(c(-c6c(F)cccc6F)c6ccc([nH]6)c(-c6c(F)cccc6F)c6nc(c(-c7c(F)cccc7F)c7ccc4[nH]7)C=C6)C=C5)cc3)CC[C@@]3(C)C(=CC[C@H]4[C@@]5(C)CC[C@H](O)C(C)(C)[C@@H]5CC[C@]43C)[C@@H]2C1
REMARK SMILES IDX 11 1 10 2 9 3 7 4 8 5 6 6 1 7 2 8 3 9 4 10 92 11 5 12 91 13
REMARK SMILES IDX 73 14 69 15 71 16 74 17 70 18 72 19 89 20 75 21 76 22 88 23
REMARK SMILES IDX 90 24 77 25 87 26 78 27 79 28 86 29 80 30 83 31 81 32 84 33
REMARK SMILES IDX 85 34 82 35 12 37 13 38 14 39 15 40 16 41 68 42 17 43 67 44
REMARK SMILES IDX 18 45 19 46 20 47 61 48 21 49 66 50 60 51 62 52 22 53 65 54
REMARK SMILES IDX 59 55 58 56 23 58 49 59 32 60 48 61 33 62 36 63 47 64 63 65
REMARK SMILES IDX 34 66 35 67 46 69 64 70 37 71 24 72 25 73 30 74 26 75 27 76
REMARK SMILES IDX 29 77 31 78 28 79 50 80 51 81 56 82 52 83 53 84 55 85 57 86
REMARK SMILES IDX 54 87 38 88 39 89 44 90 40 91 41 92 43 93 45 94 42 95
REMARK H PARENT 82 36 62 57 36 68
REMARK Flexibility Score: inf
ROOT
ATOM      1  C   UNL     1      -2.185   2.891  -3.588  1.00  0.00     0.275 C 
ENDROOT
BRANCH   1   2
ATOM      2  C   UNL     1      -1.460   1.594  -3.281  1.00  0.00     0.274 C 
BRANCH   2   3
ATOM      3  O   UNL     1      -1.693   1.006  -2.032  1.00  0.00    -0.462 OA
BRANCH   3   4
ATOM      4  C   UNL     1      -1.839   1.916  -1.066  1.00  0.00     0.312 C 
ATOM      5  O   UNL     1      -2.967   2.253  -0.712  1.00  0.00    -0.252 OA
BRANCH   4   6
ATOM      6  C   UNL     1      -0.576   2.272  -0.273  1.00  0.00     0.075 C 
ATOM      7  C   UNL     1       1.786  -0.873   1.055  1.00  0.00     0.011 C 
ATOM      8  C   UNL     1       0.936  -0.454  -0.160  1.00  0.00    -0.035 C 
ATOM      9  C   UNL     1       1.048  -1.597  -1.204  1.00  0.00     0.011 C 
ATOM     10  C   UNL     1      -0.500  -0.237   0.334  1.00  0.00     0.007 C 
ATOM     11  C   UNL     1       1.520   0.781  -0.853  1.00  0.00     0.015 C 
ATOM     12  C   UNL     1      -0.761   1.212   0.872  1.00  0.00     0.020 C 
ATOM     13  C   UNL     1       0.940   2.196  -0.618  1.00  0.00     0.033 C 
ATOM     14  C   UNL     1       1.524   3.145  -1.679  1.00  0.00    -0.063 C 
ATOM     15  C   UNL     1      -0.780   3.791   0.021  1.00  0.00     0.020 C 
ATOM     16  C   UNL     1       0.944   4.523  -1.988  1.00  0.00    -0.006 C 
ATOM     17  C   UNL     1       2.770   2.910  -2.142  1.00  0.00    -0.027 C 
ATOM     18  C   UNL     1      -0.431   4.756  -1.204  1.00  0.00     0.013 C 
ATOM     19  C   UNL     1       1.848   5.502  -1.109  1.00  0.00     0.017 C 
ATOM     20  C   UNL     1       1.205   4.856  -3.694  1.00  0.00    -0.020 C 
ATOM     21  C   UNL     1       3.297   3.325  -3.464  1.00  0.00     0.032 C 
ATOM     22  C   UNL     1       2.202   3.796  -4.433  1.00  0.00     0.006 C 
ATOM     23  C   UNL     1      -0.013   5.153  -4.631  1.00  0.00     0.008 C 
ATOM     24  C   UNL     1       2.017   6.214  -3.769  1.00  0.00     0.012 C 
ATOM     25  C   UNL     1       1.690   2.674  -5.538  1.00  0.00    -0.025 C 
ATOM     26  C   UNL     1      -0.104   4.412  -6.011  1.00  0.00     0.005 C 
ATOM     27  C   UNL     1       2.624   2.845  -6.769  1.00  0.00     0.012 C 
ATOM     28  C   UNL     1       1.826   1.180  -5.098  1.00  0.00     0.010 C 
ATOM     29  C   UNL     1       0.210   2.910  -5.927  1.00  0.00     0.003 C 
ATOM     30  C   UNL     1       1.186   0.140  -6.042  1.00  0.00     0.033 C 
ATOM     31  C   UNL     1      -0.497   1.894  -6.955  1.00  0.00    -0.006 C 
ATOM     32  C   UNL     1      -0.256   0.435  -6.447  1.00  0.00     0.120 C 
ATOM     33  C   UNL     1      -0.053   2.006  -8.425  1.00  0.00     0.014 C 
ATOM     34  C   UNL     1      -2.044   2.100  -7.011  1.00  0.00     0.014 C 
BRANCH  32  35
ATOM     35  O   UNL     1      -0.739  -0.546  -7.368  1.00  0.00    -0.393 OA
ATOM     36  H   UNL     1      -0.226  -0.498  -8.189  1.00  0.00     0.210 HD
ENDBRANCH  32  35
ENDBRANCH   4   6
ENDBRANCH   3   4
ENDBRANCH   2   3
ENDBRANCH   1   2
BRANCH   1  37
ATOM     37  O   UNL     1      -3.593   2.937  -3.557  1.00  0.00    -0.458 OA
BRANCH  37  38
ATOM     38  C   UNL     1      -3.939   4.171  -4.061  1.00  0.00     0.338 C 
ATOM     39  O   UNL     1      -4.118   4.410  -5.220  1.00  0.00    -0.246 OA
BRANCH  38  40
ATOM     40  C   UNL     1      -3.838   5.224  -3.011  1.00  0.00     0.060 A 
ATOM     41  C   UNL     1      -4.262   4.954  -1.711  1.00  0.00     0.016 A 
ATOM     42  C   UNL     1      -3.337   6.491  -3.357  1.00  0.00     0.016 A 
ATOM     43  C   UNL     1      -4.334   5.988  -0.791  1.00  0.00     0.010 A 
ATOM     44  C   UNL     1      -3.395   7.532  -2.431  1.00  0.00     0.010 A 
ATOM     45  C   UNL     1      -4.007   7.291  -1.194  1.00  0.00    -0.014 A 
BRANCH  45  46
ATOM     46  C   UNL     1      -4.751   8.373  -0.516  1.00  0.00     0.031 A 
ATOM     47  C   UNL     1      -6.124   8.677  -1.065  1.00  0.00     0.074 A 
ATOM     48  C   UNL     1      -4.299   8.916   0.623  1.00  0.00     0.049 A 
ATOM     49  N   UNL     1      -7.091   9.384  -0.547  1.00  0.00    -0.248 NA
ATOM     50  C   UNL     1      -6.467   8.065  -2.364  1.00  0.00     0.031 C 
ATOM     51  C   UNL     1      -3.006   8.630   1.242  1.00  0.00     0.029 A 
ATOM     52  N   UNL     1      -4.900   9.798   1.478  1.00  0.00    -0.354 N 
ATOM     53  C   UNL     1      -8.158   9.257  -1.431  1.00  0.00     0.074 A 
ATOM     54  C   UNL     1      -7.715   8.456  -2.542  1.00  0.00     0.031 C 
ATOM     55  C   UNL     1      -2.914   9.322   2.392  1.00  0.00     0.029 A 
ATOM     56  C   UNL     1      -4.138  10.097   2.580  1.00  0.00     0.049 A 
ATOM     57  H   UNL     1      -5.792  10.182   1.318  1.00  0.00     0.167 HD
ATOM     58  C   UNL     1      -9.409   9.755  -1.319  1.00  0.00     0.037 A 
ATOM     59  C   UNL     1      -4.422  10.905   3.618  1.00  0.00     0.037 A 
ATOM     60  C   UNL     1      -9.810  10.605  -0.237  1.00  0.00     0.049 A 
ATOM     61  C   UNL     1      -5.786  11.546   3.664  1.00  0.00     0.074 A 
ATOM     62  C   UNL     1     -11.019  11.238  -0.032  1.00  0.00     0.029 A 
ATOM     63  N   UNL     1      -8.977  10.958   0.816  1.00  0.00    -0.354 N 
ATOM     64  N   UNL     1      -6.798  11.401   2.838  1.00  0.00    -0.248 NA
ATOM     65  C   UNL     1      -6.053  12.452   4.787  1.00  0.00     0.031 C 
ATOM     66  C   UNL     1     -10.898  12.022   1.121  1.00  0.00     0.029 A 
ATOM     67  C   UNL     1      -9.633  11.830   1.662  1.00  0.00     0.049 A 
ATOM     68  H   UNL     1      -8.056  10.635   0.941  1.00  0.00     0.167 HD
ATOM     69  C   UNL     1      -7.826  12.183   3.349  1.00  0.00     0.074 A 
ATOM     70  C   UNL     1      -7.319  12.777   4.571  1.00  0.00     0.031 C 
ATOM     71  C   UNL     1      -9.074  12.400   2.862  1.00  0.00     0.037 A 
BRANCH  58  72
ATOM     72  C   UNL     1     -10.373   9.430  -2.422  1.00  0.00     0.057 A 
ATOM     73  C   UNL     1     -10.903   8.142  -2.588  1.00  0.00     0.134 A 
ATOM     74  C   UNL     1     -10.735  10.401  -3.362  1.00  0.00     0.134 A 
ATOM     75  F   UNL     1     -10.568   7.155  -1.743  1.00  0.00    -0.206 F 
ATOM     76  C   UNL     1     -11.738   7.827  -3.663  1.00  0.00     0.040 A 
ATOM     77  C   UNL     1     -11.587  10.105  -4.428  1.00  0.00     0.040 A 
ATOM     78  F   UNL     1     -10.251  11.649  -3.273  1.00  0.00    -0.206 F 
ATOM     79  C   UNL     1     -12.085   8.813  -4.585  1.00  0.00     0.006 A 
ENDBRANCH  58  72
BRANCH  59  80
ATOM     80  C   UNL     1      -3.409  11.152   4.677  1.00  0.00     0.057 A 
ATOM     81  C   UNL     1      -3.599  10.728   5.997  1.00  0.00     0.134 A 
ATOM     82  C   UNL     1      -2.222  11.842   4.392  1.00  0.00     0.134 A 
ATOM     83  F   UNL     1      -4.720  10.078   6.343  1.00  0.00    -0.206 F 
ATOM     84  C   UNL     1      -2.659  10.996   6.996  1.00  0.00     0.040 A 
ATOM     85  C   UNL     1      -1.262  12.094   5.374  1.00  0.00     0.040 A 
ATOM     86  F   UNL     1      -1.973  12.275   3.147  1.00  0.00    -0.206 F 
ATOM     87  C   UNL     1      -1.484  11.677   6.684  1.00  0.00     0.006 A 
ENDBRANCH  59  80
BRANCH  71  88
ATOM     88  C   UNL     1      -9.959  13.309   3.659  1.00  0.00     0.057 A 
ATOM     89  C   UNL     1      -9.743  14.691   3.703  1.00  0.00     0.134 A 
ATOM     90  C   UNL     1     -11.065  12.798   4.349  1.00  0.00     0.134 A 
ATOM     91  F   UNL     1      -8.695  15.237   3.068  1.00  0.00    -0.206 F 
ATOM     92  C   UNL     1     -10.580  15.532   4.434  1.00  0.00     0.040 A 
ATOM     93  C   UNL     1     -11.927  13.633   5.057  1.00  0.00     0.040 A 
ATOM     94  F   UNL     1     -11.334  11.483   4.330  1.00  0.00    -0.206 F 
ATOM     95  C   UNL     1     -11.680  15.004   5.108  1.00  0.00     0.006 A 
ENDBRANCH  71  88
ENDBRANCH  45  46
ENDBRANCH  38  40
ENDBRANCH  37  38
ENDBRANCH   1  37
TORSDOF 12
