REMARK SMILES CCOC(=O)c1ccc(-c2cc(F)cc(C(=O)OCCOC(=O)c3ccc(-c4c5nc(c(-c6c(F)cccc6F)c6ccc([nH]6)c(-c6c(F)cccc6F)c6nc(c(-c7c(F)cccc7F)c7ccc4[nH]7)C=C6)C=C5)cc3)c2)cc1
REMARK SMILES IDX 19 1 18 2 16 3 17 4 15 5 10 6 11 7 78 8 12 9 13 10 14 11
REMARK SMILES IDX 9 12 6 13 7 14 80 15 8 16 79 17 4 18 5 19 3 20 2 21 1 22
REMARK SMILES IDX 20 23 21 24 22 25 23 26 24 27 25 28 77 29 26 30 76 31 27 32
REMARK SMILES IDX 28 33 29 34 70 35 30 36 75 37 69 38 71 39 31 40 74 41 68 42
REMARK SMILES IDX 67 43 32 45 58 46 41 47 57 48 42 49 45 50 56 51 72 52 43 53
REMARK SMILES IDX 44 54 55 56 73 57 46 58 33 59 34 60 39 61 35 62 36 63 38 64
REMARK SMILES IDX 40 65 37 66 59 67 60 68 65 69 61 70 62 71 64 72 66 73 63 74
REMARK SMILES IDX 47 75 48 76 53 77 49 78 50 79 52 80 54 81 51 82
REMARK H PARENT 71 44 45 55
REMARK Flexibility Score: inf
ROOT
ATOM      1  C   UNL     1       6.210   8.796   7.438  1.00  0.00     0.275 C 
ENDROOT
BRANCH   1   2
ATOM      2  O   UNL     1       5.739   8.417   6.128  1.00  0.00    -0.458 OA
BRANCH   2   3
ATOM      3  C   UNL     1       5.108   9.379   5.413  1.00  0.00     0.338 C 
ATOM      4  O   UNL     1       4.876  10.522   5.773  1.00  0.00    -0.246 OA
BRANCH   3   5
ATOM      5  C   UNL     1       4.811   8.894   4.043  1.00  0.00     0.063 A 
ATOM      6  C   UNL     1       4.259   7.110   2.475  1.00  0.00    -0.015 A 
ATOM      7  C   UNL     1       4.309   8.041   1.428  1.00  0.00     0.048 A 
ATOM      8  C   UNL     1       4.550   7.545   3.782  1.00  0.00     0.024 A 
ATOM      9  C   UNL     1       4.559   9.380   1.699  1.00  0.00     0.124 A 
ATOM     10  F   UNL     1       4.575  10.265   0.695  1.00  0.00    -0.207 F 
ATOM     11  C   UNL     1       4.767   9.819   2.997  1.00  0.00     0.055 A 
BRANCH   6  12
ATOM     12  C   UNL     1       3.837   5.729   2.228  1.00  0.00    -0.018 A 
ATOM     13  C   UNL     1       2.958   3.103   1.758  1.00  0.00     0.060 A 
ATOM     14  C   UNL     1       4.104   3.582   1.116  1.00  0.00     0.016 A 
ATOM     15  C   UNL     1       2.249   3.925   2.637  1.00  0.00     0.016 A 
ATOM     16  C   UNL     1       4.534   4.893   1.343  1.00  0.00     0.009 A 
ATOM     17  C   UNL     1       2.691   5.226   2.870  1.00  0.00     0.009 A 
BRANCH  13  18
ATOM     18  C   UNL     1       2.538   1.708   1.519  1.00  0.00     0.338 C 
ATOM     19  O   UNL     1       3.318   0.783   1.373  1.00  0.00    -0.246 OA
BRANCH  18  20
ATOM     20  O   UNL     1       1.186   1.658   1.442  1.00  0.00    -0.462 OA
BRANCH  20  21
ATOM     21  C   UNL     1       0.624   0.358   1.213  1.00  0.00     0.230 C 
ATOM     22  C   UNL     1       0.789  -0.073  -0.234  1.00  0.00     0.049 C 
ENDBRANCH  20  21
ENDBRANCH  18  20
ENDBRANCH  13  18
ENDBRANCH   6  12
ENDBRANCH   3   5
ENDBRANCH   2   3
ENDBRANCH   1   2
BRANCH   1  23
ATOM     23  C   UNL     1       7.721   9.027   7.432  1.00  0.00     0.275 C 
BRANCH  23  24
ATOM     24  O   UNL     1       8.046  10.211   6.681  1.00  0.00    -0.458 OA
BRANCH  24  25
ATOM     25  C   UNL     1       8.600   9.998   5.467  1.00  0.00     0.338 C 
ATOM     26  O   UNL     1       8.894   8.933   4.953  1.00  0.00    -0.246 OA
BRANCH  25  27
ATOM     27  C   UNL     1       8.749  11.283   4.772  1.00  0.00     0.060 A 
ATOM     28  C   UNL     1       7.645  11.803   4.104  1.00  0.00     0.016 A 
ATOM     29  C   UNL     1       9.991  11.902   4.667  1.00  0.00     0.016 A 
ATOM     30  C   UNL     1       7.780  12.902   3.262  1.00  0.00     0.010 A 
ATOM     31  C   UNL     1      10.111  13.056   3.885  1.00  0.00     0.010 A 
ATOM     32  C   UNL     1       9.014  13.552   3.151  1.00  0.00    -0.014 A 
BRANCH  32  33
ATOM     33  C   UNL     1       9.185  14.716   2.241  1.00  0.00     0.031 A 
ATOM     34  C   UNL     1      10.185  14.639   1.120  1.00  0.00     0.074 A 
ATOM     35  C   UNL     1       8.462  15.840   2.410  1.00  0.00     0.049 A 
ATOM     36  N   UNL     1      10.694  15.601   0.395  1.00  0.00    -0.248 NA
ATOM     37  C   UNL     1      10.689  13.298   0.781  1.00  0.00     0.031 C 
ATOM     38  C   UNL     1       7.397  16.029   3.395  1.00  0.00     0.029 A 
ATOM     39  N   UNL     1       8.525  17.047   1.756  1.00  0.00    -0.354 N 
ATOM     40  C   UNL     1      11.620  14.992  -0.443  1.00  0.00     0.074 A 
ATOM     41  C   UNL     1      11.598  13.577  -0.142  1.00  0.00     0.031 C 
ATOM     42  C   UNL     1       6.898  17.270   3.273  1.00  0.00     0.029 A 
ATOM     43  C   UNL     1       7.670  17.993   2.268  1.00  0.00     0.049 A 
ATOM     44  H   UNL     1       9.126  17.218   0.994  1.00  0.00     0.167 HD
ATOM     45  C   UNL     1      12.420  15.568  -1.372  1.00  0.00     0.037 A 
ATOM     46  C   UNL     1       7.559  19.308   2.004  1.00  0.00     0.037 A 
ATOM     47  C   UNL     1      12.397  16.970  -1.699  1.00  0.00     0.049 A 
ATOM     48  C   UNL     1       8.494  19.938   1.011  1.00  0.00     0.074 A 
ATOM     49  C   UNL     1      13.183  17.659  -2.608  1.00  0.00     0.029 A 
ATOM     50  N   UNL     1      11.524  17.892  -1.144  1.00  0.00    -0.354 N 
ATOM     51  N   UNL     1       9.436  19.377   0.293  1.00  0.00    -0.248 NA
ATOM     52  C   UNL     1       8.370  21.389   0.809  1.00  0.00     0.031 C 
ATOM     53  C   UNL     1      12.799  19.003  -2.586  1.00  0.00     0.029 A 
ATOM     54  C   UNL     1      11.749  19.143  -1.692  1.00  0.00     0.049 A 
ATOM     55  H   UNL     1      10.844  17.688  -0.462  1.00  0.00     0.167 HD
ATOM     56  C   UNL     1       9.997  20.397  -0.464  1.00  0.00     0.074 A 
ATOM     57  C   UNL     1       9.288  21.612  -0.121  1.00  0.00     0.031 C 
ATOM     58  C   UNL     1      11.010  20.333  -1.360  1.00  0.00     0.037 A 
BRANCH  45  59
ATOM     59  C   UNL     1      13.413  14.691  -2.076  1.00  0.00     0.057 A 
ATOM     60  C   UNL     1      13.031  13.778  -3.066  1.00  0.00     0.134 A 
ATOM     61  C   UNL     1      14.780  14.795  -1.784  1.00  0.00     0.134 A 
ATOM     62  F   UNL     1      11.737  13.620  -3.381  1.00  0.00    -0.206 F 
ATOM     63  C   UNL     1      13.972  12.987  -3.728  1.00  0.00     0.040 A 
ATOM     64  C   UNL     1      15.731  14.027  -2.456  1.00  0.00     0.040 A 
ATOM     65  F   UNL     1      15.213  15.655  -0.850  1.00  0.00    -0.206 F 
ATOM     66  C   UNL     1      15.327  13.116  -3.429  1.00  0.00     0.006 A 
ENDBRANCH  45  59
BRANCH  46  67
ATOM     67  C   UNL     1       6.558  20.131   2.730  1.00  0.00     0.057 A 
ATOM     68  C   UNL     1       5.452  20.674   2.068  1.00  0.00     0.134 A 
ATOM     69  C   UNL     1       6.686  20.399   4.099  1.00  0.00     0.134 A 
ATOM     70  F   UNL     1       5.288  20.475   0.752  1.00  0.00    -0.206 F 
ATOM     71  C   UNL     1       4.513  21.461   2.738  1.00  0.00     0.040 A 
ATOM     72  C   UNL     1       5.741  21.161   4.787  1.00  0.00     0.040 A 
ATOM     73  F   UNL     1       7.725  19.908   4.792  1.00  0.00    -0.206 F 
ATOM     74  C   UNL     1       4.654  21.701   4.104  1.00  0.00     0.006 A 
ENDBRANCH  46  67
BRANCH  58  75
ATOM     75  C   UNL     1      11.368  21.595  -2.083  1.00  0.00     0.057 A 
ATOM     76  C   UNL     1      12.112  22.611  -1.474  1.00  0.00     0.134 A 
ATOM     77  C   UNL     1      11.009  21.765  -3.426  1.00  0.00     0.134 A 
ATOM     78  F   UNL     1      12.474  22.511  -0.186  1.00  0.00    -0.206 F 
ATOM     79  C   UNL     1      12.478  23.761  -2.174  1.00  0.00     0.040 A 
ATOM     80  C   UNL     1      11.386  22.901  -4.142  1.00  0.00     0.040 A 
ATOM     81  F   UNL     1      10.301  20.822  -4.066  1.00  0.00    -0.206 F 
ATOM     82  C   UNL     1      12.121  23.905  -3.514  1.00  0.00     0.006 A 
ENDBRANCH  58  75
ENDBRANCH  32  33
ENDBRANCH  25  27
ENDBRANCH  24  25
ENDBRANCH  23  24
ENDBRANCH   1  23
TORSDOF 15
