REMARK SMILES Cc1cc2c(c(C)c1Br)C=C(C(=O)OCCOC(=O)c1ccc(-c3c4nc(c(-c5c(F)cccc5F)c5ccc([nH]5)c(-c5c(F)cccc5F)c5nc(c(-c6c(F)cccc6F)c6ccc3[nH]6)C=C5)C=C4)cc1)[C@@H](C(F)(F)F)O2
REMARK SMILES IDX 16 1 15 2 14 3 12 4 13 5 11 6 1 7 2 8 3 9 8 10 4 11 6 12
REMARK SMILES IDX 9 13 5 14 79 15 7 16 10 17 74 18 75 19 76 20 77 21 78 22
REMARK SMILES IDX 17 23 18 24 19 25 20 26 21 27 73 28 22 29 72 30 23 31 24 32
REMARK SMILES IDX 25 33 66 34 26 35 71 36 65 37 67 38 27 39 70 40 64 41 63 42
REMARK SMILES IDX 28 44 54 45 37 46 53 47 38 48 41 49 52 50 68 51 39 52 40 53
REMARK SMILES IDX 51 55 69 56 42 57 29 58 30 59 35 60 31 61 32 62 34 63 36 64
REMARK SMILES IDX 33 65 55 66 56 67 61 68 57 69 58 70 60 71 62 72 59 73 43 74
REMARK SMILES IDX 44 75 49 76 45 77 46 78 48 79 50 80 47 81
REMARK H PARENT 67 43 41 54
REMARK Flexibility Score: inf
ROOT
ATOM      1  C   UNL     1      -3.420   9.272   2.504  1.00  0.00     0.275 C 
ENDROOT
BRANCH   1   2
ATOM      2  C   UNL     1      -4.179   8.340   1.560  1.00  0.00     0.275 C 
BRANCH   2   3
ATOM      3  O   UNL     1      -3.619   7.009   1.581  1.00  0.00    -0.459 OA
BRANCH   3   4
ATOM      4  C   UNL     1      -2.848   6.683   0.519  1.00  0.00     0.338 C 
ATOM      5  O   UNL     1      -2.591   7.392  -0.442  1.00  0.00    -0.246 OA
BRANCH   4   6
ATOM      6  C   UNL     1      -2.313   5.317   0.668  1.00  0.00     0.087 C 
ATOM      7  C   UNL     1       0.784  -0.360   0.207  1.00  0.00     0.046 C 
ATOM      8  C   UNL     1       0.415   1.096   0.319  1.00  0.00    -0.033 A 
ATOM      9  C   UNL     1      -0.910   1.406   0.659  1.00  0.00     0.051 A 
ATOM     10  C   UNL     1       1.310   2.146   0.031  1.00  0.00     0.024 A 
ATOM     11  C   UNL     1      -1.350   2.726   0.712  1.00  0.00     0.128 A 
ATOM     12  C   UNL     1       0.891   3.497   0.112  1.00  0.00    -0.026 A 
ATOM     13  Br  UNL     1       3.095   1.711  -0.510  1.00  0.00    -0.050 Br
ATOM     14  C   UNL     1      -0.467   3.772   0.434  1.00  0.00     0.021 A 
ATOM     15  O   UNL     1      -2.663   2.890   1.059  1.00  0.00    -0.475 OA
ATOM     16  C   UNL     1       1.841   4.647  -0.135  1.00  0.00     0.046 C 
ATOM     17  C   UNL     1      -1.007   5.129   0.450  1.00  0.00     0.027 C 
ATOM     18  C   UNL     1      -3.277   4.197   0.911  1.00  0.00     0.316 C 
BRANCH  18  19
ATOM     19  C   UNL     1      -4.348   4.129  -0.190  1.00  0.00     0.430 C 
ATOM     20  F   UNL     1      -5.198   3.095   0.010  1.00  0.00    -0.167 F 
ATOM     21  F   UNL     1      -5.106   5.252  -0.214  1.00  0.00    -0.167 F 
ATOM     22  F   UNL     1      -3.807   3.980  -1.421  1.00  0.00    -0.167 F 
ENDBRANCH  18  19
ENDBRANCH   4   6
ENDBRANCH   3   4
ENDBRANCH   2   3
ENDBRANCH   1   2
BRANCH   1  23
ATOM     23  O   UNL     1      -2.075   9.464   2.030  1.00  0.00    -0.458 OA
BRANCH  23  24
ATOM     24  C   UNL     1      -1.104   8.898   2.783  1.00  0.00     0.338 C 
ATOM     25  O   UNL     1      -1.235   8.299   3.836  1.00  0.00    -0.246 OA
BRANCH  24  26
ATOM     26  C   UNL     1       0.200   9.032   2.111  1.00  0.00     0.060 A 
ATOM     27  C   UNL     1       0.372   8.460   0.858  1.00  0.00     0.016 A 
ATOM     28  C   UNL     1       1.299   9.546   2.796  1.00  0.00     0.016 A 
ATOM     29  C   UNL     1       1.655   8.249   0.362  1.00  0.00     0.010 A 
ATOM     30  C   UNL     1       2.576   9.459   2.223  1.00  0.00     0.010 A 
ATOM     31  C   UNL     1       2.784   8.751   1.026  1.00  0.00    -0.014 A 
BRANCH  31  32
ATOM     32  C   UNL     1       4.161   8.482   0.499  1.00  0.00     0.031 A 
ATOM     33  C   UNL     1       5.227   7.899   1.401  1.00  0.00     0.074 A 
ATOM     34  C   UNL     1       4.466   8.710  -0.797  1.00  0.00     0.049 A 
ATOM     35  N   UNL     1       6.517   7.794   1.196  1.00  0.00    -0.248 NA
ATOM     36  C   UNL     1       4.791   7.377   2.707  1.00  0.00     0.031 C 
ATOM     37  C   UNL     1       3.541   9.209  -1.817  1.00  0.00     0.029 A 
ATOM     38  N   UNL     1       5.641   8.529  -1.490  1.00  0.00    -0.354 N 
ATOM     39  C   UNL     1       7.050   7.266   2.368  1.00  0.00     0.074 A 
ATOM     40  C   UNL     1       5.946   7.069   3.281  1.00  0.00     0.031 C 
ATOM     41  C   UNL     1       4.154   9.219  -3.008  1.00  0.00     0.029 A 
ATOM     42  C   UNL     1       5.553   8.860  -2.822  1.00  0.00     0.049 A 
ATOM     43  H   UNL     1       6.467   8.194  -1.072  1.00  0.00     0.167 HD
ATOM     44  C   UNL     1       8.341   6.972   2.654  1.00  0.00     0.037 A 
ATOM     45  C   UNL     1       6.495   8.931  -3.784  1.00  0.00     0.037 A 
ATOM     46  C   UNL     1       9.428   7.087   1.716  1.00  0.00     0.049 A 
ATOM     47  C   UNL     1       7.925   8.645  -3.430  1.00  0.00     0.074 A 
ATOM     48  C   UNL     1      10.770   6.806   1.915  1.00  0.00     0.029 A 
ATOM     49  N   UNL     1       9.296   7.485   0.395  1.00  0.00    -0.354 N 
ATOM     50  N   UNL     1       8.429   8.247  -2.288  1.00  0.00    -0.248 NA
ATOM     51  C   UNL     1       8.925   8.855  -4.488  1.00  0.00     0.031 C 
ATOM     52  C   UNL     1      11.454   7.068   0.726  1.00  0.00     0.029 A 
ATOM     53  C   UNL     1      10.533   7.468  -0.228  1.00  0.00     0.049 A 
ATOM     54  H   UNL     1       8.449   7.741  -0.036  1.00  0.00     0.167 HD
ATOM     55  C   UNL     1       9.799   8.153  -2.490  1.00  0.00     0.074 A 
ATOM     56  C   UNL     1      10.046   8.510  -3.871  1.00  0.00     0.031 C 
ATOM     57  C   UNL     1      10.766   7.816  -1.605  1.00  0.00     0.037 A 
BRANCH  44  58
ATOM     58  C   UNL     1       8.676   6.510   4.044  1.00  0.00     0.057 A 
ATOM     59  C   UNL     1       8.375   5.220   4.494  1.00  0.00     0.134 A 
ATOM     60  C   UNL     1       9.406   7.340   4.906  1.00  0.00     0.134 A 
ATOM     61  F   UNL     1       7.670   4.378   3.723  1.00  0.00    -0.206 F 
ATOM     62  C   UNL     1       8.784   4.773   5.753  1.00  0.00     0.040 A 
ATOM     63  C   UNL     1       9.842   6.897   6.156  1.00  0.00     0.040 A 
ATOM     64  F   UNL     1       9.738   8.586   4.533  1.00  0.00    -0.206 F 
ATOM     65  C   UNL     1       9.531   5.609   6.582  1.00  0.00     0.006 A 
ENDBRANCH  44  58
BRANCH  45  66
ATOM     66  C   UNL     1       6.122   9.354  -5.160  1.00  0.00     0.057 A 
ATOM     67  C   UNL     1       6.214   8.468  -6.239  1.00  0.00     0.134 A 
ATOM     68  C   UNL     1       5.657  10.648  -5.429  1.00  0.00     0.134 A 
ATOM     69  F   UNL     1       6.680   7.224  -6.054  1.00  0.00    -0.206 F 
ATOM     70  C   UNL     1       5.860   8.853  -7.534  1.00  0.00     0.040 A 
ATOM     71  C   UNL     1       5.267  11.036  -6.711  1.00  0.00     0.040 A 
ATOM     72  F   UNL     1       5.547  11.548  -4.440  1.00  0.00    -0.206 F 
ATOM     73  C   UNL     1       5.374  10.138  -7.770  1.00  0.00     0.006 A 
ENDBRANCH  45  66
BRANCH  57  74
ATOM     74  C   UNL     1      12.180   7.791  -2.101  1.00  0.00     0.057 A 
ATOM     75  C   UNL     1      12.891   8.971  -2.349  1.00  0.00     0.134 A 
ATOM     76  C   UNL     1      12.855   6.576  -2.275  1.00  0.00     0.134 A 
ATOM     77  F   UNL     1      12.295  10.165  -2.213  1.00  0.00    -0.206 F 
ATOM     78  C   UNL     1      14.223   8.944  -2.764  1.00  0.00     0.040 A 
ATOM     79  C   UNL     1      14.194   6.537  -2.666  1.00  0.00     0.040 A 
ATOM     80  F   UNL     1      12.232   5.411  -2.045  1.00  0.00    -0.206 F 
ATOM     81  C   UNL     1      14.880   7.724  -2.915  1.00  0.00     0.006 A 
ENDBRANCH  57  74
ENDBRANCH  31  32
ENDBRANCH  24  26
ENDBRANCH  23  24
ENDBRANCH   1  23
TORSDOF 12
