REMARK SMILES O=C(C[N@@H+]1C[C@@]2([N+](=O)[O-])CC=C(Cl)[C@@]([N+](=O)[O-])(C1)C2)OCCOC(=O)c1ccc(-c2c3nc(c(-c4c(F)cccc4F)c4ccc([nH]4)c(-c4c(F)cccc4F)c4nc(c(-c5c(F)cccc5F)c5ccc2[nH]5)C=C4)C=C3)cc1
REMARK SMILES IDX 21 1 20 2 2 3 1 4 3 5 4 6 5 7 18 8 6 10 14 11 10 12 19 13
REMARK SMILES IDX 12 14 11 15 13 16 7 17 8 18 9 19 15 20 16 21 17 22 22 23
REMARK SMILES IDX 23 24 24 25 25 26 26 27 27 28 79 29 28 30 78 31 29 32 30 33
REMARK SMILES IDX 31 34 72 35 32 36 77 37 71 38 73 39 33 40 76 41 70 42 69 43
REMARK SMILES IDX 34 45 60 46 43 47 59 48 44 49 47 50 58 51 74 52 45 53 46 54
REMARK SMILES IDX 57 56 75 57 48 58 35 59 36 60 41 61 37 62 38 63 40 64 42 65
REMARK SMILES IDX 39 66 61 67 62 68 67 69 63 70 64 71 66 72 68 73 65 74 49 75
REMARK SMILES IDX 50 76 55 77 51 78 52 79 54 80 56 81 53 82
REMARK H PARENT 4 9 73 44 47 55
REMARK Flexibility Score: inf
ROOT
ATOM      1  C   UNL     1       4.079  -0.031  -1.566  1.00  0.00     0.274 C 
ENDROOT
BRANCH   1   2
ATOM      2  O   UNL     1       2.750  -0.334  -1.096  1.00  0.00    -0.458 OA
BRANCH   2   3
ATOM      3  C   UNL     1       2.495  -0.632   0.206  1.00  0.00     0.361 C 
ATOM      4  O   UNL     1       1.625  -1.446   0.505  1.00  0.00    -0.245 OA
BRANCH   3   5
ATOM      5  C   UNL     1       3.250   0.176   1.262  1.00  0.00     0.386 C 
BRANCH   5   6
ATOM      6  N   UNL     1       3.985  -0.647   2.249  1.00  0.00    -0.313 N 
ATOM      7  C   UNL     1       4.600   0.236   3.268  1.00  0.00     0.350 C 
ATOM      8  C   UNL     1       4.998  -1.527   1.613  1.00  0.00     0.356 C 
ATOM      9  H   UNL     1       3.316  -1.270   2.702  1.00  0.00     0.349 HD
ATOM     10  C   UNL     1       5.445  -0.531   4.311  1.00  0.00     0.280 C 
ATOM     11  C   UNL     1       5.785  -2.353   2.660  1.00  0.00     0.311 C 
ATOM     12  C   UNL     1       4.605  -1.464   5.220  1.00  0.00     0.121 C 
ATOM     13  C   UNL     1       6.520  -1.364   3.592  1.00  0.00     0.191 C 
ATOM     14  C   UNL     1       4.833  -3.232   3.453  1.00  0.00     0.097 C 
ATOM     15  C   UNL     1       4.301  -2.817   4.617  1.00  0.00     0.004 C 
ATOM     16  Cl  UNL     1       4.312  -4.733   2.771  1.00  0.00    -0.081 Cl
BRANCH  10  17
ATOM     17  N   UNL     1       6.103   0.542   5.164  1.00  0.00     0.032 N 
ATOM     18  O   UNL     1       5.522   0.893   6.197  1.00  0.00    -0.264 OA
ATOM     19  O   UNL     1       7.147   1.049   4.732  1.00  0.00    -0.264 OA
ENDBRANCH  10  17
BRANCH  11  20
ATOM     20  N   UNL     1       6.849  -3.195   1.966  1.00  0.00     0.038 N 
ATOM     21  O   UNL     1       6.940  -3.113   0.732  1.00  0.00    -0.263 OA
ATOM     22  O   UNL     1       7.604  -3.863   2.685  1.00  0.00    -0.263 OA
ENDBRANCH  11  20
ENDBRANCH   5   6
ENDBRANCH   3   5
ENDBRANCH   2   3
ENDBRANCH   1   2
BRANCH   1  23
ATOM     23  C   UNL     1       4.245   1.426  -2.011  1.00  0.00     0.275 C 
BRANCH  23  24
ATOM     24  O   UNL     1       3.867   2.337  -0.963  1.00  0.00    -0.458 OA
BRANCH  24  25
ATOM     25  C   UNL     1       2.572   2.740  -1.009  1.00  0.00     0.338 C 
ATOM     26  O   UNL     1       1.779   2.525  -1.910  1.00  0.00    -0.246 OA
BRANCH  25  27
ATOM     27  C   UNL     1       2.176   3.332   0.289  1.00  0.00     0.060 A 
ATOM     28  C   UNL     1       0.876   3.070   0.740  1.00  0.00     0.016 A 
ATOM     29  C   UNL     1       3.035   4.127   1.056  1.00  0.00     0.016 A 
ATOM     30  C   UNL     1       0.413   3.649   1.921  1.00  0.00     0.010 A 
ATOM     31  C   UNL     1       2.568   4.709   2.243  1.00  0.00     0.010 A 
ATOM     32  C   UNL     1       1.241   4.506   2.658  1.00  0.00    -0.014 A 
BRANCH  32  33
ATOM     33  C   UNL     1       0.639   5.306   3.756  1.00  0.00     0.031 A 
ATOM     34  C   UNL     1       0.182   6.711   3.466  1.00  0.00     0.074 A 
ATOM     35  C   UNL     1       0.423   4.772   4.971  1.00  0.00     0.049 A 
ATOM     36  N   UNL     1      -0.488   7.539   4.227  1.00  0.00    -0.248 NA
ATOM     37  C   UNL     1       0.522   7.252   2.141  1.00  0.00     0.031 C 
ATOM     38  C   UNL     1       0.814   3.427   5.389  1.00  0.00     0.029 A 
ATOM     39  N   UNL     1      -0.192   5.304   6.077  1.00  0.00    -0.354 N 
ATOM     40  C   UNL     1      -0.677   8.684   3.463  1.00  0.00     0.074 A 
ATOM     41  C   UNL     1       0.002   8.468   2.203  1.00  0.00     0.031 C 
ATOM     42  C   UNL     1       0.431   3.240   6.665  1.00  0.00     0.029 A 
ATOM     43  C   UNL     1      -0.233   4.449   7.151  1.00  0.00     0.049 A 
ATOM     44  H   UNL     1      -0.567   6.214   6.099  1.00  0.00     0.167 HD
ATOM     45  C   UNL     1      -1.375   9.803   3.766  1.00  0.00     0.037 A 
ATOM     46  C   UNL     1      -0.756   4.620   8.381  1.00  0.00     0.037 A 
ATOM     47  C   UNL     1      -2.034  10.040   5.023  1.00  0.00     0.049 A 
ATOM     48  C   UNL     1      -1.482   5.897   8.715  1.00  0.00     0.074 A 
ATOM     49  C   UNL     1      -2.766  11.146   5.419  1.00  0.00     0.029 A 
ATOM     50  N   UNL     1      -2.031   9.158   6.092  1.00  0.00    -0.354 N 
ATOM     51  N   UNL     1      -1.709   6.944   7.960  1.00  0.00    -0.248 NA
ATOM     52  C   UNL     1      -2.042   6.005  10.071  1.00  0.00     0.031 C 
ATOM     53  C   UNL     1      -3.175  10.950   6.743  1.00  0.00     0.029 A 
ATOM     54  C   UNL     1      -2.733   9.703   7.155  1.00  0.00     0.049 A 
ATOM     55  H   UNL     1      -1.595   8.276   6.096  1.00  0.00     0.167 HD
ATOM     56  C   UNL     1      -2.458   7.820   8.738  1.00  0.00     0.074 A 
ATOM     57  C   UNL     1      -2.665   7.173  10.016  1.00  0.00     0.031 C 
ATOM     58  C   UNL     1      -2.933   9.051   8.423  1.00  0.00     0.037 A 
BRANCH  45  59
ATOM     59  C   UNL     1      -1.463  10.861   2.707  1.00  0.00     0.057 A 
ATOM     60  C   UNL     1      -2.263  10.689   1.569  1.00  0.00     0.134 A 
ATOM     61  C   UNL     1      -0.768  12.069   2.835  1.00  0.00     0.134 A 
ATOM     62  F   UNL     1      -2.941   9.546   1.381  1.00  0.00    -0.206 F 
ATOM     63  C   UNL     1      -2.354  11.675   0.586  1.00  0.00     0.040 A 
ATOM     64  C   UNL     1      -0.869  13.072   1.869  1.00  0.00     0.040 A 
ATOM     65  F   UNL     1       0.014  12.296   3.901  1.00  0.00    -0.206 F 
ATOM     66  C   UNL     1      -1.660  12.874   0.739  1.00  0.00     0.006 A 
ENDBRANCH  45  59
BRANCH  46  67
ATOM     67  C   UNL     1      -0.628   3.548   9.400  1.00  0.00     0.057 A 
ATOM     68  C   UNL     1      -1.738   2.814   9.832  1.00  0.00     0.134 A 
ATOM     69  C   UNL     1       0.605   3.269  10.002  1.00  0.00     0.134 A 
ATOM     70  F   UNL     1      -2.950   3.055   9.310  1.00  0.00    -0.206 F 
ATOM     71  C   UNL     1      -1.634   1.858  10.844  1.00  0.00     0.040 A 
ATOM     72  C   UNL     1       0.729   2.300  10.998  1.00  0.00     0.040 A 
ATOM     73  F   UNL     1       1.706   3.940   9.633  1.00  0.00    -0.206 F 
ATOM     74  C   UNL     1      -0.396   1.598  11.428  1.00  0.00     0.006 A 
ENDBRANCH  46  67
BRANCH  58  75
ATOM     75  C   UNL     1      -3.739   9.766   9.468  1.00  0.00     0.057 A 
ATOM     76  C   UNL     1      -3.148  10.298  10.622  1.00  0.00     0.134 A 
ATOM     77  C   UNL     1      -5.120   9.944   9.309  1.00  0.00     0.134 A 
ATOM     78  F   UNL     1      -1.833  10.153  10.840  1.00  0.00    -0.206 F 
ATOM     79  C   UNL     1      -3.906  10.955  11.594  1.00  0.00     0.040 A 
ATOM     80  C   UNL     1      -5.883  10.622  10.261  1.00  0.00     0.040 A 
ATOM     81  F   UNL     1      -5.747   9.469   8.223  1.00  0.00    -0.206 F 
ATOM     82  C   UNL     1      -5.277  11.123  11.412  1.00  0.00     0.006 A 
ENDBRANCH  58  75
ENDBRANCH  32  33
ENDBRANCH  25  27
ENDBRANCH  24  25
ENDBRANCH  23  24
ENDBRANCH   1  23
TORSDOF 14
