REMARK SMILES O=C(Cc1cncnc1N1CCC2(CC1)OCCC[C@@H]2O)OCCOC(=O)c1ccc(-c2c3nc(c(-c4c(F)cccc4F)c4ccc([nH]4)c(-c4c(F)cccc4F)c4nc(c(-c5c(F)cccc5F)c5ccc2[nH]5)C=C4)C=C3)cc1
REMARK SMILES IDX 23 1 22 2 2 3 1 4 3 5 4 6 5 7 9 8 6 9 8 10 7 11 10 12 11 13
REMARK SMILES IDX 15 14 12 15 14 16 13 17 16 18 20 19 17 20 19 21 18 22 21 23
REMARK SMILES IDX 24 25 25 26 26 27 27 28 28 29 29 30 81 31 30 32 80 33 31 34
REMARK SMILES IDX 32 35 33 36 74 37 34 38 79 39 73 40 75 41 35 42 78 43 72 44
REMARK SMILES IDX 71 45 36 47 62 48 45 49 61 50 46 51 49 52 60 53 76 54 47 55
REMARK SMILES IDX 48 56 59 58 77 59 50 60 37 61 38 62 43 63 39 64 40 65 42 66
REMARK SMILES IDX 44 67 41 68 63 69 64 70 69 71 65 72 66 73 68 74 70 75 67 76
REMARK SMILES IDX 51 77 52 78 57 79 53 80 54 81 56 82 58 83 55 84
REMARK H PARENT 21 24 75 46 49 57
REMARK Flexibility Score: inf
ROOT
ATOM      1  C   UNL     1       3.092   1.339   0.781  1.00  0.00     0.274 C 
ENDROOT
BRANCH   1   2
ATOM      2  O   UNL     1       1.965   0.490   0.540  1.00  0.00    -0.462 OA
BRANCH   2   3
ATOM      3  C   UNL     1       2.185  -0.543  -0.329  1.00  0.00     0.310 C 
ATOM      4  O   UNL     1       1.411  -0.774  -1.252  1.00  0.00    -0.252 OA
BRANCH   3   5
ATOM      5  C   UNL     1       3.277  -1.504   0.091  1.00  0.00     0.163 C 
BRANCH   5   6
ATOM      6  C   UNL     1       4.267  -1.914  -0.965  1.00  0.00     0.024 A 
ATOM      7  C   UNL     1       4.357  -3.266  -1.272  1.00  0.00     0.121 A 
ATOM      8  C   UNL     1       5.180  -1.088  -1.627  1.00  0.00     0.135 A 
ATOM      9  N   UNL     1       5.250  -3.800  -2.119  1.00  0.00    -0.244 NA
ATOM     10  N   UNL     1       6.089  -1.598  -2.482  1.00  0.00    -0.219 NA
ATOM     11  C   UNL     1       6.081  -2.923  -2.683  1.00  0.00     0.224 A 
BRANCH   8  12
ATOM     12  N   UNL     1       5.187   0.307  -1.461  1.00  0.00    -0.356 N 
ATOM     13  C   UNL     1       5.175   1.023  -2.744  1.00  0.00     0.121 C 
ATOM     14  C   UNL     1       6.277   0.816  -0.613  1.00  0.00     0.121 C 
ATOM     15  C   UNL     1       4.681   2.439  -2.488  1.00  0.00     0.060 C 
ATOM     16  C   UNL     1       6.051   2.302  -0.284  1.00  0.00     0.060 C 
ATOM     17  C   UNL     1       5.491   3.212  -1.415  1.00  0.00     0.097 C 
ATOM     18  O   UNL     1       6.685   3.791  -1.986  1.00  0.00    -0.372 OA
ATOM     19  C   UNL     1       4.551   4.328  -0.812  1.00  0.00     0.146 C 
ATOM     20  C   UNL     1       6.536   4.943  -2.808  1.00  0.00     0.161 C 
ATOM     21  C   UNL     1       4.355   5.504  -1.761  1.00  0.00     0.037 C 
ATOM     22  C   UNL     1       5.711   6.047  -2.166  1.00  0.00     0.031 C 
BRANCH  19  23
ATOM     23  O   UNL     1       5.040   4.816   0.442  1.00  0.00    -0.390 OA
ATOM     24  H   UNL     1       5.899   5.247   0.307  1.00  0.00     0.211 HD
ENDBRANCH  19  23
ENDBRANCH   8  12
ENDBRANCH   5   6
ENDBRANCH   3   5
ENDBRANCH   2   3
ENDBRANCH   1   2
BRANCH   1  25
ATOM     25  C   UNL     1       3.390   1.708   2.233  1.00  0.00     0.275 C 
BRANCH  25  26
ATOM     26  O   UNL     1       3.337   0.532   3.021  1.00  0.00    -0.458 OA
BRANCH  26  27
ATOM     27  C   UNL     1       2.063   0.263   3.377  1.00  0.00     0.338 C 
ATOM     28  O   UNL     1       1.117   1.024   3.397  1.00  0.00    -0.246 OA
BRANCH  27  29
ATOM     29  C   UNL     1       1.954  -1.186   3.516  1.00  0.00     0.060 A 
ATOM     30  C   UNL     1       0.773  -1.763   3.045  1.00  0.00     0.016 A 
ATOM     31  C   UNL     1       2.947  -1.932   4.161  1.00  0.00     0.016 A 
ATOM     32  C   UNL     1       0.487  -3.061   3.404  1.00  0.00     0.010 A 
ATOM     33  C   UNL     1       2.669  -3.244   4.503  1.00  0.00     0.010 A 
ATOM     34  C   UNL     1       1.391  -3.747   4.226  1.00  0.00    -0.014 A 
BRANCH  34  35
ATOM     35  C   UNL     1       0.838  -4.813   5.069  1.00  0.00     0.031 A 
ATOM     36  C   UNL     1       0.424  -4.448   6.469  1.00  0.00     0.074 A 
ATOM     37  C   UNL     1       0.607  -6.014   4.528  1.00  0.00     0.049 A 
ATOM     38  N   UNL     1      -0.182  -5.173   7.369  1.00  0.00    -0.248 NA
ATOM     39  C   UNL     1       0.734  -3.077   6.920  1.00  0.00     0.031 C 
ATOM     40  C   UNL     1       0.942  -6.398   3.157  1.00  0.00     0.029 A 
ATOM     41  N   UNL     1       0.012  -7.118   5.061  1.00  0.00    -0.354 N 
ATOM     42  C   UNL     1      -0.313  -4.352   8.484  1.00  0.00     0.074 A 
ATOM     43  C   UNL     1       0.313  -3.092   8.173  1.00  0.00     0.031 C 
ATOM     44  C   UNL     1       0.523  -7.656   2.948  1.00  0.00     0.029 A 
ATOM     45  C   UNL     1      -0.079  -8.161   4.178  1.00  0.00     0.049 A 
ATOM     46  H   UNL     1      -0.320  -7.161   5.987  1.00  0.00     0.167 HD
ATOM     47  C   UNL     1      -0.921  -4.631   9.659  1.00  0.00     0.037 A 
ATOM     48  C   UNL     1      -0.599  -9.384   4.364  1.00  0.00     0.037 A 
ATOM     49  C   UNL     1      -1.542  -5.899   9.927  1.00  0.00     0.049 A 
ATOM     50  C   UNL     1      -1.230  -9.683   5.696  1.00  0.00     0.074 A 
ATOM     51  C   UNL     1      -2.198  -6.320  11.067  1.00  0.00     0.029 A 
ATOM     52  N   UNL     1      -1.575  -6.956   9.026  1.00  0.00    -0.354 N 
ATOM     53  N   UNL     1      -1.366  -8.903   6.744  1.00  0.00    -0.248 NA
ATOM     54  C   UNL     1      -1.794 -11.025   5.864  1.00  0.00     0.031 C 
ATOM     55  C   UNL     1      -2.572  -7.655  10.878  1.00  0.00     0.029 A 
ATOM     56  C   UNL     1      -2.216  -8.041   9.593  1.00  0.00     0.049 A 
ATOM     57  H   UNL     1      -1.196  -6.936   8.117  1.00  0.00     0.167 HD
ATOM     58  C   UNL     1      -2.067  -9.645   7.684  1.00  0.00     0.074 A 
ATOM     59  C   UNL     1      -2.334 -10.932   7.071  1.00  0.00     0.031 C 
ATOM     60  C   UNL     1      -2.461  -9.302   8.937  1.00  0.00     0.037 A 
BRANCH  47  61
ATOM     61  C   UNL     1      -0.893  -3.576  10.729  1.00  0.00     0.057 A 
ATOM     62  C   UNL     1      -1.593  -2.366  10.615  1.00  0.00     0.134 A 
ATOM     63  C   UNL     1      -0.142  -3.772  11.896  1.00  0.00     0.134 A 
ATOM     64  F   UNL     1      -2.314  -2.098   9.515  1.00  0.00    -0.206 F 
ATOM     65  C   UNL     1      -1.524  -1.382  11.605  1.00  0.00     0.040 A 
ATOM     66  C   UNL     1      -0.090  -2.810  12.906  1.00  0.00     0.040 A 
ATOM     67  F   UNL     1       0.559  -4.902  12.072  1.00  0.00    -0.206 F 
ATOM     68  C   UNL     1      -0.776  -1.607  12.759  1.00  0.00     0.006 A 
ENDBRANCH  47  61
BRANCH  48  69
ATOM     69  C   UNL     1      -0.563 -10.377   3.265  1.00  0.00     0.057 A 
ATOM     70  C   UNL     1      -1.734 -10.807   2.633  1.00  0.00     0.134 A 
ATOM     71  C   UNL     1       0.650 -10.905   2.804  1.00  0.00     0.134 A 
ATOM     72  F   UNL     1      -2.927 -10.341   3.030  1.00  0.00    -0.206 F 
ATOM     73  C   UNL     1      -1.704 -11.745   1.599  1.00  0.00     0.040 A 
ATOM     74  C   UNL     1       0.698 -11.820   1.753  1.00  0.00     0.040 A 
ATOM     75  F   UNL     1       1.811 -10.519   3.356  1.00  0.00    -0.206 F 
ATOM     76  C   UNL     1      -0.484 -12.250   1.153  1.00  0.00     0.006 A 
ENDBRANCH  48  69
BRANCH  60  77
ATOM     77  C   UNL     1      -3.268 -10.320   9.688  1.00  0.00     0.057 A 
ATOM     78  C   UNL     1      -2.708 -11.514  10.160  1.00  0.00     0.134 A 
ATOM     79  C   UNL     1      -4.623 -10.085   9.956  1.00  0.00     0.134 A 
ATOM     80  F   UNL     1      -1.418 -11.799   9.928  1.00  0.00    -0.206 F 
ATOM     81  C   UNL     1      -3.481 -12.460  10.832  1.00  0.00     0.040 A 
ATOM     82  C   UNL     1      -5.395 -11.007  10.661  1.00  0.00     0.040 A 
ATOM     83  F   UNL     1      -5.214  -8.953   9.547  1.00  0.00    -0.206 F 
ATOM     84  C   UNL     1      -4.827 -12.205  11.089  1.00  0.00     0.006 A 
ENDBRANCH  60  77
ENDBRANCH  34  35
ENDBRANCH  27  29
ENDBRANCH  26  27
ENDBRANCH  25  26
ENDBRANCH   1  25
TORSDOF 14
