REMARK SMILES CC(C)CCc1cc2c(cc1Cl)C=C(C(=O)OCCOC(=O)c1ccc(-c3c4nc(c(-c5c(F)cccc5F)c5ccc([nH]5)c(-c5c(F)cccc5F)c5nc(c(-c6c(F)cccc6F)c6ccc3[nH]6)C=C5)C=C4)cc1)[C@H](C(F)(F)F)O2
REMARK SMILES IDX 18 1 17 2 15 3 16 4 14 5 6 6 7 7 11 8 8 9 10 10 12 11 9 12
REMARK SMILES IDX 82 13 13 14 77 15 5 16 4 17 2 18 1 19 3 20 78 21 79 22 80 23
REMARK SMILES IDX 81 24 19 25 20 26 21 27 22 28 23 29 24 30 76 31 25 32 75 33
REMARK SMILES IDX 26 34 27 35 28 36 69 37 29 38 74 39 68 40 70 41 30 42 73 43
REMARK SMILES IDX 67 44 66 45 31 47 57 48 40 49 56 50 41 51 44 52 55 53 71 54
REMARK SMILES IDX 42 55 43 56 54 58 72 59 45 60 32 61 33 62 38 63 34 64 35 65
REMARK SMILES IDX 37 66 39 67 36 68 58 69 59 70 64 71 60 72 61 73 63 74 65 75
REMARK SMILES IDX 62 76 46 77 47 78 52 79 48 80 49 81 51 82 53 83 50 84
REMARK H PARENT 70 46 44 57
REMARK Flexibility Score: inf
ROOT
ATOM      1  C   UNL     1      -0.450  10.369   4.410  1.00  0.00     0.275 C 
ENDROOT
BRANCH   1   2
ATOM      2  O   UNL     1      -0.872   9.209   3.660  1.00  0.00    -0.459 OA
BRANCH   2   3
ATOM      3  C   UNL     1       0.090   8.325   3.321  1.00  0.00     0.338 C 
ATOM      4  O   UNL     1       1.283   8.435   3.541  1.00  0.00    -0.246 OA
BRANCH   3   5
ATOM      5  C   UNL     1      -0.520   7.112   2.738  1.00  0.00     0.087 C 
ATOM      6  C   UNL     1      -1.458   2.348   1.415  1.00  0.00    -0.026 A 
ATOM      7  C   UNL     1      -1.880   3.606   0.933  1.00  0.00     0.052 A 
ATOM      8  C   UNL     1      -0.650   2.309   2.562  1.00  0.00     0.045 A 
ATOM      9  C   UNL     1      -1.437   4.787   1.527  1.00  0.00     0.128 A 
ATOM     10  C   UNL     1      -0.178   3.493   3.131  1.00  0.00     0.032 A 
ATOM     11  Cl  UNL     1      -0.169   0.836   3.322  1.00  0.00    -0.084 Cl
ATOM     12  C   UNL     1      -0.539   4.726   2.586  1.00  0.00     0.019 A 
ATOM     13  O   UNL     1      -1.854   5.969   0.978  1.00  0.00    -0.475 OA
ATOM     14  C   UNL     1       0.058   5.951   3.073  1.00  0.00     0.027 C 
ATOM     15  C   UNL     1      -1.680   7.186   1.777  1.00  0.00     0.316 C 
BRANCH   6  16
ATOM     16  C   UNL     1      -1.827   1.109   0.626  1.00  0.00     0.037 C 
BRANCH  16  17
ATOM     17  C   UNL     1      -1.161   1.065  -0.762  1.00  0.00     0.008 C 
BRANCH  17  18
ATOM     18  C   UNL     1       0.383   1.072  -0.761  1.00  0.00    -0.017 C 
ATOM     19  C   UNL     1       0.972  -0.224  -0.205  1.00  0.00     0.007 C 
ATOM     20  C   UNL     1       0.904   1.296  -2.184  1.00  0.00     0.007 C 
ENDBRANCH  17  18
ENDBRANCH  16  17
ENDBRANCH   6  16
BRANCH  15  21
ATOM     21  C   UNL     1      -3.026   7.601   2.399  1.00  0.00     0.430 C 
ATOM     22  F   UNL     1      -4.069   7.217   1.622  1.00  0.00    -0.167 F 
ATOM     23  F   UNL     1      -3.217   7.065   3.623  1.00  0.00    -0.167 F 
ATOM     24  F   UNL     1      -3.125   8.948   2.514  1.00  0.00    -0.167 F 
ENDBRANCH  15  21
ENDBRANCH   3   5
ENDBRANCH   2   3
ENDBRANCH   1   2
BRANCH   1  25
ATOM     25  C   UNL     1      -0.900  10.249   5.865  1.00  0.00     0.275 C 
BRANCH  25  26
ATOM     26  O   UNL     1      -0.179   9.173   6.494  1.00  0.00    -0.458 OA
BRANCH  26  27
ATOM     27  C   UNL     1      -0.931   8.230   7.105  1.00  0.00     0.338 C 
ATOM     28  O   UNL     1      -2.143   8.209   7.240  1.00  0.00    -0.246 OA
BRANCH  27  29
ATOM     29  C   UNL     1      -0.050   7.148   7.569  1.00  0.00     0.060 A 
ATOM     30  C   UNL     1       0.079   6.857   8.921  1.00  0.00     0.016 A 
ATOM     31  C   UNL     1       0.564   6.337   6.618  1.00  0.00     0.016 A 
ATOM     32  C   UNL     1       0.849   5.754   9.311  1.00  0.00     0.010 A 
ATOM     33  C   UNL     1       1.252   5.186   7.001  1.00  0.00     0.010 A 
ATOM     34  C   UNL     1       1.418   4.884   8.357  1.00  0.00    -0.014 A 
BRANCH  34  35
ATOM     35  C   UNL     1       2.124   3.641   8.785  1.00  0.00     0.031 A 
ATOM     36  C   UNL     1       3.564   3.375   8.420  1.00  0.00     0.074 A 
ATOM     37  C   UNL     1       1.445   2.711   9.488  1.00  0.00     0.049 A 
ATOM     38  N   UNL     1       4.340   2.384   8.792  1.00  0.00    -0.248 NA
ATOM     39  C   UNL     1       4.208   4.312   7.488  1.00  0.00     0.031 C 
ATOM     40  C   UNL     1       0.016   2.766   9.804  1.00  0.00     0.029 A 
ATOM     41  N   UNL     1       1.869   1.548  10.082  1.00  0.00    -0.354 N 
ATOM     42  C   UNL     1       5.548   2.572   8.130  1.00  0.00     0.074 A 
ATOM     43  C   UNL     1       5.382   3.733   7.283  1.00  0.00     0.031 C 
ATOM     44  C   UNL     1      -0.301   1.730  10.597  1.00  0.00     0.029 A 
ATOM     45  C   UNL     1       0.894   0.926  10.825  1.00  0.00     0.049 A 
ATOM     46  H   UNL     1       2.783   1.194   9.985  1.00  0.00     0.167 HD
ATOM     47  C   UNL     1       6.702   1.869   8.240  1.00  0.00     0.037 A 
ATOM     48  C   UNL     1       0.960  -0.153  11.627  1.00  0.00     0.037 A 
ATOM     49  C   UNL     1       6.888   0.739   9.114  1.00  0.00     0.049 A 
ATOM     50  C   UNL     1       2.271  -0.864  11.803  1.00  0.00     0.074 A 
ATOM     51  C   UNL     1       8.045   0.023   9.370  1.00  0.00     0.029 A 
ATOM     52  N   UNL     1       5.886   0.162   9.879  1.00  0.00    -0.354 N 
ATOM     53  N   UNL     1       3.435  -0.601  11.263  1.00  0.00    -0.248 NA
ATOM     54  C   UNL     1       2.276  -2.018  12.714  1.00  0.00     0.031 C 
ATOM     55  C   UNL     1       7.737  -1.005  10.270  1.00  0.00     0.029 A 
ATOM     56  C   UNL     1       6.396  -0.907  10.599  1.00  0.00     0.049 A 
ATOM     57  H   UNL     1       4.950   0.467   9.907  1.00  0.00     0.167 HD
ATOM     58  C   UNL     1       4.313  -1.546  11.777  1.00  0.00     0.074 A 
ATOM     59  C   UNL     1       3.554  -2.368  12.696  1.00  0.00     0.031 C 
ATOM     60  C   UNL     1       5.629  -1.722  11.505  1.00  0.00     0.037 A 
BRANCH  47  61
ATOM     61  C   UNL     1       7.872   2.327   7.414  1.00  0.00     0.057 A 
ATOM     62  C   UNL     1       8.357   1.550   6.354  1.00  0.00     0.134 A 
ATOM     63  C   UNL     1       8.540   3.529   7.690  1.00  0.00     0.134 A 
ATOM     64  F   UNL     1       7.775   0.382   6.043  1.00  0.00    -0.206 F 
ATOM     65  C   UNL     1       9.456   1.956   5.595  1.00  0.00     0.040 A 
ATOM     66  C   UNL     1       9.623   3.958   6.920  1.00  0.00     0.040 A 
ATOM     67  F   UNL     1       8.124   4.324   8.687  1.00  0.00    -0.206 F 
ATOM     68  C   UNL     1      10.087   3.167   5.871  1.00  0.00     0.006 A 
ENDBRANCH  47  61
BRANCH  48  69
ATOM     69  C   UNL     1      -0.238  -0.590  12.386  1.00  0.00     0.057 A 
ATOM     70  C   UNL     1      -1.320  -1.213  11.757  1.00  0.00     0.134 A 
ATOM     71  C   UNL     1      -0.314  -0.401  13.772  1.00  0.00     0.134 A 
ATOM     72  F   UNL     1      -1.310  -1.414  10.432  1.00  0.00    -0.206 F 
ATOM     73  C   UNL     1      -2.437  -1.636  12.480  1.00  0.00     0.040 A 
ATOM     74  C   UNL     1      -1.414  -0.840  14.510  1.00  0.00     0.040 A 
ATOM     75  F   UNL     1       0.701   0.176  14.431  1.00  0.00    -0.206 F 
ATOM     76  C   UNL     1      -2.482  -1.457  13.862  1.00  0.00     0.006 A 
ENDBRANCH  48  69
BRANCH  60  77
ATOM     77  C   UNL     1       6.323  -2.841  12.222  1.00  0.00     0.057 A 
ATOM     78  C   UNL     1       7.234  -2.577  13.252  1.00  0.00     0.134 A 
ATOM     79  C   UNL     1       6.082  -4.183  11.897  1.00  0.00     0.134 A 
ATOM     80  F   UNL     1       7.513  -1.315  13.608  1.00  0.00    -0.206 F 
ATOM     81  C   UNL     1       7.875  -3.609  13.939  1.00  0.00     0.040 A 
ATOM     82  C   UNL     1       6.699  -5.223  12.594  1.00  0.00     0.040 A 
ATOM     83  F   UNL     1       5.207  -4.502  10.931  1.00  0.00    -0.206 F 
ATOM     84  C   UNL     1       7.601  -4.937  13.616  1.00  0.00     0.006 A 
ENDBRANCH  60  77
ENDBRANCH  34  35
ENDBRANCH  27  29
ENDBRANCH  26  27
ENDBRANCH  25  26
ENDBRANCH   1  25
TORSDOF 15
