REMARK SMILES Cc1coc2c(C)c3oc(=O)c(CCC(=O)N[C@H](CC(C)C)C(=O)OCCOC(=O)c4ccc(-c5c6nc(c(-c7c(F)cccc7F)c7ccc([nH]7)c(-c7c(F)cccc7F)c7nc(c(-c8c(F)cccc8F)c8ccc5[nH]8)C=C7)C=C6)cc4)c(C)c3cc12
REMARK SMILES IDX 26 1 25 2 23 3 24 4 18 5 17 6 15 7 16 8 14 10 13 11 12 12
REMARK SMILES IDX 1 13 2 14 3 15 89 16 4 17 5 18 88 19 6 20 87 21 7 22 8 23
REMARK SMILES IDX 85 24 9 25 86 26 10 27 11 28 19 29 20 30 21 31 22 32 27 33
REMARK SMILES IDX 28 34 29 35 30 36 31 37 32 38 84 39 33 40 83 41 34 42 35 43
REMARK SMILES IDX 36 44 77 45 37 46 82 47 76 48 78 49 38 50 81 51 75 52 74 53
REMARK SMILES IDX 39 55 65 56 48 57 64 58 49 59 52 60 63 61 79 62 50 63 51 64
REMARK SMILES IDX 62 66 80 67 53 68 40 69 41 70 46 71 42 72 43 73 45 74 47 75
REMARK SMILES IDX 44 76 66 77 67 78 72 79 68 80 69 81 71 82 73 83 70 84 54 85
REMARK SMILES IDX 55 86 60 87 56 88 57 89 59 90 61 91 58 92
REMARK H PARENT 17 9 78 54 52 65
REMARK Flexibility Score: inf
ROOT
ATOM      1  C   UNL     1      -4.957   0.373  -1.815  1.00  0.00     0.274 C 
ENDROOT
BRANCH   1   2
ATOM      2  O   UNL     1      -3.582   1.459  -2.067  1.00  0.00    -0.461 OA
BRANCH   2   3
ATOM      3  C   UNL     1      -3.025   3.104  -2.733  1.00  0.00     0.328 C 
ATOM      4  O   UNL     1      -3.752   3.808  -3.497  1.00  0.00    -0.250 OA
BRANCH   3   5
ATOM      5  C   UNL     1      -1.577   3.770  -2.693  1.00  0.00     0.192 C 
BRANCH   5   6
ATOM      6  N   UNL     1      -0.363   3.147  -3.255  1.00  0.00    -0.343 N 
ATOM      7  C   UNL     1      -0.156   2.613  -4.502  1.00  0.00     0.221 C 
ATOM      8  O   UNL     1       1.007   2.402  -4.853  1.00  0.00    -0.275 OA
ATOM      9  H   UNL     1       0.411   3.110  -2.648  1.00  0.00     0.164 HD
BRANCH   7  10
ATOM     10  C   UNL     1      -1.324   2.176  -5.381  1.00  0.00     0.105 C 
BRANCH  10  11
ATOM     11  C   UNL     1      -1.932   0.839  -4.932  1.00  0.00     0.053 C 
BRANCH  11  12
ATOM     12  C   UNL     1      -2.535   1.035  -3.576  1.00  0.00     0.042 A 
ATOM     13  C   UNL     1      -0.274   2.770   3.331  1.00  0.00     0.048 C 
ATOM     14  C   UNL     1      -1.671   2.900   2.877  1.00  0.00    -0.005 A 
ATOM     15  C   UNL     1      -2.701   3.464   3.590  1.00  0.00     0.199 A 
ATOM     16  C   UNL     1      -2.208   2.516   1.599  1.00  0.00     0.024 A 
ATOM     17  O   UNL     1      -3.821   3.487   2.853  1.00  0.00    -0.464 OA
ATOM     18  C   UNL     1      -3.539   2.971   1.617  1.00  0.00     0.140 A 
ATOM     19  C   UNL     1      -1.603   1.866   0.481  1.00  0.00     0.024 A 
ATOM     20  C   UNL     1      -4.533   3.014   0.612  1.00  0.00     0.036 A 
ATOM     21  C   UNL     1      -2.345   1.867  -0.673  1.00  0.00     0.022 A 
ATOM     22  C   UNL     1      -5.863   3.553   0.994  1.00  0.00     0.052 C 
ATOM     23  C   UNL     1      -3.911   2.621  -0.569  1.00  0.00     0.145 A 
ATOM     24  C   UNL     1      -1.716   1.032  -2.240  1.00  0.00    -0.030 A 
ATOM     25  O   UNL     1      -4.850   2.598  -2.154  1.00  0.00    -0.422 OA
ATOM     26  C   UNL     1      -0.333   0.466  -2.070  1.00  0.00     0.046 C 
ATOM     27  C   UNL     1      -4.359   1.734  -3.717  1.00  0.00     0.339 A 
ATOM     28  O   UNL     1      -5.109   1.599  -4.682  1.00  0.00    -0.246 OA
ENDBRANCH  11  12
ENDBRANCH  10  11
ENDBRANCH   7  10
ENDBRANCH   5   6
BRANCH   5  29
ATOM     29  C   UNL     1      -1.272   4.757  -1.522  1.00  0.00     0.040 C 
BRANCH  29  30
ATOM     30  C   UNL     1      -2.194   5.996  -1.267  1.00  0.00    -0.015 C 
ATOM     31  C   UNL     1      -3.672   5.747  -1.020  1.00  0.00     0.007 C 
ATOM     32  C   UNL     1      -1.692   6.755  -0.022  1.00  0.00     0.007 C 
ENDBRANCH  29  30
ENDBRANCH   5  29
ENDBRANCH   3   5
ENDBRANCH   2   3
ENDBRANCH   1   2
BRANCH   1  33
ATOM     33  C   UNL     1      -6.451   0.922  -1.594  1.00  0.00     0.275 C 
BRANCH  33  34
ATOM     34  O   UNL     1      -7.031   1.745  -2.657  1.00  0.00    -0.458 OA
BRANCH  34  35
ATOM     35  C   UNL     1      -7.114   3.080  -2.388  1.00  0.00     0.338 C 
ATOM     36  O   UNL     1      -6.931   3.620  -1.307  1.00  0.00    -0.246 OA
BRANCH  35  37
ATOM     37  C   UNL     1      -7.529   3.973  -3.479  1.00  0.00     0.060 A 
ATOM     38  C   UNL     1      -6.869   5.228  -3.381  1.00  0.00     0.016 A 
ATOM     39  C   UNL     1      -8.917   3.915  -3.413  1.00  0.00     0.016 A 
ATOM     40  C   UNL     1      -7.522   6.282  -2.759  1.00  0.00     0.010 A 
ATOM     41  C   UNL     1      -9.556   4.926  -2.726  1.00  0.00     0.010 A 
ATOM     42  C   UNL     1      -8.850   6.086  -2.362  1.00  0.00    -0.014 A 
BRANCH  42  43
ATOM     43  C   UNL     1      -9.662   7.252  -2.035  1.00  0.00     0.031 A 
ATOM     44  C   UNL     1      -9.826   8.044  -3.290  1.00  0.00     0.074 A 
ATOM     45  C   UNL     1     -10.365   7.375  -0.892  1.00  0.00     0.049 A 
ATOM     46  N   UNL     1      -9.286   9.181  -3.595  1.00  0.00    -0.248 NA
ATOM     47  C   UNL     1     -10.344   7.312  -4.472  1.00  0.00     0.031 C 
ATOM     48  C   UNL     1     -10.386   6.470   0.259  1.00  0.00     0.029 A 
ATOM     49  N   UNL     1     -11.332   8.286  -0.576  1.00  0.00    -0.354 N 
ATOM     50  C   UNL     1      -9.657   9.380  -4.924  1.00  0.00     0.074 A 
ATOM     51  C   UNL     1      -9.909   8.084  -5.466  1.00  0.00     0.031 C 
ATOM     52  C   UNL     1     -11.470   6.737   1.026  1.00  0.00     0.029 A 
ATOM     53  C   UNL     1     -12.161   7.891   0.485  1.00  0.00     0.049 A 
ATOM     54  H   UNL     1     -11.439   9.142  -1.050  1.00  0.00     0.167 HD
ATOM     55  C   UNL     1     -10.209  10.561  -5.314  1.00  0.00     0.037 A 
ATOM     56  C   UNL     1     -13.363   8.456   0.786  1.00  0.00     0.037 A 
ATOM     57  C   UNL     1      -9.881  11.593  -4.359  1.00  0.00     0.049 A 
ATOM     58  C   UNL     1     -13.392   9.771   0.092  1.00  0.00     0.074 A 
ATOM     59  C   UNL     1      -8.707  12.129  -3.870  1.00  0.00     0.029 A 
ATOM     60  N   UNL     1     -10.859  11.894  -3.445  1.00  0.00    -0.354 N 
ATOM     61  N   UNL     1     -12.606  10.766   0.396  1.00  0.00    -0.248 NA
ATOM     62  C   UNL     1     -13.949   9.796  -1.252  1.00  0.00     0.031 C 
ATOM     63  C   UNL     1      -8.955  12.379  -2.490  1.00  0.00     0.029 A 
ATOM     64  C   UNL     1     -10.290  12.080  -2.215  1.00  0.00     0.049 A 
ATOM     65  H   UNL     1     -11.820  11.965  -3.643  1.00  0.00     0.167 HD
ATOM     66  C   UNL     1     -12.214  11.285  -0.830  1.00  0.00     0.074 A 
ATOM     67  C   UNL     1     -13.133  10.697  -1.804  1.00  0.00     0.031 C 
ATOM     68  C   UNL     1     -10.997  11.888  -0.968  1.00  0.00     0.037 A 
BRANCH  55  69
ATOM     69  C   UNL     1     -11.415  10.658  -6.239  1.00  0.00     0.057 A 
ATOM     70  C   UNL     1     -11.847  11.937  -6.626  1.00  0.00     0.134 A 
ATOM     71  C   UNL     1     -12.324   9.618  -6.558  1.00  0.00     0.134 A 
ATOM     72  F   UNL     1     -11.094  13.018  -6.380  1.00  0.00    -0.206 F 
ATOM     73  C   UNL     1     -13.101  12.168  -7.209  1.00  0.00     0.040 A 
ATOM     74  C   UNL     1     -13.556   9.832  -7.179  1.00  0.00     0.040 A 
ATOM     75  F   UNL     1     -12.142   8.338  -6.224  1.00  0.00    -0.206 F 
ATOM     76  C   UNL     1     -13.964  11.115  -7.481  1.00  0.00     0.006 A 
ENDBRANCH  55  69
BRANCH  56  77
ATOM     77  C   UNL     1     -14.618   7.841   1.300  1.00  0.00     0.057 A 
ATOM     78  C   UNL     1     -15.706   8.643   1.693  1.00  0.00     0.134 A 
ATOM     79  C   UNL     1     -14.904   6.477   1.127  1.00  0.00     0.134 A 
ATOM     80  F   UNL     1     -15.553   9.966   1.855  1.00  0.00    -0.206 F 
ATOM     81  C   UNL     1     -17.002   8.130   1.856  1.00  0.00     0.040 A 
ATOM     82  C   UNL     1     -16.193   5.951   1.291  1.00  0.00     0.040 A 
ATOM     83  F   UNL     1     -13.965   5.622   0.700  1.00  0.00    -0.206 F 
ATOM     84  C   UNL     1     -17.252   6.781   1.637  1.00  0.00     0.006 A 
ENDBRANCH  56  77
BRANCH  68  85
ATOM     85  C   UNL     1     -10.222  12.210   0.284  1.00  0.00     0.057 A 
ATOM     86  C   UNL     1      -9.639  11.250   1.127  1.00  0.00     0.134 A 
ATOM     87  C   UNL     1      -9.883  13.545   0.520  1.00  0.00     0.134 A 
ATOM     88  F   UNL     1      -9.846   9.942   0.935  1.00  0.00    -0.206 F 
ATOM     89  C   UNL     1      -8.762  11.607   2.158  1.00  0.00     0.040 A 
ATOM     90  C   UNL     1      -8.984  13.913   1.523  1.00  0.00     0.040 A 
ATOM     91  F   UNL     1     -10.368  14.512  -0.274  1.00  0.00    -0.206 F 
ATOM     92  C   UNL     1      -8.420  12.943   2.347  1.00  0.00     0.006 A 
ENDBRANCH  68  85
ENDBRANCH  42  43
ENDBRANCH  35  37
ENDBRANCH  34  35
ENDBRANCH  33  34
ENDBRANCH   1  33
TORSDOF 17
