REMARK SMILES Nc1ccc(O)c(C(=O)OCCOC(=O)c2ccc(-c3c4nc(c(-c5c(F)cccc5F)c5ccc([nH]5)c(-c5c(F)cccc5F)c5nc(c(-c6c(F)cccc6F)c6ccc3[nH]6)C=C5)C=C4)cc2)c1
REMARK SMILES IDX 12 1 11 2 10 3 8 4 9 5 7 6 2 7 3 8 70 9 4 10 5 11 1 12 6 15
REMARK SMILES IDX 13 17 14 18 15 19 16 20 17 21 69 22 18 23 68 24 19 25 20 26
REMARK SMILES IDX 21 27 62 28 22 29 67 30 61 31 63 32 23 33 66 34 60 35 59 36
REMARK SMILES IDX 24 38 50 39 33 40 49 41 34 42 37 43 48 44 64 45 35 46 36 47
REMARK SMILES IDX 47 49 65 50 38 51 25 52 26 53 31 54 27 55 28 56 30 57 32 58
REMARK SMILES IDX 29 59 51 60 52 61 57 62 53 63 54 64 56 65 58 66 55 67 39 68
REMARK SMILES IDX 40 69 45 70 41 71 42 72 44 73 46 74 43 75
REMARK H PARENT 1 13 1 14 6 16 63 37 37 48
REMARK Flexibility Score: inf
ROOT
ATOM      1  C   UNL     1       2.190  -4.910  -1.057  1.00  0.00     0.275 C 
ENDROOT
BRANCH   1   2
ATOM      2  C   UNL     1       1.144  -4.628   0.026  1.00  0.00     0.275 C 
BRANCH   2   3
ATOM      3  O   UNL     1       0.382  -3.432  -0.250  1.00  0.00    -0.458 OA
BRANCH   3   4
ATOM      4  C   UNL     1       0.732  -2.336   0.464  1.00  0.00     0.342 C 
ATOM      5  O   UNL     1       1.640  -2.270   1.281  1.00  0.00    -0.246 OA
BRANCH   4   6
ATOM      6  C   UNL     1      -0.136  -1.188   0.134  1.00  0.00     0.103 A 
ATOM      7  C   UNL     1      -2.343  -0.177   0.181  1.00  0.00     0.032 A 
ATOM      8  C   UNL     1      -1.758   1.075  -0.033  1.00  0.00     0.029 A 
ATOM      9  C   UNL     1      -1.519  -1.300   0.321  1.00  0.00     0.045 A 
ATOM     10  C   UNL     1      -0.388   1.192  -0.241  1.00  0.00     0.049 A 
ATOM     11  C   UNL     1       0.407   0.054  -0.204  1.00  0.00     0.130 A 
BRANCH   7  12
ATOM     12  N   UNL     1      -3.709  -0.272   0.401  1.00  0.00    -0.399 N 
ATOM     13  H   UNL     1      -4.280   0.523   0.300  1.00  0.00     0.156 HD
ATOM     14  H   UNL     1      -4.107  -1.135   0.658  1.00  0.00     0.156 HD
ENDBRANCH   7  12
BRANCH  11  15
ATOM     15  O   UNL     1       1.704   0.235  -0.574  1.00  0.00    -0.507 OA
ATOM     16  H   UNL     1       2.014   1.092  -0.791  1.00  0.00     0.293 HD
ENDBRANCH  11  15
ENDBRANCH   4   6
ENDBRANCH   3   4
ENDBRANCH   2   3
ENDBRANCH   1   2
BRANCH   1  17
ATOM     17  O   UNL     1       3.338  -4.046  -0.940  1.00  0.00    -0.458 OA
BRANCH  17  18
ATOM     18  C   UNL     1       3.287  -2.933  -1.699  1.00  0.00     0.338 C 
ATOM     19  O   UNL     1       2.385  -2.574  -2.439  1.00  0.00    -0.246 OA
BRANCH  18  20
ATOM     20  C   UNL     1       4.430  -2.050  -1.436  1.00  0.00     0.060 A 
ATOM     21  C   UNL     1       4.283  -1.134  -0.402  1.00  0.00     0.016 A 
ATOM     22  C   UNL     1       5.451  -1.894  -2.373  1.00  0.00     0.016 A 
ATOM     23  C   UNL     1       5.039   0.030  -0.404  1.00  0.00     0.010 A 
ATOM     24  C   UNL     1       6.313  -0.791  -2.276  1.00  0.00     0.010 A 
ATOM     25  C   UNL     1       6.084   0.216  -1.320  1.00  0.00    -0.014 A 
BRANCH  25  26
ATOM     26  C   UNL     1       6.891   1.471  -1.273  1.00  0.00     0.031 A 
ATOM     27  C   UNL     1       7.045   2.346  -2.492  1.00  0.00     0.074 A 
ATOM     28  C   UNL     1       7.454   1.866  -0.111  1.00  0.00     0.049 A 
ATOM     29  N   UNL     1       7.847   3.366  -2.682  1.00  0.00    -0.248 NA
ATOM     30  C   UNL     1       6.201   2.031  -3.655  1.00  0.00     0.031 C 
ATOM     31  C   UNL     1       7.350   1.156   1.167  1.00  0.00     0.029 A 
ATOM     32  N   UNL     1       8.204   2.975   0.194  1.00  0.00    -0.354 N 
ATOM     33  C   UNL     1       7.654   3.768  -3.998  1.00  0.00     0.074 A 
ATOM     34  C   UNL     1       6.651   2.889  -4.562  1.00  0.00     0.031 C 
ATOM     35  C   UNL     1       7.944   1.878   2.126  1.00  0.00     0.029 A 
ATOM     36  C   UNL     1       8.579   3.038   1.515  1.00  0.00     0.049 A 
ATOM     37  H   UNL     1       8.451   3.659  -0.469  1.00  0.00     0.167 HD
ATOM     38  C   UNL     1       8.264   4.772  -4.674  1.00  0.00     0.037 A 
ATOM     39  C   UNL     1       9.388   3.895   2.164  1.00  0.00     0.037 A 
ATOM     40  C   UNL     1       9.207   5.692  -4.088  1.00  0.00     0.049 A 
ATOM     41  C   UNL     1      10.062   4.988   1.393  1.00  0.00     0.074 A 
ATOM     42  C   UNL     1       9.879   6.742  -4.692  1.00  0.00     0.029 A 
ATOM     43  N   UNL     1       9.588   5.691  -2.755  1.00  0.00    -0.354 N 
ATOM     44  N   UNL     1       9.951   5.290   0.123  1.00  0.00    -0.248 NA
ATOM     45  C   UNL     1      11.002   5.837   2.136  1.00  0.00     0.031 C 
ATOM     46  C   UNL     1      10.687   7.359  -3.730  1.00  0.00     0.029 A 
ATOM     47  C   UNL     1      10.490   6.717  -2.519  1.00  0.00     0.049 A 
ATOM     48  H   UNL     1       9.266   5.055  -2.076  1.00  0.00     0.167 HD
ATOM     49  C   UNL     1      10.806   6.360  -0.087  1.00  0.00     0.074 A 
ATOM     50  C   UNL     1      11.408   6.675   1.192  1.00  0.00     0.031 C 
ATOM     51  C   UNL     1      11.080   7.015  -1.241  1.00  0.00     0.037 A 
BRANCH  38  52
ATOM     52  C   UNL     1       7.965   4.917  -6.138  1.00  0.00     0.057 A 
ATOM     53  C   UNL     1       6.761   5.454  -6.608  1.00  0.00     0.134 A 
ATOM     54  C   UNL     1       8.932   4.568  -7.092  1.00  0.00     0.134 A 
ATOM     55  F   UNL     1       5.790   5.799  -5.749  1.00  0.00    -0.206 F 
ATOM     56  C   UNL     1       6.523   5.627  -7.974  1.00  0.00     0.040 A 
ATOM     57  C   UNL     1       8.715   4.757  -8.458  1.00  0.00     0.040 A 
ATOM     58  F   UNL     1      10.111   4.056  -6.710  1.00  0.00    -0.206 F 
ATOM     59  C   UNL     1       7.505   5.285  -8.903  1.00  0.00     0.006 A 
ENDBRANCH  38  52
BRANCH  39  60
ATOM     60  C   UNL     1       9.655   3.703   3.612  1.00  0.00     0.057 A 
ATOM     61  C   UNL     1       9.180   4.610   4.564  1.00  0.00     0.134 A 
ATOM     62  C   UNL     1      10.373   2.594   4.078  1.00  0.00     0.134 A 
ATOM     63  F   UNL     1       8.508   5.705   4.178  1.00  0.00    -0.206 F 
ATOM     64  C   UNL     1       9.412   4.424   5.928  1.00  0.00     0.040 A 
ATOM     65  C   UNL     1      10.585   2.379   5.439  1.00  0.00     0.040 A 
ATOM     66  F   UNL     1      10.854   1.686   3.215  1.00  0.00    -0.206 F 
ATOM     67  C   UNL     1      10.107   3.299   6.369  1.00  0.00     0.006 A 
ENDBRANCH  39  60
BRANCH  51  68
ATOM     68  C   UNL     1      12.058   8.146  -1.158  1.00  0.00     0.057 A 
ATOM     69  C   UNL     1      13.434   7.918  -1.028  1.00  0.00     0.134 A 
ATOM     70  C   UNL     1      11.621   9.474  -1.217  1.00  0.00     0.134 A 
ATOM     71  F   UNL     1      13.911   6.667  -0.949  1.00  0.00    -0.206 F 
ATOM     72  C   UNL     1      14.340   8.975  -0.937  1.00  0.00     0.040 A 
ATOM     73  C   UNL     1      12.520  10.539  -1.147  1.00  0.00     0.040 A 
ATOM     74  F   UNL     1      10.316   9.758  -1.344  1.00  0.00    -0.206 F 
ATOM     75  C   UNL     1      13.883  10.290  -1.000  1.00  0.00     0.006 A 
ENDBRANCH  51  68
ENDBRANCH  25  26
ENDBRANCH  18  20
ENDBRANCH  17  18
ENDBRANCH   1  17
TORSDOF 13
