REMARK SMILES CC(C)(C)OC(=O)N1CCC[C@H]1C(=O)N1CCC[C@H]1C(=O)N1CCC[C@@H]1C(=O)OCCOC(=O)c1ccc(-c2c3nc(c(-c4c(F)cccc4F)c4ccc([nH]4)c(-c4c(F)cccc4F)c4nc(c(-c5c(F)cccc5F)c5ccc2[nH]5)C=C4)C=C3)cc1
REMARK SMILES IDX 27 1 28 2 26 3 22 4 23 5 24 6 25 7 20 8 21 9 19 10 15 11
REMARK SMILES IDX 16 12 17 13 18 14 13 15 14 16 12 17 8 18 9 19 10 20 11 21
REMARK SMILES IDX 6 22 7 23 5 24 2 25 1 26 3 27 4 28 29 29 30 30 31 31 32 32
REMARK SMILES IDX 33 33 34 34 35 35 36 36 88 37 37 38 87 39 38 40 39 41 40 42
REMARK SMILES IDX 81 43 41 44 86 45 80 46 82 47 42 48 85 49 79 50 78 51 43 53
REMARK SMILES IDX 69 54 52 55 68 56 53 57 56 58 67 59 83 60 54 61 55 62 66 64
REMARK SMILES IDX 84 65 57 66 44 67 45 68 50 69 46 70 47 71 49 72 51 73 48 74
REMARK SMILES IDX 70 75 71 76 76 77 72 78 73 79 75 80 77 81 74 82 58 83 59 84
REMARK SMILES IDX 64 85 60 86 61 87 63 88 65 89 62 90
REMARK H PARENT 82 52 56 63
REMARK Flexibility Score: inf
ROOT
ATOM      1  C   UNL     1       0.799  -4.861   9.179  1.00  0.00     0.328 C 
ATOM      2  O   UNL     1      -0.151  -5.388   9.753  1.00  0.00    -0.250 OA
ENDROOT
BRANCH   1   3
ATOM      3  C   UNL     1       0.907  -3.346   9.021  1.00  0.00     0.195 C 
ATOM      4  N   UNL     1       0.056  -2.818   7.982  1.00  0.00    -0.327 N 
ATOM      5  C   UNL     1       0.551  -1.495   7.660  1.00  0.00     0.120 C 
ATOM      6  C   UNL     1       2.050  -1.723   7.617  1.00  0.00     0.024 C 
ATOM      7  C   UNL     1       2.288  -2.734   8.746  1.00  0.00     0.039 C 
BRANCH   4   8
ATOM      8  C   UNL     1      -1.301  -3.046   8.033  1.00  0.00     0.246 C 
ATOM      9  O   UNL     1      -2.021  -2.525   8.883  1.00  0.00    -0.272 OA
BRANCH   8  10
ATOM     10  C   UNL     1      -1.856  -3.944   6.896  1.00  0.00     0.174 C 
ATOM     11  N   UNL     1      -0.933  -4.702   6.021  1.00  0.00    -0.329 N 
ATOM     12  C   UNL     1      -1.195  -6.126   6.086  1.00  0.00     0.120 C 
ATOM     13  C   UNL     1      -2.631  -6.218   6.564  1.00  0.00     0.024 C 
ATOM     14  C   UNL     1      -2.775  -5.021   7.495  1.00  0.00     0.037 C 
BRANCH  11  15
ATOM     15  C   UNL     1      -0.190  -4.025   5.078  1.00  0.00     0.246 C 
ATOM     16  O   UNL     1       0.074  -2.830   5.234  1.00  0.00    -0.272 OA
BRANCH  15  17
ATOM     17  C   UNL     1       0.220  -4.734   3.763  1.00  0.00     0.178 C 
ATOM     18  N   UNL     1       0.862  -3.734   2.904  1.00  0.00    -0.296 N 
ATOM     19  C   UNL     1       2.276  -3.981   2.759  1.00  0.00     0.124 C 
ATOM     20  C   UNL     1       2.351  -5.491   2.880  1.00  0.00     0.024 C 
ATOM     21  C   UNL     1       1.288  -5.819   3.934  1.00  0.00     0.037 C 
BRANCH  18  22
ATOM     22  C   UNL     1       0.160  -2.647   2.438  1.00  0.00     0.410 C 
ATOM     23  O   UNL     1      -1.053  -2.541   2.580  1.00  0.00    -0.224 OA
BRANCH  22  24
ATOM     24  O   UNL     1       0.966  -1.742   1.835  1.00  0.00    -0.444 OA
BRANCH  24  25
ATOM     25  C   UNL     1       0.526  -0.415   1.429  1.00  0.00     0.106 C 
ATOM     26  C   UNL     1       1.238  -0.157   0.095  1.00  0.00     0.056 C 
ATOM     27  C   UNL     1       1.031   0.585   2.477  1.00  0.00     0.056 C 
ATOM     28  C   UNL     1      -0.982  -0.229   1.217  1.00  0.00     0.056 C 
ENDBRANCH  24  25
ENDBRANCH  22  24
ENDBRANCH  18  22
ENDBRANCH  15  17
ENDBRANCH  11  15
ENDBRANCH   8  10
ENDBRANCH   4   8
ENDBRANCH   1   3
BRANCH   1  29
ATOM     29  O   UNL     1       1.800  -5.556   8.584  1.00  0.00    -0.461 OA
BRANCH  29  30
ATOM     30  C   UNL     1       1.783  -6.976   8.822  1.00  0.00     0.274 C 
BRANCH  30  31
ATOM     31  C   UNL     1       2.780  -7.364   9.916  1.00  0.00     0.275 C 
BRANCH  31  32
ATOM     32  O   UNL     1       2.459  -6.763  11.187  1.00  0.00    -0.458 OA
BRANCH  32  33
ATOM     33  C   UNL     1       3.044  -5.564  11.410  1.00  0.00     0.338 C 
ATOM     34  O   UNL     1       3.791  -4.954  10.662  1.00  0.00    -0.246 OA
BRANCH  33  35
ATOM     35  C   UNL     1       2.568  -4.982  12.670  1.00  0.00     0.060 A 
ATOM     36  C   UNL     1       1.725  -3.873  12.602  1.00  0.00     0.016 A 
ATOM     37  C   UNL     1       3.065  -5.414  13.897  1.00  0.00     0.016 A 
ATOM     38  C   UNL     1       1.399  -3.159  13.746  1.00  0.00     0.010 A 
ATOM     39  C   UNL     1       2.711  -4.716  15.057  1.00  0.00     0.010 A 
ATOM     40  C   UNL     1       1.893  -3.572  14.985  1.00  0.00    -0.014 A 
BRANCH  40  41
ATOM     41  C   UNL     1       1.590  -2.775  16.196  1.00  0.00     0.031 A 
ATOM     42  C   UNL     1       2.690  -2.030  16.893  1.00  0.00     0.074 A 
ATOM     43  C   UNL     1       0.326  -2.711  16.653  1.00  0.00     0.049 A 
ATOM     44  N   UNL     1       2.664  -1.393  18.035  1.00  0.00    -0.248 NA
ATOM     45  C   UNL     1       3.998  -2.005  16.218  1.00  0.00     0.031 C 
ATOM     46  C   UNL     1      -0.836  -3.340  16.021  1.00  0.00     0.029 A 
ATOM     47  N   UNL     1      -0.192  -2.091  17.761  1.00  0.00    -0.354 N 
ATOM     48  C   UNL     1       3.956  -0.921  18.233  1.00  0.00     0.074 A 
ATOM     49  C   UNL     1       4.745  -1.359  17.102  1.00  0.00     0.031 C 
ATOM     50  C   UNL     1      -1.929  -3.074  16.752  1.00  0.00     0.029 A 
ATOM     51  C   UNL     1      -1.536  -2.315  17.934  1.00  0.00     0.049 A 
ATOM     52  H   UNL     1       0.347  -1.539  18.373  1.00  0.00     0.167 HD
ATOM     53  C   UNL     1       4.433  -0.188  19.267  1.00  0.00     0.037 A 
ATOM     54  C   UNL     1      -2.349  -1.982  18.952  1.00  0.00     0.037 A 
ATOM     55  C   UNL     1       3.629   0.258  20.376  1.00  0.00     0.049 A 
ATOM     56  C   UNL     1      -1.780  -1.228  20.121  1.00  0.00     0.074 A 
ATOM     57  C   UNL     1       4.010   1.015  21.470  1.00  0.00     0.029 A 
ATOM     58  N   UNL     1       2.276  -0.012  20.529  1.00  0.00    -0.354 N 
ATOM     59  N   UNL     1      -0.554  -0.803  20.312  1.00  0.00    -0.248 NA
ATOM     60  C   UNL     1      -2.703  -0.915  21.219  1.00  0.00     0.031 C 
ATOM     61  C   UNL     1       2.901   1.160  22.309  1.00  0.00     0.029 A 
ATOM     62  C   UNL     1       1.814   0.543  21.710  1.00  0.00     0.049 A 
ATOM     63  H   UNL     1       1.727  -0.523  19.891  1.00  0.00     0.167 HD
ATOM     64  C   UNL     1      -0.566  -0.146  21.535  1.00  0.00     0.074 A 
ATOM     65  C   UNL     1      -1.923  -0.221  22.035  1.00  0.00     0.031 C 
ATOM     66  C   UNL     1       0.455   0.466  22.185  1.00  0.00     0.037 A 
BRANCH  53  67
ATOM     67  C   UNL     1       5.898   0.143  19.267  1.00  0.00     0.057 A 
ATOM     68  C   UNL     1       6.456   1.061  18.368  1.00  0.00     0.134 A 
ATOM     69  C   UNL     1       6.759  -0.447  20.202  1.00  0.00     0.134 A 
ATOM     70  F   UNL     1       5.692   1.652  17.436  1.00  0.00    -0.206 F 
ATOM     71  C   UNL     1       7.820   1.361  18.383  1.00  0.00     0.040 A 
ATOM     72  C   UNL     1       8.118  -0.134  20.245  1.00  0.00     0.040 A 
ATOM     73  F   UNL     1       6.291  -1.331  21.095  1.00  0.00    -0.206 F 
ATOM     74  C   UNL     1       8.654   0.768  19.328  1.00  0.00     0.006 A 
ENDBRANCH  53  67
BRANCH  54  75
ATOM     75  C   UNL     1      -3.778  -2.385  18.924  1.00  0.00     0.057 A 
ATOM     76  C   UNL     1      -4.797  -1.433  18.802  1.00  0.00     0.134 A 
ATOM     77  C   UNL     1      -4.160  -3.729  19.019  1.00  0.00     0.134 A 
ATOM     78  F   UNL     1      -4.496  -0.129  18.728  1.00  0.00    -0.206 F 
ATOM     79  C   UNL     1      -6.143  -1.802  18.791  1.00  0.00     0.040 A 
ATOM     80  C   UNL     1      -5.500  -4.114  18.981  1.00  0.00     0.040 A 
ATOM     81  F   UNL     1      -3.232  -4.691  19.134  1.00  0.00    -0.206 F 
ATOM     82  C   UNL     1      -6.497  -3.147  18.875  1.00  0.00     0.006 A 
ENDBRANCH  54  75
BRANCH  66  83
ATOM     83  C   UNL     1       0.130   1.143  23.484  1.00  0.00     0.057 A 
ATOM     84  C   UNL     1      -0.151   0.418  24.649  1.00  0.00     0.134 A 
ATOM     85  C   UNL     1       0.135   2.541  23.576  1.00  0.00     0.134 A 
ATOM     86  F   UNL     1      -0.186  -0.922  24.625  1.00  0.00    -0.206 F 
ATOM     87  C   UNL     1      -0.437   1.061  25.855  1.00  0.00     0.040 A 
ATOM     88  C   UNL     1      -0.121   3.194  24.782  1.00  0.00     0.040 A 
ATOM     89  F   UNL     1       0.405   3.293  22.499  1.00  0.00    -0.206 F 
ATOM     90  C   UNL     1      -0.415   2.453  25.924  1.00  0.00     0.006 A 
ENDBRANCH  66  83
ENDBRANCH  40  41
ENDBRANCH  33  35
ENDBRANCH  32  33
ENDBRANCH  31  32
ENDBRANCH  30  31
ENDBRANCH  29  30
ENDBRANCH   1  29
TORSDOF 18
