REMARK SMILES CCC[C@@]1(C(=O)N[C@@](C)(C(=O)OCCOC(=O)c2ccc(-c3c4nc(c(-c5c(F)cccc5F)c5ccc([nH]5)c(-c5c(F)cccc5F)c5nc(c(-c6c(F)cccc6F)c6ccc3[nH]6)C=C5)C=C4)cc2)C(F)(F)F)CC[NH2+]C1
REMARK SMILES IDX 13 1 12 2 10 3 11 4 8 5 9 6 7 7 5 8 6 9 4 11 76 12 79 13
REMARK SMILES IDX 77 14 78 15 3 18 2 19 1 20 72 21 73 22 74 23 75 24 14 25
REMARK SMILES IDX 15 26 16 27 17 28 18 29 19 30 71 31 20 32 70 33 21 34 22 35
REMARK SMILES IDX 23 36 64 37 24 38 69 39 63 40 65 41 25 42 68 43 62 44 61 45
REMARK SMILES IDX 26 47 52 48 35 49 51 50 36 51 39 52 50 53 66 54 37 55 38 56
REMARK SMILES IDX 49 58 67 59 40 60 27 61 28 62 33 63 29 64 30 65 32 66 34 67
REMARK SMILES IDX 31 68 53 69 54 70 59 71 55 72 56 73 58 74 60 75 57 76 41 77
REMARK SMILES IDX 42 78 47 79 43 80 44 81 46 82 48 83 45 84
REMARK H PARENT 7 10 78 16 78 17 65 46 39 57
REMARK Flexibility Score: inf
ROOT
ATOM      1  C   UNL     1       5.124   0.269  -0.653  1.00  0.00     0.274 C 
ENDROOT
BRANCH   1   2
ATOM      2  O   UNL     1       4.259  -0.865  -0.377  1.00  0.00    -0.460 OA
BRANCH   2   3
ATOM      3  C   UNL     1       4.497  -1.536   0.793  1.00  0.00     0.341 C 
ATOM      4  O   UNL     1       5.312  -1.158   1.627  1.00  0.00    -0.249 OA
BRANCH   3   5
ATOM      5  C   UNL     1       3.808  -2.921   0.833  1.00  0.00     0.231 C 
ATOM      6  C   UNL     1       4.851  -3.864   0.169  1.00  0.00     0.058 C 
BRANCH   5   7
ATOM      7  N   UNL     1       2.562  -3.095  -0.048  1.00  0.00    -0.332 N 
ATOM      8  C   UNL     1       1.210  -3.020  -0.086  1.00  0.00     0.233 C 
ATOM      9  O   UNL     1       0.775  -3.200  -1.233  1.00  0.00    -0.274 OA
ATOM     10  H   UNL     1       2.868  -3.372  -0.942  1.00  0.00     0.164 HD
BRANCH   8  11
ATOM     11  C   UNL     1       0.204  -2.837   1.079  1.00  0.00     0.103 C 
ATOM     12  C   UNL     1      -0.127  -4.212   1.709  1.00  0.00     0.084 C 
ATOM     13  C   UNL     1      -1.194  -2.379   0.556  1.00  0.00     0.277 C 
ATOM     14  C   UNL     1      -1.570  -4.505   1.320  1.00  0.00     0.261 C 
ATOM     15  N   UNL     1      -2.195  -3.188   1.268  1.00  0.00    -0.345 N 
ATOM     16  H   UNL     1      -2.362  -2.824   2.205  1.00  0.00     0.346 HD
ATOM     17  H   UNL     1      -3.107  -3.192   0.812  1.00  0.00     0.346 HD
BRANCH  11  18
ATOM     18  C   UNL     1       0.644  -1.837   2.145  1.00  0.00     0.023 C 
BRANCH  18  19
ATOM     19  C   UNL     1       1.312  -0.591   1.583  1.00  0.00    -0.002 C 
ATOM     20  C   UNL     1       0.395   0.472   1.020  1.00  0.00     0.004 C 
ENDBRANCH  18  19
ENDBRANCH  11  18
ENDBRANCH   8  11
ENDBRANCH   5   7
BRANCH   5  21
ATOM     21  C   UNL     1       3.739  -3.314   2.319  1.00  0.00     0.422 C 
ATOM     22  F   UNL     1       3.329  -2.308   3.120  1.00  0.00    -0.168 F 
ATOM     23  F   UNL     1       2.889  -4.354   2.504  1.00  0.00    -0.168 F 
ATOM     24  F   UNL     1       4.941  -3.718   2.800  1.00  0.00    -0.168 F 
ENDBRANCH   5  21
ENDBRANCH   3   5
ENDBRANCH   2   3
ENDBRANCH   1   2
BRANCH   1  25
ATOM     25  C   UNL     1       4.405   1.611  -0.489  1.00  0.00     0.275 C 
BRANCH  25  26
ATOM     26  O   UNL     1       4.016   1.776   0.881  1.00  0.00    -0.458 OA
BRANCH  26  27
ATOM     27  C   UNL     1       3.297   2.892   1.170  1.00  0.00     0.338 C 
ATOM     28  O   UNL     1       3.076   3.823   0.409  1.00  0.00    -0.246 OA
BRANCH  27  29
ATOM     29  C   UNL     1       2.648   2.712   2.500  1.00  0.00     0.060 A 
ATOM     30  C   UNL     1       3.038   1.665   3.331  1.00  0.00     0.016 A 
ATOM     31  C   UNL     1       1.509   3.456   2.836  1.00  0.00     0.016 A 
ATOM     32  C   UNL     1       2.202   1.261   4.374  1.00  0.00     0.010 A 
ATOM     33  C   UNL     1       0.747   3.120   3.972  1.00  0.00     0.010 A 
ATOM     34  C   UNL     1       1.066   1.995   4.749  1.00  0.00    -0.014 A 
BRANCH  34  35
ATOM     35  C   UNL     1       0.274   1.605   5.963  1.00  0.00     0.031 A 
ATOM     36  C   UNL     1      -1.236   1.511   5.950  1.00  0.00     0.074 A 
ATOM     37  C   UNL     1       0.912   1.331   7.122  1.00  0.00     0.049 A 
ATOM     38  N   UNL     1      -2.071   1.487   6.963  1.00  0.00    -0.248 NA
ATOM     39  C   UNL     1      -1.897   1.426   4.639  1.00  0.00     0.031 C 
ATOM     40  C   UNL     1       2.364   1.300   7.315  1.00  0.00     0.029 A 
ATOM     41  N   UNL     1       0.417   1.031   8.371  1.00  0.00    -0.354 N 
ATOM     42  C   UNL     1      -3.350   1.452   6.414  1.00  0.00     0.074 A 
ATOM     43  C   UNL     1      -3.182   1.427   4.976  1.00  0.00     0.031 C 
ATOM     44  C   UNL     1       2.642   0.953   8.575  1.00  0.00     0.029 A 
ATOM     45  C   UNL     1       1.398   0.907   9.325  1.00  0.00     0.049 A 
ATOM     46  H   UNL     1      -0.542   0.918   8.562  1.00  0.00     0.167 HD
ATOM     47  C   UNL     1      -4.547   1.458   7.053  1.00  0.00     0.037 A 
ATOM     48  C   UNL     1       1.343   0.872  10.669  1.00  0.00     0.037 A 
ATOM     49  C   UNL     1      -4.715   1.422   8.486  1.00  0.00     0.049 A 
ATOM     50  C   UNL     1       0.022   0.983  11.358  1.00  0.00     0.074 A 
ATOM     51  C   UNL     1      -5.893   1.414   9.218  1.00  0.00     0.029 A 
ATOM     52  N   UNL     1      -3.680   1.373   9.406  1.00  0.00    -0.354 N 
ATOM     53  N   UNL     1      -1.174   1.072  10.834  1.00  0.00    -0.248 NA
ATOM     54  C   UNL     1       0.048   1.024  12.825  1.00  0.00     0.031 C 
ATOM     55  C   UNL     1      -5.570   1.402  10.579  1.00  0.00     0.029 A 
ATOM     56  C   UNL     1      -4.192   1.355  10.695  1.00  0.00     0.049 A 
ATOM     57  H   UNL     1      -2.722   1.355   9.178  1.00  0.00     0.167 HD
ATOM     58  C   UNL     1      -2.046   1.172  11.908  1.00  0.00     0.074 A 
ATOM     59  C   UNL     1      -1.243   1.114  13.111  1.00  0.00     0.031 C 
ATOM     60  C   UNL     1      -3.393   1.304  11.891  1.00  0.00     0.037 A 
BRANCH  47  61
ATOM     61  C   UNL     1      -5.798   1.551   6.224  1.00  0.00     0.057 A 
ATOM     62  C   UNL     1      -6.321   0.457   5.528  1.00  0.00     0.134 A 
ATOM     63  C   UNL     1      -6.550   2.736   6.223  1.00  0.00     0.134 A 
ATOM     64  F   UNL     1      -5.652  -0.705   5.487  1.00  0.00    -0.206 F 
ATOM     65  C   UNL     1      -7.545   0.537   4.856  1.00  0.00     0.040 A 
ATOM     66  C   UNL     1      -7.783   2.822   5.574  1.00  0.00     0.040 A 
ATOM     67  F   UNL     1      -6.113   3.819   6.884  1.00  0.00    -0.206 F 
ATOM     68  C   UNL     1      -8.284   1.719   4.888  1.00  0.00     0.006 A 
ENDBRANCH  47  61
BRANCH  48  69
ATOM     69  C   UNL     1       2.609   0.848  11.444  1.00  0.00     0.057 A 
ATOM     70  C   UNL     1       2.996  -0.283  12.164  1.00  0.00     0.134 A 
ATOM     71  C   UNL     1       3.477   1.949  11.444  1.00  0.00     0.134 A 
ATOM     72  F   UNL     1       2.194  -1.356  12.220  1.00  0.00    -0.206 F 
ATOM     73  C   UNL     1       4.207  -0.323  12.857  1.00  0.00     0.040 A 
ATOM     74  C   UNL     1       4.705   1.911  12.102  1.00  0.00     0.040 A 
ATOM     75  F   UNL     1       3.162   3.062  10.764  1.00  0.00    -0.206 F 
ATOM     76  C   UNL     1       5.070   0.772  12.816  1.00  0.00     0.006 A 
ENDBRANCH  48  69
BRANCH  60  77
ATOM     77  C   UNL     1      -4.082   1.356  13.220  1.00  0.00     0.057 A 
ATOM     78  C   UNL     1      -4.020   2.490  14.039  1.00  0.00     0.134 A 
ATOM     79  C   UNL     1      -4.807   0.254  13.691  1.00  0.00     0.134 A 
ATOM     80  F   UNL     1      -3.323   3.569  13.654  1.00  0.00    -0.206 F 
ATOM     81  C   UNL     1      -4.634   2.517  15.293  1.00  0.00     0.040 A 
ATOM     82  C   UNL     1      -5.444   0.277  14.931  1.00  0.00     0.040 A 
ATOM     83  F   UNL     1      -4.905  -0.862  12.953  1.00  0.00    -0.206 F 
ATOM     84  C   UNL     1      -5.352   1.408  15.740  1.00  0.00     0.006 A 
ENDBRANCH  60  77
ENDBRANCH  34  35
ENDBRANCH  27  29
ENDBRANCH  26  27
ENDBRANCH  25  26
ENDBRANCH   1  25
TORSDOF 16
