REMARK SMILES Cc1cc(CS(=O)(=O)N[C@@H]2C=C[C@H](C(=O)OCCOC(=O)c3ccc(-c4c5nc(c(-c6c(F)cccc6F)c6ccc([nH]6)c(-c6c(F)cccc6F)c6nc(c(-c7c(F)cccc7F)c7ccc4[nH]7)C=C6)C=C5)cc3)C2)no1
REMARK SMILES IDX 17 1 16 2 14 3 15 4 13 5 10 6 11 7 76 8 12 9 9 10 6 12 7 13
REMARK SMILES IDX 8 14 5 15 4 16 1 17 2 18 3 19 78 20 77 21 18 22 19 23 20 24
REMARK SMILES IDX 21 25 22 26 23 27 75 28 24 29 74 30 25 31 26 32 27 33 68 34
REMARK SMILES IDX 28 35 73 36 67 37 69 38 29 39 72 40 66 41 65 42 30 44 56 45
REMARK SMILES IDX 39 46 55 47 40 48 43 49 54 50 70 51 41 52 42 53 53 55 71 56
REMARK SMILES IDX 44 57 31 58 32 59 37 60 33 61 34 62 36 63 38 64 35 65 57 66
REMARK SMILES IDX 58 67 63 68 59 69 60 70 62 71 64 72 61 73 45 74 46 75 51 76
REMARK SMILES IDX 47 77 48 78 50 79 52 80 49 81
REMARK H PARENT 9 11 69 43 43 54
REMARK Flexibility Score: inf
ROOT
ATOM      1  C   UNL     1       3.851   1.198   3.648  1.00  0.00     0.274 C 
ENDROOT
BRANCH   1   2
ATOM      2  O   UNL     1       2.429   1.323   3.800  1.00  0.00    -0.462 OA
BRANCH   2   3
ATOM      3  C   UNL     1       1.705   0.185   3.604  1.00  0.00     0.312 C 
ATOM      4  O   UNL     1       2.157  -0.862   3.160  1.00  0.00    -0.252 OA
BRANCH   3   5
ATOM      5  C   UNL     1       0.293   0.354   4.143  1.00  0.00     0.123 C 
ATOM      6  C   UNL     1      -1.675  -0.335   2.838  1.00  0.00     0.093 C 
ATOM      7  C   UNL     1      -1.496   1.147   2.863  1.00  0.00    -0.011 C 
ATOM      8  C   UNL     1      -0.609  -0.846   3.802  1.00  0.00     0.043 C 
ATOM      9  C   UNL     1      -0.425   1.525   3.561  1.00  0.00    -0.015 C 
BRANCH   6  10
ATOM     10  N   UNL     1      -1.454  -0.723   1.452  1.00  0.00    -0.208 NA
ATOM     11  H   UNL     1      -1.439   0.136   0.902  1.00  0.00     0.141 HD
BRANCH  10  12
ATOM     12  S   UNL     1      -2.537  -1.761   0.706  1.00  0.00     0.218 S 
ATOM     13  O   UNL     1      -2.748  -2.876   1.601  1.00  0.00    -0.212 OA
ATOM     14  O   UNL     1      -1.963  -1.988  -0.606  1.00  0.00    -0.212 OA
BRANCH  12  15
ATOM     15  C   UNL     1      -4.053  -0.787   0.469  1.00  0.00     0.213 C 
BRANCH  15  16
ATOM     16  C   UNL     1      -4.713  -0.383   1.735  1.00  0.00     0.100 A 
ATOM     17  C   UNL     1      -5.376   1.510   4.798  1.00  0.00     0.091 C 
ATOM     18  C   UNL     1      -5.256   0.684   3.583  1.00  0.00     0.133 A 
ATOM     19  C   UNL     1      -4.821   0.913   2.300  1.00  0.00     0.073 A 
ATOM     20  O   UNL     1      -5.562  -0.633   3.719  1.00  0.00    -0.361 OA
ATOM     21  N   UNL     1      -5.259  -1.298   2.546  1.00  0.00    -0.084 NA
ENDBRANCH  15  16
ENDBRANCH  12  15
ENDBRANCH  10  12
ENDBRANCH   6  10
ENDBRANCH   3   5
ENDBRANCH   2   3
ENDBRANCH   1   2
BRANCH   1  22
ATOM     22  C   UNL     1       4.525   1.085   5.019  1.00  0.00     0.275 C 
BRANCH  22  23
ATOM     23  O   UNL     1       4.191  -0.147   5.691  1.00  0.00    -0.458 OA
BRANCH  23  24
ATOM     24  C   UNL     1       3.115  -0.090   6.512  1.00  0.00     0.338 C 
ATOM     25  O   UNL     1       2.415   0.883   6.740  1.00  0.00    -0.246 OA
BRANCH  24  26
ATOM     26  C   UNL     1       2.790  -1.434   7.026  1.00  0.00     0.060 A 
ATOM     27  C   UNL     1       1.474  -1.891   6.893  1.00  0.00     0.016 A 
ATOM     28  C   UNL     1       3.735  -2.208   7.701  1.00  0.00     0.016 A 
ATOM     29  C   UNL     1       1.097  -3.121   7.420  1.00  0.00     0.010 A 
ATOM     30  C   UNL     1       3.353  -3.441   8.243  1.00  0.00     0.010 A 
ATOM     31  C   UNL     1       2.030  -3.899   8.111  1.00  0.00    -0.014 A 
BRANCH  31  32
ATOM     32  C   UNL     1       1.593  -5.165   8.742  1.00  0.00     0.031 A 
ATOM     33  C   UNL     1       1.334  -5.209  10.219  1.00  0.00     0.074 A 
ATOM     34  C   UNL     1       1.390  -6.257   7.984  1.00  0.00     0.049 A 
ATOM     35  N   UNL     1       1.002  -6.227  10.971  1.00  0.00    -0.248 NA
ATOM     36  C   UNL     1       1.460  -3.937  10.946  1.00  0.00     0.031 C 
ATOM     37  C   UNL     1       1.546  -6.316   6.531  1.00  0.00     0.029 A 
ATOM     38  N   UNL     1       1.006  -7.526   8.334  1.00  0.00    -0.354 N 
ATOM     39  C   UNL     1       0.892  -5.724  12.260  1.00  0.00     0.074 A 
ATOM     40  C   UNL     1       1.207  -4.312  12.192  1.00  0.00     0.031 C 
ATOM     41  C   UNL     1       1.264  -7.561   6.113  1.00  0.00     0.029 A 
ATOM     42  C   UNL     1       0.951  -8.393   7.271  1.00  0.00     0.049 A 
ATOM     43  H   UNL     1       0.791  -7.789   9.258  1.00  0.00     0.167 HD
ATOM     44  C   UNL     1       0.557  -6.381  13.395  1.00  0.00     0.037 A 
ATOM     45  C   UNL     1       0.703  -9.716   7.242  1.00  0.00     0.037 A 
ATOM     46  C   UNL     1       0.238  -7.784  13.456  1.00  0.00     0.049 A 
ATOM     47  C   UNL     1       0.409 -10.438   8.528  1.00  0.00     0.074 A 
ATOM     48  C   UNL     1      -0.116  -8.541  14.559  1.00  0.00     0.029 A 
ATOM     49  N   UNL     1       0.238  -8.641  12.366  1.00  0.00    -0.354 N 
ATOM     50  N   UNL     1       0.319  -9.957   9.744  1.00  0.00    -0.248 NA
ATOM     51  C   UNL     1       0.191 -11.889   8.438  1.00  0.00     0.031 C 
ATOM     52  C   UNL     1      -0.290  -9.866  14.143  1.00  0.00     0.029 A 
ATOM     53  C   UNL     1      -0.087  -9.925  12.774  1.00  0.00     0.049 A 
ATOM     54  H   UNL     1       0.439  -8.377  11.439  1.00  0.00     0.167 HD
ATOM     55  C   UNL     1       0.011 -11.038  10.560  1.00  0.00     0.074 A 
ATOM     56  C   UNL     1      -0.081 -12.199   9.698  1.00  0.00     0.031 C 
ATOM     57  C   UNL     1      -0.178 -11.067  11.901  1.00  0.00     0.037 A 
BRANCH  44  58
ATOM     58  C   UNL     1       0.552  -5.594  14.671  1.00  0.00     0.057 A 
ATOM     59  C   UNL     1      -0.457  -4.670  14.969  1.00  0.00     0.134 A 
ATOM     60  C   UNL     1       1.559  -5.784  15.626  1.00  0.00     0.134 A 
ATOM     61  F   UNL     1      -1.441  -4.431  14.089  1.00  0.00    -0.206 F 
ATOM     62  C   UNL     1      -0.454  -3.949  16.164  1.00  0.00     0.040 A 
ATOM     63  C   UNL     1       1.561  -5.084  16.833  1.00  0.00     0.040 A 
ATOM     64  F   UNL     1       2.554  -6.656  15.403  1.00  0.00    -0.206 F 
ATOM     65  C   UNL     1       0.554  -4.159  17.103  1.00  0.00     0.006 A 
ENDBRANCH  44  58
BRANCH  45  66
ATOM     66  C   UNL     1       0.748 -10.450   5.954  1.00  0.00     0.057 A 
ATOM     67  C   UNL     1      -0.413 -10.973   5.374  1.00  0.00     0.134 A 
ATOM     68  C   UNL     1       1.958 -10.659   5.279  1.00  0.00     0.134 A 
ATOM     69  F   UNL     1      -1.597 -10.828   5.987  1.00  0.00    -0.206 F 
ATOM     70  C   UNL     1      -0.373 -11.687   4.175  1.00  0.00     0.040 A 
ATOM     71  C   UNL     1       2.009 -11.350   4.068  1.00  0.00     0.040 A 
ATOM     72  F   UNL     1       3.106 -10.186   5.785  1.00  0.00    -0.206 F 
ATOM     73  C   UNL     1       0.841 -11.872   3.516  1.00  0.00     0.006 A 
ENDBRANCH  45  66
BRANCH  57  74
ATOM     74  C   UNL     1      -0.533 -12.390  12.513  1.00  0.00     0.057 A 
ATOM     75  C   UNL     1       0.417 -13.406  12.675  1.00  0.00     0.134 A 
ATOM     76  C   UNL     1      -1.831 -12.635  12.979  1.00  0.00     0.134 A 
ATOM     77  F   UNL     1       1.674 -13.238  12.238  1.00  0.00    -0.206 F 
ATOM     78  C   UNL     1       0.083 -14.628  13.261  1.00  0.00     0.040 A 
ATOM     79  C   UNL     1      -2.171 -13.844  13.587  1.00  0.00     0.040 A 
ATOM     80  F   UNL     1      -2.785 -11.699  12.861  1.00  0.00    -0.206 F 
ATOM     81  C   UNL     1      -1.214 -14.847  13.724  1.00  0.00     0.006 A 
ENDBRANCH  57  74
ENDBRANCH  31  32
ENDBRANCH  24  26
ENDBRANCH  23  24
ENDBRANCH  22  23
ENDBRANCH   1  22
TORSDOF 15
