REMARK SMILES O=C(OCCOC(=O)c1ccc(-c2c3nc(c(-c4c(F)cccc4F)c4ccc([nH]4)c(-c4c(F)cccc4F)c4nc(c(-c5c(F)cccc5F)c5ccc2[nH]5)C=C4)C=C3)cc1)C1=Cc2cc(Cl)cc(-c3ccc(CO)cc3)c2O[C@@H]1C(F)(F)F
REMARK SMILES IDX 4 1 3 2 2 3 1 4 63 5 64 6 81 7 65 8 80 9 66 10 79 11 67 12
REMARK SMILES IDX 70 13 68 14 69 15 82 16 83 17 84 18 85 19 71 20 72 21 78 22
REMARK SMILES IDX 73 23 77 24 74 25 75 26 76 27 5 29 6 30 7 31 8 32 9 33 10 34
REMARK SMILES IDX 62 35 11 36 61 37 12 38 13 39 14 40 55 41 15 42 60 43 54 44
REMARK SMILES IDX 56 45 16 46 59 47 53 48 52 49 17 51 43 52 26 53 42 54 27 55
REMARK SMILES IDX 30 56 41 57 57 58 28 59 29 60 40 62 58 63 31 64 18 65 19 66
REMARK SMILES IDX 24 67 20 68 21 69 23 70 25 71 22 72 44 73 45 74 50 75 46 76
REMARK SMILES IDX 47 77 49 78 51 79 48 80 32 81 33 82 38 83 34 84 35 85 37 86
REMARK SMILES IDX 39 87 36 88
REMARK H PARENT 76 28 56 50 30 61
REMARK Flexibility Score: inf
ROOT
ATOM      1  C   UNL     1       3.969   1.313  -0.146  1.00  0.00     0.275 C 
ENDROOT
BRANCH   1   2
ATOM      2  O   UNL     1       3.182   2.254  -1.127  1.00  0.00    -0.459 OA
BRANCH   2   3
ATOM      3  C   UNL     1       3.410   1.987  -2.417  1.00  0.00     0.338 C 
ATOM      4  O   UNL     1       2.926   2.445  -3.420  1.00  0.00    -0.246 OA
BRANCH   3   5
ATOM      5  C   UNL     1       4.167   0.792  -2.159  1.00  0.00     0.087 C 
ATOM      6  C   UNL     1       5.535   1.126  -1.751  1.00  0.00     0.027 C 
ATOM      7  C   UNL     1       2.854  -0.091  -1.054  1.00  0.00     0.316 C 
ATOM      8  C   UNL     1       6.151   0.873  -0.079  1.00  0.00     0.019 A 
ATOM      9  O   UNL     1       3.476  -0.306   0.764  1.00  0.00    -0.475 OA
ATOM     10  C   UNL     1       7.413   1.336   0.176  1.00  0.00     0.032 A 
ATOM     11  C   UNL     1       5.141   0.291   1.222  1.00  0.00     0.135 A 
ATOM     12  C   UNL     1       7.787   1.292   1.516  1.00  0.00     0.042 A 
ATOM     13  C   UNL     1       5.581   0.351   2.526  1.00  0.00     0.026 A 
ATOM     14  Cl  UNL     1       9.365   1.884   1.916  1.00  0.00    -0.084 Cl
ATOM     15  C   UNL     1       6.936   0.839   2.598  1.00  0.00     0.033 A 
BRANCH   7  16
ATOM     16  C   UNL     1       2.371  -1.089  -2.175  1.00  0.00     0.430 C 
ATOM     17  F   UNL     1       1.250  -1.731  -1.855  1.00  0.00    -0.167 F 
ATOM     18  F   UNL     1       2.024  -0.350  -3.273  1.00  0.00    -0.167 F 
ATOM     19  F   UNL     1       3.299  -1.946  -2.656  1.00  0.00    -0.167 F 
ENDBRANCH   7  16
BRANCH  13  20
ATOM     20  C   UNL     1       4.897   0.162   3.799  1.00  0.00    -0.015 A 
ATOM     21  C   UNL     1       4.742   1.281   4.646  1.00  0.00     0.009 A 
ATOM     22  C   UNL     1       4.637  -1.103   4.329  1.00  0.00     0.009 A 
ATOM     23  C   UNL     1       4.375   1.140   5.985  1.00  0.00     0.007 A 
ATOM     24  C   UNL     1       4.266  -1.246   5.676  1.00  0.00     0.007 A 
ATOM     25  C   UNL     1       4.143  -0.130   6.516  1.00  0.00    -0.023 A 
BRANCH  25  26
ATOM     26  C   UNL     1       3.791  -0.274   7.973  1.00  0.00     0.191 C 
BRANCH  26  27
ATOM     27  O   UNL     1       4.881   0.119   8.801  1.00  0.00    -0.392 OA
ATOM     28  H   UNL     1       5.647  -0.447   8.617  1.00  0.00     0.211 HD
ENDBRANCH  26  27
ENDBRANCH  25  26
ENDBRANCH  13  20
ENDBRANCH   3   5
ENDBRANCH   2   3
ENDBRANCH   1   2
BRANCH   1  29
ATOM     29  C   UNL     1       4.714  -0.662  -0.596  1.00  0.00     0.275 C 
BRANCH  29  30
ATOM     30  O   UNL     1       3.834  -2.126  -0.442  1.00  0.00    -0.458 OA
BRANCH  30  31
ATOM     31  C   UNL     1       3.055  -2.842   0.428  1.00  0.00     0.338 C 
ATOM     32  O   UNL     1       2.726  -2.596   1.571  1.00  0.00    -0.246 OA
BRANCH  31  33
ATOM     33  C   UNL     1       2.441  -3.922  -0.401  1.00  0.00     0.060 A 
ATOM     34  C   UNL     1       1.084  -3.845  -0.759  1.00  0.00     0.016 A 
ATOM     35  C   UNL     1       3.297  -4.763  -1.104  1.00  0.00     0.016 A 
ATOM     36  C   UNL     1       0.671  -4.362  -2.001  1.00  0.00     0.010 A 
ATOM     37  C   UNL     1       2.868  -5.325  -2.302  1.00  0.00     0.010 A 
ATOM     38  C   UNL     1       1.587  -5.048  -2.810  1.00  0.00    -0.014 A 
BRANCH  38  39
ATOM     39  C   UNL     1       1.205  -5.709  -4.082  1.00  0.00     0.031 A 
ATOM     40  C   UNL     1       0.676  -7.100  -3.951  1.00  0.00     0.074 A 
ATOM     41  C   UNL     1       1.507  -5.203  -5.296  1.00  0.00     0.049 A 
ATOM     42  N   UNL     1       0.556  -8.038  -4.849  1.00  0.00    -0.248 NA
ATOM     43  C   UNL     1       0.302  -7.503  -2.586  1.00  0.00     0.031 C 
ATOM     44  C   UNL     1       2.042  -3.868  -5.563  1.00  0.00     0.029 A 
ATOM     45  N   UNL     1       1.447  -5.788  -6.542  1.00  0.00    -0.354 N 
ATOM     46  C   UNL     1       0.138  -9.156  -4.145  1.00  0.00     0.074 A 
ATOM     47  C   UNL     1       0.073  -8.790  -2.749  1.00  0.00     0.031 C 
ATOM     48  C   UNL     1       2.288  -3.748  -6.883  1.00  0.00     0.029 A 
ATOM     49  C   UNL     1       1.962  -5.007  -7.553  1.00  0.00     0.049 A 
ATOM     50  H   UNL     1       1.071  -6.685  -6.696  1.00  0.00     0.167 HD
ATOM     51  C   UNL     1      -0.166 -10.386  -4.614  1.00  0.00     0.037 A 
ATOM     52  C   UNL     1       2.167  -5.295  -8.857  1.00  0.00     0.037 A 
ATOM     53  C   UNL     1      -0.078 -10.754  -5.995  1.00  0.00     0.049 A 
ATOM     54  C   UNL     1       1.820  -6.676  -9.371  1.00  0.00     0.074 A 
ATOM     55  C   UNL     1      -0.383 -11.963  -6.587  1.00  0.00     0.029 A 
ATOM     56  N   UNL     1       0.364  -9.906  -7.000  1.00  0.00    -0.354 N 
ATOM     57  N   UNL     1       1.359  -7.713  -8.711  1.00  0.00    -0.248 NA
ATOM     58  C   UNL     1       2.024  -6.931 -10.807  1.00  0.00     0.031 C 
ATOM     59  C   UNL     1      -0.091 -11.858  -7.950  1.00  0.00     0.029 A 
ATOM     60  C   UNL     1       0.348 -10.568  -8.212  1.00  0.00     0.049 A 
ATOM     61  H   UNL     1       0.647  -8.972  -6.869  1.00  0.00     0.167 HD
ATOM     62  C   UNL     1       1.183  -8.723  -9.653  1.00  0.00     0.074 A 
ATOM     63  C   UNL     1       1.589  -8.178 -10.931  1.00  0.00     0.031 C 
ATOM     64  C   UNL     1       0.724  -9.987  -9.477  1.00  0.00     0.037 A 
BRANCH  51  65
ATOM     65  C   UNL     1      -0.569 -11.392  -3.581  1.00  0.00     0.057 A 
ATOM     66  C   UNL     1      -1.758 -11.256  -2.849  1.00  0.00     0.134 A 
ATOM     67  C   UNL     1       0.304 -12.423  -3.218  1.00  0.00     0.134 A 
ATOM     68  F   UNL     1      -2.616 -10.261  -3.124  1.00  0.00    -0.206 F 
ATOM     69  C   UNL     1      -2.028 -12.063  -1.744  1.00  0.00     0.040 A 
ATOM     70  C   UNL     1       0.025 -13.261  -2.138  1.00  0.00     0.040 A 
ATOM     71  F   UNL     1       1.461 -12.601  -3.873  1.00  0.00    -0.206 F 
ATOM     72  C   UNL     1      -1.132 -13.068  -1.385  1.00  0.00     0.006 A 
ENDBRANCH  51  65
BRANCH  52  73
ATOM     73  C   UNL     1       2.724  -4.275  -9.792  1.00  0.00     0.057 A 
ATOM     74  C   UNL     1       1.929  -3.708 -10.798  1.00  0.00     0.134 A 
ATOM     75  C   UNL     1       4.067  -3.882  -9.746  1.00  0.00     0.134 A 
ATOM     76  F   UNL     1       0.643  -4.068 -10.922  1.00  0.00    -0.206 F 
ATOM     77  C   UNL     1       2.449  -2.806 -11.730  1.00  0.00     0.040 A 
ATOM     78  C   UNL     1       4.596  -2.964 -10.660  1.00  0.00     0.040 A 
ATOM     79  F   UNL     1       4.891  -4.392  -8.819  1.00  0.00    -0.206 F 
ATOM     80  C   UNL     1       3.787  -2.428 -11.660  1.00  0.00     0.006 A 
ENDBRANCH  52  73
BRANCH  64  81
ATOM     81  C   UNL     1       0.564 -10.859 -10.688  1.00  0.00     0.057 A 
ATOM     82  C   UNL     1       1.657 -11.460 -11.320  1.00  0.00     0.134 A 
ATOM     83  C   UNL     1      -0.719 -11.204 -11.137  1.00  0.00     0.134 A 
ATOM     84  F   UNL     1       2.909 -11.167 -10.941  1.00  0.00    -0.206 F 
ATOM     85  C   UNL     1       1.480 -12.379 -12.357  1.00  0.00     0.040 A 
ATOM     86  C   UNL     1      -0.908 -12.138 -12.155  1.00  0.00     0.040 A 
ATOM     87  F   UNL     1      -1.807 -10.671 -10.562  1.00  0.00    -0.206 F 
ATOM     88  C   UNL     1       0.194 -12.731 -12.766  1.00  0.00     0.006 A 
ENDBRANCH  64  81
ENDBRANCH  38  39
ENDBRANCH  31  33
ENDBRANCH  30  31
ENDBRANCH  29  30
ENDBRANCH   1  29
TORSDOF 15
