REMARK SMILES CC[C@@H](C)[C@H](NC(=O)[C@H](C)N1C(=O)N2CCC3=c4cc(OC)ccc4=N[C@@H]3[C@@]2(C)C1=O)C(=O)OCCOC(=O)c1ccc(-c2c3nc(c(-c4c(F)cccc4F)c4ccc([nH]4)c(-c4c(F)cccc4F)c4nc(c(-c5c(F)cccc5F)c5ccc2[nH]5)C=C4)C=C3)cc1
REMARK SMILES IDX 35 1 34 2 32 3 33 4 5 5 3 6 4 7 2 8 1 9 6 10 7 11 8 13 9 14
REMARK SMILES IDX 10 15 11 16 12 17 30 18 14 19 13 20 28 21 31 22 15 23 27 24
REMARK SMILES IDX 29 25 16 26 17 27 26 28 18 29 25 30 19 31 24 32 20 33 23 34
REMARK SMILES IDX 21 35 22 36 36 37 37 38 38 39 39 40 40 41 41 42 93 43 42 44
REMARK SMILES IDX 92 45 43 46 44 47 45 48 86 49 46 50 91 51 85 52 87 53 47 54
REMARK SMILES IDX 90 55 84 56 83 57 48 59 74 60 57 61 73 62 58 63 61 64 72 65
REMARK SMILES IDX 88 66 59 67 60 68 71 70 89 71 62 72 49 73 50 74 55 75 51 76
REMARK SMILES IDX 52 77 54 78 56 79 53 80 75 81 76 82 81 83 77 84 78 85 80 86
REMARK SMILES IDX 82 87 79 88 63 89 64 90 69 91 65 92 66 93 68 94 70 95 67 96
REMARK H PARENT 6 12 87 58 61 69
REMARK Flexibility Score: inf
ROOT
ATOM      1  C   UNL     1       1.283  -0.688   2.078  1.00  0.00     0.274 C 
ENDROOT
BRANCH   1   2
ATOM      2  O   UNL     1      -0.029   0.097   2.544  1.00  0.00    -0.461 OA
BRANCH   2   3
ATOM      3  C   UNL     1      -0.052   1.103   3.522  1.00  0.00     0.329 C 
ATOM      4  O   UNL     1       0.701   1.039   4.496  1.00  0.00    -0.250 OA
BRANCH   3   5
ATOM      5  C   UNL     1      -0.908   2.520   3.192  1.00  0.00     0.195 C 
BRANCH   5   6
ATOM      6  C   UNL     1      -1.572   3.079   4.519  1.00  0.00     0.019 C 
ATOM      7  C   UNL     1      -2.210   1.909   5.266  1.00  0.00     0.010 C 
BRANCH   6   8
ATOM      8  C   UNL     1      -2.602   4.243   4.337  1.00  0.00     0.002 C 
ATOM      9  C   UNL     1      -3.199   4.785   5.636  1.00  0.00     0.004 C 
ENDBRANCH   6   8
ENDBRANCH   5   6
BRANCH   5  10
ATOM     10  N   UNL     1      -1.861   2.687   2.082  1.00  0.00    -0.341 N 
ATOM     11  C   UNL     1      -2.126   3.829   1.367  1.00  0.00     0.243 C 
ATOM     12  H   UNL     1      -2.368   1.885   1.822  1.00  0.00     0.164 HD
ATOM     13  O   UNL     1      -3.329   3.931   1.047  1.00  0.00    -0.273 OA
BRANCH  11  14
ATOM     14  C   UNL     1      -1.127   4.852   0.691  1.00  0.00     0.181 C 
ATOM     15  C   UNL     1      -1.356   4.444  -0.886  1.00  0.00     0.042 C 
BRANCH  14  16
ATOM     16  N   UNL     1       0.349   5.312   0.943  1.00  0.00    -0.250 N 
ATOM     17  C   UNL     1       1.712   4.914   2.150  1.00  0.00     0.328 C 
ATOM     18  C   UNL     1       0.835   6.202  -0.580  1.00  0.00     0.259 C 
ATOM     19  N   UNL     1       3.306   5.677   1.531  1.00  0.00    -0.307 N 
ATOM     20  O   UNL     1       1.573   4.443   3.273  1.00  0.00    -0.248 OA
ATOM     21  C   UNL     1       2.976   6.146  -0.212  1.00  0.00     0.147 C 
ATOM     22  O   UNL     1       0.132   6.441  -1.550  1.00  0.00    -0.271 OA
ATOM     23  C   UNL     1       5.126   5.485   1.589  1.00  0.00     0.127 C 
ATOM     24  C   UNL     1       3.821   4.324   0.025  1.00  0.00     0.168 C 
ATOM     25  C   UNL     1       2.192   7.604  -1.319  1.00  0.00     0.048 C 
ATOM     26  C   UNL     1       5.883   4.655  -0.018  1.00  0.00     0.055 C 
ATOM     27  C   UNL     1       4.668   3.586  -0.906  1.00  0.00    -0.032 C 
ATOM     28  N   UNL     1       3.485   3.498   1.481  1.00  0.00    -0.274 NA
ATOM     29  C   UNL     1       3.788   2.460  -0.870  1.00  0.00     0.005 A 
ATOM     30  C   UNL     1       3.380   2.339   0.977  1.00  0.00     0.066 A 
ATOM     31  C   UNL     1       2.268   2.039  -1.937  1.00  0.00     0.056 A 
ATOM     32  C   UNL     1       1.722   1.668   1.596  1.00  0.00     0.032 A 
ATOM     33  C   UNL     1       0.854   1.436  -1.367  1.00  0.00     0.119 A 
ATOM     34  C   UNL     1       0.566   1.204   0.490  1.00  0.00     0.048 A 
BRANCH  33  35
ATOM     35  O   UNL     1      -0.253   1.131  -2.138  1.00  0.00    -0.497 OA
ATOM     36  C   UNL     1      -1.531   0.940  -1.504  1.00  0.00     0.278 C 
ENDBRANCH  33  35
ENDBRANCH  14  16
ENDBRANCH  11  14
ENDBRANCH   5  10
ENDBRANCH   3   5
ENDBRANCH   2   3
ENDBRANCH   1   2
BRANCH   1  37
ATOM     37  C   UNL     1       2.167  -0.320   0.516  1.00  0.00     0.275 C 
BRANCH  37  38
ATOM     38  O   UNL     1       2.343   1.383  -0.139  1.00  0.00    -0.458 OA
BRANCH  38  39
ATOM     39  C   UNL     1       1.528   3.098  -0.021  1.00  0.00     0.338 C 
ATOM     40  O   UNL     1       0.385   3.195   0.457  1.00  0.00    -0.246 OA
BRANCH  39  41
ATOM     41  C   UNL     1       1.906   4.816  -0.200  1.00  0.00     0.060 A 
ATOM     42  C   UNL     1       2.867   5.119  -1.786  1.00  0.00     0.016 A 
ATOM     43  C   UNL     1       1.776   6.567   0.947  1.00  0.00     0.016 A 
ATOM     44  C   UNL     1       4.156   6.427  -1.742  1.00  0.00     0.010 A 
ATOM     45  C   UNL     1       2.995   7.866   0.806  1.00  0.00     0.010 A 
ATOM     46  C   UNL     1       4.284   7.666  -0.399  1.00  0.00    -0.014 A 
BRANCH  46  47
ATOM     47  C   UNL     1       5.246   8.768  -0.258  1.00  0.00     0.031 A 
ATOM     48  C   UNL     1       5.833   9.125   1.120  1.00  0.00     0.074 A 
ATOM     49  C   UNL     1       5.325   9.557  -1.341  1.00  0.00     0.049 A 
ATOM     50  N   UNL     1       6.842   9.913   1.382  1.00  0.00    -0.248 NA
ATOM     51  C   UNL     1       5.316   8.492   2.361  1.00  0.00     0.031 C 
ATOM     52  C   UNL     1       4.632   9.339  -2.620  1.00  0.00     0.029 A 
ATOM     53  N   UNL     1       5.923  10.761  -1.517  1.00  0.00    -0.354 N 
ATOM     54  C   UNL     1       7.141   9.735   2.738  1.00  0.00     0.074 A 
ATOM     55  C   UNL     1       6.211   8.798   3.282  1.00  0.00     0.031 C 
ATOM     56  C   UNL     1       4.764  10.403  -3.407  1.00  0.00     0.029 A 
ATOM     57  C   UNL     1       5.586  11.355  -2.708  1.00  0.00     0.049 A 
ATOM     58  H   UNL     1       6.534  11.166  -0.860  1.00  0.00     0.167 HD
ATOM     59  C   UNL     1       8.088  10.353   3.478  1.00  0.00     0.037 A 
ATOM     60  C   UNL     1       5.907  12.562  -3.181  1.00  0.00     0.037 A 
ATOM     61  C   UNL     1       8.707  11.540   2.963  1.00  0.00     0.049 A 
ATOM     62  C   UNL     1       6.861  13.312  -2.325  1.00  0.00     0.074 A 
ATOM     63  C   UNL     1       9.604  12.400   3.554  1.00  0.00     0.029 A 
ATOM     64  N   UNL     1       8.369  12.085   1.721  1.00  0.00    -0.354 N 
ATOM     65  N   UNL     1       7.284  13.002  -1.117  1.00  0.00    -0.248 NA
ATOM     66  C   UNL     1       7.431  14.520  -2.897  1.00  0.00     0.031 C 
ATOM     67  C   UNL     1       9.738  13.506   2.702  1.00  0.00     0.029 A 
ATOM     68  C   UNL     1       8.995  13.295   1.542  1.00  0.00     0.049 A 
ATOM     69  H   UNL     1       7.768  11.661   1.067  1.00  0.00     0.167 HD
ATOM     70  C   UNL     1       8.197  13.973  -0.773  1.00  0.00     0.074 A 
ATOM     71  C   UNL     1       8.270  14.865  -1.930  1.00  0.00     0.031 C 
ATOM     72  C   UNL     1       8.918  14.133   0.367  1.00  0.00     0.037 A 
BRANCH  59  73
ATOM     73  C   UNL     1       8.340   9.833   4.876  1.00  0.00     0.057 A 
ATOM     74  C   UNL     1       8.004  10.570   6.019  1.00  0.00     0.134 A 
ATOM     75  C   UNL     1       8.849   8.538   5.095  1.00  0.00     0.134 A 
ATOM     76  F   UNL     1       7.489  11.803   5.906  1.00  0.00    -0.206 F 
ATOM     77  C   UNL     1       8.152  10.045   7.310  1.00  0.00     0.040 A 
ATOM     78  C   UNL     1       8.985   7.995   6.380  1.00  0.00     0.040 A 
ATOM     79  F   UNL     1       9.170   7.751   4.056  1.00  0.00    -0.206 F 
ATOM     80  C   UNL     1       8.633   8.750   7.494  1.00  0.00     0.006 A 
ENDBRANCH  59  73
BRANCH  60  81
ATOM     81  C   UNL     1       5.393  12.960  -4.513  1.00  0.00     0.057 A 
ATOM     82  C   UNL     1       4.023  13.209  -4.705  1.00  0.00     0.134 A 
ATOM     83  C   UNL     1       6.188  12.854  -5.657  1.00  0.00     0.134 A 
ATOM     84  F   UNL     1       3.189  13.233  -3.654  1.00  0.00    -0.206 F 
ATOM     85  C   UNL     1       3.467  13.328  -5.980  1.00  0.00     0.040 A 
ATOM     86  C   UNL     1       5.649  12.994  -6.940  1.00  0.00     0.040 A 
ATOM     87  F   UNL     1       7.490  12.554  -5.547  1.00  0.00    -0.206 F 
ATOM     88  C   UNL     1       4.283  13.223  -7.104  1.00  0.00     0.006 A 
ENDBRANCH  60  81
BRANCH  72  89
ATOM     89  C   UNL     1       9.791  15.335   0.361  1.00  0.00     0.057 A 
ATOM     90  C   UNL     1      11.175  15.186   0.247  1.00  0.00     0.134 A 
ATOM     91  C   UNL     1       9.252  16.624   0.426  1.00  0.00     0.134 A 
ATOM     92  F   UNL     1      11.731  13.966   0.193  1.00  0.00    -0.206 F 
ATOM     93  C   UNL     1      12.005  16.296   0.179  1.00  0.00     0.040 A 
ATOM     94  C   UNL     1      10.069  17.740   0.310  1.00  0.00     0.040 A 
ATOM     95  F   UNL     1       7.925  16.805   0.514  1.00  0.00    -0.206 F 
ATOM     96  C   UNL     1      11.449  17.576   0.190  1.00  0.00     0.006 A 
ENDBRANCH  72  89
ENDBRANCH  46  47
ENDBRANCH  39  41
ENDBRANCH  38  39
ENDBRANCH  37  38
ENDBRANCH   1  37
TORSDOF 17
