REMARK SMILES C[C@H](Oc1ccc(/C=C2/SC(=S)N(c3ccc(F)c(Cl)c3)C2=O)cc1)C(=O)OCCOC(=O)c1ccc(-c2c3nc(c(-c4c(F)cccc4F)c4ccc([nH]4)c(-c4c(F)cccc4F)c4nc(c(-c5c(F)cccc5F)c5ccc2[nH]5)C=C4)C=C3)cc1
REMARK SMILES IDX 29 1 28 2 26 3 27 4 2 5 1 6 3 7 4 8 5 9 25 10 6 11 24 12
REMARK SMILES IDX 7 13 8 14 9 15 10 16 22 17 11 18 13 19 23 20 12 21 14 22
REMARK SMILES IDX 15 23 21 24 16 25 19 26 17 27 20 28 18 29 30 30 31 31 32 32
REMARK SMILES IDX 33 33 34 34 35 35 87 36 36 37 86 38 37 39 38 40 39 41 80 42
REMARK SMILES IDX 40 43 85 44 79 45 81 46 41 47 84 48 78 49 77 50 42 52 68 53
REMARK SMILES IDX 51 54 67 55 52 56 55 57 66 58 82 59 53 60 54 61 65 63 83 64
REMARK SMILES IDX 56 65 43 66 44 67 49 68 45 69 46 70 48 71 50 72 47 73 69 74
REMARK SMILES IDX 70 75 75 76 71 77 72 78 74 79 76 80 73 81 57 82 58 83 63 84
REMARK SMILES IDX 59 85 60 86 62 87 64 88 61 89
REMARK H PARENT 81 51 55 62
REMARK Flexibility Score: inf
ROOT
ATOM      1  C   UNL     1      -3.049  -0.015   1.099  1.00  0.00     0.274 C 
ENDROOT
BRANCH   1   2
ATOM      2  O   UNL     1      -1.623   0.148   1.217  1.00  0.00    -0.459 OA
BRANCH   2   3
ATOM      3  C   UNL     1      -0.921  -0.906   1.723  1.00  0.00     0.347 C 
ATOM      4  O   UNL     1      -1.417  -1.971   2.078  1.00  0.00    -0.248 OA
BRANCH   3   5
ATOM      5  C   UNL     1       0.566  -0.579   1.894  1.00  0.00     0.279 C 
ATOM      6  C   UNL     1       0.698   0.170   3.221  1.00  0.00     0.066 C 
BRANCH   5   7
ATOM      7  O   UNL     1       0.992   0.133   0.734  1.00  0.00    -0.479 OA
BRANCH   7   8
ATOM      8  C   UNL     1       2.243   0.658   0.634  1.00  0.00     0.120 A 
ATOM      9  C   UNL     1       3.306   0.459   1.508  1.00  0.00     0.047 A 
ATOM     10  C   UNL     1       2.414   1.512  -0.457  1.00  0.00     0.047 A 
ATOM     11  C   UNL     1       4.469   1.233   1.389  1.00  0.00     0.012 A 
ATOM     12  C   UNL     1       3.586   2.254  -0.604  1.00  0.00     0.012 A 
ATOM     13  C   UNL     1       4.588   2.181   0.368  1.00  0.00    -0.024 A 
BRANCH  13  14
ATOM     14  C   UNL     1       5.731   3.101   0.353  1.00  0.00     0.029 C 
ATOM     15  C   UNL     1       5.643   4.441   0.402  1.00  0.00     0.081 C 
ATOM     16  S   UNL     1       7.021   5.467   0.302  1.00  0.00    -0.054 SA
ATOM     17  C   UNL     1       4.403   5.275   0.490  1.00  0.00     0.270 C 
ATOM     18  C   UNL     1       6.048   6.935   0.192  1.00  0.00     0.152 C 
ATOM     19  N   UNL     1       4.699   6.611   0.221  1.00  0.00    -0.261 N 
ATOM     20  O   UNL     1       3.301   4.812   0.749  1.00  0.00    -0.268 OA
ATOM     21  S   UNL     1       6.784   8.438   0.174  1.00  0.00    -0.051 S 
BRANCH  19  22
ATOM     22  C   UNL     1       3.628   7.535  -0.022  1.00  0.00     0.052 A 
ATOM     23  C   UNL     1       2.450   7.502   0.745  1.00  0.00     0.030 A 
ATOM     24  C   UNL     1       3.686   8.427  -1.107  1.00  0.00     0.050 A 
ATOM     25  C   UNL     1       1.369   8.336   0.447  1.00  0.00     0.043 A 
ATOM     26  C   UNL     1       2.600   9.255  -1.410  1.00  0.00     0.078 A 
ATOM     27  C   UNL     1       1.448   9.207  -0.632  1.00  0.00     0.141 A 
ATOM     28  Cl  UNL     1       2.692  10.301  -2.775  1.00  0.00    -0.081 Cl
ATOM     29  F   UNL     1       0.392   9.982  -0.917  1.00  0.00    -0.205 F 
ENDBRANCH  19  22
ENDBRANCH  13  14
ENDBRANCH   7   8
ENDBRANCH   5   7
ENDBRANCH   3   5
ENDBRANCH   2   3
ENDBRANCH   1   2
BRANCH   1  30
ATOM     30  C   UNL     1      -3.469  -0.420  -0.316  1.00  0.00     0.275 C 
BRANCH  30  31
ATOM     31  O   UNL     1      -3.037  -1.756  -0.628  1.00  0.00    -0.458 OA
BRANCH  31  32
ATOM     32  C   UNL     1      -1.843  -1.837  -1.262  1.00  0.00     0.338 C 
ATOM     33  O   UNL     1      -1.154  -0.916  -1.664  1.00  0.00    -0.246 OA
BRANCH  32  34
ATOM     34  C   UNL     1      -1.398  -3.240  -1.283  1.00  0.00     0.060 A 
ATOM     35  C   UNL     1      -0.139  -3.533  -0.748  1.00  0.00     0.016 A 
ATOM     36  C   UNL     1      -2.178  -4.243  -1.861  1.00  0.00     0.016 A 
ATOM     37  C   UNL     1       0.344  -4.838  -0.784  1.00  0.00     0.010 A 
ATOM     38  C   UNL     1      -1.686  -5.551  -1.908  1.00  0.00     0.010 A 
ATOM     39  C   UNL     1      -0.420  -5.853  -1.377  1.00  0.00    -0.014 A 
BRANCH  39  40
ATOM     40  C   UNL     1       0.136  -7.221  -1.487  1.00  0.00     0.031 A 
ATOM     41  C   UNL     1       0.720  -7.684  -2.789  1.00  0.00     0.074 A 
ATOM     42  C   UNL     1       0.132  -8.035  -0.417  1.00  0.00     0.049 A 
ATOM     43  N   UNL     1       1.209  -8.856  -3.106  1.00  0.00    -0.248 NA
ATOM     44  C   UNL     1       0.760  -6.698  -3.880  1.00  0.00     0.031 C 
ATOM     45  C   UNL     1      -0.376  -7.684   0.909  1.00  0.00     0.029 A 
ATOM     46  N   UNL     1       0.567  -9.329  -0.279  1.00  0.00    -0.354 N 
ATOM     47  C   UNL     1       1.606  -8.752  -4.433  1.00  0.00     0.074 A 
ATOM     48  C   UNL     1       1.286  -7.409  -4.867  1.00  0.00     0.031 C 
ATOM     49  C   UNL     1      -0.229  -8.740   1.726  1.00  0.00     0.029 A 
ATOM     50  C   UNL     1       0.351  -9.850   0.973  1.00  0.00     0.049 A 
ATOM     51  H   UNL     1       0.993  -9.835  -1.008  1.00  0.00     0.167 HD
ATOM     52  C   UNL     1       2.188  -9.693  -5.213  1.00  0.00     0.037 A 
ATOM     53  C   UNL     1       0.575 -11.089   1.449  1.00  0.00     0.037 A 
ATOM     54  C   UNL     1       2.512 -11.026  -4.777  1.00  0.00     0.049 A 
ATOM     55  C   UNL     1       1.171 -12.131   0.543  1.00  0.00     0.074 A 
ATOM     56  C   UNL     1       3.117 -12.044  -5.493  1.00  0.00     0.029 A 
ATOM     57  N   UNL     1       2.254 -11.525  -3.510  1.00  0.00    -0.354 N 
ATOM     58  N   UNL     1       1.553 -12.019  -0.707  1.00  0.00    -0.248 NA
ATOM     59  C   UNL     1       1.364 -13.473   1.112  1.00  0.00     0.031 C 
ATOM     60  C   UNL     1       3.193 -13.173  -4.668  1.00  0.00     0.029 A 
ATOM     61  C   UNL     1       2.670 -12.844  -3.429  1.00  0.00     0.049 A 
ATOM     62  H   UNL     1       1.837 -11.017  -2.777  1.00  0.00     0.167 HD
ATOM     63  C   UNL     1       2.047 -13.266  -1.066  1.00  0.00     0.074 A 
ATOM     64  C   UNL     1       1.931 -14.116   0.101  1.00  0.00     0.031 C 
ATOM     65  C   UNL     1       2.551 -13.672  -2.257  1.00  0.00     0.037 A 
BRANCH  52  66
ATOM     66  C   UNL     1       2.495  -9.319  -6.632  1.00  0.00     0.057 A 
ATOM     67  C   UNL     1       3.570  -8.484  -6.959  1.00  0.00     0.134 A 
ATOM     68  C   UNL     1       1.731  -9.837  -7.686  1.00  0.00     0.134 A 
ATOM     69  F   UNL     1       4.331  -7.946  -5.995  1.00  0.00    -0.206 F 
ATOM     70  C   UNL     1       3.867  -8.166  -8.286  1.00  0.00     0.040 A 
ATOM     71  C   UNL     1       2.030  -9.542  -9.016  1.00  0.00     0.040 A 
ATOM     72  F   UNL     1       0.690 -10.646  -7.438  1.00  0.00    -0.206 F 
ATOM     73  C   UNL     1       3.100  -8.701  -9.319  1.00  0.00     0.006 A 
ENDBRANCH  52  66
BRANCH  53  74
ATOM     74  C   UNL     1       0.213 -11.424   2.848  1.00  0.00     0.057 A 
ATOM     75  C   UNL     1       1.196 -11.667   3.813  1.00  0.00     0.134 A 
ATOM     76  C   UNL     1      -1.125 -11.528   3.247  1.00  0.00     0.134 A 
ATOM     77  F   UNL     1       2.494 -11.606   3.484  1.00  0.00    -0.206 F 
ATOM     78  C   UNL     1       0.862 -12.017   5.123  1.00  0.00     0.040 A 
ATOM     79  C   UNL     1      -1.474 -11.854   4.558  1.00  0.00     0.040 A 
ATOM     80  F   UNL     1      -2.113 -11.309   2.367  1.00  0.00    -0.206 F 
ATOM     81  C   UNL     1      -0.477 -12.106   5.499  1.00  0.00     0.006 A 
ENDBRANCH  53  74
BRANCH  65  82
ATOM     82  C   UNL     1       3.038 -15.087  -2.347  1.00  0.00     0.057 A 
ATOM     83  C   UNL     1       2.150 -16.167  -2.424  1.00  0.00     0.134 A 
ATOM     84  C   UNL     1       4.409 -15.369  -2.391  1.00  0.00     0.134 A 
ATOM     85  F   UNL     1       0.825 -15.963  -2.372  1.00  0.00    -0.206 F 
ATOM     86  C   UNL     1       2.610 -17.481  -2.523  1.00  0.00     0.040 A 
ATOM     87  C   UNL     1       4.880 -16.676  -2.512  1.00  0.00     0.040 A 
ATOM     88  F   UNL     1       5.310 -14.377  -2.328  1.00  0.00    -0.206 F 
ATOM     89  C   UNL     1       3.979 -17.738  -2.574  1.00  0.00     0.006 A 
ENDBRANCH  65  82
ENDBRANCH  39  40
ENDBRANCH  32  34
ENDBRANCH  31  32
ENDBRANCH  30  31
ENDBRANCH   1  30
TORSDOF 15
