REMARK SMILES O=C(CNc1ccccc1C(=O)N1CCCC1)OCCOC(=O)c1ccc(-c2c3nc(c(-c4c(F)cccc4F)c4ccc([nH]4)c(-c4c(F)cccc4F)c4nc(c(-c5c(F)cccc5F)c5ccc2[nH]5)C=C4)C=C3)cc1
REMARK SMILES IDX 19 1 18 2 2 3 1 4 3 5 4 6 5 8 6 9 10 10 7 11 9 12 8 13 11 14
REMARK SMILES IDX 12 15 13 16 14 17 17 18 15 19 16 20 20 21 21 22 22 23 23 24
REMARK SMILES IDX 24 25 25 26 77 27 26 28 76 29 27 30 28 31 29 32 70 33 30 34
REMARK SMILES IDX 75 35 69 36 71 37 31 38 74 39 68 40 67 41 32 43 58 44 41 45
REMARK SMILES IDX 57 46 42 47 45 48 56 49 72 50 43 51 44 52 55 54 73 55 46 56
REMARK SMILES IDX 33 57 34 58 39 59 35 60 36 61 38 62 40 63 37 64 59 65 60 66
REMARK SMILES IDX 65 67 61 68 62 69 64 70 66 71 63 72 47 73 48 74 53 75 49 76
REMARK SMILES IDX 50 77 52 78 54 79 51 80
REMARK H PARENT 4 7 71 42 45 53
REMARK Flexibility Score: inf
ROOT
ATOM      1  C   UNL     1       4.838   0.326  -1.794  1.00  0.00     0.274 C 
ENDROOT
BRANCH   1   2
ATOM      2  O   UNL     1       3.885  -0.633  -2.300  1.00  0.00    -0.461 OA
BRANCH   2   3
ATOM      3  C   UNL     1       3.661  -1.789  -1.615  1.00  0.00     0.325 C 
ATOM      4  O   UNL     1       3.341  -2.828  -2.187  1.00  0.00    -0.250 OA
BRANCH   3   5
ATOM      5  C   UNL     1       3.613  -1.653  -0.123  1.00  0.00     0.236 C 
BRANCH   5   6
ATOM      6  N   UNL     1       4.647  -2.221   0.714  1.00  0.00    -0.374 N 
ATOM      7  H   UNL     1       4.537  -3.178   0.919  1.00  0.00     0.161 HD
BRANCH   6   8
ATOM      8  C   UNL     1       5.772  -1.626   1.276  1.00  0.00     0.047 A 
ATOM      9  C   UNL     1       6.914  -2.439   0.989  1.00  0.00     0.026 A 
ATOM     10  C   UNL     1       6.005  -0.406   1.996  1.00  0.00     0.063 A 
ATOM     11  C   UNL     1       8.207  -2.160   1.415  1.00  0.00     0.002 A 
ATOM     12  C   UNL     1       7.335  -0.221   2.498  1.00  0.00     0.016 A 
ATOM     13  C   UNL     1       8.412  -1.062   2.211  1.00  0.00     0.001 A 
BRANCH  10  14
ATOM     14  C   UNL     1       5.214   0.888   2.294  1.00  0.00     0.255 C 
ATOM     15  O   UNL     1       5.857   1.927   2.511  1.00  0.00    -0.269 OA
ATOM     16  N   UNL     1       3.824   1.054   2.258  1.00  0.00    -0.339 N 
ATOM     17  C   UNL     1       2.543  -0.337   2.316  1.00  0.00     0.120 C 
ATOM     18  C   UNL     1       3.028   2.808   1.758  1.00  0.00     0.120 C 
ATOM     19  C   UNL     1       0.852   0.351   1.527  1.00  0.00     0.023 C 
ATOM     20  C   UNL     1       1.105   2.373   1.212  1.00  0.00     0.023 C 
ENDBRANCH  10  14
ENDBRANCH   6   8
ENDBRANCH   5   6
ENDBRANCH   3   5
ENDBRANCH   2   3
ENDBRANCH   1   2
BRANCH   1  21
ATOM     21  C   UNL     1       4.208   1.582  -1.182  1.00  0.00     0.275 C 
BRANCH  21  22
ATOM     22  O   UNL     1       3.909   1.468   0.236  1.00  0.00    -0.458 OA
BRANCH  22  23
ATOM     23  C   UNL     1       2.553   1.155   0.836  1.00  0.00     0.338 C 
ATOM     24  O   UNL     1       1.960   0.789  -0.212  1.00  0.00    -0.246 OA
BRANCH  23  25
ATOM     25  C   UNL     1       1.946   1.549   2.861  1.00  0.00     0.060 A 
ATOM     26  C   UNL     1       0.568   1.558   3.482  1.00  0.00     0.016 A 
ATOM     27  C   UNL     1       2.812   1.902   4.084  1.00  0.00     0.016 A 
ATOM     28  C   UNL     1       0.216   1.475   4.828  1.00  0.00     0.010 A 
ATOM     29  C   UNL     1       2.479   1.911   5.436  1.00  0.00     0.010 A 
ATOM     30  C   UNL     1       1.192   1.601   5.785  1.00  0.00    -0.014 A 
BRANCH  30  31
ATOM     31  C   UNL     1       0.809   1.542   7.178  1.00  0.00     0.031 A 
ATOM     32  C   UNL     1       0.319   2.802   7.783  1.00  0.00     0.074 A 
ATOM     33  C   UNL     1       0.876   0.340   7.766  1.00  0.00     0.049 A 
ATOM     34  N   UNL     1      -0.201   2.994   8.955  1.00  0.00    -0.248 NA
ATOM     35  C   UNL     1       0.407   4.015   6.944  1.00  0.00     0.031 C 
ATOM     36  C   UNL     1       1.355  -0.890   7.120  1.00  0.00     0.029 A 
ATOM     37  N   UNL     1       0.536  -0.052   9.021  1.00  0.00    -0.354 N 
ATOM     38  C   UNL     1      -0.523   4.340   8.992  1.00  0.00     0.074 A 
ATOM     39  C   UNL     1      -0.115   4.932   7.742  1.00  0.00     0.031 C 
ATOM     40  C   UNL     1       1.271  -1.905   7.993  1.00  0.00     0.029 A 
ATOM     41  C   UNL     1       0.752  -1.388   9.251  1.00  0.00     0.049 A 
ATOM     42  H   UNL     1       0.170   0.561   9.698  1.00  0.00     0.167 HD
ATOM     43  C   UNL     1      -1.111   4.998  10.012  1.00  0.00     0.037 A 
ATOM     44  C   UNL     1       0.544  -2.082  10.381  1.00  0.00     0.037 A 
ATOM     45  C   UNL     1      -1.408   4.335  11.252  1.00  0.00     0.049 A 
ATOM     46  C   UNL     1      -0.059  -1.308  11.520  1.00  0.00     0.074 A 
ATOM     47  C   UNL     1      -1.945   4.850  12.411  1.00  0.00     0.029 A 
ATOM     48  N   UNL     1      -1.154   2.981  11.484  1.00  0.00    -0.354 N 
ATOM     49  N   UNL     1      -0.399  -0.036  11.558  1.00  0.00    -0.248 NA
ATOM     50  C   UNL     1      -0.321  -2.042  12.757  1.00  0.00     0.031 C 
ATOM     51  C   UNL     1      -1.961   3.821  13.361  1.00  0.00     0.029 A 
ATOM     52  C   UNL     1      -1.499   2.646  12.777  1.00  0.00     0.049 A 
ATOM     53  H   UNL     1      -0.782   2.356  10.820  1.00  0.00     0.167 HD
ATOM     54  C   UNL     1      -0.928   0.187  12.816  1.00  0.00     0.074 A 
ATOM     55  C   UNL     1      -0.884  -1.098  13.500  1.00  0.00     0.031 C 
ATOM     56  C   UNL     1      -1.405   1.331  13.373  1.00  0.00     0.037 A 
BRANCH  43  57
ATOM     57  C   UNL     1      -1.360   6.463   9.820  1.00  0.00     0.057 A 
ATOM     58  C   UNL     1      -2.292   6.945   8.887  1.00  0.00     0.134 A 
ATOM     59  C   UNL     1      -0.601   7.412  10.514  1.00  0.00     0.134 A 
ATOM     60  F   UNL     1      -3.023   6.092   8.154  1.00  0.00    -0.206 F 
ATOM     61  C   UNL     1      -2.438   8.312   8.634  1.00  0.00     0.040 A 
ATOM     62  C   UNL     1      -0.755   8.782  10.287  1.00  0.00     0.040 A 
ATOM     63  F   UNL     1       0.327   7.025  11.401  1.00  0.00    -0.206 F 
ATOM     64  C   UNL     1      -1.670   9.235   9.339  1.00  0.00     0.006 A 
ENDBRANCH  43  57
BRANCH  44  65
ATOM     65  C   UNL     1       0.886  -3.525  10.452  1.00  0.00     0.057 A 
ATOM     66  C   UNL     1      -0.098  -4.510  10.586  1.00  0.00     0.134 A 
ATOM     67  C   UNL     1       2.213  -3.964  10.333  1.00  0.00     0.134 A 
ATOM     68  F   UNL     1      -1.389  -4.164  10.700  1.00  0.00    -0.206 F 
ATOM     69  C   UNL     1       0.222  -5.871  10.616  1.00  0.00     0.040 A 
ATOM     70  C   UNL     1       2.546  -5.321  10.335  1.00  0.00     0.040 A 
ATOM     71  F   UNL     1       3.208  -3.078  10.180  1.00  0.00    -0.206 F 
ATOM     72  C   UNL     1       1.548  -6.280  10.484  1.00  0.00     0.006 A 
ENDBRANCH  44  65
BRANCH  56  73
ATOM     73  C   UNL     1      -1.917   1.206  14.771  1.00  0.00     0.057 A 
ATOM     74  C   UNL     1      -1.051   1.042  15.858  1.00  0.00     0.134 A 
ATOM     75  C   UNL     1      -3.289   1.307  15.029  1.00  0.00     0.134 A 
ATOM     76  F   UNL     1       0.272   0.927  15.664  1.00  0.00    -0.206 F 
ATOM     77  C   UNL     1      -1.538   0.955  17.159  1.00  0.00     0.040 A 
ATOM     78  C   UNL     1      -3.783   1.258  16.329  1.00  0.00     0.040 A 
ATOM     79  F   UNL     1      -4.161   1.480  14.024  1.00  0.00    -0.206 F 
ATOM     80  C   UNL     1      -2.907   1.074  17.397  1.00  0.00     0.006 A 
ENDBRANCH  56  73
ENDBRANCH  30  31
ENDBRANCH  23  25
ENDBRANCH  22  23
ENDBRANCH  21  22
ENDBRANCH   1  21
TORSDOF 14
