REMARK SMILES Nc1ncc(C(=O)OCCOC(=O)c2ccc(-c3c4nc(c(-c5c(F)cccc5F)c5ccc([nH]5)c(-c5c(F)cccc5F)c5nc(c(-c6c(F)cccc6F)c6ccc3[nH]6)C=C5)C=C4)cc2)c(-c2ccccc2)n1
REMARK SMILES IDX 10 1 9 2 8 3 6 4 7 5 5 6 2 7 3 8 75 9 4 10 68 11 1 12 69 15
REMARK SMILES IDX 70 16 74 17 71 18 73 19 72 20 11 21 12 22 13 23 14 24 15 25
REMARK SMILES IDX 67 26 16 27 66 28 17 29 18 30 19 31 60 32 20 33 65 34 59 35
REMARK SMILES IDX 61 36 21 37 64 38 58 39 57 40 22 42 48 43 31 44 47 45 32 46
REMARK SMILES IDX 35 47 46 48 62 49 33 50 34 51 45 53 63 54 36 55 23 56 24 57
REMARK SMILES IDX 29 58 25 59 26 60 28 61 30 62 27 63 49 64 50 65 55 66 51 67
REMARK SMILES IDX 52 68 54 69 56 70 53 71 37 72 38 73 43 74 39 75 40 76 42 77
REMARK SMILES IDX 44 78 41 79
REMARK H PARENT 1 13 1 14 61 41 35 52
REMARK Flexibility Score: inf
ROOT
ATOM      1  C   UNL     1       5.897  -0.367  -1.141  1.00  0.00     0.275 C 
ENDROOT
BRANCH   1   2
ATOM      2  C   UNL     1       5.188  -0.995   0.057  1.00  0.00     0.275 C 
BRANCH   2   3
ATOM      3  O   UNL     1       3.757  -0.988  -0.127  1.00  0.00    -0.458 OA
BRANCH   3   4
ATOM      4  C   UNL     1       3.021  -0.258   0.744  1.00  0.00     0.342 C 
ATOM      5  O   UNL     1       3.444   0.496   1.599  1.00  0.00    -0.246 OA
BRANCH   4   6
ATOM      6  C   UNL     1       1.579  -0.420   0.490  1.00  0.00     0.104 A 
ATOM      7  C   UNL     1      -1.097  -0.537   0.060  1.00  0.00     0.220 A 
ATOM      8  N   UNL     1      -0.569   0.654   0.342  1.00  0.00    -0.221 NA
ATOM      9  N   UNL     1      -0.402  -1.679  -0.001  1.00  0.00    -0.212 NA
ATOM     10  C   UNL     1       0.758   0.682   0.568  1.00  0.00     0.133 A 
ATOM     11  C   UNL     1       0.939  -1.616   0.223  1.00  0.00     0.090 A 
BRANCH   7  12
ATOM     12  N   UNL     1      -2.443  -0.581  -0.140  1.00  0.00    -0.368 N 
ATOM     13  H   UNL     1      -2.974   0.247  -0.100  1.00  0.00     0.159 HD
ATOM     14  H   UNL     1      -2.885  -1.441  -0.326  1.00  0.00     0.159 HD
ENDBRANCH   7  12
BRANCH  11  15
ATOM     15  C   UNL     1       1.635  -2.910   0.183  1.00  0.00     0.001 A 
ATOM     16  C   UNL     1       2.436  -3.347   1.256  1.00  0.00     0.010 A 
ATOM     17  C   UNL     1       1.587  -3.703  -0.974  1.00  0.00     0.010 A 
ATOM     18  C   UNL     1       3.229  -4.489   1.140  1.00  0.00     0.001 A 
ATOM     19  C   UNL     1       2.371  -4.853  -1.085  1.00  0.00     0.001 A 
ATOM     20  C   UNL     1       3.205  -5.234  -0.035  1.00  0.00     0.000 A 
ENDBRANCH  11  15
ENDBRANCH   4   6
ENDBRANCH   3   4
ENDBRANCH   2   3
ENDBRANCH   1   2
BRANCH   1  21
ATOM     21  O   UNL     1       5.619   1.043  -1.201  1.00  0.00    -0.458 OA
BRANCH  21  22
ATOM     22  C   UNL     1       4.580   1.373  -1.998  1.00  0.00     0.338 C 
ATOM     23  O   UNL     1       3.922   0.639  -2.716  1.00  0.00    -0.246 OA
BRANCH  22  24
ATOM     24  C   UNL     1       4.216   2.774  -1.774  1.00  0.00     0.060 A 
ATOM     25  C   UNL     1       3.240   3.029  -0.817  1.00  0.00     0.016 A 
ATOM     26  C   UNL     1       4.680   3.791  -2.599  1.00  0.00     0.016 A 
ATOM     27  C   UNL     1       2.636   4.276  -0.743  1.00  0.00     0.010 A 
ATOM     28  C   UNL     1       4.143   5.076  -2.456  1.00  0.00     0.010 A 
ATOM     29  C   UNL     1       3.089   5.323  -1.554  1.00  0.00    -0.014 A 
BRANCH  29  30
ATOM     30  C   UNL     1       2.433   6.656  -1.482  1.00  0.00     0.031 A 
ATOM     31  C   UNL     1       1.809   7.256  -2.714  1.00  0.00     0.074 A 
ATOM     32  C   UNL     1       2.383   7.326  -0.313  1.00  0.00     0.049 A 
ATOM     33  N   UNL     1       1.365   8.472  -2.910  1.00  0.00    -0.248 NA
ATOM     34  C   UNL     1       1.684   6.376  -3.887  1.00  0.00     0.031 C 
ATOM     35  C   UNL     1       2.896   6.836   0.969  1.00  0.00     0.029 A 
ATOM     36  N   UNL     1       1.876   8.565  -0.011  1.00  0.00    -0.354 N 
ATOM     37  C   UNL     1       0.963   8.518  -4.240  1.00  0.00     0.074 A 
ATOM     38  C   UNL     1       1.225   7.213  -4.806  1.00  0.00     0.031 C 
ATOM     39  C   UNL     1       2.652   7.749   1.921  1.00  0.00     0.029 A 
ATOM     40  C   UNL     1       2.058   8.927   1.302  1.00  0.00     0.049 A 
ATOM     41  H   UNL     1       1.425   9.139  -0.672  1.00  0.00     0.167 HD
ATOM     42  C   UNL     1       0.425   9.558  -4.922  1.00  0.00     0.037 A 
ATOM     43  C   UNL     1       1.827  10.094   1.931  1.00  0.00     0.037 A 
ATOM     44  C   UNL     1       0.124  10.838  -4.332  1.00  0.00     0.049 A 
ATOM     45  C   UNL     1       1.279  11.248   1.141  1.00  0.00     0.074 A 
ATOM     46  C   UNL     1      -0.437  11.953  -4.930  1.00  0.00     0.029 A 
ATOM     47  N   UNL     1       0.349  11.169  -3.004  1.00  0.00    -0.354 N 
ATOM     48  N   UNL     1       0.945  11.298  -0.126  1.00  0.00    -0.248 NA
ATOM     49  C   UNL     1       1.090  12.512   1.864  1.00  0.00     0.031 C 
ATOM     50  C   UNL     1      -0.507  12.973  -3.976  1.00  0.00     0.029 A 
ATOM     51  C   UNL     1      -0.044  12.476  -2.768  1.00  0.00     0.049 A 
ATOM     52  H   UNL     1       0.732  10.564  -2.328  1.00  0.00     0.167 HD
ATOM     53  C   UNL     1       0.484  12.588  -0.346  1.00  0.00     0.074 A 
ATOM     54  C   UNL     1       0.567  13.284   0.922  1.00  0.00     0.031 C 
ATOM     55  C   UNL     1       0.035  13.148  -1.496  1.00  0.00     0.037 A 
BRANCH  42  56
ATOM     56  C   UNL     1       0.163   9.371  -6.389  1.00  0.00     0.057 A 
ATOM     57  C   UNL     1      -0.859   8.542  -6.870  1.00  0.00     0.134 A 
ATOM     58  C   UNL     1       0.927  10.065  -7.338  1.00  0.00     0.134 A 
ATOM     59  F   UNL     1      -1.621   7.839  -6.019  1.00  0.00    -0.206 F 
ATOM     60  C   UNL     1      -1.093   8.389  -8.239  1.00  0.00     0.040 A 
ATOM     61  C   UNL     1       0.684   9.943  -8.707  1.00  0.00     0.040 A 
ATOM     62  F   UNL     1       1.918  10.882  -6.949  1.00  0.00    -0.206 F 
ATOM     63  C   UNL     1      -0.325   9.097  -9.161  1.00  0.00     0.006 A 
ENDBRANCH  42  56
BRANCH  43  64
ATOM     64  C   UNL     1       2.158  10.241   3.372  1.00  0.00     0.057 A 
ATOM     65  C   UNL     1       1.155  10.419   4.331  1.00  0.00     0.134 A 
ATOM     66  C   UNL     1       3.483  10.205   3.825  1.00  0.00     0.134 A 
ATOM     67  F   UNL     1      -0.132  10.484   3.959  1.00  0.00    -0.206 F 
ATOM     68  C   UNL     1       1.458  10.571   5.686  1.00  0.00     0.040 A 
ATOM     69  C   UNL     1       3.798  10.323   5.179  1.00  0.00     0.040 A 
ATOM     70  F   UNL     1       4.492  10.033   2.958  1.00  0.00    -0.206 F 
ATOM     71  C   UNL     1       2.783  10.514   6.114  1.00  0.00     0.006 A 
ENDBRANCH  43  64
BRANCH  55  72
ATOM     72  C   UNL     1      -0.451  14.565  -1.420  1.00  0.00     0.057 A 
ATOM     73  C   UNL     1       0.427  15.644  -1.261  1.00  0.00     0.134 A 
ATOM     74  C   UNL     1      -1.817  14.854  -1.541  1.00  0.00     0.134 A 
ATOM     75  F   UNL     1       1.745  15.434  -1.123  1.00  0.00    -0.206 F 
ATOM     76  C   UNL     1      -0.038  16.958  -1.199  1.00  0.00     0.040 A 
ATOM     77  C   UNL     1      -2.291  16.165  -1.511  1.00  0.00     0.040 A 
ATOM     78  F   UNL     1      -2.710  13.866  -1.704  1.00  0.00    -0.206 F 
ATOM     79  C   UNL     1      -1.401  17.222  -1.332  1.00  0.00     0.006 A 
ENDBRANCH  55  72
ENDBRANCH  29  30
ENDBRANCH  22  24
ENDBRANCH  21  22
ENDBRANCH   1  21
TORSDOF 13
