REMARK SMILES Cc1c(C(=O)OCCOC(=O)c2ccc(-c3c4nc(c(-c5c(F)cccc5F)c5ccc([nH]5)c(-c5c(F)cccc5F)c5nc(c(-c6c(F)cccc6F)c6ccc3[nH]6)C=C5)C=C4)cc2)sc2ncnc(NCc3cn4c(n3)SCC4)c12
REMARK SMILES IDX 7 1 6 2 4 3 5 4 3 5 1 6 2 7 82 8 66 9 67 10 71 11 68 12
REMARK SMILES IDX 70 13 69 14 72 15 73 17 74 18 75 19 78 20 76 21 77 22 81 23
REMARK SMILES IDX 79 24 80 25 8 26 9 27 10 28 11 29 12 30 13 31 65 32 14 33
REMARK SMILES IDX 64 34 15 35 16 36 17 37 58 38 18 39 63 40 57 41 59 42 19 43
REMARK SMILES IDX 62 44 56 45 55 46 20 48 46 49 29 50 45 51 30 52 33 53 44 54
REMARK SMILES IDX 60 55 31 56 32 57 43 59 61 60 34 61 21 62 22 63 27 64 23 65
REMARK SMILES IDX 24 66 26 67 28 68 25 69 47 70 48 71 53 72 49 73 50 74 52 75
REMARK SMILES IDX 54 76 51 77 35 78 36 79 41 80 37 81 38 82 40 83 42 84 39 85
REMARK H PARENT 72 16 59 47 33 58
REMARK Flexibility Score: inf
ROOT
ATOM      1  C   UNL     1      -1.700   2.002   4.444  1.00  0.00     0.275 C 
ENDROOT
BRANCH   1   2
ATOM      2  O   UNL     1      -1.311   0.683   4.032  1.00  0.00    -0.458 OA
BRANCH   2   3
ATOM      3  C   UNL     1      -1.374   0.449   2.689  1.00  0.00     0.348 C 
ATOM      4  O   UNL     1      -1.892   1.220   1.884  1.00  0.00    -0.245 OA
BRANCH   3   5
ATOM      5  C   UNL     1      -0.668  -0.766   2.319  1.00  0.00     0.118 A 
ATOM      6  C   UNL     1       0.417   0.164   0.253  1.00  0.00     0.047 C 
ATOM      7  C   UNL     1       0.093  -0.968   1.169  1.00  0.00    -0.012 A 
ATOM      8  C   UNL     1       0.517  -2.360   1.023  1.00  0.00     0.058 A 
ATOM      9  S   UNL     1      -0.696  -2.137   3.318  1.00  0.00    -0.108 S 
ATOM     10  C   UNL     1       0.175  -3.054   2.184  1.00  0.00     0.129 A 
ATOM     11  C   UNL     1       1.162  -3.151   0.032  1.00  0.00     0.138 A 
ATOM     12  N   UNL     1       0.428  -4.340   2.479  1.00  0.00    -0.225 NA
ATOM     13  N   UNL     1       1.419  -4.454   0.320  1.00  0.00    -0.219 NA
ATOM     14  C   UNL     1       1.068  -4.964   1.502  1.00  0.00     0.225 A 
BRANCH  11  15
ATOM     15  N   UNL     1       1.532  -2.880  -1.256  1.00  0.00    -0.364 N 
ATOM     16  H   UNL     1       1.668  -3.688  -1.802  1.00  0.00     0.162 HD
BRANCH  15  17
ATOM     17  C   UNL     1       1.764  -1.658  -1.977  1.00  0.00     0.172 C 
BRANCH  17  18
ATOM     18  C   UNL     1       3.100  -0.997  -1.807  1.00  0.00     0.079 A 
ATOM     19  C   UNL     1       3.607   0.100  -2.498  1.00  0.00     0.113 A 
ATOM     20  N   UNL     1       4.087  -1.582  -1.020  1.00  0.00    -0.226 NA
ATOM     21  N   UNL     1       4.926   0.101  -2.185  1.00  0.00    -0.325 N 
ATOM     22  C   UNL     1       5.162  -0.905  -1.300  1.00  0.00     0.168 A 
ATOM     23  C   UNL     1       6.087   0.633  -2.874  1.00  0.00     0.135 C 
ATOM     24  S   UNL     1       6.832  -1.329  -1.211  1.00  0.00    -0.086 SA
ATOM     25  C   UNL     1       7.123  -0.494  -2.824  1.00  0.00     0.100 C 
ENDBRANCH  17  18
ENDBRANCH  15  17
ENDBRANCH  11  15
ENDBRANCH   3   5
ENDBRANCH   2   3
ENDBRANCH   1   2
BRANCH   1  26
ATOM     26  C   UNL     1      -0.485   2.908   4.606  1.00  0.00     0.275 C 
BRANCH  26  27
ATOM     27  O   UNL     1       0.098   3.304   3.360  1.00  0.00    -0.458 OA
BRANCH  27  28
ATOM     28  C   UNL     1       1.147   2.542   2.977  1.00  0.00     0.338 C 
ATOM     29  O   UNL     1       1.354   1.378   3.274  1.00  0.00    -0.246 OA
BRANCH  28  30
ATOM     30  C   UNL     1       2.157   3.371   2.305  1.00  0.00     0.060 A 
ATOM     31  C   UNL     1       3.179   2.713   1.619  1.00  0.00     0.016 A 
ATOM     32  C   UNL     1       2.216   4.750   2.558  1.00  0.00     0.016 A 
ATOM     33  C   UNL     1       4.316   3.424   1.282  1.00  0.00     0.010 A 
ATOM     34  C   UNL     1       3.352   5.460   2.213  1.00  0.00     0.010 A 
ATOM     35  C   UNL     1       4.417   4.782   1.627  1.00  0.00    -0.014 A 
BRANCH  35  36
ATOM     36  C   UNL     1       5.621   5.488   1.207  1.00  0.00     0.031 A 
ATOM     37  C   UNL     1       5.793   5.463  -0.267  1.00  0.00     0.074 A 
ATOM     38  C   UNL     1       6.442   6.162   2.041  1.00  0.00     0.049 A 
ATOM     39  N   UNL     1       6.686   4.816  -0.941  1.00  0.00    -0.248 NA
ATOM     40  C   UNL     1       4.738   6.061  -1.104  1.00  0.00     0.031 C 
ATOM     41  C   UNL     1       6.210   6.476   3.454  1.00  0.00     0.029 A 
ATOM     42  N   UNL     1       7.627   6.795   1.779  1.00  0.00    -0.354 N 
ATOM     43  C   UNL     1       6.461   5.148  -2.274  1.00  0.00     0.074 A 
ATOM     44  C   UNL     1       5.150   5.732  -2.330  1.00  0.00     0.031 C 
ATOM     45  C   UNL     1       7.081   7.431   3.851  1.00  0.00     0.029 A 
ATOM     46  C   UNL     1       8.026   7.681   2.777  1.00  0.00     0.049 A 
ATOM     47  H   UNL     1       8.149   6.639   0.960  1.00  0.00     0.167 HD
ATOM     48  C   UNL     1       7.510   5.209  -3.139  1.00  0.00     0.037 A 
ATOM     49  C   UNL     1       9.036   8.584   2.701  1.00  0.00     0.037 A 
ATOM     50  C   UNL     1       8.665   4.553  -2.583  1.00  0.00     0.049 A 
ATOM     51  C   UNL     1       9.969   8.126   1.648  1.00  0.00     0.074 A 
ATOM     52  C   UNL     1       9.158   3.276  -2.458  1.00  0.00     0.029 A 
ATOM     53  N   UNL     1       9.361   5.349  -1.717  1.00  0.00    -0.354 N 
ATOM     54  N   UNL     1      10.707   7.056   1.756  1.00  0.00    -0.248 NA
ATOM     55  C   UNL     1       9.854   8.678   0.301  1.00  0.00     0.031 C 
ATOM     56  C   UNL     1      10.113   3.317  -1.399  1.00  0.00     0.029 A 
ATOM     57  C   UNL     1      10.221   4.628  -0.944  1.00  0.00     0.049 A 
ATOM     58  H   UNL     1       9.253   6.326  -1.658  1.00  0.00     0.167 HD
ATOM     59  C   UNL     1      10.789   6.572   0.468  1.00  0.00     0.074 A 
ATOM     60  C   UNL     1      10.410   7.684  -0.396  1.00  0.00     0.031 C 
ATOM     61  C   UNL     1      10.809   5.232   0.228  1.00  0.00     0.037 A 
BRANCH  48  62
ATOM     62  C   UNL     1       7.708   6.310  -4.168  1.00  0.00     0.057 A 
ATOM     63  C   UNL     1       8.863   6.267  -4.976  1.00  0.00     0.134 A 
ATOM     64  C   UNL     1       7.042   7.552  -4.154  1.00  0.00     0.134 A 
ATOM     65  F   UNL     1       9.586   5.142  -5.084  1.00  0.00    -0.206 F 
ATOM     66  C   UNL     1       9.370   7.398  -5.629  1.00  0.00     0.040 A 
ATOM     67  C   UNL     1       7.516   8.676  -4.839  1.00  0.00     0.040 A 
ATOM     68  F   UNL     1       5.959   7.785  -3.406  1.00  0.00    -0.206 F 
ATOM     69  C   UNL     1       8.703   8.613  -5.549  1.00  0.00     0.006 A 
ENDBRANCH  48  62
BRANCH  49  70
ATOM     70  C   UNL     1       9.130   9.949   3.274  1.00  0.00     0.057 A 
ATOM     71  C   UNL     1      10.352  10.642   3.289  1.00  0.00     0.134 A 
ATOM     72  C   UNL     1       7.984  10.720   3.524  1.00  0.00     0.134 A 
ATOM     73  F   UNL     1      11.503  10.001   3.036  1.00  0.00    -0.206 F 
ATOM     74  C   UNL     1      10.424  12.028   3.483  1.00  0.00     0.040 A 
ATOM     75  C   UNL     1       8.042  12.104   3.726  1.00  0.00     0.040 A 
ATOM     76  F   UNL     1       6.760  10.175   3.485  1.00  0.00    -0.206 F 
ATOM     77  C   UNL     1       9.263  12.767   3.683  1.00  0.00     0.006 A 
ENDBRANCH  49  70
BRANCH  61  78
ATOM     78  C   UNL     1      11.304   4.324   1.301  1.00  0.00     0.057 A 
ATOM     79  C   UNL     1      10.624   4.058   2.495  1.00  0.00     0.134 A 
ATOM     80  C   UNL     1      12.463   3.584   1.038  1.00  0.00     0.134 A 
ATOM     81  F   UNL     1       9.475   4.681   2.792  1.00  0.00    -0.206 F 
ATOM     82  C   UNL     1      11.088   3.091   3.392  1.00  0.00     0.040 A 
ATOM     83  C   UNL     1      12.917   2.596   1.908  1.00  0.00     0.040 A 
ATOM     84  F   UNL     1      13.139   3.774  -0.107  1.00  0.00    -0.206 F 
ATOM     85  C   UNL     1      12.229   2.348   3.092  1.00  0.00     0.006 A 
ENDBRANCH  61  78
ENDBRANCH  35  36
ENDBRANCH  28  30
ENDBRANCH  27  28
ENDBRANCH  26  27
ENDBRANCH   1  26
TORSDOF 14
