REMARK SMILES O=C(OCCOC(=O)c1cc(N2C(=O)C[C@H](Nc3ccccc3O)C2=O)ccc1O)c1ccc(-c2c3nc(c(-c4c(F)cccc4F)c4ccc([nH]4)c(-c4c(F)cccc4F)c4nc(c(-c5c(F)cccc5F)c5ccc2[nH]5)C=C4)C=C3)cc1
REMARK SMILES IDX 5 1 4 2 3 3 2 4 1 5 31 6 32 7 84 8 33 9 83 10 34 11 35 12
REMARK SMILES IDX 36 13 77 14 37 15 82 16 76 17 78 18 38 19 81 20 75 21 74 22
REMARK SMILES IDX 39 24 65 25 48 26 64 27 49 28 52 29 63 30 79 31 50 32 51 33
REMARK SMILES IDX 62 35 80 36 53 37 40 38 41 39 46 40 42 41 43 42 45 43 47 44
REMARK SMILES IDX 44 45 66 46 67 47 72 48 68 49 69 50 71 51 73 52 70 53 54 54
REMARK SMILES IDX 55 55 60 56 56 57 57 58 59 59 61 60 58 61 6 62 7 63 8 64
REMARK SMILES IDX 9 65 10 66 29 67 11 68 28 69 27 70 30 71 12 73 13 74 25 75
REMARK SMILES IDX 14 76 15 77 16 78 26 79 17 80 18 82 19 83 23 84 20 85 22 86
REMARK SMILES IDX 21 87 24 88
REMARK H PARENT 78 23 52 34 30 72 17 81 24 89
REMARK Flexibility Score: inf
ROOT
ATOM      1  C   UNL     1       3.883   1.857  -1.115  1.00  0.00     0.275 C 
ENDROOT
BRANCH   1   2
ATOM      2  C   UNL     1       4.208   0.430  -1.567  1.00  0.00     0.275 C 
BRANCH   2   3
ATOM      3  O   UNL     1       3.256  -0.565  -1.160  1.00  0.00    -0.458 OA
BRANCH   3   4
ATOM      4  C   UNL     1       3.127  -1.217   0.017  1.00  0.00     0.338 C 
ATOM      5  O   UNL     1       2.260  -2.087   0.109  1.00  0.00    -0.246 OA
BRANCH   4   6
ATOM      6  C   UNL     1       3.897  -0.875   1.259  1.00  0.00     0.060 A 
ATOM      7  C   UNL     1       5.144  -0.249   1.337  1.00  0.00     0.016 A 
ATOM      8  C   UNL     1       3.272  -1.214   2.467  1.00  0.00     0.016 A 
ATOM      9  C   UNL     1       5.711   0.097   2.571  1.00  0.00     0.010 A 
ATOM     10  C   UNL     1       3.818  -0.850   3.699  1.00  0.00     0.010 A 
ATOM     11  C   UNL     1       5.048  -0.197   3.759  1.00  0.00    -0.014 A 
BRANCH  11  12
ATOM     12  C   UNL     1       5.694   0.028   5.069  1.00  0.00     0.031 A 
ATOM     13  C   UNL     1       6.213  -1.163   5.816  1.00  0.00     0.074 A 
ATOM     14  C   UNL     1       5.810   1.269   5.577  1.00  0.00     0.049 A 
ATOM     15  N   UNL     1       6.850  -1.209   6.955  1.00  0.00    -0.248 NA
ATOM     16  C   UNL     1       6.004  -2.479   5.187  1.00  0.00     0.031 C 
ATOM     17  C   UNL     1       5.373   2.494   4.912  1.00  0.00     0.029 A 
ATOM     18  N   UNL     1       6.315   1.705   6.774  1.00  0.00    -0.354 N 
ATOM     19  C   UNL     1       7.149  -2.549   7.157  1.00  0.00     0.074 A 
ATOM     20  C   UNL     1       6.552  -3.294   6.073  1.00  0.00     0.031 C 
ATOM     21  C   UNL     1       5.574   3.540   5.732  1.00  0.00     0.029 A 
ATOM     22  C   UNL     1       6.173   3.058   6.971  1.00  0.00     0.049 A 
ATOM     23  H   UNL     1       6.739   1.106   7.430  1.00  0.00     0.167 HD
ATOM     24  C   UNL     1       7.895  -3.103   8.138  1.00  0.00     0.037 A 
ATOM     25  C   UNL     1       6.498   3.816   8.035  1.00  0.00     0.037 A 
ATOM     26  C   UNL     1       8.456  -2.351   9.225  1.00  0.00     0.049 A 
ATOM     27  C   UNL     1       7.232   3.163   9.175  1.00  0.00     0.074 A 
ATOM     28  C   UNL     1       9.238  -2.796  10.274  1.00  0.00     0.029 A 
ATOM     29  N   UNL     1       8.270  -0.987   9.408  1.00  0.00    -0.354 N 
ATOM     30  N   UNL     1       7.586   1.907   9.314  1.00  0.00    -0.248 NA
ATOM     31  C   UNL     1       7.652   4.033  10.281  1.00  0.00     0.031 C 
ATOM     32  C   UNL     1       9.482  -1.709  11.120  1.00  0.00     0.029 A 
ATOM     33  C   UNL     1       8.897  -0.577  10.570  1.00  0.00     0.049 A 
ATOM     34  H   UNL     1       7.766  -0.399   8.800  1.00  0.00     0.167 HD
ATOM     35  C   UNL     1       8.312   1.843  10.495  1.00  0.00     0.074 A 
ATOM     36  C   UNL     1       8.344   3.189  11.034  1.00  0.00     0.031 C 
ATOM     37  C   UNL     1       8.913   0.774  11.074  1.00  0.00     0.037 A 
BRANCH  24  38
ATOM     38  C   UNL     1       8.121  -4.583   8.060  1.00  0.00     0.057 A 
ATOM     39  C   UNL     1       8.927  -5.152   7.063  1.00  0.00     0.134 A 
ATOM     40  C   UNL     1       7.496  -5.453   8.959  1.00  0.00     0.134 A 
ATOM     41  F   UNL     1       9.535  -4.375   6.153  1.00  0.00    -0.206 F 
ATOM     42  C   UNL     1       9.074  -6.535   6.942  1.00  0.00     0.040 A 
ATOM     43  C   UNL     1       7.655  -6.837   8.864  1.00  0.00     0.040 A 
ATOM     44  F   UNL     1       6.708  -4.976   9.934  1.00  0.00    -0.206 F 
ATOM     45  C   UNL     1       8.438  -7.381   7.847  1.00  0.00     0.006 A 
ENDBRANCH  24  38
BRANCH  25  46
ATOM     46  C   UNL     1       6.173   5.266   8.052  1.00  0.00     0.057 A 
ATOM     47  C   UNL     1       7.169   6.243   7.959  1.00  0.00     0.134 A 
ATOM     48  C   UNL     1       4.849   5.709   8.172  1.00  0.00     0.134 A 
ATOM     49  F   UNL     1       8.457   5.885   7.851  1.00  0.00    -0.206 F 
ATOM     50  C   UNL     1       6.867   7.606   8.008  1.00  0.00     0.040 A 
ATOM     51  C   UNL     1       4.530   7.069   8.204  1.00  0.00     0.040 A 
ATOM     52  F   UNL     1       3.842   4.826   8.248  1.00  0.00    -0.206 F 
ATOM     53  C   UNL     1       5.543   8.022   8.130  1.00  0.00     0.006 A 
ENDBRANCH  25  46
BRANCH  37  54
ATOM     54  C   UNL     1       9.686   1.028  12.333  1.00  0.00     0.057 A 
ATOM     55  C   UNL     1       9.051   1.299  13.550  1.00  0.00     0.134 A 
ATOM     56  C   UNL     1      11.085   0.943  12.333  1.00  0.00     0.134 A 
ATOM     57  F   UNL     1       7.715   1.406  13.611  1.00  0.00    -0.206 F 
ATOM     58  C   UNL     1       9.782   1.496  14.722  1.00  0.00     0.040 A 
ATOM     59  C   UNL     1      11.824   1.109  13.503  1.00  0.00     0.040 A 
ATOM     60  F   UNL     1      11.752   0.676  11.199  1.00  0.00    -0.206 F 
ATOM     61  C   UNL     1      11.172   1.392  14.701  1.00  0.00     0.006 A 
ENDBRANCH  37  54
ENDBRANCH  11  12
ENDBRANCH   4   6
ENDBRANCH   3   4
ENDBRANCH   2   3
ENDBRANCH   1   2
BRANCH   1  62
ATOM     62  O   UNL     1       3.471   1.949   0.257  1.00  0.00    -0.458 OA
BRANCH  62  63
ATOM     63  C   UNL     1       2.129   1.988   0.468  1.00  0.00     0.342 C 
ATOM     64  O   UNL     1       1.259   1.919  -0.387  1.00  0.00    -0.246 OA
BRANCH  63  65
ATOM     65  C   UNL     1       1.825   1.985   1.916  1.00  0.00     0.103 A 
ATOM     66  C   UNL     1       0.916   1.024   2.399  1.00  0.00     0.046 A 
ATOM     67  C   UNL     1       2.365   2.931   2.790  1.00  0.00     0.130 A 
ATOM     68  C   UNL     1       0.561   1.007   3.755  1.00  0.00     0.053 A 
ATOM     69  C   UNL     1       2.015   2.912   4.141  1.00  0.00     0.049 A 
ATOM     70  C   UNL     1       1.113   1.958   4.620  1.00  0.00     0.031 A 
BRANCH  67  71
ATOM     71  O   UNL     1       3.222   3.892   2.331  1.00  0.00    -0.507 OA
ATOM     72  H   UNL     1       3.462   3.912   1.426  1.00  0.00     0.293 HD
ENDBRANCH  67  71
BRANCH  68  73
ATOM     73  N   UNL     1      -0.389   0.078   4.231  1.00  0.00    -0.249 N 
ATOM     74  C   UNL     1      -1.561   0.453   4.829  1.00  0.00     0.236 C 
ATOM     75  C   UNL     1      -0.102  -1.238   4.494  1.00  0.00     0.256 C 
ATOM     76  O   UNL     1      -1.988   1.591   4.977  1.00  0.00    -0.274 OA
ATOM     77  C   UNL     1      -2.269  -0.763   5.347  1.00  0.00     0.136 C 
ATOM     78  C   UNL     1      -1.383  -1.928   4.938  1.00  0.00     0.179 C 
ATOM     79  O   UNL     1       1.004  -1.762   4.508  1.00  0.00    -0.272 OA
BRANCH  78  80
ATOM     80  N   UNL     1      -1.161  -2.817   6.089  1.00  0.00    -0.370 N 
ATOM     81  H   UNL     1      -0.763  -2.478   6.924  1.00  0.00     0.161 HD
BRANCH  80  82
ATOM     82  C   UNL     1      -1.534  -4.162   5.959  1.00  0.00     0.077 A 
ATOM     83  C   UNL     1      -2.392  -4.716   6.915  1.00  0.00     0.029 A 
ATOM     84  C   UNL     1      -0.953  -5.026   5.015  1.00  0.00     0.138 A 
ATOM     85  C   UNL     1      -2.701  -6.080   6.898  1.00  0.00     0.002 A 
ATOM     86  C   UNL     1      -1.249  -6.390   4.996  1.00  0.00     0.048 A 
ATOM     87  C   UNL     1      -2.130  -6.916   5.940  1.00  0.00     0.004 A 
BRANCH  84  88
ATOM     88  O   UNL     1      -0.063  -4.514   4.110  1.00  0.00    -0.506 OA
ATOM     89  H   UNL     1       0.139  -3.599   4.118  1.00  0.00     0.293 HD
ENDBRANCH  84  88
ENDBRANCH  80  82
ENDBRANCH  78  80
ENDBRANCH  68  73
ENDBRANCH  63  65
ENDBRANCH  62  63
ENDBRANCH   1  62
TORSDOF 16
