REMARK SMILES Cc1cc(C(=O)OCCOC(=O)c2ccc(-c3c4nc(c(-c5c(F)cccc5F)c5ccc([nH]5)c(-c5c(F)cccc5F)c5nc(c(-c6c(F)cccc6F)c6ccc3[nH]6)C=C5)C=C4)cc2)ccc1NS(=O)(=O)c1c(F)cccc1F
REMARK SMILES IDX 8 1 7 2 5 3 6 4 4 5 1 6 2 7 3 8 69 9 68 10 67 11 70 12 71 14
REMARK SMILES IDX 72 15 73 16 74 17 75 18 80 19 76 20 77 21 79 22 81 23 78 24
REMARK SMILES IDX 9 25 10 26 11 27 12 28 13 29 14 30 66 31 15 32 65 33 16 34
REMARK SMILES IDX 17 35 18 36 59 37 19 38 64 39 58 40 60 41 20 42 63 43 57 44
REMARK SMILES IDX 56 45 21 47 47 48 30 49 46 50 31 51 34 52 45 53 61 54 32 55
REMARK SMILES IDX 33 56 44 58 62 59 35 60 22 61 23 62 28 63 24 64 25 65 27 66
REMARK SMILES IDX 29 67 26 68 48 69 49 70 54 71 50 72 51 73 53 74 55 75 52 76
REMARK SMILES IDX 36 77 37 78 42 79 38 80 39 81 41 82 43 83 40 84
REMARK H PARENT 70 13 60 46 34 57
REMARK Flexibility Score: inf
ROOT
ATOM      1  C   UNL     1      -3.863  -2.491  -2.233  1.00  0.00     0.275 C 
ENDROOT
BRANCH   1   2
ATOM      2  O   UNL     1      -2.712  -1.760  -1.798  1.00  0.00    -0.458 OA
BRANCH   2   3
ATOM      3  C   UNL     1      -2.990  -0.904  -0.779  1.00  0.00     0.338 C 
ATOM      4  O   UNL     1      -4.109  -0.671  -0.341  1.00  0.00    -0.246 OA
BRANCH   3   5
ATOM      5  C   UNL     1      -1.783  -0.202  -0.273  1.00  0.00     0.060 A 
ATOM      6  C   UNL     1       1.908   0.270  -0.976  1.00  0.00     0.046 C 
ATOM      7  C   UNL     1       0.498   0.565  -0.545  1.00  0.00    -0.026 A 
ATOM      8  C   UNL     1      -0.521  -0.345  -0.856  1.00  0.00     0.021 A 
ATOM      9  C   UNL     1       0.163   1.683   0.234  1.00  0.00     0.052 A 
ATOM     10  C   UNL     1      -0.942   1.623   1.076  1.00  0.00     0.028 A 
ATOM     11  C   UNL     1      -1.940   0.692   0.794  1.00  0.00     0.018 A 
BRANCH   9  12
ATOM     12  N   UNL     1       0.853   2.907  -0.023  1.00  0.00    -0.279 N 
ATOM     13  H   UNL     1       1.804   2.866  -0.276  1.00  0.00     0.180 HD
BRANCH  12  14
ATOM     14  S   UNL     1       0.109   4.430   0.089  1.00  0.00     0.267 S 
ATOM     15  O   UNL     1       0.239   4.807   1.479  1.00  0.00    -0.201 OA
ATOM     16  O   UNL     1       0.714   5.230  -0.960  1.00  0.00    -0.201 OA
BRANCH  14  17
ATOM     17  C   UNL     1      -1.607   4.325  -0.285  1.00  0.00     0.158 A 
ATOM     18  C   UNL     1      -2.490   5.094   0.469  1.00  0.00     0.146 A 
ATOM     19  C   UNL     1      -2.127   3.415  -1.194  1.00  0.00     0.146 A 
ATOM     20  F   UNL     1      -2.051   6.069   1.275  1.00  0.00    -0.205 F 
ATOM     21  C   UNL     1      -3.866   4.880   0.406  1.00  0.00     0.041 A 
ATOM     22  C   UNL     1      -3.504   3.165  -1.240  1.00  0.00     0.041 A 
ATOM     23  F   UNL     1      -1.331   2.707  -2.006  1.00  0.00    -0.205 F 
ATOM     24  C   UNL     1      -4.375   3.883  -0.421  1.00  0.00     0.006 A 
ENDBRANCH  14  17
ENDBRANCH  12  14
ENDBRANCH   9  12
ENDBRANCH   3   5
ENDBRANCH   2   3
ENDBRANCH   1   2
BRANCH   1  25
ATOM     25  C   UNL     1      -3.538  -3.711  -3.109  1.00  0.00     0.275 C 
BRANCH  25  26
ATOM     26  O   UNL     1      -2.153  -4.125  -3.246  1.00  0.00    -0.458 OA
BRANCH  26  27
ATOM     27  C   UNL     1      -1.284  -4.523  -2.285  1.00  0.00     0.338 C 
ATOM     28  O   UNL     1      -0.142  -4.885  -2.541  1.00  0.00    -0.246 OA
BRANCH  27  29
ATOM     29  C   UNL     1      -1.704  -4.381  -0.887  1.00  0.00     0.060 A 
ATOM     30  C   UNL     1      -0.904  -3.613  -0.028  1.00  0.00     0.016 A 
ATOM     31  C   UNL     1      -2.912  -4.921  -0.459  1.00  0.00     0.016 A 
ATOM     32  C   UNL     1      -1.374  -3.281   1.239  1.00  0.00     0.010 A 
ATOM     33  C   UNL     1      -3.416  -4.526   0.762  1.00  0.00     0.010 A 
ATOM     34  C   UNL     1      -2.643  -3.722   1.617  1.00  0.00    -0.014 A 
BRANCH  34  35
ATOM     35  C   UNL     1      -3.089  -3.711   3.003  1.00  0.00     0.031 A 
ATOM     36  C   UNL     1      -3.700  -2.554   3.679  1.00  0.00     0.074 A 
ATOM     37  C   UNL     1      -2.906  -4.900   3.611  1.00  0.00     0.049 A 
ATOM     38  N   UNL     1      -3.651  -2.354   4.953  1.00  0.00    -0.248 NA
ATOM     39  C   UNL     1      -4.403  -1.496   2.967  1.00  0.00     0.031 C 
ATOM     40  C   UNL     1      -3.380  -5.375   4.896  1.00  0.00     0.029 A 
ATOM     41  N   UNL     1      -2.013  -5.888   3.173  1.00  0.00    -0.354 N 
ATOM     42  C   UNL     1      -4.519  -1.323   5.258  1.00  0.00     0.074 A 
ATOM     43  C   UNL     1      -4.882  -0.759   3.978  1.00  0.00     0.031 C 
ATOM     44  C   UNL     1      -2.592  -6.398   5.277  1.00  0.00     0.029 A 
ATOM     45  C   UNL     1      -1.491  -6.481   4.320  1.00  0.00     0.049 A 
ATOM     46  H   UNL     1      -1.798  -6.117   2.240  1.00  0.00     0.167 HD
ATOM     47  C   UNL     1      -4.957  -1.175   6.545  1.00  0.00     0.037 A 
ATOM     48  C   UNL     1      -0.170  -6.303   4.617  1.00  0.00     0.037 A 
ATOM     49  C   UNL     1      -4.344  -2.188   7.401  1.00  0.00     0.049 A 
ATOM     50  C   UNL     1       0.002  -5.621   5.947  1.00  0.00     0.074 A 
ATOM     51  C   UNL     1      -4.782  -3.450   7.768  1.00  0.00     0.029 A 
ATOM     52  N   UNL     1      -2.988  -2.130   7.702  1.00  0.00    -0.354 N 
ATOM     53  N   UNL     1      -0.826  -4.733   6.424  1.00  0.00    -0.248 NA
ATOM     54  C   UNL     1       1.098  -5.933   6.856  1.00  0.00     0.031 C 
ATOM     55  C   UNL     1      -3.656  -4.192   8.196  1.00  0.00     0.029 A 
ATOM     56  C   UNL     1      -2.546  -3.366   8.131  1.00  0.00     0.049 A 
ATOM     57  H   UNL     1      -2.426  -1.326   7.621  1.00  0.00     0.167 HD
ATOM     58  C   UNL     1      -0.439  -4.412   7.698  1.00  0.00     0.074 A 
ATOM     59  C   UNL     1       0.781  -5.169   7.914  1.00  0.00     0.031 C 
ATOM     60  C   UNL     1      -1.161  -3.584   8.506  1.00  0.00     0.037 A 
BRANCH  47  61
ATOM     61  C   UNL     1      -6.179  -0.377   6.966  1.00  0.00     0.057 A 
ATOM     62  C   UNL     1      -6.947  -0.770   8.085  1.00  0.00     0.134 A 
ATOM     63  C   UNL     1      -6.686   0.748   6.294  1.00  0.00     0.134 A 
ATOM     64  F   UNL     1      -6.545  -1.746   8.911  1.00  0.00    -0.206 F 
ATOM     65  C   UNL     1      -8.174  -0.183   8.424  1.00  0.00     0.040 A 
ATOM     66  C   UNL     1      -7.933   1.323   6.598  1.00  0.00     0.040 A 
ATOM     67  F   UNL     1      -5.977   1.374   5.346  1.00  0.00    -0.206 F 
ATOM     68  C   UNL     1      -8.693   0.845   7.655  1.00  0.00     0.006 A 
ENDBRANCH  47  61
BRANCH  48  69
ATOM     69  C   UNL     1       0.744  -6.120   3.446  1.00  0.00     0.057 A 
ATOM     70  C   UNL     1       0.750  -7.077   2.411  1.00  0.00     0.134 A 
ATOM     71  C   UNL     1       1.448  -4.936   3.197  1.00  0.00     0.134 A 
ATOM     72  F   UNL     1       0.103  -8.244   2.567  1.00  0.00    -0.206 F 
ATOM     73  C   UNL     1       1.350  -6.839   1.169  1.00  0.00     0.040 A 
ATOM     74  C   UNL     1       2.069  -4.692   1.961  1.00  0.00     0.040 A 
ATOM     75  F   UNL     1       1.500  -3.963   4.117  1.00  0.00    -0.206 F 
ATOM     76  C   UNL     1       2.000  -5.633   0.935  1.00  0.00     0.006 A 
ENDBRANCH  48  69
BRANCH  60  77
ATOM     77  C   UNL     1      -0.661  -3.011   9.800  1.00  0.00     0.057 A 
ATOM     78  C   UNL     1       0.681  -2.669  10.019  1.00  0.00     0.134 A 
ATOM     79  C   UNL     1      -1.561  -2.627  10.816  1.00  0.00     0.134 A 
ATOM     80  F   UNL     1       1.618  -2.883   9.085  1.00  0.00    -0.206 F 
ATOM     81  C   UNL     1       1.109  -2.042  11.193  1.00  0.00     0.040 A 
ATOM     82  C   UNL     1      -1.153  -1.954  11.968  1.00  0.00     0.040 A 
ATOM     83  F   UNL     1      -2.877  -2.869  10.722  1.00  0.00    -0.206 F 
ATOM     84  C   UNL     1       0.190  -1.670  12.167  1.00  0.00     0.006 A 
ENDBRANCH  60  77
ENDBRANCH  34  35
ENDBRANCH  27  29
ENDBRANCH  26  27
ENDBRANCH  25  26
ENDBRANCH   1  25
TORSDOF 14
