REMARK SMILES Cc1c(F)cc(C(=O)OCCOC(=O)c2ccc(-c3c4nc(c(-c5c(F)cccc5F)c5ccc([nH]5)c(-c5c(F)cccc5F)c5nc(c(-c6c(F)cccc6F)c6ccc3[nH]6)C=C5)C=C4)cc2)cc1S(=O)(=O)NC#N
REMARK SMILES IDX 10 1 9 2 7 3 8 4 6 5 1 6 2 7 3 8 70 9 4 10 5 11 69 12 71 13
REMARK SMILES IDX 72 14 73 15 74 16 75 18 76 19 11 20 12 21 13 22 14 23 15 24
REMARK SMILES IDX 16 25 68 26 17 27 67 28 18 29 19 30 20 31 61 32 21 33 66 34
REMARK SMILES IDX 60 35 62 36 22 37 65 38 59 39 58 40 23 42 49 43 32 44 48 45
REMARK SMILES IDX 33 46 36 47 47 48 63 49 34 50 35 51 46 53 64 54 37 55 24 56
REMARK SMILES IDX 25 57 30 58 26 59 27 60 29 61 31 62 28 63 50 64 51 65 56 66
REMARK SMILES IDX 52 67 53 68 55 69 57 70 54 71 38 72 39 73 44 74 40 75 41 76
REMARK SMILES IDX 43 77 45 78 42 79
REMARK H PARENT 74 17 62 41 36 52
REMARK Flexibility Score: inf
ROOT
ATOM      1  C   UNL     1      -5.422  -1.885   0.475  1.00  0.00     0.275 C 
ENDROOT
BRANCH   1   2
ATOM      2  O   UNL     1      -4.294  -0.974   0.399  1.00  0.00    -0.458 OA
BRANCH   2   3
ATOM      3  C   UNL     1      -3.171  -1.371   1.056  1.00  0.00     0.338 C 
ATOM      4  O   UNL     1      -3.069  -2.372   1.752  1.00  0.00    -0.246 OA
BRANCH   3   5
ATOM      5  C   UNL     1      -1.977  -0.552   0.707  1.00  0.00     0.064 A 
ATOM      6  C   UNL     1       1.727   1.402  -0.413  1.00  0.00     0.049 C 
ATOM      7  C   UNL     1       0.398   0.861  -0.002  1.00  0.00     0.005 A 
ATOM      8  C   UNL     1       0.389  -0.518   0.282  1.00  0.00     0.128 A 
ATOM      9  C   UNL     1      -0.807   1.559   0.163  1.00  0.00     0.095 A 
ATOM     10  F   UNL     1       1.525  -1.226   0.175  1.00  0.00    -0.207 F 
ATOM     11  C   UNL     1      -0.752  -1.201   0.674  1.00  0.00     0.055 A 
ATOM     12  C   UNL     1      -2.002   0.817   0.447  1.00  0.00     0.038 A 
BRANCH   9  13
ATOM     13  S   UNL     1      -1.138   3.313   0.045  1.00  0.00     0.270 S 
ATOM     14  O   UNL     1      -1.534   3.528  -1.332  1.00  0.00    -0.201 OA
ATOM     15  O   UNL     1      -2.095   3.571   1.107  1.00  0.00    -0.201 OA
BRANCH  13  16
ATOM     16  N   UNL     1       0.031   4.448   0.319  1.00  0.00    -0.215 NA
ATOM     17  H   UNL     1      -0.254   5.390   0.349  1.00  0.00     0.193 HD
BRANCH  16  18
ATOM     18  C   UNL     1       1.313   4.202   0.502  1.00  0.00     0.191 C 
ATOM     19  N   UNL     1       2.458   4.148   0.611  1.00  0.00    -0.172 NA
ENDBRANCH  16  18
ENDBRANCH  13  16
ENDBRANCH   9  13
ENDBRANCH   3   5
ENDBRANCH   2   3
ENDBRANCH   1   2
BRANCH   1  20
ATOM     20  C   UNL     1      -5.495  -2.873  -0.695  1.00  0.00     0.275 C 
BRANCH  20  21
ATOM     21  O   UNL     1      -4.484  -3.879  -0.588  1.00  0.00    -0.458 OA
BRANCH  21  22
ATOM     22  C   UNL     1      -3.305  -3.469  -1.098  1.00  0.00     0.338 C 
ATOM     23  O   UNL     1      -3.041  -2.364  -1.551  1.00  0.00    -0.246 OA
BRANCH  22  24
ATOM     24  C   UNL     1      -2.385  -4.595  -1.271  1.00  0.00     0.060 A 
ATOM     25  C   UNL     1      -1.045  -4.185  -1.383  1.00  0.00     0.016 A 
ATOM     26  C   UNL     1      -2.936  -5.559  -2.112  1.00  0.00     0.016 A 
ATOM     27  C   UNL     1      -0.385  -4.403  -2.564  1.00  0.00     0.010 A 
ATOM     28  C   UNL     1      -2.280  -5.787  -3.287  1.00  0.00     0.010 A 
ATOM     29  C   UNL     1      -1.062  -5.131  -3.528  1.00  0.00    -0.014 A 
BRANCH  29  30
ATOM     30  C   UNL     1      -0.431  -5.523  -4.756  1.00  0.00     0.031 A 
ATOM     31  C   UNL     1       0.522  -6.631  -4.581  1.00  0.00     0.074 A 
ATOM     32  C   UNL     1      -1.006  -5.029  -5.873  1.00  0.00     0.049 A 
ATOM     33  N   UNL     1       1.393  -6.986  -5.447  1.00  0.00    -0.248 NA
ATOM     34  C   UNL     1       0.649  -7.396  -3.325  1.00  0.00     0.031 C 
ATOM     35  C   UNL     1      -1.062  -5.569  -7.218  1.00  0.00     0.029 A 
ATOM     36  N   UNL     1      -1.560  -3.746  -6.009  1.00  0.00    -0.354 N 
ATOM     37  C   UNL     1       1.819  -8.243  -5.064  1.00  0.00     0.074 A 
ATOM     38  C   UNL     1       1.519  -8.351  -3.665  1.00  0.00     0.031 C 
ATOM     39  C   UNL     1      -1.312  -4.566  -8.084  1.00  0.00     0.029 A 
ATOM     40  C   UNL     1      -1.262  -3.325  -7.327  1.00  0.00     0.049 A 
ATOM     41  H   UNL     1      -2.056  -3.241  -5.325  1.00  0.00     0.167 HD
ATOM     42  C   UNL     1       2.148  -9.120  -6.051  1.00  0.00     0.037 A 
ATOM     43  C   UNL     1      -0.341  -2.327  -7.518  1.00  0.00     0.037 A 
ATOM     44  C   UNL     1       1.965  -8.460  -7.337  1.00  0.00     0.049 A 
ATOM     45  C   UNL     1       0.945  -2.838  -8.133  1.00  0.00     0.074 A 
ATOM     46  C   UNL     1       0.898  -8.365  -8.213  1.00  0.00     0.029 A 
ATOM     47  N   UNL     1       2.807  -7.420  -7.640  1.00  0.00    -0.354 N 
ATOM     48  N   UNL     1       1.290  -4.097  -8.153  1.00  0.00    -0.248 NA
ATOM     49  C   UNL     1       1.957  -1.975  -8.736  1.00  0.00     0.031 C 
ATOM     50  C   UNL     1       1.127  -7.228  -9.046  1.00  0.00     0.029 A 
ATOM     51  C   UNL     1       2.316  -6.638  -8.656  1.00  0.00     0.049 A 
ATOM     52  H   UNL     1       3.663  -7.254  -7.183  1.00  0.00     0.167 HD
ATOM     53  C   UNL     1       2.498  -4.236  -8.774  1.00  0.00     0.074 A 
ATOM     54  C   UNL     1       2.907  -2.870  -9.062  1.00  0.00     0.031 C 
ATOM     55  C   UNL     1       3.071  -5.453  -9.014  1.00  0.00     0.037 A 
BRANCH  42  56
ATOM     56  C   UNL     1       2.402 -10.595  -5.941  1.00  0.00     0.057 A 
ATOM     57  C   UNL     1       2.303 -11.392  -7.102  1.00  0.00     0.134 A 
ATOM     58  C   UNL     1       2.777 -11.294  -4.783  1.00  0.00     0.134 A 
ATOM     59  F   UNL     1       1.987 -10.870  -8.295  1.00  0.00    -0.206 F 
ATOM     60  C   UNL     1       2.530 -12.769  -7.111  1.00  0.00     0.040 A 
ATOM     61  C   UNL     1       2.991 -12.683  -4.775  1.00  0.00     0.040 A 
ATOM     62  F   UNL     1       2.998 -10.674  -3.618  1.00  0.00    -0.206 F 
ATOM     63  C   UNL     1       2.870 -13.425  -5.942  1.00  0.00     0.006 A 
ENDBRANCH  42  56
BRANCH  43  64
ATOM     64  C   UNL     1      -0.420  -1.307  -6.423  1.00  0.00     0.057 A 
ATOM     65  C   UNL     1      -1.651  -0.640  -6.259  1.00  0.00     0.134 A 
ATOM     66  C   UNL     1       0.396  -1.434  -5.294  1.00  0.00     0.134 A 
ATOM     67  F   UNL     1      -2.465  -0.456  -7.312  1.00  0.00    -0.206 F 
ATOM     68  C   UNL     1      -2.150  -0.338  -4.991  1.00  0.00     0.040 A 
ATOM     69  C   UNL     1      -0.088  -1.115  -4.021  1.00  0.00     0.040 A 
ATOM     70  F   UNL     1       1.602  -2.012  -5.384  1.00  0.00    -0.206 F 
ATOM     71  C   UNL     1      -1.385  -0.627  -3.865  1.00  0.00     0.006 A 
ENDBRANCH  43  64
BRANCH  55  72
ATOM     72  C   UNL     1       4.444  -5.610  -9.594  1.00  0.00     0.057 A 
ATOM     73  C   UNL     1       4.870  -4.864 -10.694  1.00  0.00     0.134 A 
ATOM     74  C   UNL     1       5.371  -6.559  -9.106  1.00  0.00     0.134 A 
ATOM     75  F   UNL     1       4.030  -4.034 -11.332  1.00  0.00    -0.206 F 
ATOM     76  C   UNL     1       6.174  -4.951 -11.186  1.00  0.00     0.040 A 
ATOM     77  C   UNL     1       6.647  -6.712  -9.640  1.00  0.00     0.040 A 
ATOM     78  F   UNL     1       5.109  -7.361  -8.066  1.00  0.00    -0.206 F 
ATOM     79  C   UNL     1       7.069  -5.875 -10.656  1.00  0.00     0.006 A 
ENDBRANCH  55  72
ENDBRANCH  29  30
ENDBRANCH  22  24
ENDBRANCH  21  22
ENDBRANCH  20  21
ENDBRANCH   1  20
TORSDOF 14
