REMARK SMILES Cn1cc(C[C@@H](NC(=O)OCC2c3ccccc3-c3ccccc32)C(=O)OCCOC(=O)c2ccc(-c3c4nc(c(-c5c(F)cccc5F)c5ccc([nH]5)c(-c5c(F)cccc5F)c5nc(c(-c6c(F)cccc6F)c6ccc3[nH]6)C=C5)C=C4)cc2)c2ccccc21
REMARK SMILES IDX 28 1 27 2 25 3 26 4 6 5 5 6 4 7 1 8 2 9 3 10 92 11 87 12
REMARK SMILES IDX 91 13 88 14 90 15 89 16 7 17 8 18 9 20 10 21 11 22 12 23
REMARK SMILES IDX 13 24 24 25 14 26 18 27 19 28 23 29 15 30 17 31 20 32 22 33
REMARK SMILES IDX 16 34 21 35 29 36 30 37 31 38 32 39 33 40 34 41 86 42 35 43
REMARK SMILES IDX 85 44 36 45 37 46 38 47 79 48 39 49 84 50 78 51 80 52 40 53
REMARK SMILES IDX 83 54 77 55 76 56 41 58 67 59 50 60 66 61 51 62 54 63 65 64
REMARK SMILES IDX 81 65 52 66 53 67 64 69 82 70 55 71 42 72 43 73 48 74 44 75
REMARK SMILES IDX 45 76 47 77 49 78 46 79 68 80 69 81 74 82 70 83 71 84 73 85
REMARK SMILES IDX 75 86 72 87 56 88 57 89 62 90 58 91 59 92 61 93 63 94 60 95
REMARK H PARENT 7 19 80 57 54 68
REMARK Flexibility Score: inf
ROOT
ATOM      1  C   UNL     1       0.179  -7.530   0.221  1.00  0.00     0.274 C 
ENDROOT
BRANCH   1   2
ATOM      2  O   UNL     1       0.102  -6.101   0.063  1.00  0.00    -0.461 OA
BRANCH   2   3
ATOM      3  C   UNL     1      -0.018  -5.384   1.219  1.00  0.00     0.329 C 
ATOM      4  O   UNL     1       0.011  -5.869   2.345  1.00  0.00    -0.250 OA
BRANCH   3   5
ATOM      5  C   UNL     1      -0.331  -3.909   0.946  1.00  0.00     0.200 C 
BRANCH   5   6
ATOM      6  C   UNL     1       0.297  -3.336  -0.344  1.00  0.00     0.075 C 
BRANCH   6   7
ATOM      7  C   UNL     1       0.479  -1.833  -0.278  1.00  0.00    -0.020 A 
ATOM      8  C   UNL     1       2.422   1.216   0.117  1.00  0.00     0.149 C 
ATOM      9  N   UNL     1       1.419   0.181  -0.012  1.00  0.00    -0.350 N 
ATOM     10  C   UNL     1       1.673  -1.165  -0.062  1.00  0.00     0.090 A 
ATOM     11  C   UNL     1       0.066   0.414  -0.127  1.00  0.00     0.048 A 
ATOM     12  C   UNL     1      -0.535  -0.821  -0.389  1.00  0.00     0.003 A 
ATOM     13  C   UNL     1      -0.674   1.606  -0.039  1.00  0.00     0.027 A 
ATOM     14  C   UNL     1      -1.921  -0.841  -0.652  1.00  0.00     0.010 A 
ATOM     15  C   UNL     1      -2.056   1.539  -0.231  1.00  0.00     0.002 A 
ATOM     16  C   UNL     1      -2.672   0.334  -0.549  1.00  0.00     0.001 A 
ENDBRANCH   6   7
ENDBRANCH   5   6
BRANCH   5  17
ATOM     17  N   UNL     1      -1.749  -3.584   1.077  1.00  0.00    -0.308 N 
ATOM     18  C   UNL     1      -2.797  -4.337   0.654  1.00  0.00     0.407 C 
ATOM     19  H   UNL     1      -1.967  -2.732   1.519  1.00  0.00     0.168 HD
ATOM     20  O   UNL     1      -3.812  -3.819   0.192  1.00  0.00    -0.225 OA
BRANCH  18  21
ATOM     21  O   UNL     1      -2.667  -5.648   0.966  1.00  0.00    -0.449 OA
BRANCH  21  22
ATOM     22  C   UNL     1      -3.902  -6.366   1.148  1.00  0.00     0.248 C 
BRANCH  22  23
ATOM     23  C   UNL     1      -4.408  -6.358   2.612  1.00  0.00     0.088 C 
ATOM     24  C   UNL     1      -3.714  -7.368   3.527  1.00  0.00    -0.029 A 
ATOM     25  C   UNL     1      -4.205  -5.058   3.387  1.00  0.00    -0.029 A 
ATOM     26  C   UNL     1      -3.672  -8.751   3.417  1.00  0.00     0.005 A 
ATOM     27  C   UNL     1      -3.175  -6.713   4.655  1.00  0.00    -0.014 A 
ATOM     28  C   UNL     1      -3.426  -5.294   4.540  1.00  0.00    -0.014 A 
ATOM     29  C   UNL     1      -4.660  -3.783   3.088  1.00  0.00     0.005 A 
ATOM     30  C   UNL     1      -3.087  -9.480   4.456  1.00  0.00     0.000 A 
ATOM     31  C   UNL     1      -2.592  -7.437   5.684  1.00  0.00     0.009 A 
ATOM     32  C   UNL     1      -3.033  -4.244   5.356  1.00  0.00     0.009 A 
ATOM     33  C   UNL     1      -4.247  -2.722   3.897  1.00  0.00     0.000 A 
ATOM     34  C   UNL     1      -2.555  -8.830   5.581  1.00  0.00     0.001 A 
ATOM     35  C   UNL     1      -3.433  -2.949   5.017  1.00  0.00     0.001 A 
ENDBRANCH  22  23
ENDBRANCH  21  22
ENDBRANCH  18  21
ENDBRANCH   5  17
ENDBRANCH   3   5
ENDBRANCH   2   3
ENDBRANCH   1   2
BRANCH   1  36
ATOM     36  C   UNL     1       1.622  -8.040   0.205  1.00  0.00     0.275 C 
BRANCH  36  37
ATOM     37  O   UNL     1       2.357  -7.611   1.364  1.00  0.00    -0.458 OA
BRANCH  37  38
ATOM     38  C   UNL     1       2.950  -6.401   1.240  1.00  0.00     0.338 C 
ATOM     39  O   UNL     1       3.006  -5.705   0.239  1.00  0.00    -0.246 OA
BRANCH  38  40
ATOM     40  C   UNL     1       3.397  -5.921   2.557  1.00  0.00     0.060 A 
ATOM     41  C   UNL     1       2.988  -4.641   2.947  1.00  0.00     0.016 A 
ATOM     42  C   UNL     1       4.259  -6.669   3.359  1.00  0.00     0.016 A 
ATOM     43  C   UNL     1       3.450  -4.092   4.136  1.00  0.00     0.010 A 
ATOM     44  C   UNL     1       4.741  -6.109   4.545  1.00  0.00     0.010 A 
ATOM     45  C   UNL     1       4.357  -4.810   4.922  1.00  0.00    -0.014 A 
BRANCH  45  46
ATOM     46  C   UNL     1       5.009  -4.128   6.060  1.00  0.00     0.031 A 
ATOM     47  C   UNL     1       6.390  -3.571   5.873  1.00  0.00     0.074 A 
ATOM     48  C   UNL     1       4.351  -3.959   7.219  1.00  0.00     0.049 A 
ATOM     49  N   UNL     1       7.170  -2.978   6.738  1.00  0.00    -0.248 NA
ATOM     50  C   UNL     1       6.968  -3.696   4.525  1.00  0.00     0.031 C 
ATOM     51  C   UNL     1       2.983  -4.401   7.487  1.00  0.00     0.029 A 
ATOM     52  N   UNL     1       4.750  -3.365   8.388  1.00  0.00    -0.354 N 
ATOM     53  C   UNL     1       8.336  -2.677   6.047  1.00  0.00     0.074 A 
ATOM     54  C   UNL     1       8.169  -3.165   4.695  1.00  0.00     0.031 C 
ATOM     55  C   UNL     1       2.658  -4.067   8.748  1.00  0.00     0.029 A 
ATOM     56  C   UNL     1       3.805  -3.423   9.382  1.00  0.00     0.049 A 
ATOM     57  H   UNL     1       5.630  -2.939   8.504  1.00  0.00     0.167 HD
ATOM     58  C   UNL     1       9.445  -2.048   6.501  1.00  0.00     0.037 A 
ATOM     59  C   UNL     1       3.874  -3.018  10.664  1.00  0.00     0.037 A 
ATOM     60  C   UNL     1       9.600  -1.561   7.846  1.00  0.00     0.049 A 
ATOM     61  C   UNL     1       5.138  -2.369  11.159  1.00  0.00     0.074 A 
ATOM     62  C   UNL     1      10.687  -0.922   8.415  1.00  0.00     0.029 A 
ATOM     63  N   UNL     1       8.630  -1.658   8.833  1.00  0.00    -0.354 N 
ATOM     64  N   UNL     1       6.244  -2.105  10.506  1.00  0.00    -0.248 NA
ATOM     65  C   UNL     1       5.162  -1.961  12.570  1.00  0.00     0.031 C 
ATOM     66  C   UNL     1      10.387  -0.662   9.757  1.00  0.00     0.029 A 
ATOM     67  C   UNL     1       9.097  -1.100  10.011  1.00  0.00     0.049 A 
ATOM     68  H   UNL     1       7.741  -2.064   8.714  1.00  0.00     0.167 HD
ATOM     69  C   UNL     1       7.084  -1.477  11.416  1.00  0.00     0.074 A 
ATOM     70  C   UNL     1       6.354  -1.389  12.664  1.00  0.00     0.031 C 
ATOM     71  C   UNL     1       8.345  -1.013  11.237  1.00  0.00     0.037 A 
BRANCH  58  72
ATOM     72  C   UNL     1      10.587  -1.890   5.542  1.00  0.00     0.057 A 
ATOM     73  C   UNL     1      10.543  -0.977   4.481  1.00  0.00     0.134 A 
ATOM     74  C   UNL     1      11.749  -2.657   5.688  1.00  0.00     0.134 A 
ATOM     75  F   UNL     1       9.450  -0.227   4.273  1.00  0.00    -0.206 F 
ATOM     76  C   UNL     1      11.607  -0.847   3.586  1.00  0.00     0.040 A 
ATOM     77  C   UNL     1      12.829  -2.519   4.814  1.00  0.00     0.040 A 
ATOM     78  F   UNL     1      11.855  -3.550   6.683  1.00  0.00    -0.206 F 
ATOM     79  C   UNL     1      12.757  -1.616   3.756  1.00  0.00     0.006 A 
ENDBRANCH  58  72
BRANCH  59  80
ATOM     80  C   UNL     1       2.719  -3.228  11.572  1.00  0.00     0.057 A 
ATOM     81  C   UNL     1       1.966  -2.150  12.050  1.00  0.00     0.134 A 
ATOM     82  C   UNL     1       2.352  -4.511  11.997  1.00  0.00     0.134 A 
ATOM     83  F   UNL     1       2.283  -0.895  11.697  1.00  0.00    -0.206 F 
ATOM     84  C   UNL     1       0.898  -2.338  12.930  1.00  0.00     0.040 A 
ATOM     85  C   UNL     1       1.272  -4.715  12.856  1.00  0.00     0.040 A 
ATOM     86  F   UNL     1       3.035  -5.585  11.574  1.00  0.00    -0.206 F 
ATOM     87  C   UNL     1       0.546  -3.625  13.331  1.00  0.00     0.006 A 
ENDBRANCH  59  80
BRANCH  71  88
ATOM     88  C   UNL     1       8.992  -0.329  12.405  1.00  0.00     0.057 A 
ATOM     89  C   UNL     1       9.452  -1.042  13.519  1.00  0.00     0.134 A 
ATOM     90  C   UNL     1       9.179   1.059  12.400  1.00  0.00     0.134 A 
ATOM     91  F   UNL     1       9.291  -2.372  13.590  1.00  0.00    -0.206 F 
ATOM     92  C   UNL     1      10.051  -0.394  14.600  1.00  0.00     0.040 A 
ATOM     93  C   UNL     1       9.799   1.715  13.463  1.00  0.00     0.040 A 
ATOM     94  F   UNL     1       8.769   1.798  11.358  1.00  0.00    -0.206 F 
ATOM     95  C   UNL     1      10.231   0.989  14.571  1.00  0.00     0.006 A 
ENDBRANCH  71  88
ENDBRANCH  45  46
ENDBRANCH  38  40
ENDBRANCH  37  38
ENDBRANCH  36  37
ENDBRANCH   1  36
TORSDOF 17
