REMARK SMILES C[C@@](NC(=O)NCC(N)=O)(C(=O)OCCOC(=O)c1ccc(-c2c3nc(c(-c4c(F)cccc4F)c4ccc([nH]4)c(-c4c(F)cccc4F)c4nc(c(-c5c(F)cccc5F)c5ccc2[nH]5)C=C4)C=C3)cc1)C(F)(F)F
REMARK SMILES IDX 14 1 13 2 11 3 12 4 2 5 1 6 3 7 4 8 5 10 6 11 7 13 8 14 9 15
REMARK SMILES IDX 10 16 73 19 74 20 75 21 76 22 15 23 16 24 17 25 18 26 19 27
REMARK SMILES IDX 20 28 72 29 21 30 71 31 22 32 23 33 24 34 65 35 25 36 70 37
REMARK SMILES IDX 64 38 66 39 26 40 69 41 63 42 62 43 27 45 53 46 36 47 52 48
REMARK SMILES IDX 37 49 40 50 51 51 67 52 38 53 39 54 50 56 68 57 41 58 28 59
REMARK SMILES IDX 29 60 34 61 30 62 31 63 33 64 35 65 32 66 54 67 55 68 60 69
REMARK SMILES IDX 56 70 57 71 59 72 61 73 58 74 42 75 43 76 48 77 44 78 45 79
REMARK SMILES IDX 47 80 49 81 46 82
REMARK H PARENT 3 9 6 12 9 17 9 18 66 44 40 55
REMARK Flexibility Score: inf
ROOT
ATOM      1  C   UNL     1      -2.836  -0.697   0.393  1.00  0.00     0.274 C 
ENDROOT
BRANCH   1   2
ATOM      2  O   UNL     1      -1.397  -0.834   0.316  1.00  0.00    -0.460 OA
BRANCH   2   3
ATOM      3  C   UNL     1      -0.811  -0.190  -0.736  1.00  0.00     0.341 C 
ATOM      4  O   UNL     1      -1.428   0.619  -1.402  1.00  0.00    -0.249 OA
BRANCH   3   5
ATOM      5  C   UNL     1       0.578  -0.721  -1.100  1.00  0.00     0.232 C 
ATOM      6  C   UNL     1       1.325  -1.060   0.212  1.00  0.00     0.058 C 
BRANCH   5   7
ATOM      7  N   UNL     1       0.552  -1.970  -1.950  1.00  0.00    -0.315 N 
ATOM      8  C   UNL     1       0.222  -2.307  -3.205  1.00  0.00     0.316 C 
ATOM      9  H   UNL     1       0.865  -2.754  -1.441  1.00  0.00     0.166 HD
ATOM     10  O   UNL     1       0.801  -3.289  -3.675  1.00  0.00    -0.249 OA
ATOM     11  N   UNL     1      -0.700  -1.702  -3.956  1.00  0.00    -0.329 N 
ATOM     12  H   UNL     1      -0.697  -1.969  -4.903  1.00  0.00     0.165 HD
BRANCH  11  13
ATOM     13  C   UNL     1      -1.696  -0.727  -3.615  1.00  0.00     0.217 C 
BRANCH  13  14
ATOM     14  C   UNL     1      -2.853  -0.443  -4.562  1.00  0.00     0.236 C 
ATOM     15  N   UNL     1      -3.837   0.324  -3.986  1.00  0.00    -0.368 N 
ATOM     16  O   UNL     1      -2.908  -0.807  -5.729  1.00  0.00    -0.273 OA
ATOM     17  H   UNL     1      -3.758   0.598  -3.043  1.00  0.00     0.159 HD
ATOM     18  H   UNL     1      -4.620   0.600  -4.515  1.00  0.00     0.159 HD
ENDBRANCH  13  14
ENDBRANCH  11  13
ENDBRANCH   5   7
BRANCH   5  19
ATOM     19  C   UNL     1       1.364   0.438  -1.746  1.00  0.00     0.422 C 
ATOM     20  F   UNL     1       1.460   1.500  -0.911  1.00  0.00    -0.168 F 
ATOM     21  F   UNL     1       2.639   0.059  -2.020  1.00  0.00    -0.168 F 
ATOM     22  F   UNL     1       0.839   0.883  -2.904  1.00  0.00    -0.168 F 
ENDBRANCH   5  19
ENDBRANCH   3   5
ENDBRANCH   2   3
ENDBRANCH   1   2
BRANCH   1  23
ATOM     23  C   UNL     1      -3.362   0.593   1.048  1.00  0.00     0.275 C 
BRANCH  23  24
ATOM     24  O   UNL     1      -3.202   1.777   0.235  1.00  0.00    -0.458 OA
BRANCH  24  25
ATOM     25  C   UNL     1      -2.102   2.514   0.520  1.00  0.00     0.338 C 
ATOM     26  O   UNL     1      -1.264   2.263   1.380  1.00  0.00    -0.246 OA
BRANCH  25  27
ATOM     27  C   UNL     1      -1.929   3.634  -0.423  1.00  0.00     0.060 A 
ATOM     28  C   UNL     1      -0.922   3.533  -1.387  1.00  0.00     0.016 A 
ATOM     29  C   UNL     1      -2.578   4.851  -0.226  1.00  0.00     0.016 A 
ATOM     30  C   UNL     1      -0.505   4.638  -2.115  1.00  0.00     0.010 A 
ATOM     31  C   UNL     1      -2.171   5.967  -0.970  1.00  0.00     0.010 A 
ATOM     32  C   UNL     1      -1.104   5.874  -1.887  1.00  0.00    -0.014 A 
BRANCH  32  33
ATOM     33  C   UNL     1      -0.501   7.094  -2.471  1.00  0.00     0.031 A 
ATOM     34  C   UNL     1       0.167   8.075  -1.552  1.00  0.00     0.074 A 
ATOM     35  C   UNL     1      -0.497   7.308  -3.799  1.00  0.00     0.049 A 
ATOM     36  N   UNL     1       0.513   9.315  -1.770  1.00  0.00    -0.248 NA
ATOM     37  C   UNL     1       0.477   7.588  -0.198  1.00  0.00     0.031 C 
ATOM     38  C   UNL     1      -0.978   6.371  -4.813  1.00  0.00     0.029 A 
ATOM     39  N   UNL     1      -0.079   8.399  -4.518  1.00  0.00    -0.354 N 
ATOM     40  C   UNL     1       1.014   9.780  -0.560  1.00  0.00     0.074 A 
ATOM     41  C   UNL     1       0.945   8.683   0.381  1.00  0.00     0.031 C 
ATOM     42  C   UNL     1      -0.846   6.935  -6.024  1.00  0.00     0.029 A 
ATOM     43  C   UNL     1      -0.352   8.299  -5.860  1.00  0.00     0.049 A 
ATOM     44  H   UNL     1       0.371   9.175  -4.113  1.00  0.00     0.167 HD
ATOM     45  C   UNL     1       1.470  11.020  -0.266  1.00  0.00     0.037 A 
ATOM     46  C   UNL     1      -0.278   9.227  -6.832  1.00  0.00     0.037 A 
ATOM     47  C   UNL     1       1.576  12.081  -1.233  1.00  0.00     0.049 A 
ATOM     48  C   UNL     1       0.165  10.619  -6.478  1.00  0.00     0.074 A 
ATOM     49  C   UNL     1       2.007  13.382  -1.049  1.00  0.00     0.029 A 
ATOM     50  N   UNL     1       1.262  11.948  -2.579  1.00  0.00    -0.354 N 
ATOM     51  N   UNL     1       0.531  11.098  -5.313  1.00  0.00    -0.248 NA
ATOM     52  C   UNL     1       0.183  11.606  -7.566  1.00  0.00     0.031 C 
ATOM     53  C   UNL     1       1.921  14.046  -2.277  1.00  0.00     0.029 A 
ATOM     54  C   UNL     1       1.480  13.146  -3.235  1.00  0.00     0.049 A 
ATOM     55  H   UNL     1       0.933  11.123  -3.003  1.00  0.00     0.167 HD
ATOM     56  C   UNL     1       0.844  12.433  -5.531  1.00  0.00     0.074 A 
ATOM     57  C   UNL     1       0.629  12.687  -6.941  1.00  0.00     0.031 C 
ATOM     58  C   UNL     1       1.272  13.366  -4.644  1.00  0.00     0.037 A 
BRANCH  45  59
ATOM     59  C   UNL     1       1.815  11.306   1.165  1.00  0.00     0.057 A 
ATOM     60  C   UNL     1       2.952  10.777   1.787  1.00  0.00     0.134 A 
ATOM     61  C   UNL     1       0.980  12.126   1.937  1.00  0.00     0.134 A 
ATOM     62  F   UNL     1       3.782   9.967   1.112  1.00  0.00    -0.206 F 
ATOM     63  C   UNL     1       3.231  11.029   3.133  1.00  0.00     0.040 A 
ATOM     64  C   UNL     1       1.262  12.407   3.274  1.00  0.00     0.040 A 
ATOM     65  F   UNL     1      -0.127  12.665   1.404  1.00  0.00    -0.206 F 
ATOM     66  C   UNL     1       2.387  11.850   3.878  1.00  0.00     0.006 A 
ENDBRANCH  45  59
BRANCH  46  67
ATOM     67  C   UNL     1      -0.701   8.880  -8.211  1.00  0.00     0.057 A 
ATOM     68  C   UNL     1       0.229   8.779  -9.251  1.00  0.00     0.134 A 
ATOM     69  C   UNL     1      -2.043   8.618  -8.517  1.00  0.00     0.134 A 
ATOM     70  F   UNL     1       1.524   9.041  -9.026  1.00  0.00    -0.206 F 
ATOM     71  C   UNL     1      -0.160   8.429 -10.546  1.00  0.00     0.040 A 
ATOM     72  C   UNL     1      -2.442   8.243  -9.801  1.00  0.00     0.040 A 
ATOM     73  F   UNL     1      -2.983   8.699  -7.564  1.00  0.00    -0.206 F 
ATOM     74  C   UNL     1      -1.498   8.151 -10.821  1.00  0.00     0.006 A 
ENDBRANCH  46  67
BRANCH  58  75
ATOM     75  C   UNL     1       1.585  14.729  -5.183  1.00  0.00     0.057 A 
ATOM     76  C   UNL     1       0.578  15.638  -5.526  1.00  0.00     0.134 A 
ATOM     77  C   UNL     1       2.914  15.153  -5.305  1.00  0.00     0.134 A 
ATOM     78  F   UNL     1      -0.714  15.286  -5.442  1.00  0.00    -0.206 F 
ATOM     79  C   UNL     1       0.883  16.920  -5.986  1.00  0.00     0.040 A 
ATOM     80  C   UNL     1       3.232  16.439  -5.742  1.00  0.00     0.040 A 
ATOM     81  F   UNL     1       3.924  14.329  -4.983  1.00  0.00    -0.206 F 
ATOM     82  C   UNL     1       2.214  17.325  -6.087  1.00  0.00     0.006 A 
ENDBRANCH  58  75
ENDBRANCH  32  33
ENDBRANCH  25  27
ENDBRANCH  24  25
ENDBRANCH  23  24
ENDBRANCH   1  23
TORSDOF 15
