REMARK SMILES C[C@]12c3ccccc3[C@](C)(c3ccccc31)[C@@H]1C(=O)N(c3ccc(C(=O)OCCOC(=O)c4ccc(-c5c6nc(c(-c7c(F)cccc7F)c7ccc([nH]7)c(-c7c(F)cccc7F)c7nc(c(-c8c(F)cccc8F)c8ccc5[nH]8)C=C7)C=C6)cc4)cc3)C(=O)[C@H]12
REMARK SMILES IDX 29 1 28 2 27 3 25 4 26 5 24 6 21 7 22 8 88 9 23 10 87 11
REMARK SMILES IDX 20 12 1 13 2 14 16 15 3 16 91 17 15 18 11 19 8 20 4 21 17 22
REMARK SMILES IDX 89 23 14 24 12 25 9 26 7 27 5 28 18 29 90 30 13 31 10 32
REMARK SMILES IDX 6 33 19 34 30 35 31 36 32 37 33 38 34 39 86 40 35 41 85 42
REMARK SMILES IDX 36 43 37 44 38 45 79 46 39 47 84 48 78 49 80 50 40 51 83 52
REMARK SMILES IDX 77 53 76 54 41 56 67 57 50 58 66 59 51 60 54 61 65 62 81 63
REMARK SMILES IDX 52 64 53 65 64 67 82 68 55 69 42 70 43 71 48 72 44 73 45 74
REMARK SMILES IDX 47 75 49 76 46 77 68 78 69 79 74 80 70 81 71 82 73 83 75 84
REMARK SMILES IDX 72 85 56 86 57 87 62 88 58 89 59 90 61 91 63 92 60 93
REMARK H PARENT 80 55 54 66
REMARK Flexibility Score: inf
ROOT
ATOM      1  C   UNL     1      -2.044  10.782  -0.912  1.00  0.00     0.275 C 
ENDROOT
BRANCH   1   2
ATOM      2  C   UNL     1      -2.361  10.440  -2.370  1.00  0.00     0.275 C 
BRANCH   2   3
ATOM      3  O   UNL     1      -2.255   9.021  -2.607  1.00  0.00    -0.458 OA
BRANCH   3   4
ATOM      4  C   UNL     1      -1.154   8.608  -3.286  1.00  0.00     0.338 C 
ATOM      5  O   UNL     1      -0.269   9.313  -3.732  1.00  0.00    -0.246 OA
BRANCH   4   6
ATOM      6  C   UNL     1      -1.082   7.123  -3.294  1.00  0.00     0.060 A 
ATOM      7  C   UNL     1      -0.793   4.351  -3.078  1.00  0.00     0.052 A 
ATOM      8  C   UNL     1       0.338   5.162  -3.114  1.00  0.00     0.028 A 
ATOM      9  C   UNL     1      -2.069   4.916  -3.200  1.00  0.00     0.028 A 
ATOM     10  C   UNL     1       0.191   6.535  -3.291  1.00  0.00     0.018 A 
ATOM     11  C   UNL     1      -2.217   6.307  -3.266  1.00  0.00     0.018 A 
BRANCH   7  12
ATOM     12  N   UNL     1      -0.637   2.967  -2.957  1.00  0.00    -0.250 N 
ATOM     13  C   UNL     1       1.086  -0.145  -0.154  1.00  0.00     0.022 C 
ATOM     14  C   UNL     1       0.377  -0.366  -1.490  1.00  0.00     0.030 C 
ATOM     15  C   UNL     1      -0.961  -1.149  -1.409  1.00  0.00    -0.033 A 
ATOM     16  C   UNL     1       1.215  -1.165  -2.539  1.00  0.00    -0.033 A 
ATOM     17  C   UNL     1       0.195   0.952  -2.284  1.00  0.00     0.108 C 
ATOM     18  C   UNL     1      -1.562  -1.632  -0.251  1.00  0.00     0.005 A 
ATOM     19  C   UNL     1      -1.577  -1.403  -2.686  1.00  0.00    -0.033 A 
ATOM     20  C   UNL     1       0.585  -1.246  -3.828  1.00  0.00    -0.033 A 
ATOM     21  C   UNL     1       2.468  -1.735  -2.326  1.00  0.00     0.005 A 
ATOM     22  C   UNL     1      -0.928   0.753  -3.309  1.00  0.00     0.108 C 
ATOM     23  C   UNL     1      -0.137   2.335  -1.813  1.00  0.00     0.238 C 
ATOM     24  C   UNL     1      -2.754  -2.354  -0.352  1.00  0.00     0.000 A 
ATOM     25  C   UNL     1      -2.757  -2.136  -2.772  1.00  0.00     0.005 A 
ATOM     26  C   UNL     1      -0.858  -0.683  -3.871  1.00  0.00     0.030 C 
ATOM     27  C   UNL     1       1.248  -1.881  -4.875  1.00  0.00     0.005 A 
ATOM     28  C   UNL     1       3.109  -2.375  -3.387  1.00  0.00     0.000 A 
ATOM     29  C   UNL     1      -0.907   2.077  -3.997  1.00  0.00     0.238 C 
ATOM     30  O   UNL     1       0.112   2.806  -0.718  1.00  0.00    -0.274 OA
ATOM     31  C   UNL     1      -3.341  -2.609  -1.598  1.00  0.00     0.000 A 
ATOM     32  C   UNL     1      -1.560  -0.798  -5.222  1.00  0.00     0.022 C 
ATOM     33  C   UNL     1       2.509  -2.439  -4.650  1.00  0.00     0.000 A 
ATOM     34  O   UNL     1      -1.184   2.304  -5.160  1.00  0.00    -0.274 OA
ENDBRANCH   7  12
ENDBRANCH   4   6
ENDBRANCH   3   4
ENDBRANCH   2   3
ENDBRANCH   1   2
BRANCH   1  35
ATOM     35  O   UNL     1      -0.638  10.617  -0.646  1.00  0.00    -0.458 OA
BRANCH  35  36
ATOM     36  C   UNL     1      -0.304   9.568   0.139  1.00  0.00     0.338 C 
ATOM     37  O   UNL     1      -1.051   8.771   0.680  1.00  0.00    -0.246 OA
BRANCH  36  38
ATOM     38  C   UNL     1       1.160   9.439   0.160  1.00  0.00     0.060 A 
ATOM     39  C   UNL     1       1.947  10.056   1.128  1.00  0.00     0.016 A 
ATOM     40  C   UNL     1       1.744   8.595  -0.780  1.00  0.00     0.016 A 
ATOM     41  C   UNL     1       3.333   9.840   1.119  1.00  0.00     0.010 A 
ATOM     42  C   UNL     1       3.112   8.341  -0.763  1.00  0.00     0.010 A 
ATOM     43  C   UNL     1       3.930   8.976   0.177  1.00  0.00    -0.014 A 
BRANCH  43  44
ATOM     44  C   UNL     1       5.396   8.707   0.191  1.00  0.00     0.031 A 
ATOM     45  C   UNL     1       6.269   9.085  -0.979  1.00  0.00     0.074 A 
ATOM     46  C   UNL     1       5.942   8.069   1.245  1.00  0.00     0.049 A 
ATOM     47  N   UNL     1       7.568   8.961  -1.116  1.00  0.00    -0.248 NA
ATOM     48  C   UNL     1       5.599   9.646  -2.162  1.00  0.00     0.031 C 
ATOM     49  C   UNL     1       5.202   7.555   2.399  1.00  0.00     0.029 A 
ATOM     50  N   UNL     1       7.249   7.750   1.521  1.00  0.00    -0.354 N 
ATOM     51  C   UNL     1       7.863   9.414  -2.397  1.00  0.00     0.074 A 
ATOM     52  C   UNL     1       6.604   9.762  -3.018  1.00  0.00     0.031 C 
ATOM     53  C   UNL     1       6.071   7.039   3.284  1.00  0.00     0.029 A 
ATOM     54  C   UNL     1       7.423   7.161   2.751  1.00  0.00     0.049 A 
ATOM     55  H   UNL     1       7.990   7.925   0.897  1.00  0.00     0.167 HD
ATOM     56  C   UNL     1       9.073   9.558  -2.992  1.00  0.00     0.037 A 
ATOM     57  C   UNL     1       8.548   6.781   3.385  1.00  0.00     0.037 A 
ATOM     58  C   UNL     1      10.331   9.252  -2.362  1.00  0.00     0.049 A 
ATOM     59  C   UNL     1       9.880   6.990   2.719  1.00  0.00     0.074 A 
ATOM     60  C   UNL     1      11.613   9.455  -2.848  1.00  0.00     0.029 A 
ATOM     61  N   UNL     1      10.466   8.678  -1.109  1.00  0.00    -0.354 N 
ATOM     62  N   UNL     1      10.149   7.525   1.554  1.00  0.00    -0.248 NA
ATOM     63  C   UNL     1      11.067   6.548   3.466  1.00  0.00     0.031 C 
ATOM     64  C   UNL     1      12.523   8.972  -1.901  1.00  0.00     0.029 A 
ATOM     65  C   UNL     1      11.809   8.502  -0.811  1.00  0.00     0.049 A 
ATOM     66  H   UNL     1       9.720   8.431  -0.517  1.00  0.00     0.167 HD
ATOM     67  C   UNL     1      11.533   7.508   1.440  1.00  0.00     0.074 A 
ATOM     68  C   UNL     1      12.049   6.928   2.662  1.00  0.00     0.031 C 
ATOM     69  C   UNL     1      12.309   7.931   0.412  1.00  0.00     0.037 A 
BRANCH  56  70
ATOM     70  C   UNL     1       9.099  10.097  -4.394  1.00  0.00     0.057 A 
ATOM     71  C   UNL     1       9.482   9.287  -5.471  1.00  0.00     0.134 A 
ATOM     72  C   UNL     1       8.791  11.436  -4.673  1.00  0.00     0.134 A 
ATOM     73  F   UNL     1       9.803   7.999  -5.274  1.00  0.00    -0.206 F 
ATOM     74  C   UNL     1       9.556   9.787  -6.772  1.00  0.00     0.040 A 
ATOM     75  C   UNL     1       8.835  11.941  -5.974  1.00  0.00     0.040 A 
ATOM     76  F   UNL     1       8.413  12.265  -3.689  1.00  0.00    -0.206 F 
ATOM     77  C   UNL     1       9.225  11.117  -7.028  1.00  0.00     0.006 A 
ENDBRANCH  56  70
BRANCH  57  78
ATOM     78  C   UNL     1       8.481   6.212   4.754  1.00  0.00     0.057 A 
ATOM     79  C   UNL     1       7.985   4.926   4.993  1.00  0.00     0.134 A 
ATOM     80  C   UNL     1       8.950   6.939   5.855  1.00  0.00     0.134 A 
ATOM     81  F   UNL     1       7.516   4.181   3.981  1.00  0.00    -0.206 F 
ATOM     82  C   UNL     1       7.961   4.381   6.279  1.00  0.00     0.040 A 
ATOM     83  C   UNL     1       8.956   6.398   7.141  1.00  0.00     0.040 A 
ATOM     84  F   UNL     1       9.456   8.169   5.685  1.00  0.00    -0.206 F 
ATOM     85  C   UNL     1       8.457   5.114   7.355  1.00  0.00     0.006 A 
ENDBRANCH  57  78
BRANCH  69  86
ATOM     86  C   UNL     1      13.793   7.810   0.584  1.00  0.00     0.057 A 
ATOM     87  C   UNL     1      14.584   8.948   0.788  1.00  0.00     0.134 A 
ATOM     88  C   UNL     1      14.443   6.570   0.534  1.00  0.00     0.134 A 
ATOM     89  F   UNL     1      14.025  10.166   0.839  1.00  0.00    -0.206 F 
ATOM     90  C   UNL     1      15.968   8.856   0.940  1.00  0.00     0.040 A 
ATOM     91  C   UNL     1      15.823   6.463   0.710  1.00  0.00     0.040 A 
ATOM     92  F   UNL     1      13.740   5.441   0.357  1.00  0.00    -0.206 F 
ATOM     93  C   UNL     1      16.590   7.609   0.909  1.00  0.00     0.006 A 
ENDBRANCH  69  86
ENDBRANCH  43  44
ENDBRANCH  36  38
ENDBRANCH  35  36
ENDBRANCH   1  35
TORSDOF 12
