REMARK SMILES CCC(=O)Nc1cc(NC(=O)/C=C/C(=O)OCCOC(=O)c2ccc(-c3c4nc(c(-c5c(F)cccc5F)c5ccc([nH]5)c(-c5c(F)cccc5F)c5nc(c(-c6c(F)cccc6F)c6ccc3[nH]6)C=C5)C=C4)cc2)ccc1C
REMARK SMILES IDX 17 1 16 2 14 3 15 4 13 5 12 6 10 7 9 8 11 10 8 11 6 12 7 13
REMARK SMILES IDX 78 14 77 15 79 16 76 17 5 18 3 19 4 20 2 22 1 23 18 24 19 25
REMARK SMILES IDX 20 26 21 27 22 28 23 29 75 30 24 31 74 32 25 33 26 34 27 35
REMARK SMILES IDX 68 36 28 37 73 38 67 39 69 40 29 41 72 42 66 43 65 44 30 46
REMARK SMILES IDX 56 47 39 48 55 49 40 50 43 51 54 52 70 53 41 54 42 55 53 57
REMARK SMILES IDX 71 58 44 59 31 60 32 61 37 62 33 63 34 64 36 65 38 66 35 67
REMARK SMILES IDX 57 68 58 69 63 70 59 71 60 72 62 73 64 74 61 75 45 76 46 77
REMARK SMILES IDX 51 78 47 79 48 80 50 81 52 82 49 83
REMARK H PARENT 9 9 5 21 69 45 43 56
REMARK Flexibility Score: inf
ROOT
ATOM      1  C   UNL     1       4.934   2.982   6.952  1.00  0.00     0.275 C 
ENDROOT
BRANCH   1   2
ATOM      2  O   UNL     1       5.640   2.438   5.829  1.00  0.00    -0.459 OA
BRANCH   2   3
ATOM      3  C   UNL     1       5.934   1.123   5.931  1.00  0.00     0.331 C 
ATOM      4  O   UNL     1       5.782   0.422   6.930  1.00  0.00    -0.247 OA
BRANCH   3   5
ATOM      5  C   UNL     1       6.398   0.634   4.620  1.00  0.00     0.099 C 
ATOM      6  C   UNL     1       6.502  -0.689   4.439  1.00  0.00     0.079 C 
BRANCH   6   7
ATOM      7  C   UNL     1       7.228  -1.305   3.321  1.00  0.00     0.248 C 
ATOM      8  N   UNL     1       6.803  -1.400   2.041  1.00  0.00    -0.322 N 
ATOM      9  H   UNL     1       7.418  -1.969   1.523  1.00  0.00     0.170 HD
ATOM     10  O   UNL     1       8.279  -1.889   3.608  1.00  0.00    -0.270 OA
BRANCH   8  11
ATOM     11  C   UNL     1       5.761  -0.941   1.217  1.00  0.00     0.043 A 
ATOM     12  C   UNL     1       3.813   0.385   0.584  1.00  0.00     0.046 A 
ATOM     13  C   UNL     1       4.815   0.033   1.518  1.00  0.00     0.052 A 
ATOM     14  C   UNL     1       3.926  -0.045  -0.744  1.00  0.00    -0.027 A 
ATOM     15  C   UNL     1       4.849  -1.046  -1.043  1.00  0.00     0.008 A 
ATOM     16  C   UNL     1       3.336   0.745  -1.889  1.00  0.00     0.046 C 
ATOM     17  C   UNL     1       5.724  -1.513  -0.063  1.00  0.00     0.026 A 
BRANCH  12  18
ATOM     18  N   UNL     1       2.747   1.224   0.965  1.00  0.00    -0.326 N 
ATOM     19  C   UNL     1       1.434   1.122   0.542  1.00  0.00     0.224 C 
ATOM     20  O   UNL     1       0.700   2.112   0.562  1.00  0.00    -0.275 OA
ATOM     21  H   UNL     1       2.957   1.954   1.592  1.00  0.00     0.169 HD
BRANCH  19  22
ATOM     22  C   UNL     1       0.854  -0.273   0.247  1.00  0.00     0.097 C 
ATOM     23  C   UNL     1       0.488  -0.644  -1.172  1.00  0.00     0.014 C 
ENDBRANCH  19  22
ENDBRANCH  12  18
ENDBRANCH   8  11
ENDBRANCH   6   7
ENDBRANCH   3   5
ENDBRANCH   2   3
ENDBRANCH   1   2
BRANCH   1  24
ATOM     24  C   UNL     1       4.102   4.199   6.526  1.00  0.00     0.275 C 
BRANCH  24  25
ATOM     25  O   UNL     1       3.533   4.222   5.179  1.00  0.00    -0.458 OA
BRANCH  25  26
ATOM     26  C   UNL     1       3.158   3.174   4.411  1.00  0.00     0.338 C 
ATOM     27  O   UNL     1       3.245   3.173   3.188  1.00  0.00    -0.246 OA
BRANCH  26  28
ATOM     28  C   UNL     1       2.649   1.980   5.095  1.00  0.00     0.060 A 
ATOM     29  C   UNL     1       2.887   0.728   4.508  1.00  0.00     0.016 A 
ATOM     30  C   UNL     1       1.997   2.082   6.310  1.00  0.00     0.016 A 
ATOM     31  C   UNL     1       2.570  -0.446   5.155  1.00  0.00     0.010 A 
ATOM     32  C   UNL     1       1.756   0.930   7.004  1.00  0.00     0.010 A 
ATOM     33  C   UNL     1       1.979  -0.316   6.394  1.00  0.00    -0.014 A 
BRANCH  33  34
ATOM     34  C   UNL     1       1.403  -1.429   7.104  1.00  0.00     0.031 A 
ATOM     35  C   UNL     1       2.299  -2.423   7.720  1.00  0.00     0.074 A 
ATOM     36  C   UNL     1       0.075  -1.260   7.299  1.00  0.00     0.049 A 
ATOM     37  N   UNL     1       1.946  -3.608   8.075  1.00  0.00    -0.248 NA
ATOM     38  C   UNL     1       3.732  -2.189   7.927  1.00  0.00     0.031 C 
ATOM     39  C   UNL     1      -0.781  -1.776   8.343  1.00  0.00     0.029 A 
ATOM     40  N   UNL     1      -0.823  -0.502   6.530  1.00  0.00    -0.354 N 
ATOM     41  C   UNL     1       2.914  -4.037   8.966  1.00  0.00     0.074 A 
ATOM     42  C   UNL     1       4.083  -3.260   8.649  1.00  0.00     0.031 C 
ATOM     43  C   UNL     1      -2.066  -1.609   7.969  1.00  0.00     0.029 A 
ATOM     44  C   UNL     1      -2.058  -1.145   6.591  1.00  0.00     0.049 A 
ATOM     45  H   UNL     1      -0.618   0.328   6.041  1.00  0.00     0.167 HD
ATOM     46  C   UNL     1       2.513  -4.767  10.049  1.00  0.00     0.037 A 
ATOM     47  C   UNL     1      -2.594  -1.832   5.529  1.00  0.00     0.037 A 
ATOM     48  C   UNL     1       1.066  -4.986   9.968  1.00  0.00     0.049 A 
ATOM     49  C   UNL     1      -2.645  -3.307   5.832  1.00  0.00     0.074 A 
ATOM     50  C   UNL     1       0.007  -4.322  10.566  1.00  0.00     0.029 A 
ATOM     51  N   UNL     1       0.532  -5.698   8.900  1.00  0.00    -0.354 N 
ATOM     52  N   UNL     1      -1.806  -3.906   6.631  1.00  0.00    -0.248 NA
ATOM     53  C   UNL     1      -3.670  -4.198   5.306  1.00  0.00     0.031 C 
ATOM     54  C   UNL     1      -1.163  -4.600   9.814  1.00  0.00     0.029 A 
ATOM     55  C   UNL     1      -0.813  -5.415   8.751  1.00  0.00     0.049 A 
ATOM     56  H   UNL     1       1.041  -6.317   8.328  1.00  0.00     0.167 HD
ATOM     57  C   UNL     1      -2.212  -5.197   6.819  1.00  0.00     0.074 A 
ATOM     58  C   UNL     1      -3.371  -5.337   5.952  1.00  0.00     0.031 C 
ATOM     59  C   UNL     1      -1.593  -6.041   7.695  1.00  0.00     0.037 A 
BRANCH  46  60
ATOM     60  C   UNL     1       3.296  -4.951  11.340  1.00  0.00     0.057 A 
ATOM     61  C   UNL     1       2.620  -5.239  12.548  1.00  0.00     0.134 A 
ATOM     62  C   UNL     1       4.690  -4.841  11.486  1.00  0.00     0.134 A 
ATOM     63  F   UNL     1       1.300  -5.465  12.585  1.00  0.00    -0.206 F 
ATOM     64  C   UNL     1       3.258  -5.325  13.793  1.00  0.00     0.040 A 
ATOM     65  C   UNL     1       5.341  -4.901  12.732  1.00  0.00     0.040 A 
ATOM     66  F   UNL     1       5.505  -4.726  10.432  1.00  0.00    -0.206 F 
ATOM     67  C   UNL     1       4.624  -5.136  13.894  1.00  0.00     0.006 A 
ENDBRANCH  46  60
BRANCH  47  68
ATOM     68  C   UNL     1      -2.221  -1.276   4.194  1.00  0.00     0.057 A 
ATOM     69  C   UNL     1      -2.723   0.002   3.892  1.00  0.00     0.134 A 
ATOM     70  C   UNL     1      -0.973  -1.622   3.674  1.00  0.00     0.134 A 
ATOM     71  F   UNL     1      -3.969   0.340   4.255  1.00  0.00    -0.206 F 
ATOM     72  C   UNL     1      -1.888   1.001   3.399  1.00  0.00     0.040 A 
ATOM     73  C   UNL     1      -0.120  -0.620   3.229  1.00  0.00     0.040 A 
ATOM     74  F   UNL     1      -0.487  -2.864   3.793  1.00  0.00    -0.206 F 
ATOM     75  C   UNL     1      -0.553   0.707   3.167  1.00  0.00     0.006 A 
ENDBRANCH  47  68
BRANCH  59  76
ATOM     76  C   UNL     1      -1.773  -7.534   7.722  1.00  0.00     0.057 A 
ATOM     77  C   UNL     1      -2.183  -8.288   6.615  1.00  0.00     0.134 A 
ATOM     78  C   UNL     1      -1.387  -8.289   8.854  1.00  0.00     0.134 A 
ATOM     79  F   UNL     1      -2.421  -7.723   5.424  1.00  0.00    -0.206 F 
ATOM     80  C   UNL     1      -2.309  -9.679   6.664  1.00  0.00     0.040 A 
ATOM     81  C   UNL     1      -1.432  -9.681   8.885  1.00  0.00     0.040 A 
ATOM     82  F   UNL     1      -0.920  -7.715   9.972  1.00  0.00    -0.206 F 
ATOM     83  C   UNL     1      -1.926 -10.381   7.798  1.00  0.00     0.006 A 
ENDBRANCH  59  76
ENDBRANCH  33  34
ENDBRANCH  26  28
ENDBRANCH  25  26
ENDBRANCH  24  25
ENDBRANCH   1  24
TORSDOF 15
