REMARK SMILES COc1cc2c(cc1OC)[C@H](C(=O)OCCOC(=O)c1ccc(-c3c4nc(c(-c5c(F)cccc5F)c5ccc([nH]5)c(-c5c(F)cccc5F)c5nc(c(-c6c(F)cccc6F)c6ccc3[nH]6)C=C5)C=C4)cc1)[C@H](c1cccc(Cl)c1)N(C)C2=O
REMARK SMILES IDX 16 1 15 2 14 3 12 4 13 5 11 6 3 7 4 8 8 9 5 10 7 11 6 12
REMARK SMILES IDX 84 13 82 14 85 15 74 16 83 17 2 18 1 19 9 20 10 21 75 22
REMARK SMILES IDX 76 23 81 24 77 25 79 26 78 27 80 28 17 29 18 30 19 31 20 32
REMARK SMILES IDX 21 33 73 34 22 35 72 36 23 37 24 38 25 39 66 40 26 41 71 42
REMARK SMILES IDX 65 43 67 44 27 45 70 46 64 47 63 48 28 50 54 51 37 52 53 53
REMARK SMILES IDX 38 54 41 55 52 56 68 57 39 58 40 59 51 61 69 62 42 63 29 64
REMARK SMILES IDX 30 65 35 66 31 67 32 68 34 69 36 70 33 71 55 72 56 73 61 74
REMARK SMILES IDX 57 75 58 76 60 77 62 78 59 79 43 80 44 81 49 82 45 83 46 84
REMARK SMILES IDX 48 85 50 86 47 87
REMARK H PARENT 67 49 41 60
REMARK Flexibility Score: inf
ROOT
ATOM      1  C   UNL     1       0.072  -8.855   5.366  1.00  0.00     0.275 C 
ENDROOT
BRANCH   1   2
ATOM      2  C   UNL     1      -0.396  -7.641   4.563  1.00  0.00     0.274 C 
BRANCH   2   3
ATOM      3  O   UNL     1       0.642  -7.118   3.700  1.00  0.00    -0.462 OA
BRANCH   3   4
ATOM      4  C   UNL     1       0.743  -5.756   3.700  1.00  0.00     0.316 C 
ATOM      5  O   UNL     1       0.111  -5.038   4.466  1.00  0.00    -0.251 OA
BRANCH   4   6
ATOM      6  C   UNL     1       1.701  -5.240   2.627  1.00  0.00     0.157 C 
ATOM      7  C   UNL     1       0.608  -1.342   1.121  1.00  0.00     0.161 A 
ATOM      8  C   UNL     1       1.912  -1.833   0.957  1.00  0.00     0.064 A 
ATOM      9  C   UNL     1      -0.387  -2.177   1.646  1.00  0.00     0.161 A 
ATOM     10  C   UNL     1       2.235  -3.128   1.366  1.00  0.00     0.048 A 
ATOM     11  C   UNL     1      -0.050  -3.477   2.031  1.00  0.00     0.056 A 
ATOM     12  C   UNL     1       1.270  -3.932   1.986  1.00  0.00    -0.015 A 
ATOM     13  C   UNL     1       3.628  -3.629   1.179  1.00  0.00     0.254 C 
ATOM     14  N   UNL     1       4.018  -4.669   2.019  1.00  0.00    -0.333 N 
ATOM     15  O   UNL     1       4.358  -3.119   0.340  1.00  0.00    -0.269 OA
ATOM     16  C   UNL     1       3.154  -5.054   3.154  1.00  0.00     0.134 C 
ATOM     17  C   UNL     1       5.379  -5.179   1.936  1.00  0.00     0.147 C 
BRANCH   7  18
ATOM     18  O   UNL     1       0.318  -0.032   0.850  1.00  0.00    -0.493 OA
ATOM     19  C   UNL     1       0.819   0.426  -0.400  1.00  0.00     0.278 C 
ENDBRANCH   7  18
BRANCH   9  20
ATOM     20  O   UNL     1      -1.711  -1.919   1.865  1.00  0.00    -0.493 OA
ATOM     21  C   UNL     1      -2.182  -0.594   1.707  1.00  0.00     0.278 C 
ENDBRANCH   9  20
BRANCH  16  22
ATOM     22  C   UNL     1       3.357  -4.141   4.380  1.00  0.00    -0.023 A 
ATOM     23  C   UNL     1       2.767  -4.462   5.615  1.00  0.00     0.006 A 
ATOM     24  C   UNL     1       4.148  -2.975   4.342  1.00  0.00     0.026 A 
ATOM     25  C   UNL     1       2.848  -3.605   6.717  1.00  0.00     0.002 A 
ATOM     26  C   UNL     1       4.266  -2.140   5.457  1.00  0.00     0.041 A 
ATOM     27  C   UNL     1       3.591  -2.434   6.635  1.00  0.00     0.020 A 
ATOM     28  Cl  UNL     1       5.261  -0.738   5.378  1.00  0.00    -0.084 Cl
ENDBRANCH  16  22
ENDBRANCH   4   6
ENDBRANCH   3   4
ENDBRANCH   2   3
ENDBRANCH   1   2
BRANCH   1  29
ATOM     29  O   UNL     1       1.264  -8.550   6.117  1.00  0.00    -0.458 OA
BRANCH  29  30
ATOM     30  C   UNL     1       2.404  -9.042   5.580  1.00  0.00     0.338 C 
ATOM     31  O   UNL     1       2.505  -9.752   4.586  1.00  0.00    -0.246 OA
BRANCH  30  32
ATOM     32  C   UNL     1       3.573  -8.392   6.194  1.00  0.00     0.060 A 
ATOM     33  C   UNL     1       4.346  -7.618   5.333  1.00  0.00     0.016 A 
ATOM     34  C   UNL     1       3.966  -8.559   7.521  1.00  0.00     0.016 A 
ATOM     35  C   UNL     1       5.446  -6.907   5.795  1.00  0.00     0.010 A 
ATOM     36  C   UNL     1       5.141  -7.927   7.969  1.00  0.00     0.010 A 
ATOM     37  C   UNL     1       5.878  -7.087   7.110  1.00  0.00    -0.014 A 
BRANCH  37  38
ATOM     38  C   UNL     1       7.219  -6.560   7.465  1.00  0.00     0.031 A 
ATOM     39  C   UNL     1       8.418  -7.416   7.179  1.00  0.00     0.074 A 
ATOM     40  C   UNL     1       7.394  -5.296   7.889  1.00  0.00     0.049 A 
ATOM     41  N   UNL     1       9.682  -7.186   7.420  1.00  0.00    -0.248 NA
ATOM     42  C   UNL     1       8.152  -8.699   6.508  1.00  0.00     0.031 C 
ATOM     43  C   UNL     1       6.330  -4.314   8.060  1.00  0.00     0.029 A 
ATOM     44  N   UNL     1       8.537  -4.614   8.228  1.00  0.00    -0.354 N 
ATOM     45  C   UNL     1      10.361  -8.300   6.947  1.00  0.00     0.074 A 
ATOM     46  C   UNL     1       9.371  -9.203   6.401  1.00  0.00     0.031 C 
ATOM     47  C   UNL     1       6.867  -3.150   8.465  1.00  0.00     0.029 A 
ATOM     48  C   UNL     1       8.306  -3.324   8.644  1.00  0.00     0.049 A 
ATOM     49  H   UNL     1       9.436  -5.011   8.178  1.00  0.00     0.167 HD
ATOM     50  C   UNL     1      11.691  -8.553   6.978  1.00  0.00     0.037 A 
ATOM     51  C   UNL     1       9.156  -2.406   9.148  1.00  0.00     0.037 A 
ATOM     52  C   UNL     1      12.670  -7.660   7.538  1.00  0.00     0.049 A 
ATOM     53  C   UNL     1      10.612  -2.765   9.303  1.00  0.00     0.074 A 
ATOM     54  C   UNL     1      14.033  -7.854   7.681  1.00  0.00     0.029 A 
ATOM     55  N   UNL     1      12.389  -6.403   8.052  1.00  0.00    -0.354 N 
ATOM     56  N   UNL     1      11.242  -3.854   8.931  1.00  0.00    -0.248 NA
ATOM     57  C   UNL     1      11.474  -1.774   9.964  1.00  0.00     0.031 C 
ATOM     58  C   UNL     1      14.567  -6.736   8.330  1.00  0.00     0.029 A 
ATOM     59  C   UNL     1      13.549  -5.818   8.532  1.00  0.00     0.049 A 
ATOM     60  H   UNL     1      11.497  -5.987   8.072  1.00  0.00     0.167 HD
ATOM     61  C   UNL     1      12.574  -3.665   9.282  1.00  0.00     0.074 A 
ATOM     62  C   UNL     1      12.664  -2.352   9.886  1.00  0.00     0.031 C 
ATOM     63  C   UNL     1      13.628  -4.504   9.120  1.00  0.00     0.037 A 
BRANCH  50  64
ATOM     64  C   UNL     1      12.136  -9.891   6.467  1.00  0.00     0.057 A 
ATOM     65  C   UNL     1      12.118 -10.217   5.104  1.00  0.00     0.134 A 
ATOM     66  C   UNL     1      12.567 -10.878   7.362  1.00  0.00     0.134 A 
ATOM     67  F   UNL     1      11.689  -9.326   4.197  1.00  0.00    -0.206 F 
ATOM     68  C   UNL     1      12.482 -11.488   4.655  1.00  0.00     0.040 A 
ATOM     69  C   UNL     1      12.961 -12.141   6.923  1.00  0.00     0.040 A 
ATOM     70  F   UNL     1      12.604 -10.631   8.681  1.00  0.00    -0.206 F 
ATOM     71  C   UNL     1      12.910 -12.452   5.566  1.00  0.00     0.006 A 
ENDBRANCH  50  64
BRANCH  51  72
ATOM     72  C   UNL     1       8.657  -1.081   9.609  1.00  0.00     0.057 A 
ATOM     73  C   UNL     1       9.081   0.111   9.009  1.00  0.00     0.134 A 
ATOM     74  C   UNL     1       7.795  -0.972  10.708  1.00  0.00     0.134 A 
ATOM     75  F   UNL     1       9.936   0.080   7.976  1.00  0.00    -0.206 F 
ATOM     76  C   UNL     1       8.684   1.359   9.496  1.00  0.00     0.040 A 
ATOM     77  C   UNL     1       7.365   0.267  11.186  1.00  0.00     0.040 A 
ATOM     78  F   UNL     1       7.358  -2.072  11.340  1.00  0.00    -0.206 F 
ATOM     79  C   UNL     1       7.819   1.439  10.585  1.00  0.00     0.006 A 
ENDBRANCH  51  72
BRANCH  63  80
ATOM     80  C   UNL     1      14.980  -4.007   9.548  1.00  0.00     0.057 A 
ATOM     81  C   UNL     1      15.323  -3.839  10.895  1.00  0.00     0.134 A 
ATOM     82  C   UNL     1      15.966  -3.727   8.592  1.00  0.00     0.134 A 
ATOM     83  F   UNL     1      14.424  -4.078  11.862  1.00  0.00    -0.206 F 
ATOM     84  C   UNL     1      16.587  -3.383  11.275  1.00  0.00     0.040 A 
ATOM     85  C   UNL     1      17.243  -3.301   8.961  1.00  0.00     0.040 A 
ATOM     86  F   UNL     1      15.710  -3.877   7.284  1.00  0.00    -0.206 F 
ATOM     87  C   UNL     1      17.554  -3.120  10.306  1.00  0.00     0.006 A 
ENDBRANCH  63  80
ENDBRANCH  37  38
ENDBRANCH  30  32
ENDBRANCH  29  30
ENDBRANCH   1  29
TORSDOF 14
