REMARK SMILES Cc1c(C(=O)OCCOC(=O)c2ccc(-c3c4nc(c(-c5c(F)cccc5F)c5ccc([nH]5)c(-c5c(F)cccc5F)c5nc(c(-c6c(F)cccc6F)c6ccc3[nH]6)C=C5)C=C4)cc2)oc2c1/C(=N/NC(=O)C(c1ccccc1)c1ccccc1)CCC2
REMARK SMILES IDX 7 1 6 2 4 3 5 4 3 5 1 6 2 7 68 8 66 9 67 10 69 11 89 12
REMARK SMILES IDX 70 13 87 14 88 15 71 16 72 17 73 19 74 20 75 21 76 22 80 23
REMARK SMILES IDX 77 24 79 25 78 26 81 27 82 28 86 29 83 30 85 31 84 32 8 33
REMARK SMILES IDX 9 34 10 35 11 36 12 37 13 38 65 39 14 40 64 41 15 42 16 43
REMARK SMILES IDX 17 44 58 45 18 46 63 47 57 48 59 49 19 50 62 51 56 52 55 53
REMARK SMILES IDX 20 55 46 56 29 57 45 58 30 59 33 60 44 61 60 62 31 63 32 64
REMARK SMILES IDX 43 66 61 67 34 68 21 69 22 70 27 71 23 72 24 73 26 74 28 75
REMARK SMILES IDX 25 76 47 77 48 78 53 79 49 80 50 81 52 82 54 83 51 84 35 85
REMARK SMILES IDX 36 86 41 87 37 88 38 89 40 90 42 91 39 92
REMARK H PARENT 71 18 59 54 33 65
REMARK Flexibility Score: inf
ROOT
ATOM      1  C   UNL     1      -4.748   1.182   1.726  1.00  0.00     0.275 C 
ENDROOT
BRANCH   1   2
ATOM      2  O   UNL     1      -3.410   1.679   1.689  1.00  0.00    -0.456 OA
BRANCH   2   3
ATOM      3  C   UNL     1      -2.353   0.827   1.530  1.00  0.00     0.374 C 
ATOM      4  O   UNL     1      -2.388  -0.391   1.695  1.00  0.00    -0.242 OA
BRANCH   3   5
ATOM      5  C   UNL     1      -1.239   1.612   1.066  1.00  0.00     0.215 A 
ATOM      6  C   UNL     1       0.783   0.080   0.491  1.00  0.00     0.049 C 
ATOM      7  C   UNL     1       0.071   1.375   0.633  1.00  0.00     0.012 A 
ATOM      8  C   UNL     1       0.636   2.675   0.436  1.00  0.00     0.043 A 
ATOM      9  O   UNL     1      -1.509   2.946   1.018  1.00  0.00    -0.453 OA
ATOM     10  C   UNL     1      -0.396   3.564   0.663  1.00  0.00     0.114 A 
ATOM     11  C   UNL     1       1.982   3.207   0.214  1.00  0.00     0.072 C 
ATOM     12  C   UNL     1      -0.430   5.032   0.742  1.00  0.00     0.076 C 
ATOM     13  N   UNL     1       2.881   2.389  -0.252  1.00  0.00    -0.177 NA
ATOM     14  C   UNL     1       2.022   4.629   0.727  1.00  0.00     0.059 C 
ATOM     15  C   UNL     1       0.897   5.539   0.240  1.00  0.00     0.014 C 
BRANCH  13  16
ATOM     16  N   UNL     1       4.225   2.455  -0.556  1.00  0.00    -0.246 N 
ATOM     17  C   UNL     1       5.259   3.375  -0.650  1.00  0.00     0.252 C 
ATOM     18  H   UNL     1       4.559   1.556  -0.780  1.00  0.00     0.193 HD
ATOM     19  O   UNL     1       6.354   2.961  -1.061  1.00  0.00    -0.272 OA
BRANCH  17  20
ATOM     20  C   UNL     1       5.115   4.854  -0.248  1.00  0.00     0.140 C 
BRANCH  20  21
ATOM     21  C   UNL     1       4.148   5.515  -1.321  1.00  0.00    -0.031 A 
ATOM     22  C   UNL     1       3.708   6.847  -1.283  1.00  0.00     0.005 A 
ATOM     23  C   UNL     1       3.616   4.732  -2.389  1.00  0.00     0.005 A 
ATOM     24  C   UNL     1       2.693   7.300  -2.160  1.00  0.00     0.000 A 
ATOM     25  C   UNL     1       2.581   5.159  -3.222  1.00  0.00     0.000 A 
ATOM     26  C   UNL     1       2.103   6.448  -3.097  1.00  0.00     0.000 A 
ENDBRANCH  20  21
BRANCH  20  27
ATOM     27  C   UNL     1       4.915   4.853   1.331  1.00  0.00    -0.031 A 
ATOM     28  C   UNL     1       4.431   5.931   2.090  1.00  0.00     0.005 A 
ATOM     29  C   UNL     1       5.102   3.635   2.050  1.00  0.00     0.005 A 
ATOM     30  C   UNL     1       3.924   5.717   3.394  1.00  0.00     0.000 A 
ATOM     31  C   UNL     1       4.564   3.412   3.319  1.00  0.00     0.000 A 
ATOM     32  C   UNL     1       3.934   4.449   3.979  1.00  0.00     0.000 A 
ENDBRANCH  20  27
ENDBRANCH  17  20
ENDBRANCH  13  16
ENDBRANCH   3   5
ENDBRANCH   2   3
ENDBRANCH   1   2
BRANCH   1  33
ATOM     33  C   UNL     1      -5.283   0.976   0.317  1.00  0.00     0.275 C 
BRANCH  33  34
ATOM     34  O   UNL     1      -4.620  -0.134  -0.271  1.00  0.00    -0.458 OA
BRANCH  34  35
ATOM     35  C   UNL     1      -3.556   0.140  -1.056  1.00  0.00     0.338 C 
ATOM     36  O   UNL     1      -3.096   1.232  -1.333  1.00  0.00    -0.246 OA
BRANCH  35  37
ATOM     37  C   UNL     1      -3.082  -1.126  -1.620  1.00  0.00     0.060 A 
ATOM     38  C   UNL     1      -1.954  -1.087  -2.442  1.00  0.00     0.016 A 
ATOM     39  C   UNL     1      -3.921  -2.248  -1.549  1.00  0.00     0.016 A 
ATOM     40  C   UNL     1      -1.831  -2.066  -3.400  1.00  0.00     0.010 A 
ATOM     41  C   UNL     1      -3.788  -3.228  -2.490  1.00  0.00     0.010 A 
ATOM     42  C   UNL     1      -2.829  -3.045  -3.477  1.00  0.00    -0.014 A 
BRANCH  42  43
ATOM     43  C   UNL     1      -2.878  -3.897  -4.638  1.00  0.00     0.031 A 
ATOM     44  C   UNL     1      -1.747  -4.840  -4.706  1.00  0.00     0.074 A 
ATOM     45  C   UNL     1      -3.928  -3.859  -5.483  1.00  0.00     0.049 A 
ATOM     46  N   UNL     1      -0.796  -4.861  -5.577  1.00  0.00    -0.248 NA
ATOM     47  C   UNL     1      -1.541  -5.743  -3.561  1.00  0.00     0.031 C 
ATOM     48  C   UNL     1      -5.193  -3.124  -5.358  1.00  0.00     0.029 A 
ATOM     49  N   UNL     1      -4.109  -4.575  -6.622  1.00  0.00    -0.354 N 
ATOM     50  C   UNL     1       0.023  -5.919  -5.206  1.00  0.00     0.074 A 
ATOM     51  C   UNL     1      -0.374  -6.303  -3.877  1.00  0.00     0.031 C 
ATOM     52  C   UNL     1      -6.090  -3.620  -6.242  1.00  0.00     0.029 A 
ATOM     53  C   UNL     1      -5.420  -4.589  -7.086  1.00  0.00     0.049 A 
ATOM     54  H   UNL     1      -3.374  -5.044  -7.080  1.00  0.00     0.167 HD
ATOM     55  C   UNL     1       0.798  -6.554  -6.123  1.00  0.00     0.037 A 
ATOM     56  C   UNL     1      -5.893  -5.433  -8.038  1.00  0.00     0.037 A 
ATOM     57  C   UNL     1       0.969  -5.758  -7.310  1.00  0.00     0.049 A 
ATOM     58  C   UNL     1      -4.714  -5.920  -8.808  1.00  0.00     0.074 A 
ATOM     59  C   UNL     1       1.551  -4.534  -7.575  1.00  0.00     0.029 A 
ATOM     60  N   UNL     1       0.144  -6.020  -8.378  1.00  0.00    -0.354 N 
ATOM     61  N   UNL     1      -3.983  -5.140  -9.559  1.00  0.00    -0.248 NA
ATOM     62  C   UNL     1      -4.050  -7.125  -8.327  1.00  0.00     0.031 C 
ATOM     63  C   UNL     1       0.688  -3.913  -8.526  1.00  0.00     0.029 A 
ATOM     64  C   UNL     1      -0.328  -4.817  -8.840  1.00  0.00     0.049 A 
ATOM     65  H   UNL     1      -0.069  -6.909  -8.744  1.00  0.00     0.167 HD
ATOM     66  C   UNL     1      -2.672  -5.523  -9.302  1.00  0.00     0.074 A 
ATOM     67  C   UNL     1      -2.780  -6.785  -8.572  1.00  0.00     0.031 C 
ATOM     68  C   UNL     1      -1.634  -4.643  -9.433  1.00  0.00     0.037 A 
BRANCH  55  69
ATOM     69  C   UNL     1       1.059  -8.033  -6.095  1.00  0.00     0.057 A 
ATOM     70  C   UNL     1       2.021  -8.574  -6.962  1.00  0.00     0.134 A 
ATOM     71  C   UNL     1       0.203  -8.969  -5.479  1.00  0.00     0.134 A 
ATOM     72  F   UNL     1       2.883  -7.779  -7.615  1.00  0.00    -0.206 F 
ATOM     73  C   UNL     1       2.077  -9.941  -7.252  1.00  0.00     0.040 A 
ATOM     74  C   UNL     1       0.283 -10.341  -5.723  1.00  0.00     0.040 A 
ATOM     75  F   UNL     1      -0.820  -8.604  -4.697  1.00  0.00    -0.206 F 
ATOM     76  C   UNL     1       1.199 -10.828  -6.639  1.00  0.00     0.006 A 
ENDBRANCH  55  69
BRANCH  56  77
ATOM     77  C   UNL     1      -7.191  -6.148  -8.016  1.00  0.00     0.057 A 
ATOM     78  C   UNL     1      -7.722  -6.741  -9.169  1.00  0.00     0.134 A 
ATOM     79  C   UNL     1      -7.812  -6.497  -6.802  1.00  0.00     0.134 A 
ATOM     80  F   UNL     1      -7.166  -6.511 -10.367  1.00  0.00    -0.206 F 
ATOM     81  C   UNL     1      -8.803  -7.635  -9.117  1.00  0.00     0.040 A 
ATOM     82  C   UNL     1      -8.891  -7.384  -6.736  1.00  0.00     0.040 A 
ATOM     83  F   UNL     1      -7.335  -6.058  -5.628  1.00  0.00    -0.206 F 
ATOM     84  C   UNL     1      -9.385  -7.965  -7.896  1.00  0.00     0.006 A 
ENDBRANCH  56  77
BRANCH  68  85
ATOM     85  C   UNL     1      -1.929  -3.297 -10.039  1.00  0.00     0.057 A 
ATOM     86  C   UNL     1      -2.749  -2.328  -9.438  1.00  0.00     0.134 A 
ATOM     87  C   UNL     1      -1.234  -2.906 -11.186  1.00  0.00     0.134 A 
ATOM     88  F   UNL     1      -3.373  -2.572  -8.280  1.00  0.00    -0.206 F 
ATOM     89  C   UNL     1      -2.905  -1.047  -9.980  1.00  0.00     0.040 A 
ATOM     90  C   UNL     1      -1.355  -1.621 -11.721  1.00  0.00     0.040 A 
ATOM     91  F   UNL     1      -0.381  -3.755 -11.780  1.00  0.00    -0.206 F 
ATOM     92  C   UNL     1      -2.201  -0.689 -11.125  1.00  0.00     0.006 A 
ENDBRANCH  68  85
ENDBRANCH  42  43
ENDBRANCH  35  37
ENDBRANCH  34  35
ENDBRANCH  33  34
ENDBRANCH   1  33
TORSDOF 15
