REMARK SMILES O=C(COc1ccccc1/C=C1\C(=O)Nc2ccccc21)OCCOC(=O)c1ccc(-c2c3nc(c(-c4c(F)cccc4F)c4ccc([nH]4)c(-c4c(F)cccc4F)c4nc(c(-c5c(F)cccc5F)c5ccc2[nH]5)C=C4)C=C3)cc1
REMARK SMILES IDX 23 1 22 2 2 3 1 4 3 5 4 6 5 7 6 8 10 9 7 10 9 11 8 12 11 13
REMARK SMILES IDX 12 14 13 15 21 16 14 17 15 18 16 19 20 20 17 22 19 23 18 24
REMARK SMILES IDX 24 25 25 26 26 27 27 28 28 29 29 30 81 31 30 32 80 33 31 34
REMARK SMILES IDX 32 35 33 36 74 37 34 38 79 39 73 40 75 41 35 42 78 43 72 44
REMARK SMILES IDX 71 45 36 47 62 48 45 49 61 50 46 51 49 52 60 53 76 54 47 55
REMARK SMILES IDX 48 56 59 58 77 59 50 60 37 61 38 62 43 63 39 64 40 65 42 66
REMARK SMILES IDX 44 67 41 68 63 69 64 70 69 71 65 72 66 73 68 74 70 75 67 76
REMARK SMILES IDX 51 77 52 78 57 79 53 80 54 81 56 82 58 83 55 84
REMARK H PARENT 15 21 75 46 49 57
REMARK Flexibility Score: inf
ROOT
ATOM      1  C   UNL     1       4.518  -0.114  -1.200  1.00  0.00     0.274 C 
ENDROOT
BRANCH   1   2
ATOM      2  O   UNL     1       3.104  -0.395  -1.317  1.00  0.00    -0.460 OA
BRANCH   2   3
ATOM      3  C   UNL     1       2.191  -0.118  -0.353  1.00  0.00     0.344 C 
ATOM      4  O   UNL     1       1.003   0.009  -0.646  1.00  0.00    -0.248 OA
BRANCH   3   5
ATOM      5  C   UNL     1       2.658  -0.021   1.087  1.00  0.00     0.352 C 
BRANCH   5   6
ATOM      6  O   UNL     1       3.434  -1.173   1.393  1.00  0.00    -0.481 OA
BRANCH   6   7
ATOM      7  C   UNL     1       3.018  -1.823   2.526  1.00  0.00     0.127 A 
ATOM      8  C   UNL     1       3.696  -1.504   3.708  1.00  0.00     0.047 A 
ATOM      9  C   UNL     1       2.092  -2.886   2.461  1.00  0.00     0.017 A 
ATOM     10  C   UNL     1       3.489  -2.269   4.850  1.00  0.00     0.004 A 
ATOM     11  C   UNL     1       1.992  -3.699   3.594  1.00  0.00     0.012 A 
ATOM     12  C   UNL     1       2.662  -3.385   4.782  1.00  0.00     0.001 A 
BRANCH   9  13
ATOM     13  C   UNL     1       1.301  -3.116   1.229  1.00  0.00     0.026 C 
ATOM     14  C   UNL     1       0.050  -3.586   1.060  1.00  0.00     0.050 C 
ATOM     15  C   UNL     1      -0.923  -4.182   2.058  1.00  0.00     0.256 C 
ATOM     16  C   UNL     1      -0.657  -3.585  -0.239  1.00  0.00     0.011 A 
ATOM     17  O   UNL     1      -0.824  -4.310   3.261  1.00  0.00    -0.269 OA
ATOM     18  N   UNL     1      -2.016  -4.584   1.308  1.00  0.00    -0.321 N 
ATOM     19  C   UNL     1      -1.885  -4.216  -0.023  1.00  0.00     0.049 A 
ATOM     20  C   UNL     1      -0.384  -3.028  -1.477  1.00  0.00     0.011 A 
ATOM     21  H   UNL     1      -2.790  -5.070   1.674  1.00  0.00     0.170 HD
ATOM     22  C   UNL     1      -2.841  -4.367  -1.009  1.00  0.00     0.027 A 
ATOM     23  C   UNL     1      -1.349  -3.142  -2.488  1.00  0.00     0.001 A 
ATOM     24  C   UNL     1      -2.562  -3.815  -2.259  1.00  0.00     0.002 A 
ENDBRANCH   9  13
ENDBRANCH   6   7
ENDBRANCH   5   6
ENDBRANCH   3   5
ENDBRANCH   2   3
ENDBRANCH   1   2
BRANCH   1  25
ATOM     25  C   UNL     1       4.832   1.246  -1.821  1.00  0.00     0.275 C 
BRANCH  25  26
ATOM     26  O   UNL     1       4.284   2.277  -0.978  1.00  0.00    -0.458 OA
BRANCH  26  27
ATOM     27  C   UNL     1       3.107   2.808  -1.394  1.00  0.00     0.338 C 
ATOM     28  O   UNL     1       2.540   2.609  -2.449  1.00  0.00    -0.246 OA
BRANCH  27  29
ATOM     29  C   UNL     1       2.511   3.544  -0.261  1.00  0.00     0.060 A 
ATOM     30  C   UNL     1       1.156   3.337   0.022  1.00  0.00     0.016 A 
ATOM     31  C   UNL     1       3.271   4.427   0.514  1.00  0.00     0.016 A 
ATOM     32  C   UNL     1       0.550   4.034   1.066  1.00  0.00     0.010 A 
ATOM     33  C   UNL     1       2.659   5.136   1.550  1.00  0.00     0.010 A 
ATOM     34  C   UNL     1       1.290   4.962   1.812  1.00  0.00    -0.014 A 
BRANCH  34  35
ATOM     35  C   UNL     1       0.588   5.866   2.749  1.00  0.00     0.031 A 
ATOM     36  C   UNL     1       0.101   7.194   2.240  1.00  0.00     0.074 A 
ATOM     37  C   UNL     1       0.362   5.506   4.024  1.00  0.00     0.049 A 
ATOM     38  N   UNL     1      -0.576   8.124   2.863  1.00  0.00    -0.248 NA
ATOM     39  C   UNL     1       0.421   7.514   0.839  1.00  0.00     0.031 C 
ATOM     40  C   UNL     1       0.777   4.245   4.636  1.00  0.00     0.029 A 
ATOM     41  N   UNL     1      -0.276   6.179   5.034  1.00  0.00    -0.354 N 
ATOM     42  C   UNL     1      -0.788   9.124   1.925  1.00  0.00     0.074 A 
ATOM     43  C   UNL     1      -0.127   8.713   0.705  1.00  0.00     0.031 C 
ATOM     44  C   UNL     1       0.392   4.241   5.925  1.00  0.00     0.029 A 
ATOM     45  C   UNL     1      -0.290   5.499   6.226  1.00  0.00     0.049 A 
ATOM     46  H   UNL     1      -0.685   7.067   4.916  1.00  0.00     0.167 HD
ATOM     47  C   UNL     1      -1.489  10.274   2.058  1.00  0.00     0.037 A 
ATOM     48  C   UNL     1      -0.796   5.856   7.422  1.00  0.00     0.037 A 
ATOM     49  C   UNL     1      -2.123  10.704   3.274  1.00  0.00     0.049 A 
ATOM     50  C   UNL     1      -1.518   7.170   7.562  1.00  0.00     0.074 A 
ATOM     51  C   UNL     1      -2.846  11.860   3.510  1.00  0.00     0.029 A 
ATOM     52  N   UNL     1      -2.101   9.995   4.465  1.00  0.00    -0.354 N 
ATOM     53  N   UNL     1      -1.751   8.088   6.656  1.00  0.00    -0.248 NA
ATOM     54  C   UNL     1      -2.059   7.489   8.892  1.00  0.00     0.031 C 
ATOM     55  C   UNL     1      -3.234  11.866   4.855  1.00  0.00     0.029 A 
ATOM     56  C   UNL     1      -2.784  10.696   5.444  1.00  0.00     0.049 A 
ATOM     57  H   UNL     1      -1.664   9.123   4.595  1.00  0.00     0.167 HD
ATOM     58  C   UNL     1      -2.484   9.079   7.298  1.00  0.00     0.074 A 
ATOM     59  C   UNL     1      -2.671   8.643   8.665  1.00  0.00     0.031 C 
ATOM     60  C   UNL     1      -2.961  10.247   6.801  1.00  0.00     0.037 A 
BRANCH  47  61
ATOM     61  C   UNL     1      -1.599  11.148   0.846  1.00  0.00     0.057 A 
ATOM     62  C   UNL     1      -2.440  10.808  -0.222  1.00  0.00     0.134 A 
ATOM     63  C   UNL     1      -0.878  12.343   0.751  1.00  0.00     0.134 A 
ATOM     64  F   UNL     1      -3.143   9.665  -0.197  1.00  0.00    -0.206 F 
ATOM     65  C   UNL     1      -2.547  11.620  -1.351  1.00  0.00     0.040 A 
ATOM     66  C   UNL     1      -0.991  13.173  -0.365  1.00  0.00     0.040 A 
ATOM     67  F   UNL     1      -0.054  12.722   1.740  1.00  0.00    -0.206 F 
ATOM     68  C   UNL     1      -1.825  12.810  -1.422  1.00  0.00     0.006 A 
ENDBRANCH  47  61
BRANCH  48  69
ATOM     69  C   UNL     1      -0.643   4.959   8.593  1.00  0.00     0.057 A 
ATOM     70  C   UNL     1      -1.739   4.280   9.137  1.00  0.00     0.134 A 
ATOM     71  C   UNL     1       0.596   4.798   9.224  1.00  0.00     0.134 A 
ATOM     72  F   UNL     1      -2.956   4.418   8.591  1.00  0.00    -0.206 F 
ATOM     73  C   UNL     1      -1.614   3.491  10.281  1.00  0.00     0.040 A 
ATOM     74  C   UNL     1       0.740   3.995  10.356  1.00  0.00     0.040 A 
ATOM     75  F   UNL     1       1.684   5.424   8.750  1.00  0.00    -0.206 F 
ATOM     76  C   UNL     1      -0.370   3.346  10.893  1.00  0.00     0.006 A 
ENDBRANCH  48  69
BRANCH  60  77
ATOM     77  C   UNL     1      -3.744  11.120   7.735  1.00  0.00     0.057 A 
ATOM     78  C   UNL     1      -3.123  11.850   8.756  1.00  0.00     0.134 A 
ATOM     79  C   UNL     1      -5.131  11.251   7.596  1.00  0.00     0.134 A 
ATOM     80  F   UNL     1      -1.798  11.758   8.948  1.00  0.00    -0.206 F 
ATOM     81  C   UNL     1      -3.857  12.661   9.622  1.00  0.00     0.040 A 
ATOM     82  C   UNL     1      -5.873  12.077   8.442  1.00  0.00     0.040 A 
ATOM     83  F   UNL     1      -5.786  10.586   6.633  1.00  0.00    -0.206 F 
ATOM     84  C   UNL     1      -5.237  12.780   9.463  1.00  0.00     0.006 A 
ENDBRANCH  60  77
ENDBRANCH  34  35
ENDBRANCH  27  29
ENDBRANCH  26  27
ENDBRANCH  25  26
ENDBRANCH   1  25
TORSDOF 14
