REMARK SMILES O=C(OCCOC(=O)[C@H]1C[C@H](O)CN1S(=O)(=O)c1ccc2c(c1)OCCO2)c1ccc(-c2c3nc(c(-c4c(F)cccc4F)c4ccc([nH]4)c(-c4c(F)cccc4F)c4nc(c(-c5c(F)cccc5F)c5ccc2[nH]5)C=C4)C=C3)cc1
REMARK SMILES IDX 4 1 3 2 2 3 1 4 28 5 29 6 81 7 30 8 80 9 31 10 32 11 33 12
REMARK SMILES IDX 74 13 34 14 79 15 73 16 75 17 35 18 78 19 72 20 71 21 36 23
REMARK SMILES IDX 62 24 45 25 61 26 46 27 49 28 60 29 76 30 47 31 48 32 59 34
REMARK SMILES IDX 77 35 50 36 37 37 38 38 43 39 39 40 40 41 42 42 44 43 41 44
REMARK SMILES IDX 63 45 64 46 69 47 65 48 66 49 68 50 70 51 67 52 51 53 52 54
REMARK SMILES IDX 57 55 53 56 54 57 56 58 58 59 55 60 5 61 6 62 7 63 8 64 9 65
REMARK SMILES IDX 10 66 14 67 11 68 13 69 15 70 16 71 17 72 18 73 19 74 23 75
REMARK SMILES IDX 20 76 22 77 21 78 24 79 27 80 25 81 26 82 12 83
REMARK H PARENT 75 22 49 33 12 84
REMARK Flexibility Score: inf
ROOT
ATOM      1  C   UNL     1       4.420  -1.240   1.001  1.00  0.00     0.275 C 
ENDROOT
BRANCH   1   2
ATOM      2  O   UNL     1       3.219  -0.498   1.326  1.00  0.00    -0.458 OA
BRANCH   2   3
ATOM      3  C   UNL     1       2.873   0.806   1.200  1.00  0.00     0.338 C 
ATOM      4  O   UNL     1       1.843   1.172   1.770  1.00  0.00    -0.246 OA
BRANCH   3   5
ATOM      5  C   UNL     1       3.558   1.841   0.343  1.00  0.00     0.060 A 
ATOM      6  C   UNL     1       4.797   1.736  -0.257  1.00  0.00     0.016 A 
ATOM      7  C   UNL     1       2.875   3.052   0.108  1.00  0.00     0.016 A 
ATOM      8  C   UNL     1       5.268   2.736  -1.145  1.00  0.00     0.010 A 
ATOM      9  C   UNL     1       3.313   4.007  -0.850  1.00  0.00     0.010 A 
ATOM     10  C   UNL     1       4.492   3.827  -1.589  1.00  0.00    -0.014 A 
BRANCH  10  11
ATOM     11  C   UNL     1       4.940   4.942  -2.562  1.00  0.00     0.031 A 
ATOM     12  C   UNL     1       5.572   6.122  -1.900  1.00  0.00     0.074 A 
ATOM     13  C   UNL     1       4.847   5.016  -3.928  1.00  0.00     0.049 A 
ATOM     14  N   UNL     1       6.018   7.225  -2.434  1.00  0.00    -0.248 NA
ATOM     15  C   UNL     1       5.724   6.032  -0.441  1.00  0.00     0.031 C 
ATOM     16  C   UNL     1       4.515   3.920  -4.801  1.00  0.00     0.029 A 
ATOM     17  N   UNL     1       5.095   5.997  -4.882  1.00  0.00    -0.354 N 
ATOM     18  C   UNL     1       6.505   7.961  -1.372  1.00  0.00     0.074 A 
ATOM     19  C   UNL     1       6.222   7.221  -0.163  1.00  0.00     0.031 C 
ATOM     20  C   UNL     1       4.493   4.218  -6.095  1.00  0.00     0.029 A 
ATOM     21  C   UNL     1       4.897   5.589  -6.203  1.00  0.00     0.049 A 
ATOM     22  H   UNL     1       5.387   6.906  -4.644  1.00  0.00     0.167 HD
ATOM     23  C   UNL     1       7.166   9.137  -1.403  1.00  0.00     0.037 A 
ATOM     24  C   UNL     1       5.091   6.155  -7.412  1.00  0.00     0.037 A 
ATOM     25  C   UNL     1       7.444   9.872  -2.602  1.00  0.00     0.049 A 
ATOM     26  C   UNL     1       5.740   7.489  -7.419  1.00  0.00     0.074 A 
ATOM     27  C   UNL     1       8.069  11.096  -2.728  1.00  0.00     0.029 A 
ATOM     28  N   UNL     1       7.104   9.455  -3.884  1.00  0.00    -0.354 N 
ATOM     29  N   UNL     1       6.170   8.169  -6.387  1.00  0.00    -0.248 NA
ATOM     30  C   UNL     1       5.981   8.118  -8.720  1.00  0.00     0.031 C 
ATOM     31  C   UNL     1       8.069  11.443  -4.082  1.00  0.00     0.029 A 
ATOM     32  C   UNL     1       7.503  10.406  -4.808  1.00  0.00     0.049 A 
ATOM     33  H   UNL     1       6.647   8.611  -4.102  1.00  0.00     0.167 HD
ATOM     34  C   UNL     1       6.762   9.298  -6.910  1.00  0.00     0.074 A 
ATOM     35  C   UNL     1       6.644   9.207  -8.354  1.00  0.00     0.031 C 
ATOM     36  C   UNL     1       7.361  10.306  -6.240  1.00  0.00     0.037 A 
BRANCH  23  37
ATOM     37  C   UNL     1       7.541   9.681  -0.061  1.00  0.00     0.057 A 
ATOM     38  C   UNL     1       8.508   9.057   0.744  1.00  0.00     0.134 A 
ATOM     39  C   UNL     1       6.790  10.716   0.503  1.00  0.00     0.134 A 
ATOM     40  F   UNL     1       9.221   8.022   0.272  1.00  0.00    -0.206 F 
ATOM     41  C   UNL     1       8.657   9.396   2.088  1.00  0.00     0.040 A 
ATOM     42  C   UNL     1       6.956  11.086   1.836  1.00  0.00     0.040 A 
ATOM     43  F   UNL     1       5.842  11.338  -0.214  1.00  0.00    -0.206 F 
ATOM     44  C   UNL     1       7.874  10.410   2.638  1.00  0.00     0.006 A 
ENDBRANCH  23  37
BRANCH  24  45
ATOM     45  C   UNL     1       4.772   5.421  -8.680  1.00  0.00     0.057 A 
ATOM     46  C   UNL     1       5.774   4.982  -9.558  1.00  0.00     0.134 A 
ATOM     47  C   UNL     1       3.450   5.101  -9.026  1.00  0.00     0.134 A 
ATOM     48  F   UNL     1       7.062   5.245  -9.296  1.00  0.00    -0.206 F 
ATOM     49  C   UNL     1       5.475   4.280 -10.733  1.00  0.00     0.040 A 
ATOM     50  C   UNL     1       3.138   4.379 -10.184  1.00  0.00     0.040 A 
ATOM     51  F   UNL     1       2.437   5.462  -8.225  1.00  0.00    -0.206 F 
ATOM     52  C   UNL     1       4.153   3.973 -11.047  1.00  0.00     0.006 A 
ENDBRANCH  24  45
BRANCH  36  53
ATOM     53  C   UNL     1       7.955  11.393  -7.069  1.00  0.00     0.057 A 
ATOM     54  C   UNL     1       7.160  12.340  -7.722  1.00  0.00     0.134 A 
ATOM     55  C   UNL     1       9.345  11.528  -7.149  1.00  0.00     0.134 A 
ATOM     56  F   UNL     1       5.822  12.237  -7.702  1.00  0.00    -0.206 F 
ATOM     57  C   UNL     1       7.732  13.398  -8.425  1.00  0.00     0.040 A 
ATOM     58  C   UNL     1       9.928  12.597  -7.824  1.00  0.00     0.040 A 
ATOM     59  F   UNL     1      10.152  10.638  -6.551  1.00  0.00    -0.206 F 
ATOM     60  C   UNL     1       9.119  13.537  -8.462  1.00  0.00     0.006 A 
ENDBRANCH  36  53
ENDBRANCH  10  11
ENDBRANCH   3   5
ENDBRANCH   2   3
ENDBRANCH   1   2
BRANCH   1  61
ATOM     61  C   UNL     1       4.322  -1.920  -0.356  1.00  0.00     0.274 C 
BRANCH  61  62
ATOM     62  O   UNL     1       3.965  -0.939  -1.323  1.00  0.00    -0.461 OA
BRANCH  62  63
ATOM     63  C   UNL     1       2.816  -1.135  -1.998  1.00  0.00     0.324 C 
ATOM     64  O   UNL     1       2.033  -2.059  -1.811  1.00  0.00    -0.250 OA
BRANCH  63  65
ATOM     65  C   UNL     1       2.549  -0.031  -2.971  1.00  0.00     0.185 C 
ATOM     66  C   UNL     1       1.222   0.638  -2.533  1.00  0.00     0.065 C 
ATOM     67  N   UNL     1       3.579   1.112  -3.199  1.00  0.00    -0.181 NA
ATOM     68  C   UNL     1       1.356   2.083  -2.897  1.00  0.00     0.131 C 
ATOM     69  C   UNL     1       2.608   2.128  -3.761  1.00  0.00     0.135 C 
BRANCH  67  70
ATOM     70  S   UNL     1       5.032   0.474  -4.065  1.00  0.00     0.244 S 
ATOM     71  O   UNL     1       5.704  -0.419  -3.130  1.00  0.00    -0.207 OA
ATOM     72  O   UNL     1       4.485  -0.054  -5.292  1.00  0.00    -0.207 OA
BRANCH  70  73
ATOM     73  C   UNL     1       6.451   1.554  -4.627  1.00  0.00     0.086 A 
ATOM     74  C   UNL     1       7.088   1.187  -5.825  1.00  0.00     0.026 A 
ATOM     75  C   UNL     1       6.996   2.673  -3.991  1.00  0.00     0.072 A 
ATOM     76  C   UNL     1       8.127   1.971  -6.390  1.00  0.00     0.052 A 
ATOM     77  C   UNL     1       7.957   3.514  -4.594  1.00  0.00     0.162 A 
ATOM     78  C   UNL     1       8.533   3.165  -5.800  1.00  0.00     0.161 A 
ATOM     79  O   UNL     1       8.228   4.711  -3.970  1.00  0.00    -0.486 OA
ATOM     80  O   UNL     1       9.446   3.945  -6.458  1.00  0.00    -0.486 OA
ATOM     81  C   UNL     1       8.611   5.695  -4.947  1.00  0.00     0.271 C 
ATOM     82  C   UNL     1       9.775   5.167  -5.769  1.00  0.00     0.271 C 
ENDBRANCH  70  73
ENDBRANCH  67  70
BRANCH  68  83
ATOM     83  O   UNL     1       0.220   2.613  -3.559  1.00  0.00    -0.392 OA
ATOM     84  H   UNL     1       0.060   2.115  -4.376  1.00  0.00     0.211 HD
ENDBRANCH  68  83
ENDBRANCH  63  65
ENDBRANCH  62  63
ENDBRANCH  61  62
ENDBRANCH   1  61
TORSDOF 14
