REMARK SMILES O=C(OCCOC(=O)c1cc(Br)ccc1NC(=O)c1ccc(Br)s1)c1ccc(-c2c3nc(c(-c4c(F)cccc4F)c4ccc([nH]4)c(-c4c(F)cccc4F)c4nc(c(-c5c(F)cccc5F)c5ccc2[nH]5)C=C4)C=C3)cc1
REMARK SMILES IDX 4 1 3 2 2 3 1 4 25 5 26 6 78 7 27 8 77 9 28 10 29 11 30 12
REMARK SMILES IDX 71 13 31 14 76 15 70 16 72 17 32 18 75 19 69 20 68 21 33 23
REMARK SMILES IDX 59 24 42 25 58 26 43 27 46 28 57 29 73 30 44 31 45 32 56 34
REMARK SMILES IDX 74 35 47 36 34 37 35 38 40 39 36 40 37 41 39 42 41 43 38 44
REMARK SMILES IDX 60 45 61 46 66 47 62 48 63 49 65 50 67 51 64 52 48 53 49 54
REMARK SMILES IDX 54 55 50 56 51 57 53 58 55 59 52 60 5 61 6 62 7 63 8 64 9 65
REMARK SMILES IDX 10 66 15 67 11 68 14 69 12 70 13 71 16 72 17 73 18 75 19 76
REMARK SMILES IDX 20 77 24 78 21 79 22 80 23 81
REMARK H PARENT 72 22 46 33 16 74
REMARK Flexibility Score: inf
ROOT
ATOM      1  C   UNL     1       4.201  -0.611   1.563  1.00  0.00     0.275 C 
ENDROOT
BRANCH   1   2
ATOM      2  O   UNL     1       3.288   0.422   1.160  1.00  0.00    -0.458 OA
BRANCH   2   3
ATOM      3  C   UNL     1       3.195   1.110   0.001  1.00  0.00     0.338 C 
ATOM      4  O   UNL     1       2.427   2.068  -0.056  1.00  0.00    -0.246 OA
BRANCH   3   5
ATOM      5  C   UNL     1       3.865   0.693  -1.270  1.00  0.00     0.060 A 
ATOM      6  C   UNL     1       5.073   0.003  -1.377  1.00  0.00     0.016 A 
ATOM      7  C   UNL     1       3.210   1.050  -2.462  1.00  0.00     0.016 A 
ATOM      8  C   UNL     1       5.567  -0.399  -2.620  1.00  0.00     0.010 A 
ATOM      9  C   UNL     1       3.683   0.629  -3.707  1.00  0.00     0.010 A 
ATOM     10  C   UNL     1       4.872  -0.101  -3.792  1.00  0.00    -0.014 A 
BRANCH  10  11
ATOM     11  C   UNL     1       5.486  -0.398  -5.104  1.00  0.00     0.031 A 
ATOM     12  C   UNL     1       6.033   0.745  -5.905  1.00  0.00     0.074 A 
ATOM     13  C   UNL     1       5.619  -1.663  -5.543  1.00  0.00     0.049 A 
ATOM     14  N   UNL     1       6.639   0.727  -7.062  1.00  0.00    -0.248 NA
ATOM     15  C   UNL     1       5.903   2.086  -5.310  1.00  0.00     0.031 C 
ATOM     16  C   UNL     1       5.218  -2.860  -4.808  1.00  0.00     0.029 A 
ATOM     17  N   UNL     1       6.134  -2.153  -6.717  1.00  0.00    -0.354 N 
ATOM     18  C   UNL     1       6.999   2.044  -7.309  1.00  0.00     0.074 A 
ATOM     19  C   UNL     1       6.459   2.848  -6.236  1.00  0.00     0.031 C 
ATOM     20  C   UNL     1       5.464  -3.944  -5.564  1.00  0.00     0.029 A 
ATOM     21  C   UNL     1       6.018  -3.516  -6.841  1.00  0.00     0.049 A 
ATOM     22  H   UNL     1       6.546  -1.582  -7.404  1.00  0.00     0.167 HD
ATOM     23  C   UNL     1       7.760   2.534  -8.312  1.00  0.00     0.037 A 
ATOM     24  C   UNL     1       6.315  -4.327  -7.873  1.00  0.00     0.037 A 
ATOM     25  C   UNL     1       8.279   1.734  -9.385  1.00  0.00     0.049 A 
ATOM     26  C   UNL     1       6.996  -3.735  -9.074  1.00  0.00     0.074 A 
ATOM     27  C   UNL     1       9.052   2.126 -10.461  1.00  0.00     0.029 A 
ATOM     28  N   UNL     1       8.061   0.369  -9.518  1.00  0.00    -0.354 N 
ATOM     29  N   UNL     1       7.360  -2.493  -9.282  1.00  0.00    -0.248 NA
ATOM     30  C   UNL     1       7.346  -4.658 -10.161  1.00  0.00     0.031 C 
ATOM     31  C   UNL     1       9.261   1.006 -11.273  1.00  0.00     0.029 A 
ATOM     32  C   UNL     1       8.662  -0.093 -10.676  1.00  0.00     0.049 A 
ATOM     33  H   UNL     1       7.555  -0.187  -8.883  1.00  0.00     0.167 HD
ATOM     34  C   UNL     1       8.034  -2.493 -10.495  1.00  0.00     0.074 A 
ATOM     35  C   UNL     1       8.013  -3.858 -10.983  1.00  0.00     0.031 C 
ATOM     36  C   UNL     1       8.635  -1.460 -11.134  1.00  0.00     0.037 A 
BRANCH  23  37
ATOM     37  C   UNL     1       8.055   4.003  -8.271  1.00  0.00     0.057 A 
ATOM     38  C   UNL     1       8.903   4.553  -7.298  1.00  0.00     0.134 A 
ATOM     39  C   UNL     1       7.445   4.883  -9.170  1.00  0.00     0.134 A 
ATOM     40  F   UNL     1       9.496   3.765  -6.388  1.00  0.00    -0.206 F 
ATOM     41  C   UNL     1       9.103   5.930  -7.199  1.00  0.00     0.040 A 
ATOM     42  C   UNL     1       7.658   6.260  -9.098  1.00  0.00     0.040 A 
ATOM     43  F   UNL     1       6.617   4.421 -10.120  1.00  0.00    -0.206 F 
ATOM     44  C   UNL     1       8.480   6.788  -8.103  1.00  0.00     0.006 A 
ENDBRANCH  23  37
BRANCH  24  45
ATOM     45  C   UNL     1       5.977  -5.772  -7.819  1.00  0.00     0.057 A 
ATOM     46  C   UNL     1       6.964  -6.754  -7.690  1.00  0.00     0.134 A 
ATOM     47  C   UNL     1       4.649  -6.204  -7.929  1.00  0.00     0.134 A 
ATOM     48  F   UNL     1       8.255  -6.404  -7.599  1.00  0.00    -0.206 F 
ATOM     49  C   UNL     1       6.647  -8.115  -7.692  1.00  0.00     0.040 A 
ATOM     50  C   UNL     1       4.315  -7.560  -7.914  1.00  0.00     0.040 A 
ATOM     51  F   UNL     1       3.655  -5.312  -8.058  1.00  0.00    -0.206 F 
ATOM     52  C   UNL     1       5.318  -8.521  -7.803  1.00  0.00     0.006 A 
ENDBRANCH  24  45
BRANCH  36  53
ATOM     53  C   UNL     1       9.369  -1.777 -12.401  1.00  0.00     0.057 A 
ATOM     54  C   UNL     1       8.698  -2.074 -13.593  1.00  0.00     0.134 A 
ATOM     55  C   UNL     1      10.769  -1.731 -12.436  1.00  0.00     0.134 A 
ATOM     56  F   UNL     1       7.359  -2.149 -13.619  1.00  0.00    -0.206 F 
ATOM     57  C   UNL     1       9.396  -2.330 -14.773  1.00  0.00     0.040 A 
ATOM     58  C   UNL     1      11.476  -1.958 -13.616  1.00  0.00     0.040 A 
ATOM     59  F   UNL     1      11.469  -1.447 -11.327  1.00  0.00    -0.206 F 
ATOM     60  C   UNL     1      10.788  -2.263 -14.788  1.00  0.00     0.006 A 
ENDBRANCH  36  53
ENDBRANCH  10  11
ENDBRANCH   3   5
ENDBRANCH   2   3
ENDBRANCH   1   2
BRANCH   1  61
ATOM     61  C   UNL     1       3.759  -2.033   1.210  1.00  0.00     0.275 C 
BRANCH  61  62
ATOM     62  O   UNL     1       3.322  -2.212  -0.147  1.00  0.00    -0.458 OA
BRANCH  62  63
ATOM     63  C   UNL     1       1.983  -2.100  -0.359  1.00  0.00     0.340 C 
ATOM     64  O   UNL     1       1.134  -1.770   0.449  1.00  0.00    -0.246 OA
BRANCH  63  65
ATOM     65  C   UNL     1       1.706  -2.337  -1.790  1.00  0.00     0.084 A 
ATOM     66  C   UNL     1       2.155  -3.541  -2.355  1.00  0.00     0.033 A 
ATOM     67  C   UNL     1       1.017  -1.385  -2.568  1.00  0.00     0.056 A 
ATOM     68  C   UNL     1       1.985  -3.764  -3.716  1.00  0.00     0.018 A 
ATOM     69  C   UNL     1       1.066  -1.553  -3.956  1.00  0.00     0.028 A 
ATOM     70  Br  UNL     1       2.373  -5.457  -4.456  1.00  0.00    -0.051 Br
ATOM     71  C   UNL     1       1.521  -2.743  -4.531  1.00  0.00     0.018 A 
BRANCH  67  72
ATOM     72  N   UNL     1       0.342  -0.309  -1.939  1.00  0.00    -0.320 N 
ATOM     73  C   UNL     1      -0.536   0.664  -2.389  1.00  0.00     0.265 C 
ATOM     74  H   UNL     1       0.539  -0.238  -0.977  1.00  0.00     0.170 HD
ATOM     75  O   UNL     1      -0.859   1.543  -1.589  1.00  0.00    -0.268 OA
BRANCH  73  76
ATOM     76  C   UNL     1      -1.073   0.623  -3.733  1.00  0.00     0.093 A 
ATOM     77  C   UNL     1      -1.761  -0.389  -4.383  1.00  0.00     0.027 A 
ATOM     78  S   UNL     1      -0.905   2.008  -4.732  1.00  0.00    -0.123 S 
ATOM     79  C   UNL     1      -2.026  -0.067  -5.749  1.00  0.00     0.028 A 
ATOM     80  C   UNL     1      -1.607   1.205  -6.048  1.00  0.00     0.071 A 
ATOM     81  Br  UNL     1      -1.783   1.981  -7.743  1.00  0.00    -0.039 Br
ENDBRANCH  73  76
ENDBRANCH  67  72
ENDBRANCH  63  65
ENDBRANCH  62  63
ENDBRANCH  61  62
ENDBRANCH   1  61
TORSDOF 13
