REMARK SMILES O=C(OCCOC(=O)c1ccccc1C(=O)Nc1ccc(N2C(=O)[C@H]3[C@@H]4CC[C@@H](C4)[C@@H]3C2=O)cc1)c1ccc(-c2c3nc(c(-c4c(F)cccc4F)c4ccc([nH]4)c(-c4c(F)cccc4F)c4nc(c(-c5c(F)cccc5F)c5ccc2[nH]5)C=C4)C=C3)cc1
REMARK SMILES IDX 5 1 4 2 3 3 2 4 1 5 36 6 37 7 89 8 38 9 88 10 39 11 40 12
REMARK SMILES IDX 41 13 82 14 42 15 87 16 81 17 83 18 43 19 86 20 80 21 79 22
REMARK SMILES IDX 44 24 70 25 53 26 69 27 54 28 57 29 68 30 84 31 55 32 56 33
REMARK SMILES IDX 67 35 85 36 58 37 45 38 46 39 51 40 47 41 48 42 50 43 52 44
REMARK SMILES IDX 49 45 71 46 72 47 77 48 73 49 74 50 76 51 78 52 75 53 59 54
REMARK SMILES IDX 60 55 65 56 61 57 62 58 64 59 66 60 63 61 6 62 7 63 8 64
REMARK SMILES IDX 9 65 10 66 14 67 11 68 13 69 12 70 15 71 16 72 17 73 18 75
REMARK SMILES IDX 19 76 35 77 20 78 34 79 21 80 22 81 23 82 32 83 24 84 25 85
REMARK SMILES IDX 31 86 33 87 26 88 29 89 27 90 30 91 28 92
REMARK H PARENT 83 23 57 34 17 74
REMARK Flexibility Score: inf
ROOT
ATOM      1  C   UNL     1       3.299   2.488   0.354  1.00  0.00     0.275 C 
ENDROOT
BRANCH   1   2
ATOM      2  C   UNL     1       1.732   2.277  -0.708  1.00  0.00     0.275 C 
BRANCH   2   3
ATOM      3  O   UNL     1       1.095   0.637  -1.039  1.00  0.00    -0.458 OA
BRANCH   3   4
ATOM      4  C   UNL     1       1.124  -0.854  -0.762  1.00  0.00     0.338 C 
ATOM      5  O   UNL     1       0.079  -1.414  -1.123  1.00  0.00    -0.246 OA
BRANCH   4   6
ATOM      6  C   UNL     1       2.211  -1.965  -0.015  1.00  0.00     0.060 A 
ATOM      7  C   UNL     1       3.648  -2.039   0.004  1.00  0.00     0.016 A 
ATOM      8  C   UNL     1       1.690  -2.944   0.858  1.00  0.00     0.016 A 
ATOM      9  C   UNL     1       4.485  -2.772   0.888  1.00  0.00     0.010 A 
ATOM     10  C   UNL     1       2.534  -3.687   1.808  1.00  0.00     0.010 A 
ATOM     11  C   UNL     1       3.944  -3.555   1.879  1.00  0.00    -0.014 A 
BRANCH  11  12
ATOM     12  C   UNL     1       4.895  -4.194   2.870  1.00  0.00     0.031 A 
ATOM     13  C   UNL     1       5.579  -5.490   2.531  1.00  0.00     0.074 A 
ATOM     14  C   UNL     1       5.436  -3.573   3.949  1.00  0.00     0.049 A 
ATOM     15  N   UNL     1       6.506  -6.129   3.206  1.00  0.00    -0.248 NA
ATOM     16  C   UNL     1       5.255  -6.081   1.229  1.00  0.00     0.031 C 
ATOM     17  C   UNL     1       5.309  -2.169   4.268  1.00  0.00     0.029 A 
ATOM     18  N   UNL     1       6.242  -4.035   4.975  1.00  0.00    -0.354 N 
ATOM     19  C   UNL     1       6.944  -7.145   2.379  1.00  0.00     0.074 A 
ATOM     20  C   UNL     1       6.125  -7.081   1.179  1.00  0.00     0.031 C 
ATOM     21  C   UNL     1       5.814  -1.910   5.486  1.00  0.00     0.029 A 
ATOM     22  C   UNL     1       6.420  -3.130   6.000  1.00  0.00     0.049 A 
ATOM     23  H   UNL     1       6.652  -4.930   4.973  1.00  0.00     0.167 HD
ATOM     24  C   UNL     1       7.954  -8.028   2.567  1.00  0.00     0.037 A 
ATOM     25  C   UNL     1       7.025  -3.221   7.202  1.00  0.00     0.037 A 
ATOM     26  C   UNL     1       8.772  -8.183   3.743  1.00  0.00     0.049 A 
ATOM     27  C   UNL     1       7.868  -4.413   7.546  1.00  0.00     0.074 A 
ATOM     28  C   UNL     1       9.729  -9.157   3.995  1.00  0.00     0.029 A 
ATOM     29  N   UNL     1       8.743  -7.370   4.861  1.00  0.00    -0.354 N 
ATOM     30  N   UNL     1       8.234  -5.399   6.773  1.00  0.00    -0.248 NA
ATOM     31  C   UNL     1       8.443  -4.471   8.902  1.00  0.00     0.031 C 
ATOM     32  C   UNL     1      10.248  -8.959   5.280  1.00  0.00     0.029 A 
ATOM     33  C   UNL     1       9.633  -7.846   5.820  1.00  0.00     0.049 A 
ATOM     34  H   UNL     1       8.176  -6.572   4.963  1.00  0.00     0.167 HD
ATOM     35  C   UNL     1       9.133  -6.150   7.517  1.00  0.00     0.074 A 
ATOM     36  C   UNL     1       9.248  -5.521   8.813  1.00  0.00     0.031 C 
ATOM     37  C   UNL     1       9.810  -7.252   7.120  1.00  0.00     0.037 A 
BRANCH  24  38
ATOM     38  C   UNL     1       8.220  -8.950   1.425  1.00  0.00     0.057 A 
ATOM     39  C   UNL     1       9.005  -8.546   0.339  1.00  0.00     0.134 A 
ATOM     40  C   UNL     1       7.703 -10.248   1.425  1.00  0.00     0.134 A 
ATOM     41  F   UNL     1       9.511  -7.304   0.287  1.00  0.00    -0.206 F 
ATOM     42  C   UNL     1       9.258  -9.409  -0.724  1.00  0.00     0.040 A 
ATOM     43  C   UNL     1       7.959 -11.123   0.374  1.00  0.00     0.040 A 
ATOM     44  F   UNL     1       6.944 -10.678   2.445  1.00  0.00    -0.206 F 
ATOM     45  C   UNL     1       8.737 -10.703  -0.705  1.00  0.00     0.006 A 
ENDBRANCH  24  38
BRANCH  25  46
ATOM     46  C   UNL     1       6.878  -2.143   8.215  1.00  0.00     0.057 A 
ATOM     47  C   UNL     1       7.949  -1.318   8.572  1.00  0.00     0.134 A 
ATOM     48  C   UNL     1       5.694  -2.029   8.954  1.00  0.00     0.134 A 
ATOM     49  F   UNL     1       9.121  -1.416   7.928  1.00  0.00    -0.206 F 
ATOM     50  C   UNL     1       7.860  -0.438   9.652  1.00  0.00     0.040 A 
ATOM     51  C   UNL     1       5.588  -1.146  10.028  1.00  0.00     0.040 A 
ATOM     52  F   UNL     1       4.642  -2.815   8.677  1.00  0.00    -0.206 F 
ATOM     53  C   UNL     1       6.678  -0.355  10.387  1.00  0.00     0.006 A 
ENDBRANCH  25  46
BRANCH  37  54
ATOM     54  C   UNL     1      10.790  -7.860   8.083  1.00  0.00     0.057 A 
ATOM     55  C   UNL     1      10.368  -8.557   9.223  1.00  0.00     0.134 A 
ATOM     56  C   UNL     1      12.171  -7.765   7.864  1.00  0.00     0.134 A 
ATOM     57  F   UNL     1       9.062  -8.670   9.506  1.00  0.00    -0.206 F 
ATOM     58  C   UNL     1      11.282  -9.122  10.117  1.00  0.00     0.040 A 
ATOM     59  C   UNL     1      13.095  -8.342   8.740  1.00  0.00     0.040 A 
ATOM     60  F   UNL     1      12.649  -7.111   6.795  1.00  0.00    -0.206 F 
ATOM     61  C   UNL     1      12.650  -9.020   9.873  1.00  0.00     0.006 A 
ENDBRANCH  37  54
ENDBRANCH  11  12
ENDBRANCH   4   6
ENDBRANCH   3   4
ENDBRANCH   2   3
ENDBRANCH   1   2
BRANCH   1  62
ATOM     62  O   UNL     1       3.836   0.977   1.600  1.00  0.00    -0.458 OA
BRANCH  62  63
ATOM     63  C   UNL     1       3.280  -0.049   2.609  1.00  0.00     0.339 C 
ATOM     64  O   UNL     1       2.474  -0.889   2.202  1.00  0.00    -0.246 OA
BRANCH  63  65
ATOM     65  C   UNL     1       3.094  -0.020   4.124  1.00  0.00     0.072 A 
ATOM     66  C   UNL     1       2.248  -1.116   4.613  1.00  0.00     0.016 A 
ATOM     67  C   UNL     1       3.591   0.843   5.093  1.00  0.00     0.054 A 
ATOM     68  C   UNL     1       1.911  -1.350   5.944  1.00  0.00     0.001 A 
ATOM     69  C   UNL     1       3.241   0.570   6.464  1.00  0.00     0.015 A 
ATOM     70  C   UNL     1       2.421  -0.492   6.884  1.00  0.00     0.001 A 
BRANCH  67  71
ATOM     71  C   UNL     1       4.562   1.964   4.940  1.00  0.00     0.256 C 
ATOM     72  O   UNL     1       5.338   2.156   5.885  1.00  0.00    -0.269 OA
ATOM     73  N   UNL     1       4.713   2.783   3.839  1.00  0.00    -0.322 N 
ATOM     74  H   UNL     1       5.274   3.580   3.975  1.00  0.00     0.170 HD
BRANCH  73  75
ATOM     75  C   UNL     1       4.172   2.631   2.552  1.00  0.00     0.041 A 
ATOM     76  C   UNL     1       5.432   2.139   1.408  1.00  0.00     0.028 A 
ATOM     77  C   UNL     1       2.468   2.154   2.313  1.00  0.00     0.028 A 
ATOM     78  C   UNL     1       5.104   1.092   0.040  1.00  0.00     0.029 A 
ATOM     79  C   UNL     1       2.108   1.000   0.938  1.00  0.00     0.029 A 
ATOM     80  C   UNL     1       3.468   0.534  -0.305  1.00  0.00     0.052 A 
BRANCH  80  81
ATOM     81  N   UNL     1       3.310   0.278  -1.943  1.00  0.00    -0.250 N 
ATOM     82  C   UNL     1       3.117   1.308  -2.898  1.00  0.00     0.237 C 
ATOM     83  C   UNL     1       3.326  -0.917  -2.730  1.00  0.00     0.237 C 
ATOM     84  O   UNL     1       3.656   2.397  -2.966  1.00  0.00    -0.274 OA
ATOM     85  C   UNL     1       2.094   0.689  -3.855  1.00  0.00     0.095 C 
ATOM     86  C   UNL     1       2.857  -0.572  -4.130  1.00  0.00     0.095 C 
ATOM     87  O   UNL     1       3.792  -2.032  -2.549  1.00  0.00    -0.274 OA
ATOM     88  C   UNL     1       1.191   0.811  -5.100  1.00  0.00     0.002 C 
ATOM     89  C   UNL     1       1.904  -1.333  -5.068  1.00  0.00     0.002 C 
ATOM     90  C   UNL     1      -0.111   0.003  -4.737  1.00  0.00     0.005 C 
ATOM     91  C   UNL     1       1.742  -0.211  -6.119  1.00  0.00     0.009 C 
ATOM     92  C   UNL     1       0.446  -1.437  -4.553  1.00  0.00     0.005 C 
ENDBRANCH  80  81
ENDBRANCH  73  75
ENDBRANCH  67  71
ENDBRANCH  63  65
ENDBRANCH  62  63
ENDBRANCH   1  62
TORSDOF 14
