REMARK SMILES CC(C)C[C@H](NC(=O)CNC(=O)[C@@H](NC(=O)OCc1ccccc1)C(C)C)C(=O)N[C@@H](C)C(=O)OCCOC(=O)c1ccc(-c2c3nc(c(-c4c(F)cccc4F)c4ccc([nH]4)c(-c4c(F)cccc4F)c4nc(c(-c5c(F)cccc5F)c5ccc2[nH]5)C=C4)C=C3)cc1
REMARK SMILES IDX 31 1 32 2 30 3 28 4 29 5 5 7 4 8 2 9 1 10 3 11 6 12 7 13
REMARK SMILES IDX 8 15 9 16 10 17 11 18 12 20 13 21 14 22 15 23 16 25 17 26
REMARK SMILES IDX 18 27 19 28 20 29 24 30 21 31 23 32 22 33 25 34 26 35 27 36
REMARK SMILES IDX 33 37 34 38 35 39 36 40 37 41 38 42 39 43 40 44 41 45 42 46
REMARK SMILES IDX 94 47 43 48 93 49 44 50 45 51 46 52 87 53 47 54 92 55 86 56
REMARK SMILES IDX 88 57 48 58 91 59 85 60 84 61 49 63 75 64 58 65 74 66 59 67
REMARK SMILES IDX 62 68 73 69 89 70 60 71 61 72 72 74 90 75 63 76 50 77 51 78
REMARK SMILES IDX 56 79 52 80 53 81 55 82 57 83 54 84 76 85 77 86 82 87 78 88
REMARK SMILES IDX 79 89 81 90 83 91 80 92 64 93 65 94 70 95 66 96 67 97 69 98
REMARK SMILES IDX 71 99 68 100
REMARK H PARENT 30 6 6 14 10 19 14 24 88 62 62 73
REMARK Flexibility Score: inf
ROOT
ATOM      1  C   UNL     1      -3.830  -3.882  -0.269  1.00  0.00     0.189 C 
ATOM      2  C   UNL     1      -3.759  -4.316   1.194  1.00  0.00     0.043 C 
ENDROOT
BRANCH   1   3
ATOM      3  N   UNL     1      -4.723  -2.717  -0.373  1.00  0.00    -0.341 N 
ATOM      4  C   UNL     1      -4.428  -1.385  -0.416  1.00  0.00     0.243 C 
ATOM      5  O   UNL     1      -5.358  -0.577  -0.357  1.00  0.00    -0.273 OA
ATOM      6  H   UNL     1      -5.683  -2.932  -0.418  1.00  0.00     0.164 HD
BRANCH   4   7
ATOM      7  C   UNL     1      -2.995  -0.909  -0.699  1.00  0.00     0.171 C 
BRANCH   7   8
ATOM      8  C   UNL     1      -2.683  -1.227  -2.151  1.00  0.00     0.038 C 
BRANCH   8   9
ATOM      9  C   UNL     1      -3.674  -0.852  -3.271  1.00  0.00    -0.015 C 
ATOM     10  C   UNL     1      -3.860   0.661  -3.380  1.00  0.00     0.007 C 
ATOM     11  C   UNL     1      -3.159  -1.368  -4.624  1.00  0.00     0.007 C 
ENDBRANCH   8   9
ENDBRANCH   7   8
BRANCH   7  12
ATOM     12  N   UNL     1      -2.093  -1.434   0.357  1.00  0.00    -0.343 N 
ATOM     13  C   UNL     1      -0.789  -1.679   0.612  1.00  0.00     0.240 C 
ATOM     14  H   UNL     1      -2.630  -1.692   1.141  1.00  0.00     0.164 HD
ATOM     15  O   UNL     1      -0.532  -1.839   1.816  1.00  0.00    -0.273 OA
BRANCH  13  16
ATOM     16  C   UNL     1       0.382  -1.736  -0.376  1.00  0.00     0.216 C 
BRANCH  16  17
ATOM     17  N   UNL     1       0.124  -2.089  -1.746  1.00  0.00    -0.345 N 
ATOM     18  C   UNL     1       0.143  -1.446  -2.933  1.00  0.00     0.243 C 
ATOM     19  H   UNL     1      -0.128  -3.035  -1.843  1.00  0.00     0.164 HD
ATOM     20  O   UNL     1      -0.164  -2.136  -3.910  1.00  0.00    -0.273 OA
BRANCH  18  21
ATOM     21  C   UNL     1       0.344   0.060  -3.172  1.00  0.00     0.177 C 
BRANCH  21  22
ATOM     22  N   UNL     1       0.226   0.888  -1.990  1.00  0.00    -0.309 N 
ATOM     23  C   UNL     1       1.109   1.296  -1.059  1.00  0.00     0.408 C 
ATOM     24  H   UNL     1      -0.687   1.222  -1.835  1.00  0.00     0.167 HD
ATOM     25  O   UNL     1       0.697   1.788  -0.018  1.00  0.00    -0.225 OA
BRANCH  23  26
ATOM     26  O   UNL     1       2.393   1.165  -1.427  1.00  0.00    -0.445 OA
BRANCH  26  27
ATOM     27  C   UNL     1       3.289   1.970  -0.651  1.00  0.00     0.270 C 
BRANCH  27  28
ATOM     28  C   UNL     1       3.313   3.424  -1.099  1.00  0.00    -0.011 A 
ATOM     29  C   UNL     1       2.183   4.097  -1.600  1.00  0.00     0.007 A 
ATOM     30  C   UNL     1       4.501   4.153  -0.969  1.00  0.00     0.007 A 
ATOM     31  C   UNL     1       2.241   5.433  -1.992  1.00  0.00     0.000 A 
ATOM     32  C   UNL     1       4.561   5.494  -1.359  1.00  0.00     0.000 A 
ATOM     33  C   UNL     1       3.433   6.132  -1.872  1.00  0.00     0.000 A 
ENDBRANCH  27  28
ENDBRANCH  26  27
ENDBRANCH  23  26
ENDBRANCH  21  22
BRANCH  21  34
ATOM     34  C   UNL     1       1.392   0.296  -4.282  1.00  0.00     0.015 C 
ATOM     35  C   UNL     1       0.786  -0.057  -5.667  1.00  0.00     0.010 C 
ATOM     36  C   UNL     1       1.898   1.724  -4.373  1.00  0.00     0.010 C 
ENDBRANCH  21  34
ENDBRANCH  18  21
ENDBRANCH  16  17
ENDBRANCH  13  16
ENDBRANCH   7  12
ENDBRANCH   4   7
ENDBRANCH   1   3
BRANCH   1  37
ATOM     37  C   UNL     1      -4.194  -5.083  -1.175  1.00  0.00     0.328 C 
ATOM     38  O   UNL     1      -3.858  -6.237  -0.927  1.00  0.00    -0.250 OA
BRANCH  37  39
ATOM     39  O   UNL     1      -4.777  -4.687  -2.349  1.00  0.00    -0.461 OA
BRANCH  39  40
ATOM     40  C   UNL     1      -4.831  -5.684  -3.403  1.00  0.00     0.274 C 
BRANCH  40  41
ATOM     41  C   UNL     1      -4.255  -5.149  -4.737  1.00  0.00     0.275 C 
BRANCH  41  42
ATOM     42  O   UNL     1      -2.846  -5.397  -5.033  1.00  0.00    -0.458 OA
BRANCH  42  43
ATOM     43  C   UNL     1      -1.960  -4.970  -4.111  1.00  0.00     0.338 C 
ATOM     44  O   UNL     1      -2.259  -4.565  -2.995  1.00  0.00    -0.246 OA
BRANCH  43  45
ATOM     45  C   UNL     1      -0.522  -4.953  -4.495  1.00  0.00     0.060 A 
ATOM     46  C   UNL     1       0.328  -4.974  -3.396  1.00  0.00     0.016 A 
ATOM     47  C   UNL     1       0.002  -4.567  -5.737  1.00  0.00     0.016 A 
ATOM     48  C   UNL     1       1.587  -4.386  -3.488  1.00  0.00     0.010 A 
ATOM     49  C   UNL     1       1.363  -4.130  -5.844  1.00  0.00     0.010 A 
ATOM     50  C   UNL     1       2.178  -3.979  -4.708  1.00  0.00    -0.014 A 
BRANCH  50  51
ATOM     51  C   UNL     1       3.614  -3.482  -4.628  1.00  0.00     0.031 A 
ATOM     52  C   UNL     1       4.175  -2.180  -5.196  1.00  0.00     0.074 A 
ATOM     53  C   UNL     1       4.462  -4.185  -3.842  1.00  0.00     0.049 A 
ATOM     54  N   UNL     1       5.220  -1.487  -4.780  1.00  0.00    -0.248 NA
ATOM     55  C   UNL     1       3.514  -1.556  -6.344  1.00  0.00     0.031 C 
ATOM     56  C   UNL     1       4.168  -5.480  -3.213  1.00  0.00     0.029 A 
ATOM     57  N   UNL     1       5.735  -3.902  -3.410  1.00  0.00    -0.354 N 
ATOM     58  C   UNL     1       5.210  -0.277  -5.478  1.00  0.00     0.074 A 
ATOM     59  C   UNL     1       4.134  -0.379  -6.433  1.00  0.00     0.031 C 
ATOM     60  C   UNL     1       5.181  -5.832  -2.421  1.00  0.00     0.029 A 
ATOM     61  C   UNL     1       6.280  -4.911  -2.660  1.00  0.00     0.049 A 
ATOM     62  H   UNL     1       6.206  -3.062  -3.617  1.00  0.00     0.167 HD
ATOM     63  C   UNL     1       6.026   0.803  -5.347  1.00  0.00     0.037 A 
ATOM     64  C   UNL     1       7.553  -5.175  -2.324  1.00  0.00     0.037 A 
ATOM     65  C   UNL     1       7.340   0.744  -4.763  1.00  0.00     0.049 A 
ATOM     66  C   UNL     1       8.618  -4.195  -2.667  1.00  0.00     0.074 A 
ATOM     67  C   UNL     1       8.327   1.718  -4.750  1.00  0.00     0.029 A 
ATOM     68  N   UNL     1       7.907  -0.403  -4.244  1.00  0.00    -0.354 N 
ATOM     69  N   UNL     1       8.489  -2.972  -3.114  1.00  0.00    -0.248 NA
ATOM     70  C   UNL     1      10.003  -4.637  -2.489  1.00  0.00     0.031 C 
ATOM     71  C   UNL     1       9.532   1.106  -4.379  1.00  0.00     0.029 A 
ATOM     72  C   UNL     1       9.268  -0.218  -4.073  1.00  0.00     0.049 A 
ATOM     73  H   UNL     1       7.416  -1.229  -4.029  1.00  0.00     0.167 HD
ATOM     74  C   UNL     1       9.780  -2.490  -3.262  1.00  0.00     0.074 A 
ATOM     75  C   UNL     1      10.674  -3.552  -2.849  1.00  0.00     0.031 C 
ATOM     76  C   UNL     1      10.174  -1.268  -3.693  1.00  0.00     0.037 A 
BRANCH  63  77
ATOM     77  C   UNL     1       5.605   2.140  -5.900  1.00  0.00     0.057 A 
ATOM     78  C   UNL     1       4.986   3.072  -5.053  1.00  0.00     0.134 A 
ATOM     79  C   UNL     1       5.975   2.591  -7.168  1.00  0.00     0.134 A 
ATOM     80  F   UNL     1       4.729   2.746  -3.781  1.00  0.00    -0.206 F 
ATOM     81  C   UNL     1       4.670   4.368  -5.471  1.00  0.00     0.040 A 
ATOM     82  C   UNL     1       5.701   3.900  -7.590  1.00  0.00     0.040 A 
ATOM     83  F   UNL     1       6.653   1.788  -8.001  1.00  0.00    -0.206 F 
ATOM     84  C   UNL     1       5.032   4.787  -6.747  1.00  0.00     0.006 A 
ENDBRANCH  63  77
BRANCH  64  85
ATOM     85  C   UNL     1       7.860  -6.544  -1.843  1.00  0.00     0.057 A 
ATOM     86  C   UNL     1       8.309  -6.801  -0.550  1.00  0.00     0.134 A 
ATOM     87  C   UNL     1       7.610  -7.647  -2.680  1.00  0.00     0.134 A 
ATOM     88  F   UNL     1       8.590  -5.789   0.284  1.00  0.00    -0.206 F 
ATOM     89  C   UNL     1       8.472  -8.110  -0.094  1.00  0.00     0.040 A 
ATOM     90  C   UNL     1       7.724  -8.955  -2.224  1.00  0.00     0.040 A 
ATOM     91  F   UNL     1       7.177  -7.460  -3.938  1.00  0.00    -0.206 F 
ATOM     92  C   UNL     1       8.159  -9.189  -0.924  1.00  0.00     0.006 A 
ENDBRANCH  64  85
BRANCH  76  93
ATOM     93  C   UNL     1      11.645  -1.005  -3.732  1.00  0.00     0.057 A 
ATOM     94  C   UNL     1      12.477  -1.616  -4.678  1.00  0.00     0.134 A 
ATOM     95  C   UNL     1      12.238  -0.141  -2.805  1.00  0.00     0.134 A 
ATOM     96  F   UNL     1      11.969  -2.467  -5.583  1.00  0.00    -0.206 F 
ATOM     97  C   UNL     1      13.856  -1.405  -4.677  1.00  0.00     0.040 A 
ATOM     98  C   UNL     1      13.611   0.100  -2.811  1.00  0.00     0.040 A 
ATOM     99  F   UNL     1      11.493   0.480  -1.878  1.00  0.00    -0.206 F 
ATOM    100  C   UNL     1      14.425  -0.542  -3.742  1.00  0.00     0.006 A 
ENDBRANCH  76  93
ENDBRANCH  50  51
ENDBRANCH  43  45
ENDBRANCH  42  43
ENDBRANCH  41  42
ENDBRANCH  40  41
ENDBRANCH  39  40
ENDBRANCH  37  39
ENDBRANCH   1  37
TORSDOF 24
