REMARK SMILES O=C(N[C@@H](Cc1c[nH]c2ccccc12)C(=O)N[C@@H](CO)C(=O)OCCOC(=O)c1ccc(-c2c3nc(c(-c4c(F)cccc4F)c4ccc([nH]4)c(-c4c(F)cccc4F)c4nc(c(-c5c(F)cccc5F)c5ccc2[nH]5)C=C4)C=C3)cc1)c1ccc(F)cc1
REMARK SMILES IDX 24 1 23 2 21 3 22 4 18 5 17 6 15 7 16 8 4 10 3 11 1 12 2 13
REMARK SMILES IDX 83 15 84 16 89 17 85 18 88 19 86 20 87 21 5 22 6 23 7 24
REMARK SMILES IDX 14 25 8 26 9 27 13 28 10 30 12 31 11 32 19 33 20 34 25 36
REMARK SMILES IDX 26 37 27 38 28 39 29 40 30 41 82 42 31 43 81 44 32 45 33 46
REMARK SMILES IDX 34 47 75 48 35 49 80 50 74 51 76 52 36 53 79 54 73 55 72 56
REMARK SMILES IDX 37 58 63 59 46 60 62 61 47 62 50 63 61 64 77 65 48 66 49 67
REMARK SMILES IDX 60 69 78 70 51 71 38 72 39 73 44 74 40 75 41 76 43 77 45 78
REMARK SMILES IDX 42 79 64 80 65 81 70 82 66 83 67 84 69 85 71 86 68 87 52 88
REMARK SMILES IDX 53 89 58 90 54 91 55 92 57 93 59 94 56 95
REMARK H PARENT 17 9 3 14 8 29 20 35 76 57 50 68
REMARK Flexibility Score: inf
ROOT
ATOM      1  C   UNL     1       6.415  -2.718   5.724  1.00  0.00     0.274 C 
ENDROOT
BRANCH   1   2
ATOM      2  O   UNL     1       5.717  -3.138   4.530  1.00  0.00    -0.460 OA
BRANCH   2   3
ATOM      3  C   UNL     1       4.633  -3.963   4.732  1.00  0.00     0.331 C 
ATOM      4  O   UNL     1       4.375  -4.487   5.812  1.00  0.00    -0.250 OA
BRANCH   3   5
ATOM      5  C   UNL     1       3.613  -3.828   3.554  1.00  0.00     0.218 C 
BRANCH   5   6
ATOM      6  N   UNL     1       4.287  -3.488   2.316  1.00  0.00    -0.339 N 
ATOM      7  C   UNL     1       4.526  -2.267   1.772  1.00  0.00     0.243 C 
ATOM      8  O   UNL     1       5.455  -2.232   0.953  1.00  0.00    -0.273 OA
ATOM      9  H   UNL     1       4.619  -4.253   1.793  1.00  0.00     0.164 HD
BRANCH   7  10
ATOM     10  C   UNL     1       3.661  -0.982   2.011  1.00  0.00     0.176 C 
BRANCH  10  11
ATOM     11  N   UNL     1       2.319  -1.069   1.433  1.00  0.00    -0.340 N 
ATOM     12  O   UNL     1       0.661  -0.750  -0.057  1.00  0.00    -0.269 OA
ATOM     13  C   UNL     1       1.863  -0.662   0.191  1.00  0.00     0.251 C 
ATOM     14  H   UNL     1       1.639  -1.477   2.015  1.00  0.00     0.164 HD
BRANCH  13  15
ATOM     15  C   UNL     1       2.751  -0.088  -0.861  1.00  0.00     0.040 A 
ATOM     16  C   UNL     1       3.810  -0.815  -1.417  1.00  0.00     0.017 A 
ATOM     17  C   UNL     1       2.414   1.160  -1.416  1.00  0.00     0.017 A 
ATOM     18  C   UNL     1       4.561  -0.275  -2.472  1.00  0.00     0.040 A 
ATOM     19  C   UNL     1       3.163   1.695  -2.473  1.00  0.00     0.040 A 
ATOM     20  C   UNL     1       4.234   0.974  -2.988  1.00  0.00     0.123 A 
ATOM     21  F   UNL     1       4.945   1.479  -4.005  1.00  0.00    -0.207 F 
ENDBRANCH  13  15
ENDBRANCH  10  11
BRANCH  10  22
ATOM     22  C   UNL     1       3.824  -0.139   3.309  1.00  0.00     0.072 C 
BRANCH  22  23
ATOM     23  C   UNL     1       3.095  -0.291   4.636  1.00  0.00    -0.020 A 
ATOM     24  C   UNL     1       2.970  -1.381   5.457  1.00  0.00     0.087 A 
ATOM     25  C   UNL     1       2.810   0.762   5.599  1.00  0.00     0.003 A 
ATOM     26  N   UNL     1       2.172  -1.125   6.530  1.00  0.00    -0.361 N 
ATOM     27  C   UNL     1       2.169   0.222   6.716  1.00  0.00     0.046 A 
ATOM     28  C   UNL     1       3.176   2.109   5.706  1.00  0.00     0.010 A 
ATOM     29  H   UNL     1       1.688  -1.790   7.071  1.00  0.00     0.166 HD
ATOM     30  C   UNL     1       1.762   0.952   7.834  1.00  0.00     0.026 A 
ATOM     31  C   UNL     1       2.812   2.872   6.826  1.00  0.00     0.001 A 
ATOM     32  C   UNL     1       2.090   2.302   7.866  1.00  0.00     0.002 A 
ENDBRANCH  22  23
ENDBRANCH  10  22
ENDBRANCH   7  10
ENDBRANCH   5   6
BRANCH   5  33
ATOM     33  C   UNL     1       2.705  -5.048   3.463  1.00  0.00     0.193 C 
BRANCH  33  34
ATOM     34  O   UNL     1       3.459  -6.204   3.132  1.00  0.00    -0.394 OA
ATOM     35  H   UNL     1       3.890  -6.075   2.273  1.00  0.00     0.210 HD
ENDBRANCH  33  34
ENDBRANCH   5  33
ENDBRANCH   3   5
ENDBRANCH   2   3
ENDBRANCH   1   2
BRANCH   1  36
ATOM     36  C   UNL     1       7.413  -1.592   5.398  1.00  0.00     0.275 C 
BRANCH  36  37
ATOM     37  O   UNL     1       6.752  -0.386   4.944  1.00  0.00    -0.458 OA
BRANCH  37  38
ATOM     38  C   UNL     1       7.589   0.645   4.660  1.00  0.00     0.338 C 
ATOM     39  O   UNL     1       8.815   0.639   4.791  1.00  0.00    -0.246 OA
BRANCH  38  40
ATOM     40  C   UNL     1       6.848   1.839   4.186  1.00  0.00     0.060 A 
ATOM     41  C   UNL     1       6.291   1.873   2.902  1.00  0.00     0.016 A 
ATOM     42  C   UNL     1       6.752   2.973   4.997  1.00  0.00     0.016 A 
ATOM     43  C   UNL     1       5.547   2.989   2.474  1.00  0.00     0.010 A 
ATOM     44  C   UNL     1       6.050   4.108   4.547  1.00  0.00     0.010 A 
ATOM     45  C   UNL     1       5.416   4.124   3.289  1.00  0.00    -0.014 A 
BRANCH  45  46
ATOM     46  C   UNL     1       4.718   5.360   2.810  1.00  0.00     0.031 A 
ATOM     47  C   UNL     1       5.323   6.189   1.720  1.00  0.00     0.074 A 
ATOM     48  C   UNL     1       3.525   5.759   3.296  1.00  0.00     0.049 A 
ATOM     49  N   UNL     1       4.849   7.280   1.176  1.00  0.00    -0.248 NA
ATOM     50  C   UNL     1       6.554   5.684   1.099  1.00  0.00     0.031 C 
ATOM     51  C   UNL     1       2.641   4.947   4.104  1.00  0.00     0.029 A 
ATOM     52  N   UNL     1       2.838   6.946   3.193  1.00  0.00    -0.354 N 
ATOM     53  C   UNL     1       5.652   7.525   0.078  1.00  0.00     0.074 A 
ATOM     54  C   UNL     1       6.682   6.508   0.068  1.00  0.00     0.031 C 
ATOM     55  C   UNL     1       1.638   5.686   4.595  1.00  0.00     0.029 A 
ATOM     56  C   UNL     1       1.761   7.027   4.050  1.00  0.00     0.049 A 
ATOM     57  H   UNL     1       3.091   7.666   2.570  1.00  0.00     0.167 HD
ATOM     58  C   UNL     1       5.522   8.499  -0.852  1.00  0.00     0.037 A 
ATOM     59  C   UNL     1       0.947   8.052   4.358  1.00  0.00     0.037 A 
ATOM     60  C   UNL     1       4.589   9.589  -0.768  1.00  0.00     0.049 A 
ATOM     61  C   UNL     1       1.058   9.305   3.550  1.00  0.00     0.074 A 
ATOM     62  C   UNL     1       4.470  10.690  -1.597  1.00  0.00     0.029 A 
ATOM     63  N   UNL     1       3.643   9.742   0.236  1.00  0.00    -0.354 N 
ATOM     64  N   UNL     1       1.825   9.531   2.514  1.00  0.00    -0.248 NA
ATOM     65  C   UNL     1       0.173  10.420   3.907  1.00  0.00     0.031 C 
ATOM     66  C   UNL     1       3.497  11.540  -1.057  1.00  0.00     0.029 A 
ATOM     67  C   UNL     1       2.981  10.950   0.086  1.00  0.00     0.049 A 
ATOM     68  H   UNL     1       3.468   9.087   0.951  1.00  0.00     0.167 HD
ATOM     69  C   UNL     1       1.483  10.791   2.058  1.00  0.00     0.074 A 
ATOM     70  C   UNL     1       0.449  11.290   2.944  1.00  0.00     0.031 C 
ATOM     71  C   UNL     1       1.970  11.454   0.982  1.00  0.00     0.037 A 
BRANCH  58  72
ATOM     72  C   UNL     1       6.472   8.427  -2.002  1.00  0.00     0.057 A 
ATOM     73  C   UNL     1       6.262   7.533  -3.060  1.00  0.00     0.134 A 
ATOM     74  C   UNL     1       7.635   9.202  -2.020  1.00  0.00     0.134 A 
ATOM     75  F   UNL     1       5.178   6.743  -3.079  1.00  0.00    -0.206 F 
ATOM     76  C   UNL     1       7.192   7.401  -4.093  1.00  0.00     0.040 A 
ATOM     77  C   UNL     1       8.567   9.085  -3.051  1.00  0.00     0.040 A 
ATOM     78  F   UNL     1       7.896  10.059  -1.022  1.00  0.00    -0.206 F 
ATOM     79  C   UNL     1       8.349   8.178  -4.088  1.00  0.00     0.006 A 
ENDBRANCH  58  72
BRANCH  59  80
ATOM     80  C   UNL     1      -0.033   7.923   5.467  1.00  0.00     0.057 A 
ATOM     81  C   UNL     1      -1.410   7.855   5.237  1.00  0.00     0.134 A 
ATOM     82  C   UNL     1       0.401   7.871   6.800  1.00  0.00     0.134 A 
ATOM     83  F   UNL     1      -1.889   7.916   3.987  1.00  0.00    -0.206 F 
ATOM     84  C   UNL     1      -2.322   7.750   6.290  1.00  0.00     0.040 A 
ATOM     85  C   UNL     1      -0.499   7.752   7.861  1.00  0.00     0.040 A 
ATOM     86  F   UNL     1       1.709   7.934   7.089  1.00  0.00    -0.206 F 
ATOM     87  C   UNL     1      -1.867   7.695   7.607  1.00  0.00     0.006 A 
ENDBRANCH  59  80
BRANCH  71  88
ATOM     88  C   UNL     1       1.382  12.801   0.705  1.00  0.00     0.057 A 
ATOM     89  C   UNL     1       1.717  13.917   1.481  1.00  0.00     0.134 A 
ATOM     90  C   UNL     1       0.486  12.986  -0.353  1.00  0.00     0.134 A 
ATOM     91  F   UNL     1       2.553  13.795   2.523  1.00  0.00    -0.206 F 
ATOM     92  C   UNL     1       1.167  15.172   1.221  1.00  0.00     0.040 A 
ATOM     93  C   UNL     1      -0.055  14.241  -0.635  1.00  0.00     0.040 A 
ATOM     94  F   UNL     1       0.125  11.954  -1.130  1.00  0.00    -0.206 F 
ATOM     95  C   UNL     1       0.283  15.337   0.156  1.00  0.00     0.006 A 
ENDBRANCH  71  88
ENDBRANCH  45  46
ENDBRANCH  38  40
ENDBRANCH  37  38
ENDBRANCH  36  37
ENDBRANCH   1  36
TORSDOF 19
