REMARK SMILES O=C(OCCOC(=O)[C@H](CCSc1ccccc1)Cc1ccccc1Br)c1ccc(-c2c3nc(c(-c4c(F)cccc4F)c4ccc([nH]4)c(-c4c(F)cccc4F)c4nc(c(-c5c(F)cccc5F)c5ccc2[nH]5)C=C4)C=C3)cc1
REMARK SMILES IDX 5 1 4 2 3 3 2 4 1 5 27 6 28 7 80 8 29 9 79 10 30 11 31 12
REMARK SMILES IDX 32 13 73 14 33 15 78 16 72 17 74 18 34 19 77 20 71 21 70 22
REMARK SMILES IDX 35 24 61 25 44 26 60 27 45 28 48 29 59 30 75 31 46 32 47 33
REMARK SMILES IDX 58 35 76 36 49 37 36 38 37 39 42 40 38 41 39 42 41 43 43 44
REMARK SMILES IDX 40 45 62 46 63 47 68 48 64 49 65 50 67 51 69 52 66 53 50 54
REMARK SMILES IDX 51 55 56 56 52 57 53 58 55 59 57 60 54 61 6 62 7 63 8 64
REMARK SMILES IDX 9 65 19 66 20 67 21 68 25 69 22 70 24 71 26 72 23 73 10 74
REMARK SMILES IDX 11 75 12 76 13 77 14 78 18 79 15 80 17 81 16 82
REMARK H PARENT 74 23 48 34
REMARK Flexibility Score: inf
ROOT
ATOM      1  C   UNL     1       4.952  -2.056  -4.426  1.00  0.00     0.274 C 
ENDROOT
BRANCH   1   2
ATOM      2  C   UNL     1       4.038  -1.209  -5.330  1.00  0.00     0.275 C 
BRANCH   2   3
ATOM      3  O   UNL     1       3.516  -0.096  -4.615  1.00  0.00    -0.458 OA
BRANCH   3   4
ATOM      4  C   UNL     1       2.477  -0.194  -3.768  1.00  0.00     0.338 C 
ATOM      5  O   UNL     1       2.297   0.695  -2.934  1.00  0.00    -0.246 OA
BRANCH   4   6
ATOM      6  C   UNL     1       1.487  -1.318  -3.789  1.00  0.00     0.060 A 
ATOM      7  C   UNL     1       1.663  -2.701  -3.898  1.00  0.00     0.016 A 
ATOM      8  C   UNL     1       0.219  -0.927  -3.478  1.00  0.00     0.016 A 
ATOM      9  C   UNL     1       0.795  -3.618  -3.237  1.00  0.00     0.010 A 
ATOM     10  C   UNL     1      -0.679  -1.884  -3.019  1.00  0.00     0.010 A 
ATOM     11  C   UNL     1      -0.310  -3.186  -2.505  1.00  0.00    -0.014 A 
BRANCH  11  12
ATOM     12  C   UNL     1      -1.112  -4.159  -1.155  1.00  0.00     0.031 A 
ATOM     13  C   UNL     1      -2.846  -3.584   0.017  1.00  0.00     0.074 A 
ATOM     14  C   UNL     1      -0.401  -5.439  -1.372  1.00  0.00     0.049 A 
ATOM     15  N   UNL     1      -3.886  -4.333   0.640  1.00  0.00    -0.248 NA
ATOM     16  C   UNL     1      -3.695  -2.106   0.212  1.00  0.00     0.031 C 
ATOM     17  C   UNL     1       1.055  -5.625  -1.090  1.00  0.00     0.029 A 
ATOM     18  N   UNL     1      -0.800  -6.808  -1.327  1.00  0.00    -0.354 N 
ATOM     19  C   UNL     1      -5.133  -3.819   0.338  1.00  0.00     0.074 A 
ATOM     20  C   UNL     1      -4.986  -2.409   0.249  1.00  0.00     0.031 C 
ATOM     21  C   UNL     1       1.317  -6.910  -0.747  1.00  0.00     0.029 A 
ATOM     22  C   UNL     1       0.068  -7.652  -0.670  1.00  0.00     0.049 A 
ATOM     23  H   UNL     1      -1.637  -7.127  -1.735  1.00  0.00     0.167 HD
ATOM     24  C   UNL     1      -6.234  -4.533  -0.021  1.00  0.00     0.037 A 
ATOM     25  C   UNL     1      -0.172  -8.787   0.041  1.00  0.00     0.037 A 
ATOM     26  C   UNL     1      -6.381  -5.967   0.109  1.00  0.00     0.049 A 
ATOM     27  C   UNL     1      -1.594  -9.251   0.418  1.00  0.00     0.074 A 
ATOM     28  C   UNL     1      -7.533  -6.729   0.027  1.00  0.00     0.029 A 
ATOM     29  N   UNL     1      -5.352  -6.851   0.401  1.00  0.00    -0.354 N 
ATOM     30  N   UNL     1      -2.766  -8.700   0.194  1.00  0.00    -0.248 NA
ATOM     31  C   UNL     1      -1.692 -10.476   1.238  1.00  0.00     0.031 C 
ATOM     32  C   UNL     1      -7.202  -8.056   0.345  1.00  0.00     0.029 A 
ATOM     33  C   UNL     1      -5.833  -8.139   0.563  1.00  0.00     0.049 A 
ATOM     34  H   UNL     1      -4.405  -6.596   0.482  1.00  0.00     0.167 HD
ATOM     35  C   UNL     1      -3.719  -9.460   0.875  1.00  0.00     0.074 A 
ATOM     36  C   UNL     1      -2.997 -10.570   1.464  1.00  0.00     0.031 C 
ATOM     37  C   UNL     1      -5.058  -9.267   1.040  1.00  0.00     0.037 A 
BRANCH  24  38
ATOM     38  C   UNL     1      -7.375  -3.760  -0.602  1.00  0.00     0.057 A 
ATOM     39  C   UNL     1      -7.512  -3.550  -1.982  1.00  0.00     0.134 A 
ATOM     40  C   UNL     1      -8.358  -3.235   0.238  1.00  0.00     0.134 A 
ATOM     41  F   UNL     1      -6.609  -4.040  -2.846  1.00  0.00    -0.206 F 
ATOM     42  C   UNL     1      -8.584  -2.817  -2.501  1.00  0.00     0.040 A 
ATOM     43  C   UNL     1      -9.429  -2.499  -0.267  1.00  0.00     0.040 A 
ATOM     44  F   UNL     1      -8.281  -3.422   1.563  1.00  0.00    -0.206 F 
ATOM     45  C   UNL     1      -9.542  -2.284  -1.640  1.00  0.00     0.006 A 
ENDBRANCH  24  38
BRANCH  25  46
ATOM     46  C   UNL     1       0.955  -9.542   0.671  1.00  0.00     0.057 A 
ATOM     47  C   UNL     1       1.394 -10.756   0.127  1.00  0.00     0.134 A 
ATOM     48  C   UNL     1       1.492  -9.168   1.907  1.00  0.00     0.134 A 
ATOM     49  F   UNL     1       0.834 -11.230  -0.996  1.00  0.00    -0.206 F 
ATOM     50  C   UNL     1       2.344 -11.554   0.775  1.00  0.00     0.040 A 
ATOM     51  C   UNL     1       2.462  -9.944   2.554  1.00  0.00     0.040 A 
ATOM     52  F   UNL     1       1.039  -8.073   2.532  1.00  0.00    -0.206 F 
ATOM     53  C   UNL     1       2.893 -11.140   1.986  1.00  0.00     0.006 A 
ENDBRANCH  25  46
BRANCH  37  54
ATOM     54  C   UNL     1      -5.833 -10.360   1.734  1.00  0.00     0.057 A 
ATOM     55  C   UNL     1      -5.854 -10.498   3.127  1.00  0.00     0.134 A 
ATOM     56  C   UNL     1      -6.637 -11.235   0.989  1.00  0.00     0.134 A 
ATOM     57  F   UNL     1      -5.088  -9.714   3.900  1.00  0.00    -0.206 F 
ATOM     58  C   UNL     1      -6.651 -11.462   3.753  1.00  0.00     0.040 A 
ATOM     59  C   UNL     1      -7.460 -12.181   1.603  1.00  0.00     0.040 A 
ATOM     60  F   UNL     1      -6.669 -11.153  -0.350  1.00  0.00    -0.206 F 
ATOM     61  C   UNL     1      -7.468 -12.296   2.990  1.00  0.00     0.006 A 
ENDBRANCH  37  54
ENDBRANCH  11  12
ENDBRANCH   4   6
ENDBRANCH   3   4
ENDBRANCH   2   3
ENDBRANCH   1   2
BRANCH   1  62
ATOM     62  O   UNL     1       4.289  -2.534  -3.219  1.00  0.00    -0.462 OA
BRANCH  62  63
ATOM     63  C   UNL     1       4.484  -1.892  -2.028  1.00  0.00     0.309 C 
ATOM     64  O   UNL     1       5.324  -1.020  -1.861  1.00  0.00    -0.252 OA
BRANCH  63  65
ATOM     65  C   UNL     1       3.555  -2.456  -0.907  1.00  0.00     0.104 C 
BRANCH  65  66
ATOM     66  C   UNL     1       4.409  -3.599  -0.283  1.00  0.00     0.052 C 
BRANCH  66  67
ATOM     67  C   UNL     1       3.950  -4.440   0.893  1.00  0.00    -0.033 A 
ATOM     68  C   UNL     1       3.251  -3.871   1.962  1.00  0.00     0.005 A 
ATOM     69  C   UNL     1       4.298  -5.797   1.038  1.00  0.00     0.021 A 
ATOM     70  C   UNL     1       2.773  -4.617   3.040  1.00  0.00     0.000 A 
ATOM     71  C   UNL     1       3.863  -6.544   2.143  1.00  0.00     0.016 A 
ATOM     72  Br  UNL     1       5.396  -6.728  -0.210  1.00  0.00    -0.051 Br
ATOM     73  C   UNL     1       3.071  -5.963   3.127  1.00  0.00     0.001 A 
ENDBRANCH  66  67
ENDBRANCH  65  66
BRANCH  65  74
ATOM     74  C   UNL     1       3.047  -1.297   0.004  1.00  0.00     0.027 C 
BRANCH  74  75
ATOM     75  C   UNL     1       1.495  -1.097   0.212  1.00  0.00     0.076 C 
BRANCH  75  76
ATOM     76  S   UNL     1       0.490  -2.049   1.472  1.00  0.00    -0.126 SA
BRANCH  76  77
ATOM     77  C   UNL     1      -0.868  -2.863   0.594  1.00  0.00     0.007 A 
ATOM     78  C   UNL     1      -1.667  -2.149  -0.816  1.00  0.00     0.015 A 
ATOM     79  C   UNL     1      -1.226  -4.526   1.033  1.00  0.00     0.015 A 
ATOM     80  C   UNL     1      -2.786  -3.161  -1.924  1.00  0.00     0.001 A 
ATOM     81  C   UNL     1      -2.291  -5.556   0.020  1.00  0.00     0.001 A 
ATOM     82  C   UNL     1      -3.052  -4.909  -1.524  1.00  0.00     0.000 A 
ENDBRANCH  76  77
ENDBRANCH  75  76
ENDBRANCH  74  75
ENDBRANCH  65  74
ENDBRANCH  63  65
ENDBRANCH  62  63
ENDBRANCH   1  62
TORSDOF 17
