REMARK SMILES COc1cc2c(cc1OC)-c1c(c(C(=O)Nc3ccc(C(=O)OCCOC(=O)c4ccc(-c5c6nc(c(-c7c(F)cccc7F)c7ccc([nH]7)c(-c7c(F)cccc7F)c7nc(c(-c8c(F)cccc8F)c8ccc5[nH]8)C=C7)C=C6)cc4)cc3)nn1-c1ccc(F)cc1)C2
REMARK SMILES IDX 24 1 23 2 21 3 22 4 20 5 17 6 18 7 84 8 19 9 83 10 16 11
REMARK SMILES IDX 14 12 15 13 13 15 3 16 4 17 8 18 5 19 7 20 6 21 94 22 11 23
REMARK SMILES IDX 12 24 86 25 85 26 2 27 1 28 9 29 10 30 87 31 88 32 93 33
REMARK SMILES IDX 89 34 92 35 90 36 91 37 25 38 26 39 27 40 28 41 29 42 30 43
REMARK SMILES IDX 82 44 31 45 81 46 32 47 33 48 34 49 75 50 35 51 80 52 74 53
REMARK SMILES IDX 76 54 36 55 79 56 73 57 72 58 37 60 63 61 46 62 62 63 47 64
REMARK SMILES IDX 50 65 61 66 77 67 48 68 49 69 60 71 78 72 51 73 38 74 39 75
REMARK SMILES IDX 44 76 40 77 41 78 43 79 45 80 42 81 64 82 65 83 70 84 66 85
REMARK SMILES IDX 67 86 69 87 71 88 68 89 52 90 53 91 58 92 54 93 55 94 57 95
REMARK SMILES IDX 59 96 56 97
REMARK H PARENT 16 14 76 59 50 70
REMARK Flexibility Score: inf
ROOT
ATOM      1  C   UNL     1      -5.245  -0.546  -3.822  1.00  0.00     0.275 C 
ENDROOT
BRANCH   1   2
ATOM      2  O   UNL     1      -4.607   0.177  -4.909  1.00  0.00    -0.458 OA
BRANCH   2   3
ATOM      3  C   UNL     1      -4.785   1.525  -4.935  1.00  0.00     0.338 C 
ATOM      4  O   UNL     1      -5.455   2.175  -4.149  1.00  0.00    -0.246 OA
BRANCH   3   5
ATOM      5  C   UNL     1      -3.914   2.163  -5.966  1.00  0.00     0.060 A 
ATOM      6  C   UNL     1      -1.957   3.365  -7.606  1.00  0.00     0.041 A 
ATOM      7  C   UNL     1      -2.318   3.968  -6.416  1.00  0.00     0.027 A 
ATOM      8  C   UNL     1      -2.691   2.255  -8.052  1.00  0.00     0.027 A 
ATOM      9  C   UNL     1      -3.313   3.377  -5.633  1.00  0.00     0.018 A 
ATOM     10  C   UNL     1      -3.636   1.625  -7.216  1.00  0.00     0.018 A 
BRANCH   6  11
ATOM     11  N   UNL     1      -0.941   3.886  -8.416  1.00  0.00    -0.321 N 
ATOM     12  C   UNL     1       0.209   4.578  -8.071  1.00  0.00     0.276 C 
ATOM     13  O   UNL     1       0.528   5.521  -8.801  1.00  0.00    -0.267 OA
ATOM     14  H   UNL     1      -1.062   3.738  -9.382  1.00  0.00     0.170 HD
BRANCH  12  15
ATOM     15  C   UNL     1       1.118   4.083  -6.991  1.00  0.00     0.155 A 
ATOM     16  C   UNL     1       1.715  -0.004  -2.686  1.00  0.00     0.161 A 
ATOM     17  C   UNL     1       1.023   0.040  -3.913  1.00  0.00     0.055 A 
ATOM     18  C   UNL     1       2.848   0.801  -2.469  1.00  0.00     0.161 A 
ATOM     19  C   UNL     1       1.297   1.068  -4.805  1.00  0.00    -0.030 A 
ATOM     20  C   UNL     1       3.120   1.845  -3.343  1.00  0.00     0.061 A 
ATOM     21  C   UNL     1       2.327   1.964  -4.471  1.00  0.00     0.008 A 
ATOM     22  C   UNL     1       0.534   1.494  -6.101  1.00  0.00     0.076 C 
ATOM     23  C   UNL     1       2.226   2.999  -5.431  1.00  0.00     0.079 A 
ATOM     24  C   UNL     1       1.165   2.849  -6.276  1.00  0.00     0.016 A 
ATOM     25  N   UNL     1       2.976   4.030  -5.864  1.00  0.00    -0.232 N 
ATOM     26  N   UNL     1       2.207   4.849  -6.630  1.00  0.00    -0.162 NA
BRANCH  16  27
ATOM     27  O   UNL     1       1.214  -0.833  -1.708  1.00  0.00    -0.493 OA
ATOM     28  C   UNL     1       0.838  -0.098  -0.529  1.00  0.00     0.278 C 
ENDBRANCH  16  27
BRANCH  18  29
ATOM     29  O   UNL     1       3.713   0.673  -1.412  1.00  0.00    -0.493 OA
ATOM     30  C   UNL     1       4.045  -0.685  -1.109  1.00  0.00     0.278 C 
ENDBRANCH  18  29
BRANCH  25  31
ATOM     31  C   UNL     1       4.373   4.145  -5.663  1.00  0.00     0.065 A 
ATOM     32  C   UNL     1       4.969   5.369  -5.370  1.00  0.00     0.031 A 
ATOM     33  C   UNL     1       5.141   2.958  -5.651  1.00  0.00     0.031 A 
ATOM     34  C   UNL     1       6.309   5.376  -4.956  1.00  0.00     0.041 A 
ATOM     35  C   UNL     1       6.473   2.978  -5.256  1.00  0.00     0.041 A 
ATOM     36  C   UNL     1       7.039   4.187  -4.889  1.00  0.00     0.123 A 
ATOM     37  F   UNL     1       8.305   4.206  -4.452  1.00  0.00    -0.207 F 
ENDBRANCH  25  31
ENDBRANCH  12  15
ENDBRANCH   6  11
ENDBRANCH   3   5
ENDBRANCH   2   3
ENDBRANCH   1   2
BRANCH   1  38
ATOM     38  C   UNL     1      -4.232  -1.297  -2.943  1.00  0.00     0.275 C 
BRANCH  38  39
ATOM     39  O   UNL     1      -3.522  -0.358  -2.119  1.00  0.00    -0.458 OA
BRANCH  39  40
ATOM     40  C   UNL     1      -2.448   0.154  -2.752  1.00  0.00     0.338 C 
ATOM     41  O   UNL     1      -1.930  -0.324  -3.752  1.00  0.00    -0.246 OA
BRANCH  40  42
ATOM     42  C   UNL     1      -2.190   1.537  -2.303  1.00  0.00     0.060 A 
ATOM     43  C   UNL     1      -2.804   2.161  -1.218  1.00  0.00     0.016 A 
ATOM     44  C   UNL     1      -1.458   2.298  -3.201  1.00  0.00     0.016 A 
ATOM     45  C   UNL     1      -2.867   3.558  -1.192  1.00  0.00     0.010 A 
ATOM     46  C   UNL     1      -1.468   3.667  -3.149  1.00  0.00     0.010 A 
ATOM     47  C   UNL     1      -2.293   4.296  -2.231  1.00  0.00    -0.014 A 
BRANCH  47  48
ATOM     48  C   UNL     1      -2.498   5.722  -2.425  1.00  0.00     0.031 A 
ATOM     49  C   UNL     1      -1.319   6.557  -2.121  1.00  0.00     0.074 A 
ATOM     50  C   UNL     1      -3.550   6.315  -3.028  1.00  0.00     0.049 A 
ATOM     51  N   UNL     1      -1.093   7.105  -0.977  1.00  0.00    -0.248 NA
ATOM     52  C   UNL     1      -0.229   6.713  -3.091  1.00  0.00     0.031 C 
ATOM     53  C   UNL     1      -4.731   5.750  -3.682  1.00  0.00     0.029 A 
ATOM     54  N   UNL     1      -3.716   7.654  -3.228  1.00  0.00    -0.354 N 
ATOM     55  C   UNL     1       0.056   7.857  -1.138  1.00  0.00     0.074 A 
ATOM     56  C   UNL     1       0.660   7.391  -2.360  1.00  0.00     0.031 C 
ATOM     57  C   UNL     1      -5.363   6.713  -4.398  1.00  0.00     0.029 A 
ATOM     58  C   UNL     1      -4.769   7.995  -4.059  1.00  0.00     0.049 A 
ATOM     59  H   UNL     1      -3.130   8.328  -2.813  1.00  0.00     0.167 HD
ATOM     60  C   UNL     1       0.267   8.968  -0.380  1.00  0.00     0.037 A 
ATOM     61  C   UNL     1      -5.168   9.248  -4.383  1.00  0.00     0.037 A 
ATOM     62  C   UNL     1      -0.728   9.078   0.669  1.00  0.00     0.049 A 
ATOM     63  C   UNL     1      -4.744  10.132  -3.266  1.00  0.00     0.074 A 
ATOM     64  C   UNL     1      -1.174   8.244   1.681  1.00  0.00     0.029 A 
ATOM     65  N   UNL     1      -1.725  10.015   0.514  1.00  0.00    -0.354 N 
ATOM     66  N   UNL     1      -5.255  10.070  -2.066  1.00  0.00    -0.248 NA
ATOM     67  C   UNL     1      -3.444  10.782  -3.352  1.00  0.00     0.031 C 
ATOM     68  C   UNL     1      -2.594   8.408   1.695  1.00  0.00     0.029 A 
ATOM     69  C   UNL     1      -2.918   9.375   0.744  1.00  0.00     0.049 A 
ATOM     70  H   UNL     1      -1.605  10.964   0.281  1.00  0.00     0.167 HD
ATOM     71  C   UNL     1      -4.173  10.240  -1.214  1.00  0.00     0.074 A 
ATOM     72  C   UNL     1      -3.113  10.790  -2.058  1.00  0.00     0.031 C 
ATOM     73  C   UNL     1      -4.141   9.661   0.024  1.00  0.00     0.037 A 
BRANCH  60  74
ATOM     74  C   UNL     1       1.125  10.140  -0.776  1.00  0.00     0.057 A 
ATOM     75  C   UNL     1       1.472  10.483  -2.097  1.00  0.00     0.134 A 
ATOM     76  C   UNL     1       1.406  11.123   0.190  1.00  0.00     0.134 A 
ATOM     77  F   UNL     1       1.195   9.697  -3.144  1.00  0.00    -0.206 F 
ATOM     78  C   UNL     1       2.035  11.716  -2.435  1.00  0.00     0.040 A 
ATOM     79  C   UNL     1       1.913  12.382  -0.145  1.00  0.00     0.040 A 
ATOM     80  F   UNL     1       1.121  10.917   1.485  1.00  0.00    -0.206 F 
ATOM     81  C   UNL     1       2.223  12.685  -1.463  1.00  0.00     0.006 A 
ENDBRANCH  60  74
BRANCH  61  82
ATOM     82  C   UNL     1      -5.750   9.757  -5.641  1.00  0.00     0.057 A 
ATOM     83  C   UNL     1      -5.452   9.152  -6.874  1.00  0.00     0.134 A 
ATOM     84  C   UNL     1      -6.381  11.008  -5.706  1.00  0.00     0.134 A 
ATOM     85  F   UNL     1      -4.794   7.984  -6.928  1.00  0.00    -0.206 F 
ATOM     86  C   UNL     1      -5.737   9.766  -8.099  1.00  0.00     0.040 A 
ATOM     87  C   UNL     1      -6.670  11.635  -6.925  1.00  0.00     0.040 A 
ATOM     88  F   UNL     1      -6.673  11.684  -4.585  1.00  0.00    -0.206 F 
ATOM     89  C   UNL     1      -6.335  11.020  -8.127  1.00  0.00     0.006 A 
ENDBRANCH  61  82
BRANCH  73  90
ATOM     90  C   UNL     1      -5.409   9.045   0.560  1.00  0.00     0.057 A 
ATOM     91  C   UNL     1      -5.879   9.442   1.817  1.00  0.00     0.134 A 
ATOM     92  C   UNL     1      -6.090   7.982  -0.053  1.00  0.00     0.134 A 
ATOM     93  F   UNL     1      -5.252  10.414   2.498  1.00  0.00    -0.206 F 
ATOM     94  C   UNL     1      -6.975   8.824   2.428  1.00  0.00     0.040 A 
ATOM     95  C   UNL     1      -7.208   7.376   0.531  1.00  0.00     0.040 A 
ATOM     96  F   UNL     1      -5.665   7.456  -1.205  1.00  0.00    -0.206 F 
ATOM     97  C   UNL     1      -7.651   7.794   1.780  1.00  0.00     0.006 A 
ENDBRANCH  73  90
ENDBRANCH  47  48
ENDBRANCH  40  42
ENDBRANCH  39  40
ENDBRANCH  38  39
ENDBRANCH   1  38
TORSDOF 16
