REMARK SMILES Nc1ccc(SCCn2cc(C(=O)OCCOC(=O)c3ccc(-c4c5nc(c(-c6c(F)cccc6F)c6ccc([nH]6)c(-c6c(F)cccc6F)c6nc(c(-c7c(F)cccc7F)c7ccc4[nH]7)C=C6)C=C5)cc3)nn2)cc1Cl
REMARK SMILES IDX 14 1 12 2 13 3 11 4 9 5 10 6 75 7 74 8 8 9 7 10 6 11 5 12
REMARK SMILES IDX 2 13 3 14 77 15 4 16 76 17 78 18 1 19 15 22 16 23 17 24
REMARK SMILES IDX 18 25 19 26 20 27 21 28 73 29 22 30 72 31 23 32 24 33 25 34
REMARK SMILES IDX 66 35 26 36 71 37 65 38 67 39 27 40 70 41 64 42 63 43 28 45
REMARK SMILES IDX 54 46 37 47 53 48 38 49 41 50 52 51 68 52 39 53 40 54 51 56
REMARK SMILES IDX 69 57 42 58 29 59 30 60 35 61 31 62 32 63 34 64 36 65 33 66
REMARK SMILES IDX 55 67 56 68 61 69 57 70 58 71 60 72 62 73 59 74 43 75 44 76
REMARK SMILES IDX 49 77 45 78 46 79 48 80 50 81 47 82
REMARK H PARENT 1 20 1 21 67 44 41 55
REMARK Flexibility Score: inf
ROOT
ATOM      1  O   UNL     1       5.002  -3.746   1.029  1.00  0.00    -0.457 OA
ENDROOT
BRANCH   1   2
ATOM      2  C   UNL     1       3.846  -3.045   0.818  1.00  0.00     0.360 C 
ATOM      3  O   UNL     1       2.824  -3.536   0.340  1.00  0.00    -0.244 OA
BRANCH   2   4
ATOM      4  C   UNL     1       3.921  -1.676   1.287  1.00  0.00     0.190 A 
ATOM      5  N   UNL     1       4.400   0.397   1.609  1.00  0.00    -0.251 N 
ATOM      6  C   UNL     1       4.950  -0.766   1.154  1.00  0.00     0.147 A 
ATOM      7  N   UNL     1       3.210   0.189   2.189  1.00  0.00    -0.067 NA
ATOM      8  N   UNL     1       2.872  -1.067   1.940  1.00  0.00    -0.123 NA
BRANCH   5   9
ATOM      9  C   UNL     1       4.877   1.743   1.399  1.00  0.00     0.157 C 
BRANCH   9  10
ATOM     10  C   UNL     1       4.541   2.294   0.009  1.00  0.00     0.098 C 
BRANCH  10  11
ATOM     11  S   UNL     1       2.834   2.939  -0.238  1.00  0.00    -0.124 SA
BRANCH  11  12
ATOM     12  C   UNL     1       1.809   1.488  -0.446  1.00  0.00     0.009 A 
ATOM     13  C   UNL     1       0.133  -0.797  -0.489  1.00  0.00     0.050 A 
ATOM     14  C   UNL     1       1.420  -0.839  -1.026  1.00  0.00     0.028 A 
ATOM     15  C   UNL     1      -0.359   0.448  -0.074  1.00  0.00     0.065 A 
ATOM     16  C   UNL     1       2.250   0.290  -1.009  1.00  0.00     0.017 A 
ATOM     17  C   UNL     1       0.473   1.573  -0.034  1.00  0.00     0.037 A 
ATOM     18  Cl  UNL     1      -2.003   0.617   0.444  1.00  0.00    -0.082 Cl
BRANCH  13  19
ATOM     19  N   UNL     1      -0.654  -1.951  -0.514  1.00  0.00    -0.398 N 
ATOM     20  H   UNL     1      -0.267  -2.805  -0.813  1.00  0.00     0.156 HD
ATOM     21  H   UNL     1      -1.597  -1.910  -0.232  1.00  0.00     0.156 HD
ENDBRANCH  13  19
ENDBRANCH  11  12
ENDBRANCH  10  11
ENDBRANCH   9  10
ENDBRANCH   5   9
ENDBRANCH   2   4
ENDBRANCH   1   2
BRANCH   1  22
ATOM     22  C   UNL     1       4.854  -5.175   0.972  1.00  0.00     0.275 C 
BRANCH  22  23
ATOM     23  C   UNL     1       4.348  -5.742   2.295  1.00  0.00     0.275 C 
BRANCH  23  24
ATOM     24  O   UNL     1       2.996  -5.361   2.556  1.00  0.00    -0.458 OA
BRANCH  24  25
ATOM     25  C   UNL     1       2.863  -4.291   3.376  1.00  0.00     0.338 C 
ATOM     26  O   UNL     1       3.729  -3.487   3.673  1.00  0.00    -0.246 OA
BRANCH  25  27
ATOM     27  C   UNL     1       1.579  -4.373   4.072  1.00  0.00     0.060 A 
ATOM     28  C   UNL     1       1.110  -3.235   4.737  1.00  0.00     0.016 A 
ATOM     29  C   UNL     1       1.055  -5.648   4.320  1.00  0.00     0.016 A 
ATOM     30  C   UNL     1       0.217  -3.404   5.777  1.00  0.00     0.010 A 
ATOM     31  C   UNL     1       0.195  -5.818   5.374  1.00  0.00     0.010 A 
ATOM     32  C   UNL     1      -0.164  -4.704   6.131  1.00  0.00    -0.014 A 
BRANCH  32  33
ATOM     33  C   UNL     1      -1.087  -4.894   7.234  1.00  0.00     0.031 A 
ATOM     34  C   UNL     1      -2.477  -4.532   6.864  1.00  0.00     0.074 A 
ATOM     35  C   UNL     1      -0.714  -5.516   8.371  1.00  0.00     0.049 A 
ATOM     36  N   UNL     1      -3.225  -3.618   7.383  1.00  0.00    -0.248 NA
ATOM     37  C   UNL     1      -3.048  -5.150   5.651  1.00  0.00     0.031 C 
ATOM     38  C   UNL     1       0.577  -6.163   8.642  1.00  0.00     0.029 A 
ATOM     39  N   UNL     1      -1.440  -5.821   9.483  1.00  0.00    -0.354 N 
ATOM     40  C   UNL     1      -4.440  -3.709   6.708  1.00  0.00     0.074 A 
ATOM     41  C   UNL     1      -4.202  -4.496   5.532  1.00  0.00     0.031 C 
ATOM     42  C   UNL     1       0.456  -6.972   9.719  1.00  0.00     0.029 A 
ATOM     43  C   UNL     1      -0.872  -6.810  10.283  1.00  0.00     0.049 A 
ATOM     44  H   UNL     1      -2.292  -5.380   9.703  1.00  0.00     0.167 HD
ATOM     45  C   UNL     1      -5.602  -3.416   7.348  1.00  0.00     0.037 A 
ATOM     46  C   UNL     1      -1.486  -7.492  11.283  1.00  0.00     0.037 A 
ATOM     47  C   UNL     1      -5.347  -2.612   8.517  1.00  0.00     0.049 A 
ATOM     48  C   UNL     1      -2.700  -6.731  11.657  1.00  0.00     0.074 A 
ATOM     49  C   UNL     1      -4.830  -1.359   8.766  1.00  0.00     0.029 A 
ATOM     50  N   UNL     1      -5.294  -3.304   9.698  1.00  0.00    -0.354 N 
ATOM     51  N   UNL     1      -2.686  -5.577  12.258  1.00  0.00    -0.248 NA
ATOM     52  C   UNL     1      -3.956  -7.081  11.010  1.00  0.00     0.031 C 
ATOM     53  C   UNL     1      -4.160  -1.466  10.021  1.00  0.00     0.029 A 
ATOM     54  C   UNL     1      -4.344  -2.759  10.515  1.00  0.00     0.049 A 
ATOM     55  H   UNL     1      -5.857  -4.079   9.925  1.00  0.00     0.167 HD
ATOM     56  C   UNL     1      -3.735  -4.875  11.687  1.00  0.00     0.074 A 
ATOM     57  C   UNL     1      -4.565  -5.894  11.052  1.00  0.00     0.031 C 
ATOM     58  C   UNL     1      -3.654  -3.521  11.532  1.00  0.00     0.037 A 
BRANCH  45  59
ATOM     59  C   UNL     1      -6.855  -4.266   7.227  1.00  0.00     0.057 A 
ATOM     60  C   UNL     1      -8.009  -3.861   7.922  1.00  0.00     0.134 A 
ATOM     61  C   UNL     1      -6.889  -5.595   6.749  1.00  0.00     0.134 A 
ATOM     62  F   UNL     1      -8.101  -2.627   8.443  1.00  0.00    -0.206 F 
ATOM     63  C   UNL     1      -9.070  -4.734   8.196  1.00  0.00     0.040 A 
ATOM     64  C   UNL     1      -7.965  -6.458   6.974  1.00  0.00     0.040 A 
ATOM     65  F   UNL     1      -5.856  -6.175   6.131  1.00  0.00    -0.206 F 
ATOM     66  C   UNL     1      -9.046  -6.041   7.729  1.00  0.00     0.006 A 
ENDBRANCH  45  59
BRANCH  46  67
ATOM     67  C   UNL     1      -1.291  -8.893  11.730  1.00  0.00     0.057 A 
ATOM     68  C   UNL     1      -1.809  -9.340  12.957  1.00  0.00     0.134 A 
ATOM     69  C   UNL     1      -0.860  -9.896  10.846  1.00  0.00     0.134 A 
ATOM     70  F   UNL     1      -2.283  -8.464  13.856  1.00  0.00    -0.206 F 
ATOM     71  C   UNL     1      -1.926 -10.701  13.270  1.00  0.00     0.040 A 
ATOM     72  C   UNL     1      -0.964 -11.259  11.148  1.00  0.00     0.040 A 
ATOM     73  F   UNL     1      -0.413  -9.593   9.619  1.00  0.00    -0.206 F 
ATOM     74  C   UNL     1      -1.515 -11.667  12.357  1.00  0.00     0.006 A 
ENDBRANCH  46  67
BRANCH  58  75
ATOM     75  C   UNL     1      -2.635  -2.792  12.363  1.00  0.00     0.057 A 
ATOM     76  C   UNL     1      -1.247  -2.973  12.280  1.00  0.00     0.134 A 
ATOM     77  C   UNL     1      -3.093  -1.789  13.226  1.00  0.00     0.134 A 
ATOM     78  F   UNL     1      -0.708  -3.845  11.416  1.00  0.00    -0.206 F 
ATOM     79  C   UNL     1      -0.361  -2.225  13.063  1.00  0.00     0.040 A 
ATOM     80  C   UNL     1      -2.218  -1.009  13.982  1.00  0.00     0.040 A 
ATOM     81  F   UNL     1      -4.406  -1.527  13.322  1.00  0.00    -0.206 F 
ATOM     82  C   UNL     1      -0.847  -1.236  13.914  1.00  0.00     0.006 A 
ENDBRANCH  58  75
ENDBRANCH  32  33
ENDBRANCH  25  27
ENDBRANCH  24  25
ENDBRANCH  23  24
ENDBRANCH  22  23
ENDBRANCH   1  22
TORSDOF 16
