REMARK SMILES CCCCCCNC(=O)Oc1cccc(-c2ccc([C@@H](C)C(=O)OCCOC(=O)c3ccc(-c4c5nc(c(-c6c(F)cccc6F)c6ccc([nH]6)c(-c6c(F)cccc6F)c6nc(c(-c7c(F)cccc7F)c7ccc4[nH]7)C=C6)C=C5)cc3)cc2N)c1
REMARK SMILES IDX 20 1 21 2 19 3 16 4 17 5 85 6 18 7 84 8 15 9 11 10 12 11
REMARK SMILES IDX 87 12 13 13 14 14 10 15 8 16 7 17 9 19 6 20 5 21 4 22 3 23
REMARK SMILES IDX 2 24 1 25 86 26 22 29 23 30 24 31 25 32 26 33 27 34 28 35
REMARK SMILES IDX 29 36 30 37 31 38 83 39 32 40 82 41 33 42 34 43 35 44 76 45
REMARK SMILES IDX 36 46 81 47 75 48 77 49 37 50 80 51 74 52 73 53 38 55 64 56
REMARK SMILES IDX 47 57 63 58 48 59 51 60 62 61 78 62 49 63 50 64 61 66 79 67
REMARK SMILES IDX 52 68 39 69 40 70 45 71 41 72 42 73 44 74 46 75 43 76 65 77
REMARK SMILES IDX 66 78 71 79 67 80 68 81 70 82 72 83 69 84 53 85 54 86 59 87
REMARK SMILES IDX 55 88 56 89 58 90 60 91 57 92
REMARK H PARENT 7 18 86 27 86 28 77 54 51 65
REMARK Flexibility Score: inf
ROOT
ATOM      1  C   UNL     1      -5.053  -4.855  12.827  1.00  0.00     0.126 C 
ATOM      2  C   UNL     1      -6.375  -5.317  13.435  1.00  0.00     0.025 C 
ENDROOT
BRANCH   1   3
ATOM      3  C   UNL     1      -5.032  -4.986  11.312  1.00  0.00    -0.032 A 
ATOM      4  C   UNL     1      -5.072  -5.138   8.469  1.00  0.00     0.005 A 
ATOM      5  C   UNL     1      -5.243  -6.282   9.274  1.00  0.00     0.011 A 
ATOM      6  C   UNL     1      -4.841  -3.900   9.110  1.00  0.00     0.040 A 
ATOM      7  C   UNL     1      -5.230  -6.209  10.668  1.00  0.00     0.005 A 
ATOM      8  C   UNL     1      -4.842  -3.844  10.514  1.00  0.00     0.030 A 
BRANCH   4   9
ATOM      9  C   UNL     1      -5.165  -5.282   7.001  1.00  0.00    -0.013 A 
ATOM     10  C   UNL     1      -4.268  -4.982   4.766  1.00  0.00     0.133 A 
ATOM     11  C   UNL     1      -5.430  -5.503   4.199  1.00  0.00     0.047 A 
ATOM     12  C   UNL     1      -4.123  -4.877   6.150  1.00  0.00     0.056 A 
ATOM     13  C   UNL     1      -6.458  -5.936   5.029  1.00  0.00     0.004 A 
ATOM     14  C   UNL     1      -6.328  -5.819   6.415  1.00  0.00     0.009 A 
BRANCH  10  15
ATOM     15  O   UNL     1      -3.331  -4.432   3.874  1.00  0.00    -0.410 OA
BRANCH  15  16
ATOM     16  C   UNL     1      -1.988  -4.753   4.004  1.00  0.00     0.412 C 
ATOM     17  N   UNL     1      -1.192  -4.079   3.118  1.00  0.00    -0.321 N 
ATOM     18  H   UNL     1      -0.227  -4.268   3.162  1.00  0.00     0.167 HD
ATOM     19  O   UNL     1      -1.511  -5.553   4.798  1.00  0.00    -0.224 OA
BRANCH  17  20
ATOM     20  C   UNL     1      -1.618  -3.117   2.120  1.00  0.00     0.119 C 
BRANCH  20  21
ATOM     21  C   UNL     1      -1.026  -1.730   2.367  1.00  0.00     0.021 C 
BRANCH  21  22
ATOM     22  C   UNL     1       0.503  -1.653   2.271  1.00  0.00     0.002 C 
BRANCH  22  23
ATOM     23  C   UNL     1       1.107  -2.100   0.935  1.00  0.00    -0.000 C 
BRANCH  23  24
ATOM     24  C   UNL     1       0.623  -1.333  -0.297  1.00  0.00    -0.003 C 
ATOM     25  C   UNL     1       0.987   0.143  -0.270  1.00  0.00     0.004 C 
ENDBRANCH  23  24
ENDBRANCH  22  23
ENDBRANCH  21  22
ENDBRANCH  20  21
ENDBRANCH  17  20
ENDBRANCH  15  16
ENDBRANCH  10  15
ENDBRANCH   4   9
BRANCH   6  26
ATOM     26  N   UNL     1      -4.773  -2.693   8.410  1.00  0.00    -0.398 N 
ATOM     27  H   UNL     1      -4.770  -2.695   7.426  1.00  0.00     0.156 HD
ATOM     28  H   UNL     1      -4.729  -1.841   8.902  1.00  0.00     0.156 HD
ENDBRANCH   6  26
ENDBRANCH   1   3
BRANCH   1  29
ATOM     29  C   UNL     1      -3.886  -5.492  13.571  1.00  0.00     0.313 C 
ATOM     30  O   UNL     1      -3.462  -5.035  14.629  1.00  0.00    -0.252 OA
BRANCH  29  31
ATOM     31  O   UNL     1      -3.408  -6.618  12.980  1.00  0.00    -0.462 OA
BRANCH  31  32
ATOM     32  C   UNL     1      -2.271  -7.248  13.600  1.00  0.00     0.274 C 
BRANCH  32  33
ATOM     33  C   UNL     1      -0.969  -6.869  12.890  1.00  0.00     0.275 C 
BRANCH  33  34
ATOM     34  O   UNL     1      -0.633  -5.489  13.120  1.00  0.00    -0.458 OA
BRANCH  34  35
ATOM     35  C   UNL     1      -1.002  -4.640  12.133  1.00  0.00     0.338 C 
ATOM     36  O   UNL     1      -1.526  -4.917  11.070  1.00  0.00    -0.246 OA
BRANCH  35  37
ATOM     37  C   UNL     1      -0.778  -3.255  12.566  1.00  0.00     0.060 A 
ATOM     38  C   UNL     1      -1.895  -2.446  12.787  1.00  0.00     0.016 A 
ATOM     39  C   UNL     1       0.511  -2.728  12.651  1.00  0.00     0.016 A 
ATOM     40  C   UNL     1      -1.732  -1.094  13.073  1.00  0.00     0.010 A 
ATOM     41  C   UNL     1       0.674  -1.371  12.947  1.00  0.00     0.010 A 
ATOM     42  C   UNL     1      -0.447  -0.544  13.140  1.00  0.00    -0.014 A 
BRANCH  42  43
ATOM     43  C   UNL     1      -0.285   0.915  13.339  1.00  0.00     0.031 A 
ATOM     44  C   UNL     1       0.103   1.786  12.179  1.00  0.00     0.074 A 
ATOM     45  C   UNL     1      -0.512   1.459  14.548  1.00  0.00     0.049 A 
ATOM     46  N   UNL     1       0.364   3.067  12.157  1.00  0.00    -0.248 NA
ATOM     47  C   UNL     1       0.211   1.125  10.869  1.00  0.00     0.031 C 
ATOM     48  C   UNL     1      -0.939   0.723  15.739  1.00  0.00     0.029 A 
ATOM     49  N   UNL     1      -0.415   2.759  14.973  1.00  0.00    -0.354 N 
ATOM     50  C   UNL     1       0.687   3.364  10.839  1.00  0.00     0.074 A 
ATOM     51  C   UNL     1       0.602   2.126  10.094  1.00  0.00     0.031 C 
ATOM     52  C   UNL     1      -1.066   1.584  16.761  1.00  0.00     0.029 A 
ATOM     53  C   UNL     1      -0.691   2.921  16.308  1.00  0.00     0.049 A 
ATOM     54  H   UNL     1      -0.170   3.504  14.378  1.00  0.00     0.167 HD
ATOM     55  C   UNL     1       1.022   4.561  10.302  1.00  0.00     0.037 A 
ATOM     56  C   UNL     1      -0.623   4.020  17.082  1.00  0.00     0.037 A 
ATOM     57  C   UNL     1       1.090   5.793  11.042  1.00  0.00     0.049 A 
ATOM     58  C   UNL     1      -0.200   5.327  16.472  1.00  0.00     0.074 A 
ATOM     59  C   UNL     1       1.411   7.059  10.585  1.00  0.00     0.029 A 
ATOM     60  N   UNL     1       0.829   5.912  12.399  1.00  0.00    -0.354 N 
ATOM     61  N   UNL     1       0.113   5.595  15.227  1.00  0.00    -0.248 NA
ATOM     62  C   UNL     1      -0.113   6.483  17.375  1.00  0.00     0.031 C 
ATOM     63  C   UNL     1       1.376   7.939  11.672  1.00  0.00     0.029 A 
ATOM     64  C   UNL     1       0.998   7.227  12.799  1.00  0.00     0.049 A 
ATOM     65  H   UNL     1       0.564   5.171  12.991  1.00  0.00     0.167 HD
ATOM     66  C   UNL     1       0.415   6.949  15.193  1.00  0.00     0.074 A 
ATOM     67  C   UNL     1       0.236   7.452  16.540  1.00  0.00     0.031 C 
ATOM     68  C   UNL     1       0.809   7.709  14.142  1.00  0.00     0.037 A 
BRANCH  55  69
ATOM     69  C   UNL     1       1.366   4.588   8.844  1.00  0.00     0.057 A 
ATOM     70  C   UNL     1       0.386   4.488   7.850  1.00  0.00     0.134 A 
ATOM     71  C   UNL     1       2.695   4.745   8.430  1.00  0.00     0.134 A 
ATOM     72  F   UNL     1      -0.904   4.320   8.181  1.00  0.00    -0.206 F 
ATOM     73  C   UNL     1       0.716   4.526   6.494  1.00  0.00     0.040 A 
ATOM     74  C   UNL     1       3.036   4.804   7.078  1.00  0.00     0.040 A 
ATOM     75  F   UNL     1       3.682   4.849   9.333  1.00  0.00    -0.206 F 
ATOM     76  C   UNL     1       2.045   4.690   6.105  1.00  0.00     0.006 A 
ENDBRANCH  55  69
BRANCH  56  77
ATOM     77  C   UNL     1      -0.943   3.929  18.528  1.00  0.00     0.057 A 
ATOM     78  C   UNL     1      -2.104   4.508  19.050  1.00  0.00     0.134 A 
ATOM     79  C   UNL     1      -0.091   3.268  19.420  1.00  0.00     0.134 A 
ATOM     80  F   UNL     1      -2.946   5.175  18.248  1.00  0.00    -0.206 F 
ATOM     81  C   UNL     1      -2.401   4.444  20.413  1.00  0.00     0.040 A 
ATOM     82  C   UNL     1      -0.387   3.177  20.781  1.00  0.00     0.040 A 
ATOM     83  F   UNL     1       1.038   2.693  18.980  1.00  0.00    -0.206 F 
ATOM     84  C   UNL     1      -1.543   3.772  21.281  1.00  0.00     0.006 A 
ENDBRANCH  56  77
BRANCH  68  85
ATOM     85  C   UNL     1       1.044   9.166  14.403  1.00  0.00     0.057 A 
ATOM     86  C   UNL     1       2.189   9.619  15.070  1.00  0.00     0.134 A 
ATOM     87  C   UNL     1       0.131  10.128  13.952  1.00  0.00     0.134 A 
ATOM     88  F   UNL     1       3.093   8.745  15.538  1.00  0.00    -0.206 F 
ATOM     89  C   UNL     1       2.410  10.978  15.294  1.00  0.00     0.040 A 
ATOM     90  C   UNL     1       0.352  11.491  14.152  1.00  0.00     0.040 A 
ATOM     91  F   UNL     1      -0.982   9.758  13.301  1.00  0.00    -0.206 F 
ATOM     92  C   UNL     1       1.492  11.919  14.829  1.00  0.00     0.006 A 
ENDBRANCH  68  85
ENDBRANCH  42  43
ENDBRANCH  35  37
ENDBRANCH  34  35
ENDBRANCH  33  34
ENDBRANCH  32  33
ENDBRANCH  31  32
ENDBRANCH  29  31
ENDBRANCH   1  29
TORSDOF 21
