REMARK SMILES O=C(CCc1cc(Cl)cs1)OCCOC(=O)c1ccc(-c2c3nc(c(-c4c(F)cccc4F)c4ccc([nH]4)c(-c4c(F)cccc4F)c4nc(c(-c5c(F)cccc5F)c5ccc2[nH]5)C=C4)C=C3)cc1
REMARK SMILES IDX 12 1 11 2 2 3 1 4 3 5 4 6 5 7 6 8 10 9 7 10 9 11 8 12 13 13
REMARK SMILES IDX 14 14 15 15 16 16 17 17 18 18 70 19 19 20 69 21 20 22 21 23
REMARK SMILES IDX 22 24 63 25 23 26 68 27 62 28 64 29 24 30 67 31 61 32 60 33
REMARK SMILES IDX 25 35 51 36 34 37 50 38 35 39 38 40 49 41 65 42 36 43 37 44
REMARK SMILES IDX 48 46 66 47 39 48 26 49 27 50 32 51 28 52 29 53 31 54 33 55
REMARK SMILES IDX 30 56 52 57 53 58 58 59 54 60 55 61 57 62 59 63 56 64 40 65
REMARK SMILES IDX 41 66 46 67 42 68 43 69 45 70 47 71 44 72
REMARK H PARENT 64 34 38 45
REMARK Flexibility Score: inf
ROOT
ATOM      1  C   UNL     1       3.814  -0.613   1.258  1.00  0.00     0.274 C 
ENDROOT
BRANCH   1   2
ATOM      2  O   UNL     1       2.566   0.006   0.888  1.00  0.00    -0.462 OA
BRANCH   2   3
ATOM      3  C   UNL     1       2.498   1.024  -0.004  1.00  0.00     0.306 C 
ATOM      4  O   UNL     1       1.658   1.912   0.123  1.00  0.00    -0.252 OA
BRANCH   3   5
ATOM      5  C   UNL     1       3.386   0.968  -1.226  1.00  0.00     0.128 C 
BRANCH   5   6
ATOM      6  C   UNL     1       4.237   2.224  -1.387  1.00  0.00     0.058 C 
BRANCH   6   7
ATOM      7  C   UNL     1       5.383   2.259  -0.417  1.00  0.00     0.007 A 
ATOM      8  C   UNL     1       5.495   3.004   0.740  1.00  0.00     0.036 A 
ATOM      9  S   UNL     1       6.771   1.279  -0.670  1.00  0.00    -0.147 S 
ATOM     10  C   UNL     1       6.678   2.695   1.466  1.00  0.00     0.052 A 
ATOM     11  C   UNL     1       7.443   1.744   0.833  1.00  0.00     0.085 A 
ATOM     12  Cl  UNL     1       7.063   3.422   2.961  1.00  0.00    -0.083 Cl
ENDBRANCH   6   7
ENDBRANCH   5   6
ENDBRANCH   3   5
ENDBRANCH   2   3
ENDBRANCH   1   2
BRANCH   1  13
ATOM     13  C   UNL     1       3.902  -2.079   0.832  1.00  0.00     0.275 C 
BRANCH  13  14
ATOM     14  O   UNL     1       3.631  -2.215  -0.572  1.00  0.00    -0.458 OA
BRANCH  14  15
ATOM     15  C   UNL     1       2.337  -2.491  -0.866  1.00  0.00     0.338 C 
ATOM     16  O   UNL     1       1.457  -2.797  -0.079  1.00  0.00    -0.246 OA
BRANCH  15  17
ATOM     17  C   UNL     1       2.079  -2.201  -2.291  1.00  0.00     0.060 A 
ATOM     18  C   UNL     1       0.852  -1.611  -2.616  1.00  0.00     0.016 A 
ATOM     19  C   UNL     1       3.003  -2.506  -3.295  1.00  0.00     0.016 A 
ATOM     20  C   UNL     1       0.525  -1.367  -3.949  1.00  0.00     0.010 A 
ATOM     21  C   UNL     1       2.674  -2.262  -4.632  1.00  0.00     0.010 A 
ATOM     22  C   UNL     1       1.420  -1.723  -4.967  1.00  0.00    -0.014 A 
BRANCH  22  23
ATOM     23  C   UNL     1       0.977  -1.667  -6.380  1.00  0.00     0.031 A 
ATOM     24  C   UNL     1       0.466  -2.922  -7.031  1.00  0.00     0.074 A 
ATOM     25  C   UNL     1       0.995  -0.511  -7.067  1.00  0.00     0.049 A 
ATOM     26  N   UNL     1       0.001  -3.098  -8.242  1.00  0.00    -0.248 NA
ATOM     27  C   UNL     1       0.482  -4.141  -6.207  1.00  0.00     0.031 C 
ATOM     28  C   UNL     1       1.444   0.778  -6.545  1.00  0.00     0.029 A 
ATOM     29  N   UNL     1       0.622  -0.241  -8.359  1.00  0.00    -0.354 N 
ATOM     30  C   UNL     1      -0.342  -4.441  -8.320  1.00  0.00     0.074 A 
ATOM     31  C   UNL     1       0.008  -5.044  -7.052  1.00  0.00     0.031 C 
ATOM     32  C   UNL     1       1.323   1.704  -7.512  1.00  0.00     0.029 A 
ATOM     33  C   UNL     1       0.805   1.069  -8.723  1.00  0.00     0.049 A 
ATOM     34  H   UNL     1       0.257  -0.923  -8.968  1.00  0.00     0.167 HD
ATOM     35  C   UNL     1      -0.913  -5.111  -9.349  1.00  0.00     0.037 A 
ATOM     36  C   UNL     1       0.584   1.683  -9.902  1.00  0.00     0.037 A 
ATOM     37  C   UNL     1      -1.257  -4.520 -10.614  1.00  0.00     0.049 A 
ATOM     38  C   UNL     1       0.018   0.899 -11.056  1.00  0.00     0.074 A 
ATOM     39  C   UNL     1      -1.857  -5.117 -11.709  1.00  0.00     0.029 A 
ATOM     40  N   UNL     1      -1.021  -3.198 -10.956  1.00  0.00    -0.354 N 
ATOM     41  N   UNL     1      -0.347  -0.360 -11.103  1.00  0.00    -0.248 NA
ATOM     42  C   UNL     1      -0.173   1.625 -12.321  1.00  0.00     0.031 C 
ATOM     43  C   UNL     1      -1.945  -4.165 -12.731  1.00  0.00     0.029 A 
ATOM     44  C   UNL     1      -1.439  -2.966 -12.255  1.00  0.00     0.049 A 
ATOM     45  H   UNL     1      -0.616  -2.525 -10.363  1.00  0.00     0.167 HD
ATOM     46  C   UNL     1      -0.839  -0.566 -12.387  1.00  0.00     0.074 A 
ATOM     47  C   UNL     1      -0.732   0.697 -13.085  1.00  0.00     0.031 C 
ATOM     48  C   UNL     1      -1.337  -1.701 -12.936  1.00  0.00     0.037 A 
BRANCH  35  49
ATOM     49  C   UNL     1      -1.191  -6.570  -9.146  1.00  0.00     0.057 A 
ATOM     50  C   UNL     1      -2.236  -7.011  -8.322  1.00  0.00     0.134 A 
ATOM     51  C   UNL     1      -0.425  -7.542  -9.799  1.00  0.00     0.134 A 
ATOM     52  F   UNL     1      -2.995  -6.128  -7.657  1.00  0.00    -0.206 F 
ATOM     53  C   UNL     1      -2.495  -8.370  -8.141  1.00  0.00     0.040 A 
ATOM     54  C   UNL     1      -0.689  -8.903  -9.643  1.00  0.00     0.040 A 
ATOM     55  F   UNL     1       0.588  -7.184 -10.602  1.00  0.00    -0.206 F 
ATOM     56  C   UNL     1      -1.724  -9.320  -8.807  1.00  0.00     0.006 A 
ENDBRANCH  35  49
BRANCH  36  57
ATOM     57  C   UNL     1       0.895   3.125 -10.060  1.00  0.00     0.057 A 
ATOM     58  C   UNL     1      -0.124   4.074 -10.201  1.00  0.00     0.134 A 
ATOM     59  C   UNL     1       2.216   3.583 -10.111  1.00  0.00     0.134 A 
ATOM     60  F   UNL     1      -1.409   3.691 -10.187  1.00  0.00    -0.206 F 
ATOM     61  C   UNL     1       0.160   5.425 -10.407  1.00  0.00     0.040 A 
ATOM     62  C   UNL     1       2.515   4.934 -10.294  1.00  0.00     0.040 A 
ATOM     63  F   UNL     1       3.237   2.722  -9.983  1.00  0.00    -0.206 F 
ATOM     64  C   UNL     1       1.484   5.858 -10.450  1.00  0.00     0.006 A 
ENDBRANCH  36  57
BRANCH  48  65
ATOM     65  C   UNL     1      -1.838  -1.624 -14.348  1.00  0.00     0.057 A 
ATOM     66  C   UNL     1      -0.965  -1.539 -15.439  1.00  0.00     0.134 A 
ATOM     67  C   UNL     1      -3.211  -1.684 -14.621  1.00  0.00     0.134 A 
ATOM     68  F   UNL     1       0.361  -1.466 -15.244  1.00  0.00    -0.206 F 
ATOM     69  C   UNL     1      -1.439  -1.499 -16.752  1.00  0.00     0.040 A 
ATOM     70  C   UNL     1      -3.696  -1.668 -15.930  1.00  0.00     0.040 A 
ATOM     71  F   UNL     1      -4.101  -1.775 -13.622  1.00  0.00    -0.206 F 
ATOM     72  C   UNL     1      -2.809  -1.571 -16.999  1.00  0.00     0.006 A 
ENDBRANCH  48  65
ENDBRANCH  22  23
ENDBRANCH  15  17
ENDBRANCH  14  15
ENDBRANCH  13  14
ENDBRANCH   1  13
TORSDOF 13
