REMARK SMILES O=C(CCOc1cc(-c2ccncc2)nc(-c2ccc(C(F)(F)F)cc2)n1)OCCOC(=O)c1ccc(-c2c3nc(c(-c4c(F)cccc4F)c4ccc([nH]4)c(-c4c(F)cccc4F)c4nc(c(-c5c(F)cccc5F)c5ccc2[nH]5)C=C4)C=C3)cc1
REMARK SMILES IDX 28 1 2 2 1 3 3 4 4 5 5 6 6 7 7 8 27 9 8 10 16 11 15 12 9 13
REMARK SMILES IDX 10 14 14 15 11 16 13 17 12 18 17 19 18 20 26 21 19 22 25 23
REMARK SMILES IDX 20 24 21 25 22 26 23 27 24 28 29 29 30 30 31 31 32 32 33 33
REMARK SMILES IDX 34 34 35 35 87 36 36 37 86 38 37 39 38 40 39 41 80 42 40 43
REMARK SMILES IDX 85 44 79 45 81 46 41 47 84 48 78 49 77 50 42 52 68 53 51 54
REMARK SMILES IDX 67 55 52 56 55 57 66 58 82 59 53 60 54 61 65 63 83 64 56 65
REMARK SMILES IDX 43 66 44 67 49 68 45 69 46 70 48 71 50 72 47 73 69 74 70 75
REMARK SMILES IDX 75 76 71 77 72 78 74 79 76 80 73 81 57 82 58 83 63 84 59 85
REMARK SMILES IDX 60 86 62 87 64 88 61 89
REMARK H PARENT 81 51 55 62
REMARK Flexibility Score: inf
ROOT
ATOM      1  O   UNL     1       3.192   0.159   0.846  1.00  0.00    -0.462 OA
ENDROOT
BRANCH   1   2
ATOM      2  C   UNL     1       2.589  -0.324  -0.259  1.00  0.00     0.309 C 
ATOM      3  O   UNL     1       1.360  -0.336  -0.332  1.00  0.00    -0.252 OA
BRANCH   2   4
ATOM      4  C   UNL     1       3.405  -0.699  -1.457  1.00  0.00     0.164 C 
BRANCH   4   5
ATOM      5  C   UNL     1       3.301   0.406  -2.503  1.00  0.00     0.243 C 
BRANCH   5   6
ATOM      6  O   UNL     1       4.218   1.476  -2.289  1.00  0.00    -0.477 OA
BRANCH   6   7
ATOM      7  C   UNL     1       3.938   2.463  -1.395  1.00  0.00     0.217 A 
ATOM      8  C   UNL     1       2.774   2.627  -0.688  1.00  0.00     0.097 A 
ATOM      9  N   UNL     1       4.986   3.267  -1.210  1.00  0.00    -0.193 NA
ATOM     10  C   UNL     1       2.835   3.475   0.405  1.00  0.00     0.078 A 
ATOM     11  C   UNL     1       4.878   4.211  -0.261  1.00  0.00     0.163 A 
ATOM     12  N   UNL     1       3.880   4.293   0.631  1.00  0.00    -0.228 NA
BRANCH  10  13
ATOM     13  C   UNL     1       1.811   3.417   1.453  1.00  0.00     0.003 A 
ATOM     14  C   UNL     1       2.024   2.635   2.597  1.00  0.00     0.030 A 
ATOM     15  C   UNL     1       0.581   4.064   1.325  1.00  0.00     0.030 A 
ATOM     16  C   UNL     1       1.011   2.512   3.533  1.00  0.00     0.111 A 
ATOM     17  C   UNL     1      -0.366   3.896   2.326  1.00  0.00     0.111 A 
ATOM     18  N   UNL     1      -0.180   3.132   3.425  1.00  0.00    -0.265 NA
ENDBRANCH  10  13
BRANCH  11  19
ATOM     19  C   UNL     1       5.781   5.354  -0.400  1.00  0.00     0.019 A 
ATOM     20  C   UNL     1       5.988   5.896  -1.683  1.00  0.00     0.012 A 
ATOM     21  C   UNL     1       6.418   5.967   0.687  1.00  0.00     0.012 A 
ATOM     22  C   UNL     1       6.791   7.015  -1.881  1.00  0.00     0.014 A 
ATOM     23  C   UNL     1       7.242   7.084   0.490  1.00  0.00     0.014 A 
ATOM     24  C   UNL     1       7.430   7.620  -0.794  1.00  0.00     0.056 A 
BRANCH  24  25
ATOM     25  C   UNL     1       8.289   8.835  -1.036  1.00  0.00     0.416 C 
ATOM     26  F   UNL     1       9.291   8.592  -1.926  1.00  0.00    -0.166 F 
ATOM     27  F   UNL     1       7.578   9.876  -1.553  1.00  0.00    -0.166 F 
ATOM     28  F   UNL     1       8.892   9.313   0.086  1.00  0.00    -0.166 F 
ENDBRANCH  24  25
ENDBRANCH  11  19
ENDBRANCH   6   7
ENDBRANCH   5   6
ENDBRANCH   4   5
ENDBRANCH   2   4
ENDBRANCH   1   2
BRANCH   1  29
ATOM     29  C   UNL     1       4.601   0.104   1.171  1.00  0.00     0.274 C 
BRANCH  29  30
ATOM     30  C   UNL     1       4.821  -0.974   2.228  1.00  0.00     0.275 C 
BRANCH  30  31
ATOM     31  O   UNL     1       4.404  -2.235   1.688  1.00  0.00    -0.458 OA
BRANCH  31  32
ATOM     32  C   UNL     1       3.104  -2.565   1.918  1.00  0.00     0.338 C 
ATOM     33  O   UNL     1       2.333  -2.036   2.689  1.00  0.00    -0.246 OA
BRANCH  32  34
ATOM     34  C   UNL     1       2.723  -3.553   0.887  1.00  0.00     0.060 A 
ATOM     35  C   UNL     1       1.475  -3.435   0.258  1.00  0.00     0.016 A 
ATOM     36  C   UNL     1       3.614  -4.561   0.518  1.00  0.00     0.016 A 
ATOM     37  C   UNL     1       1.108  -4.338  -0.739  1.00  0.00     0.010 A 
ATOM     38  C   UNL     1       3.241  -5.477  -0.456  1.00  0.00     0.010 A 
ATOM     39  C   UNL     1       1.975  -5.388  -1.061  1.00  0.00    -0.014 A 
BRANCH  39  40
ATOM     40  C   UNL     1       1.496  -6.570  -1.802  1.00  0.00     0.031 A 
ATOM     41  C   UNL     1       0.980  -7.718  -0.986  1.00  0.00     0.074 A 
ATOM     42  C   UNL     1       1.637  -6.667  -3.132  1.00  0.00     0.049 A 
ATOM     43  N   UNL     1       0.724  -8.946  -1.345  1.00  0.00    -0.248 NA
ATOM     44  C   UNL     1       0.758  -7.445   0.445  1.00  0.00     0.031 C 
ATOM     45  C   UNL     1       2.108  -5.604  -4.016  1.00  0.00     0.029 A 
ATOM     46  N   UNL     1       1.434  -7.738  -3.963  1.00  0.00    -0.354 N 
ATOM     47  C   UNL     1       0.332  -9.596  -0.182  1.00  0.00     0.074 A 
ATOM     48  C   UNL     1       0.409  -8.637   0.896  1.00  0.00     0.031 C 
ATOM     49  C   UNL     1       2.195  -6.089  -5.267  1.00  0.00     0.029 A 
ATOM     50  C   UNL     1       1.825  -7.504  -5.257  1.00  0.00     0.049 A 
ATOM     51  H   UNL     1       1.046  -8.591  -3.661  1.00  0.00     0.167 HD
ATOM     52  C   UNL     1      -0.054 -10.883  -0.029  1.00  0.00     0.037 A 
ATOM     53  C   UNL     1       1.908  -8.353  -6.299  1.00  0.00     0.037 A 
ATOM     54  C   UNL     1      -0.104 -11.830  -1.107  1.00  0.00     0.049 A 
ATOM     55  C   UNL     1       1.522  -9.796  -6.101  1.00  0.00     0.074 A 
ATOM     56  C   UNL     1      -0.496 -13.155  -1.077  1.00  0.00     0.029 A 
ATOM     57  N   UNL     1       0.267 -11.547  -2.415  1.00  0.00    -0.354 N 
ATOM     58  N   UNL     1       1.121 -10.403  -5.009  1.00  0.00    -0.248 NA
ATOM     59  C   UNL     1       1.600 -10.672  -7.278  1.00  0.00     0.031 C 
ATOM     60  C   UNL     1      -0.317 -13.687  -2.358  1.00  0.00     0.029 A 
ATOM     61  C   UNL     1       0.132 -12.678  -3.198  1.00  0.00     0.049 A 
ATOM     62  H   UNL     1       0.579 -10.670  -2.736  1.00  0.00     0.167 HD
ATOM     63  C   UNL     1       0.863 -11.719  -5.373  1.00  0.00     0.074 A 
ATOM     64  C   UNL     1       1.158 -11.823  -6.787  1.00  0.00     0.031 C 
ATOM     65  C   UNL     1       0.416 -12.747  -4.610  1.00  0.00     0.037 A 
BRANCH  52  66
ATOM     66  C   UNL     1      -0.400 -11.329   1.361  1.00  0.00     0.057 A 
ATOM     67  C   UNL     1      -1.542 -10.862   2.027  1.00  0.00     0.134 A 
ATOM     68  C   UNL     1       0.436 -12.212   2.054  1.00  0.00     0.134 A 
ATOM     69  F   UNL     1      -2.372  -9.994   1.428  1.00  0.00    -0.206 F 
ATOM     70  C   UNL     1      -1.819 -11.229   3.345  1.00  0.00     0.040 A 
ATOM     71  C   UNL     1       0.153 -12.610   3.361  1.00  0.00     0.040 A 
ATOM     72  F   UNL     1       1.547 -12.694   1.478  1.00  0.00    -0.206 F 
ATOM     73  C   UNL     1      -0.972 -12.109   4.014  1.00  0.00     0.006 A 
ENDBRANCH  52  66
BRANCH  53  74
ATOM     74  C   UNL     1       2.381  -7.860  -7.617  1.00  0.00     0.057 A 
ATOM     75  C   UNL     1       1.498  -7.722  -8.693  1.00  0.00     0.134 A 
ATOM     76  C   UNL     1       3.717  -7.500  -7.829  1.00  0.00     0.134 A 
ATOM     77  F   UNL     1       0.209  -8.069  -8.557  1.00  0.00    -0.206 F 
ATOM     78  C   UNL     1       1.927  -7.252  -9.935  1.00  0.00     0.040 A 
ATOM     79  C   UNL     1       4.156  -7.008  -9.059  1.00  0.00     0.040 A 
ATOM     80  F   UNL     1       4.613  -7.605  -6.836  1.00  0.00    -0.206 F 
ATOM     81  C   UNL     1       3.259  -6.886 -10.119  1.00  0.00     0.006 A 
ENDBRANCH  53  74
BRANCH  65  82
ATOM     82  C   UNL     1       0.161 -14.059  -5.292  1.00  0.00     0.057 A 
ATOM     83  C   UNL     1       1.201 -14.904  -5.693  1.00  0.00     0.134 A 
ATOM     84  C   UNL     1      -1.153 -14.515  -5.471  1.00  0.00     0.134 A 
ATOM     85  F   UNL     1       2.480 -14.521  -5.558  1.00  0.00    -0.206 F 
ATOM     86  C   UNL     1       0.944 -16.154  -6.259  1.00  0.00     0.040 A 
ATOM     87  C   UNL     1      -1.421 -15.772  -6.011  1.00  0.00     0.040 A 
ATOM     88  F   UNL     1      -2.194 -13.756  -5.096  1.00  0.00    -0.206 F 
ATOM     89  C   UNL     1      -0.370 -16.595  -6.409  1.00  0.00     0.006 A 
ENDBRANCH  65  82
ENDBRANCH  39  40
ENDBRANCH  32  34
ENDBRANCH  31  32
ENDBRANCH  30  31
ENDBRANCH  29  30
ENDBRANCH   1  29
TORSDOF 17
