REMARK SMILES O=C(N[C@@H](Cc1ccc(O)cc1)C(=O)N[C@@H](Cc1c[nH]c2ccccc12)C(=O)N[C@@H](CO)C(=O)OCCOC(=O)c1ccc(-c2c3nc(c(-c4c(F)cccc4F)c4ccc([nH]4)c(-c4c(F)cccc4F)c4nc(c(-c5c(F)cccc5F)c5ccc2[nH]5)C=C4)C=C3)cc1)c1ccc(F)cc1
REMARK SMILES IDX 33 1 34 2 30 3 29 4 27 5 28 6 16 8 15 9 13 10 14 11 4 13
REMARK SMILES IDX 3 14 1 15 2 16 95 18 96 19 101 20 97 21 100 22 98 23 99 24
REMARK SMILES IDX 5 25 6 26 7 27 12 28 8 29 11 30 9 31 10 32 17 34 18 35 19 36
REMARK SMILES IDX 26 37 20 38 21 39 25 40 22 42 24 43 23 44 31 45 32 46 35 48
REMARK SMILES IDX 36 49 37 50 38 51 39 52 40 53 41 54 42 55 94 56 43 57 93 58
REMARK SMILES IDX 44 59 45 60 46 61 87 62 47 63 92 64 86 65 88 66 48 67 91 68
REMARK SMILES IDX 85 69 84 70 49 72 75 73 58 74 74 75 59 76 62 77 73 78 89 79
REMARK SMILES IDX 60 80 61 81 72 83 90 84 63 85 50 86 51 87 56 88 52 89 53 90
REMARK SMILES IDX 55 91 57 92 54 93 76 94 77 95 82 96 78 97 79 98 81 99 83 100
REMARK SMILES IDX 80 101 64 102 65 103 70 104 66 105 67 106 69 107 71 108
REMARK SMILES IDX 68 109
REMARK H PARENT 29 7 15 12 3 17 10 33 20 41 32 47 88 71 62 82
REMARK Flexibility Score: inf
ROOT
ATOM      1  C   UNL     1       4.923   7.859  -4.574  1.00  0.00     0.331 C 
ATOM      2  O   UNL     1       5.159   9.064  -4.507  1.00  0.00    -0.250 OA
ENDROOT
BRANCH   1   3
ATOM      3  C   UNL     1       5.794   6.811  -3.869  1.00  0.00     0.218 C 
BRANCH   3   4
ATOM      4  N   UNL     1       5.550   5.366  -4.057  1.00  0.00    -0.339 N 
ATOM      5  C   UNL     1       5.918   4.492  -3.048  1.00  0.00     0.243 C 
ATOM      6  O   UNL     1       7.067   4.043  -3.047  1.00  0.00    -0.273 OA
ATOM      7  H   UNL     1       5.134   5.031  -4.884  1.00  0.00     0.164 HD
BRANCH   5   8
ATOM      8  C   UNL     1       4.814   3.939  -2.083  1.00  0.00     0.175 C 
BRANCH   8   9
ATOM      9  N   UNL     1       5.384   3.107  -1.017  1.00  0.00    -0.342 N 
ATOM     10  C   UNL     1       5.527   1.777  -0.804  1.00  0.00     0.243 C 
ATOM     11  O   UNL     1       6.435   1.492  -0.006  1.00  0.00    -0.273 OA
ATOM     12  H   UNL     1       5.751   3.645  -0.279  1.00  0.00     0.164 HD
BRANCH  10  13
ATOM     13  C   UNL     1       4.659   0.618  -1.372  1.00  0.00     0.176 C 
BRANCH  13  14
ATOM     14  N   UNL     1       3.231   0.751  -1.078  1.00  0.00    -0.340 N 
ATOM     15  O   UNL     1       1.293   0.266  -0.041  1.00  0.00    -0.269 OA
ATOM     16  C   UNL     1       2.494   0.123  -0.086  1.00  0.00     0.251 C 
ATOM     17  H   UNL     1       2.730   1.367  -1.661  1.00  0.00     0.164 HD
BRANCH  16  18
ATOM     18  C   UNL     1       3.171  -0.785   0.886  1.00  0.00     0.040 A 
ATOM     19  C   UNL     1       4.211  -0.332   1.708  1.00  0.00     0.017 A 
ATOM     20  C   UNL     1       2.758  -2.123   0.959  1.00  0.00     0.017 A 
ATOM     21  C   UNL     1       4.901  -1.233   2.524  1.00  0.00     0.040 A 
ATOM     22  C   UNL     1       3.441  -3.019   1.790  1.00  0.00     0.040 A 
ATOM     23  C   UNL     1       4.518  -2.570   2.548  1.00  0.00     0.123 A 
ATOM     24  F   UNL     1       5.197  -3.437   3.311  1.00  0.00    -0.207 F 
ENDBRANCH  16  18
ENDBRANCH  13  14
BRANCH  13  25
ATOM     25  C   UNL     1       5.002  -0.021  -2.735  1.00  0.00     0.070 C 
BRANCH  25  26
ATOM     26  C   UNL     1       4.425   0.580  -3.989  1.00  0.00    -0.045 A 
ATOM     27  C   UNL     1       5.019   1.708  -4.554  1.00  0.00     0.007 A 
ATOM     28  C   UNL     1       3.329   0.001  -4.646  1.00  0.00     0.007 A 
ATOM     29  C   UNL     1       4.432   2.360  -5.638  1.00  0.00     0.046 A 
ATOM     30  C   UNL     1       2.781   0.609  -5.778  1.00  0.00     0.046 A 
ATOM     31  C   UNL     1       3.298   1.817  -6.223  1.00  0.00     0.115 A 
BRANCH  31  32
ATOM     32  O   UNL     1       2.668   2.459  -7.245  1.00  0.00    -0.508 OA
ATOM     33  H   UNL     1       3.000   3.276  -7.562  1.00  0.00     0.293 HD
ENDBRANCH  31  32
ENDBRANCH  25  26
ENDBRANCH  13  25
ENDBRANCH  10  13
ENDBRANCH   8   9
BRANCH   8  34
ATOM     34  C   UNL     1       3.842   4.997  -1.566  1.00  0.00     0.072 C 
BRANCH  34  35
ATOM     35  C   UNL     1       4.219   6.365  -1.025  1.00  0.00    -0.020 A 
ATOM     36  C   UNL     1       3.380   7.474  -1.128  1.00  0.00     0.087 A 
ATOM     37  C   UNL     1       5.460   6.881  -0.501  1.00  0.00     0.003 A 
ATOM     38  N   UNL     1       4.069   8.606  -0.802  1.00  0.00    -0.361 N 
ATOM     39  C   UNL     1       5.363   8.281  -0.502  1.00  0.00     0.046 A 
ATOM     40  C   UNL     1       6.717   6.330  -0.191  1.00  0.00     0.010 A 
ATOM     41  H   UNL     1       3.693   9.516  -0.786  1.00  0.00     0.166 HD
ATOM     42  C   UNL     1       6.450   9.133  -0.290  1.00  0.00     0.026 A 
ATOM     43  C   UNL     1       7.818   7.167   0.026  1.00  0.00     0.001 A 
ATOM     44  C   UNL     1       7.689   8.548  -0.047  1.00  0.00     0.002 A 
ENDBRANCH  34  35
ENDBRANCH   8  34
ENDBRANCH   5   8
ENDBRANCH   3   4
BRANCH   3  45
ATOM     45  C   UNL     1       7.282   7.152  -4.032  1.00  0.00     0.193 C 
BRANCH  45  46
ATOM     46  O   UNL     1       7.725   6.720  -5.317  1.00  0.00    -0.394 OA
ATOM     47  H   UNL     1       7.600   5.761  -5.397  1.00  0.00     0.210 HD
ENDBRANCH  45  46
ENDBRANCH   3  45
ENDBRANCH   1   3
BRANCH   1  48
ATOM     48  O   UNL     1       3.797   7.346  -5.158  1.00  0.00    -0.460 OA
BRANCH  48  49
ATOM     49  C   UNL     1       2.958   8.376  -5.722  1.00  0.00     0.274 C 
BRANCH  49  50
ATOM     50  C   UNL     1       1.559   7.873  -6.073  1.00  0.00     0.275 C 
BRANCH  50  51
ATOM     51  O   UNL     1       0.821   7.476  -4.898  1.00  0.00    -0.458 OA
BRANCH  51  52
ATOM     52  C   UNL     1       0.565   6.150  -4.807  1.00  0.00     0.338 C 
ATOM     53  O   UNL     1       0.967   5.269  -5.552  1.00  0.00    -0.246 OA
BRANCH  52  54
ATOM     54  C   UNL     1      -0.149   5.848  -3.553  1.00  0.00     0.060 A 
ATOM     55  C   UNL     1       0.655   5.689  -2.440  1.00  0.00     0.016 A 
ATOM     56  C   UNL     1      -1.488   5.489  -3.476  1.00  0.00     0.016 A 
ATOM     57  C   UNL     1       0.203   5.068  -1.286  1.00  0.00     0.010 A 
ATOM     58  C   UNL     1      -1.982   4.927  -2.280  1.00  0.00     0.010 A 
ATOM     59  C   UNL     1      -1.124   4.658  -1.191  1.00  0.00    -0.014 A 
BRANCH  59  60
ATOM     60  C   UNL     1      -1.517   3.792  -0.039  1.00  0.00     0.031 A 
ATOM     61  C   UNL     1      -1.939   2.371  -0.315  1.00  0.00     0.074 A 
ATOM     62  C   UNL     1      -1.343   4.183   1.242  1.00  0.00     0.049 A 
ATOM     63  N   UNL     1      -2.513   1.502   0.476  1.00  0.00    -0.248 NA
ATOM     64  C   UNL     1      -1.680   1.865  -1.674  1.00  0.00     0.031 C 
ATOM     65  C   UNL     1      -0.765   5.459   1.671  1.00  0.00     0.029 A 
ATOM     66  N   UNL     1      -1.594   3.527   2.424  1.00  0.00    -0.354 N 
ATOM     67  C   UNL     1      -2.741   0.376  -0.307  1.00  0.00     0.074 A 
ATOM     68  C   UNL     1      -2.233   0.663  -1.629  1.00  0.00     0.031 C 
ATOM     69  C   UNL     1      -0.658   5.469   3.010  1.00  0.00     0.029 A 
ATOM     70  C   UNL     1      -1.269   4.258   3.545  1.00  0.00     0.049 A 
ATOM     71  H   UNL     1      -1.971   2.619   2.465  1.00  0.00     0.167 HD
ATOM     72  C   UNL     1      -3.343  -0.784   0.048  1.00  0.00     0.037 A 
ATOM     73  C   UNL     1      -1.493   4.006   4.850  1.00  0.00     0.037 A 
ATOM     74  C   UNL     1      -3.760  -1.085   1.391  1.00  0.00     0.049 A 
ATOM     75  C   UNL     1      -2.229   2.742   5.217  1.00  0.00     0.074 A 
ATOM     76  C   UNL     1      -4.463  -2.181   1.858  1.00  0.00     0.029 A 
ATOM     77  N   UNL     1      -3.467  -0.294   2.492  1.00  0.00    -0.354 N 
ATOM     78  N   UNL     1      -2.622   1.758   4.444  1.00  0.00    -0.248 NA
ATOM     79  C   UNL     1      -2.584   2.567   6.632  1.00  0.00     0.031 C 
ATOM     80  C   UNL     1      -4.632  -2.031   3.239  1.00  0.00     0.029 A 
ATOM     81  C   UNL     1      -3.987  -0.870   3.637  1.00  0.00     0.049 A 
ATOM     82  H   UNL     1      -2.964   0.551   2.462  1.00  0.00     0.167 HD
ATOM     83  C   UNL     1      -3.244   0.840   5.279  1.00  0.00     0.074 A 
ATOM     84  C   UNL     1      -3.156   1.372   6.622  1.00  0.00     0.031 C 
ATOM     85  C   UNL     1      -3.850  -0.332   4.965  1.00  0.00     0.037 A 
BRANCH  72  86
ATOM     86  C   UNL     1      -3.683  -1.750  -1.049  1.00  0.00     0.057 A 
ATOM     87  C   UNL     1      -2.733  -2.555  -1.686  1.00  0.00     0.134 A 
ATOM     88  C   UNL     1      -5.016  -1.868  -1.472  1.00  0.00     0.134 A 
ATOM     89  F   UNL     1      -1.437  -2.481  -1.348  1.00  0.00    -0.206 F 
ATOM     90  C   UNL     1      -3.092  -3.425  -2.720  1.00  0.00     0.040 A 
ATOM     91  C   UNL     1      -5.390  -2.752  -2.483  1.00  0.00     0.040 A 
ATOM     92  F   UNL     1      -5.978  -1.125  -0.904  1.00  0.00    -0.206 F 
ATOM     93  C   UNL     1      -4.425  -3.530  -3.116  1.00  0.00     0.006 A 
ENDBRANCH  72  86
BRANCH  73  94
ATOM     94  C   UNL     1      -1.128   4.997   5.904  1.00  0.00     0.057 A 
ATOM     95  C   UNL     1      -0.251   4.674   6.949  1.00  0.00     0.134 A 
ATOM     96  C   UNL     1      -1.713   6.271   5.941  1.00  0.00     0.134 A 
ATOM     97  F   UNL     1       0.324   3.463   6.999  1.00  0.00    -0.206 F 
ATOM     98  C   UNL     1       0.000   5.561   8.001  1.00  0.00     0.040 A 
ATOM     99  C   UNL     1      -1.439   7.182   6.963  1.00  0.00     0.040 A 
ATOM    100  F   UNL     1      -2.569   6.654   4.981  1.00  0.00    -0.206 F 
ATOM    101  C   UNL     1      -0.592   6.821   8.007  1.00  0.00     0.006 A 
ENDBRANCH  73  94
BRANCH  85 102
ATOM    102  C   UNL     1      -4.398  -1.140   6.103  1.00  0.00     0.057 A 
ATOM    103  C   UNL     1      -5.547  -0.755   6.804  1.00  0.00     0.134 A 
ATOM    104  C   UNL     1      -3.775  -2.336   6.481  1.00  0.00     0.134 A 
ATOM    105  F   UNL     1      -6.181   0.387   6.498  1.00  0.00    -0.206 F 
ATOM    106  C   UNL     1      -6.040  -1.516   7.864  1.00  0.00     0.040 A 
ATOM    107  C   UNL     1      -4.276  -3.120   7.520  1.00  0.00     0.040 A 
ATOM    108  F   UNL     1      -2.677  -2.766   5.842  1.00  0.00    -0.206 F 
ATOM    109  C   UNL     1      -5.407  -2.706   8.221  1.00  0.00     0.006 A 
ENDBRANCH  85 102
ENDBRANCH  59  60
ENDBRANCH  52  54
ENDBRANCH  51  52
ENDBRANCH  50  51
ENDBRANCH  49  50
ENDBRANCH  48  49
ENDBRANCH   1  48
TORSDOF 24
