REMARK SMILES Cc1nsc(N(C)C(=O)[C@@H](C)NC(N)=O)c1C(=O)OCCOC(=O)c1ccc(-c2c3nc(c(-c4c(F)cccc4F)c4ccc([nH]4)c(-c4c(F)cccc4F)c4nc(c(-c5c(F)cccc5F)c5ccc2[nH]5)C=C4)C=C3)cc1
REMARK SMILES IDX 20 1 19 2 17 3 18 4 16 5 1 6 2 7 3 8 4 9 5 10 6 11 7 12 8 13
REMARK SMILES IDX 9 14 10 15 11 16 12 17 13 18 14 20 15 21 21 24 22 25 23 26
REMARK SMILES IDX 24 27 25 28 26 29 78 30 27 31 77 32 28 33 29 34 30 35 71 36
REMARK SMILES IDX 31 37 76 38 70 39 72 40 32 41 75 42 69 43 68 44 33 46 59 47
REMARK SMILES IDX 42 48 58 49 43 50 46 51 57 52 73 53 44 54 45 55 56 57 74 58
REMARK SMILES IDX 47 59 34 60 35 61 40 62 36 63 37 64 39 65 41 66 38 67 60 68
REMARK SMILES IDX 61 69 66 70 62 71 63 72 65 73 67 74 64 75 48 76 49 77 54 78
REMARK SMILES IDX 50 79 51 80 53 81 55 82 52 83
REMARK H PARENT 12 19 14 22 14 23 72 45 46 56
REMARK Flexibility Score: inf
ROOT
ATOM      1  C   UNL     1       1.105   3.909   0.427  1.00  0.00     0.275 C 
ENDROOT
BRANCH   1   2
ATOM      2  O   UNL     1       1.061   2.518   0.778  1.00  0.00    -0.458 OA
BRANCH   2   3
ATOM      3  C   UNL     1       1.416   2.166   2.053  1.00  0.00     0.343 C 
ATOM      4  O   UNL     1       2.218   2.776   2.734  1.00  0.00    -0.246 OA
BRANCH   3   5
ATOM      5  C   UNL     1       0.777   0.911   2.452  1.00  0.00     0.117 A 
ATOM      6  C   UNL     1       1.139  -0.289   0.128  1.00  0.00     0.069 C 
ATOM      7  C   UNL     1       0.697  -0.236   1.554  1.00  0.00     0.068 A 
ATOM      8  N   UNL     1       0.207  -1.358   2.071  1.00  0.00    -0.195 NA
ATOM      9  S   UNL     1      -0.257  -1.074   3.609  1.00  0.00    -0.017 S 
ATOM     10  C   UNL     1       0.160   0.607   3.676  1.00  0.00     0.133 A 
BRANCH  10  11
ATOM     11  N   UNL     1      -0.234   1.301   4.870  1.00  0.00    -0.303 N 
ATOM     12  C   UNL     1      -0.704   0.554   6.044  1.00  0.00     0.154 C 
BRANCH  11  13
ATOM     13  C   UNL     1      -0.358   2.701   4.822  1.00  0.00     0.249 C 
ATOM     14  O   UNL     1      -0.155   3.353   3.793  1.00  0.00    -0.272 OA
BRANCH  13  15
ATOM     15  C   UNL     1      -0.849   3.517   6.063  1.00  0.00     0.170 C 
ATOM     16  C   UNL     1      -2.262   3.211   6.556  1.00  0.00     0.041 C 
BRANCH  15  17
ATOM     17  N   UNL     1       0.112   3.566   7.161  1.00  0.00    -0.327 N 
ATOM     18  C   UNL     1       0.683   4.735   7.559  1.00  0.00     0.312 C 
ATOM     19  H   UNL     1       0.352   2.732   7.625  1.00  0.00     0.166 HD
ATOM     20  N   UNL     1       1.557   4.576   8.580  1.00  0.00    -0.352 N 
ATOM     21  O   UNL     1       0.450   5.840   7.094  1.00  0.00    -0.249 OA
ATOM     22  H   UNL     1       1.732   3.678   8.942  1.00  0.00     0.161 HD
ATOM     23  H   UNL     1       2.017   5.359   8.961  1.00  0.00     0.161 HD
ENDBRANCH  15  17
ENDBRANCH  13  15
ENDBRANCH  11  13
ENDBRANCH  10  11
ENDBRANCH   3   5
ENDBRANCH   2   3
ENDBRANCH   1   2
BRANCH   1  24
ATOM     24  C   UNL     1      -0.305   4.349   0.052  1.00  0.00     0.275 C 
BRANCH  24  25
ATOM     25  O   UNL     1      -1.154   4.250   1.188  1.00  0.00    -0.458 OA
BRANCH  25  26
ATOM     26  C   UNL     1      -1.768   3.064   1.392  1.00  0.00     0.338 C 
ATOM     27  O   UNL     1      -1.640   2.031   0.758  1.00  0.00    -0.246 OA
BRANCH  26  28
ATOM     28  C   UNL     1      -2.800   3.267   2.414  1.00  0.00     0.060 A 
ATOM     29  C   UNL     1      -3.577   2.166   2.799  1.00  0.00     0.016 A 
ATOM     30  C   UNL     1      -3.134   4.580   2.770  1.00  0.00     0.016 A 
ATOM     31  C   UNL     1      -4.812   2.405   3.360  1.00  0.00     0.010 A 
ATOM     32  C   UNL     1      -4.374   4.820   3.280  1.00  0.00     0.010 A 
ATOM     33  C   UNL     1      -5.217   3.733   3.494  1.00  0.00    -0.014 A 
BRANCH  33  34
ATOM     34  C   UNL     1      -6.591   4.032   3.805  1.00  0.00     0.031 A 
ATOM     35  C   UNL     1      -6.892   4.082   5.257  1.00  0.00     0.074 A 
ATOM     36  C   UNL     1      -7.390   4.440   2.799  1.00  0.00     0.049 A 
ATOM     37  N   UNL     1      -7.756   3.386   5.916  1.00  0.00    -0.248 NA
ATOM     38  C   UNL     1      -6.018   4.902   6.117  1.00  0.00     0.031 C 
ATOM     39  C   UNL     1      -7.035   4.717   1.398  1.00  0.00     0.029 A 
ATOM     40  N   UNL     1      -8.683   4.840   2.867  1.00  0.00    -0.354 N 
ATOM     41  C   UNL     1      -7.673   3.819   7.239  1.00  0.00     0.074 A 
ATOM     42  C   UNL     1      -6.483   4.615   7.331  1.00  0.00     0.031 C 
ATOM     43  C   UNL     1      -8.010   5.460   0.828  1.00  0.00     0.029 A 
ATOM     44  C   UNL     1      -9.098   5.596   1.774  1.00  0.00     0.049 A 
ATOM     45  H   UNL     1      -9.275   4.617   3.621  1.00  0.00     0.167 HD
ATOM     46  C   UNL     1      -8.716   3.661   8.100  1.00  0.00     0.037 A 
ATOM     47  C   UNL     1     -10.212   6.370   1.772  1.00  0.00     0.037 A 
ATOM     48  C   UNL     1      -9.640   2.675   7.602  1.00  0.00     0.049 A 
ATOM     49  C   UNL     1     -11.068   5.881   2.897  1.00  0.00     0.074 A 
ATOM     50  C   UNL     1      -9.544   1.327   7.322  1.00  0.00     0.029 A 
ATOM     51  N   UNL     1     -10.754   3.123   6.933  1.00  0.00    -0.354 N 
ATOM     52  N   UNL     1     -11.603   4.686   2.920  1.00  0.00    -0.248 NA
ATOM     53  C   UNL     1     -10.865   6.497   4.205  1.00  0.00     0.031 C 
ATOM     54  C   UNL     1     -10.277   1.157   6.113  1.00  0.00     0.029 A 
ATOM     55  C   UNL     1     -10.844   2.389   5.778  1.00  0.00     0.049 A 
ATOM     56  H   UNL     1     -11.369   3.834   7.226  1.00  0.00     0.167 HD
ATOM     57  C   UNL     1     -11.443   4.242   4.228  1.00  0.00     0.074 A 
ATOM     58  C   UNL     1     -11.014   5.420   4.983  1.00  0.00     0.031 C 
ATOM     59  C   UNL     1     -11.369   2.912   4.538  1.00  0.00     0.037 A 
BRANCH  46  60
ATOM     60  C   UNL     1      -9.102   4.641   9.181  1.00  0.00     0.057 A 
ATOM     61  C   UNL     1     -10.201   4.333  10.006  1.00  0.00     0.134 A 
ATOM     62  C   UNL     1      -8.668   5.980   9.245  1.00  0.00     0.134 A 
ATOM     63  F   UNL     1     -10.695   3.086  10.061  1.00  0.00    -0.206 F 
ATOM     64  C   UNL     1     -10.893   5.307  10.734  1.00  0.00     0.040 A 
ATOM     65  C   UNL     1      -9.323   6.952  10.006  1.00  0.00     0.040 A 
ATOM     66  F   UNL     1      -7.653   6.449   8.513  1.00  0.00    -0.206 F 
ATOM     67  C   UNL     1     -10.466   6.627  10.719  1.00  0.00     0.006 A 
ENDBRANCH  46  60
BRANCH  47  68
ATOM     68  C   UNL     1     -10.345   7.709   1.151  1.00  0.00     0.057 A 
ATOM     69  C   UNL     1     -11.595   8.280   0.887  1.00  0.00     0.134 A 
ATOM     70  C   UNL     1      -9.236   8.566   1.003  1.00  0.00     0.134 A 
ATOM     71  F   UNL     1     -12.716   7.562   1.050  1.00  0.00    -0.206 F 
ATOM     72  C   UNL     1     -11.734   9.620   0.493  1.00  0.00     0.040 A 
ATOM     73  C   UNL     1      -9.358   9.900   0.604  1.00  0.00     0.040 A 
ATOM     74  F   UNL     1      -7.998   8.159   1.319  1.00  0.00    -0.206 F 
ATOM     75  C   UNL     1     -10.614  10.436   0.354  1.00  0.00     0.006 A 
ENDBRANCH  47  68
BRANCH  59  76
ATOM     76  C   UNL     1     -11.599   1.895   3.453  1.00  0.00     0.057 A 
ATOM     77  C   UNL     1     -10.720   1.700   2.376  1.00  0.00     0.134 A 
ATOM     78  C   UNL     1     -12.582   0.921   3.647  1.00  0.00     0.134 A 
ATOM     79  F   UNL     1      -9.683   2.519   2.174  1.00  0.00    -0.206 F 
ATOM     80  C   UNL     1     -10.825   0.598   1.522  1.00  0.00     0.040 A 
ATOM     81  C   UNL     1     -12.680  -0.201   2.821  1.00  0.00     0.040 A 
ATOM     82  F   UNL     1     -13.414   1.003   4.697  1.00  0.00    -0.206 F 
ATOM     83  C   UNL     1     -11.802  -0.365   1.753  1.00  0.00     0.006 A 
ENDBRANCH  59  76
ENDBRANCH  33  34
ENDBRANCH  26  28
ENDBRANCH  25  26
ENDBRANCH  24  25
ENDBRANCH   1  24
TORSDOF 15
