REMARK SMILES C[C@@H](C(=O)N(C)C)[N@H+](CC(=O)OCCOC(=O)c1ccc(-c2c3nc(c(-c4c(F)cccc4F)c4ccc([nH]4)c(-c4c(F)cccc4F)c4nc(c(-c5c(F)cccc5F)c5ccc2[nH]5)C=C4)C=C3)cc1)C(C)(C)C
REMARK SMILES IDX 13 1 12 2 10 3 11 4 9 5 8 6 2 8 1 9 3 10 4 11 5 12 6 13 7 14
REMARK SMILES IDX 72 15 73 16 74 17 75 18 14 19 15 20 16 21 17 22 18 23 19 24
REMARK SMILES IDX 71 25 20 26 70 27 21 28 22 29 23 30 64 31 24 32 69 33 63 34
REMARK SMILES IDX 65 35 25 36 68 37 62 38 61 39 26 41 52 42 35 43 51 44 36 45
REMARK SMILES IDX 39 46 50 47 66 48 37 49 38 50 49 52 67 53 40 54 27 55 28 56
REMARK SMILES IDX 33 57 29 58 30 59 32 60 34 61 31 62 53 63 54 64 59 65 55 66
REMARK SMILES IDX 56 67 58 68 60 69 57 70 41 71 42 72 47 73 43 74 44 75 46 76
REMARK SMILES IDX 48 77 45 78
REMARK H PARENT 8 7 65 40 39 51
REMARK Flexibility Score: inf
ROOT
ATOM      1  C   UNL     1       0.548   3.476   4.062  1.00  0.00     0.274 C 
ENDROOT
BRANCH   1   2
ATOM      2  O   UNL     1       0.375   2.441   3.076  1.00  0.00    -0.458 OA
BRANCH   2   3
ATOM      3  C   UNL     1      -0.638   1.560   3.259  1.00  0.00     0.361 C 
ATOM      4  O   UNL     1      -1.365   1.546   4.249  1.00  0.00    -0.245 OA
BRANCH   3   5
ATOM      5  C   UNL     1      -0.743   0.490   2.167  1.00  0.00     0.387 C 
BRANCH   5   6
ATOM      6  N   UNL     1      -0.182   0.859   0.851  1.00  0.00    -0.312 N 
ATOM      7  H   UNL     1      -0.210   1.859   0.653  1.00  0.00     0.349 HD
BRANCH   6   8
ATOM      8  C   UNL     1       1.291   0.658   0.760  1.00  0.00     0.272 C 
ATOM      9  C   UNL     1       1.820  -0.141  -0.428  1.00  0.00     0.086 C 
BRANCH   8  10
ATOM     10  C   UNL     1       2.103   1.982   0.889  1.00  0.00     0.280 C 
ATOM     11  O   UNL     1       1.695   3.045   0.416  1.00  0.00    -0.268 OA
ATOM     12  N   UNL     1       3.340   1.942   1.546  1.00  0.00    -0.344 N 
ATOM     13  C   UNL     1       4.054   0.750   1.980  1.00  0.00     0.146 C 
ATOM     14  C   UNL     1       4.062   3.193   1.725  1.00  0.00     0.146 C 
ENDBRANCH   8  10
ENDBRANCH   6   8
BRANCH   6  15
ATOM     15  C   UNL     1      -1.077   1.083  -0.311  1.00  0.00     0.090 C 
ATOM     16  C   UNL     1      -0.644   2.317  -1.128  1.00  0.00     0.078 C 
ATOM     17  C   UNL     1      -1.149  -0.131  -1.262  1.00  0.00     0.078 C 
ATOM     18  C   UNL     1      -2.549   1.360   0.092  1.00  0.00     0.078 C 
ENDBRANCH   6  15
ENDBRANCH   5   6
ENDBRANCH   3   5
ENDBRANCH   2   3
ENDBRANCH   1   2
BRANCH   1  19
ATOM     19  C   UNL     1      -0.076   4.784   3.589  1.00  0.00     0.275 C 
BRANCH  19  20
ATOM     20  O   UNL     1      -1.504   4.631   3.534  1.00  0.00    -0.458 OA
BRANCH  20  21
ATOM     21  C   UNL     1      -2.040   4.724   2.297  1.00  0.00     0.338 C 
ATOM     22  O   UNL     1      -1.481   5.011   1.256  1.00  0.00    -0.246 OA
BRANCH  21  23
ATOM     23  C   UNL     1      -3.486   4.482   2.356  1.00  0.00     0.060 A 
ATOM     24  C   UNL     1      -3.994   3.244   2.759  1.00  0.00     0.016 A 
ATOM     25  C   UNL     1      -4.331   5.471   1.852  1.00  0.00     0.016 A 
ATOM     26  C   UNL     1      -5.348   2.972   2.592  1.00  0.00     0.010 A 
ATOM     27  C   UNL     1      -5.697   5.225   1.759  1.00  0.00     0.010 A 
ATOM     28  C   UNL     1      -6.212   3.969   2.111  1.00  0.00    -0.014 A 
BRANCH  28  29
ATOM     29  C   UNL     1      -7.671   3.735   2.062  1.00  0.00     0.031 A 
ATOM     30  C   UNL     1      -8.402   3.677   0.755  1.00  0.00     0.074 A 
ATOM     31  C   UNL     1      -8.332   3.630   3.228  1.00  0.00     0.049 A 
ATOM     32  N   UNL     1      -9.691   3.635   0.537  1.00  0.00    -0.248 NA
ATOM     33  C   UNL     1      -7.583   3.673  -0.467  1.00  0.00     0.031 C 
ATOM     34  C   UNL     1      -7.709   3.668   4.554  1.00  0.00     0.029 A 
ATOM     35  N   UNL     1      -9.668   3.482   3.490  1.00  0.00    -0.354 N 
ATOM     36  C   UNL     1      -9.843   3.628  -0.844  1.00  0.00     0.074 A 
ATOM     37  C   UNL     1      -8.512   3.670  -1.414  1.00  0.00     0.031 C 
ATOM     38  C   UNL     1      -8.659   3.530   5.489  1.00  0.00     0.029 A 
ATOM     39  C   UNL     1      -9.958   3.461   4.831  1.00  0.00     0.049 A 
ATOM     40  H   UNL     1     -10.351   3.398   2.786  1.00  0.00     0.167 HD
ATOM     41  C   UNL     1     -10.992   3.598  -1.559  1.00  0.00     0.037 A 
ATOM     42  C   UNL     1     -11.143   3.430   5.464  1.00  0.00     0.037 A 
ATOM     43  C   UNL     1     -12.308   3.546  -0.973  1.00  0.00     0.049 A 
ATOM     44  C   UNL     1     -12.397   3.414   4.648  1.00  0.00     0.074 A 
ATOM     45  C   UNL     1     -13.537   3.503  -1.608  1.00  0.00     0.029 A 
ATOM     46  N   UNL     1     -12.562   3.529   0.391  1.00  0.00    -0.354 N 
ATOM     47  N   UNL     1     -12.530   3.431   3.344  1.00  0.00    -0.248 NA
ATOM     48  C   UNL     1     -13.665   3.390   5.387  1.00  0.00     0.031 C 
ATOM     49  C   UNL     1     -14.536   3.487  -0.627  1.00  0.00     0.029 A 
ATOM     50  C   UNL     1     -13.928   3.487   0.618  1.00  0.00     0.049 A 
ATOM     51  H   UNL     1     -11.873   3.543   1.094  1.00  0.00     0.167 HD
ATOM     52  C   UNL     1     -13.894   3.420   3.103  1.00  0.00     0.074 A 
ATOM     53  C   UNL     1     -14.547   3.372   4.397  1.00  0.00     0.031 C 
ATOM     54  C   UNL     1     -14.549   3.454   1.917  1.00  0.00     0.037 A 
BRANCH  41  55
ATOM     55  C   UNL     1     -10.883   3.649  -3.054  1.00  0.00     0.057 A 
ATOM     56  C   UNL     1     -10.495   2.534  -3.806  1.00  0.00     0.134 A 
ATOM     57  C   UNL     1     -11.219   4.816  -3.753  1.00  0.00     0.134 A 
ATOM     58  F   UNL     1     -10.151   1.389  -3.197  1.00  0.00    -0.206 F 
ATOM     59  C   UNL     1     -10.435   2.580  -5.201  1.00  0.00     0.040 A 
ATOM     60  C   UNL     1     -11.178   4.869  -5.148  1.00  0.00     0.040 A 
ATOM     61  F   UNL     1     -11.603   5.918  -3.093  1.00  0.00    -0.206 F 
ATOM     62  C   UNL     1     -10.783   3.749  -5.876  1.00  0.00     0.006 A 
ENDBRANCH  41  55
BRANCH  42  63
ATOM     63  C   UNL     1     -11.173   3.434   6.944  1.00  0.00     0.057 A 
ATOM     64  C   UNL     1     -11.491   2.276   7.660  1.00  0.00     0.134 A 
ATOM     65  C   UNL     1     -10.820   4.575   7.676  1.00  0.00     0.134 A 
ATOM     66  F   UNL     1     -11.848   1.158   7.011  1.00  0.00    -0.206 F 
ATOM     67  C   UNL     1     -11.454   2.250   9.055  1.00  0.00     0.040 A 
ATOM     68  C   UNL     1     -10.758   4.556   9.069  1.00  0.00     0.040 A 
ATOM     69  F   UNL     1     -10.494   5.711   7.043  1.00  0.00    -0.206 F 
ATOM     70  C   UNL     1     -11.076   3.390   9.762  1.00  0.00     0.006 A 
ENDBRANCH  42  63
BRANCH  54  71
ATOM     71  C   UNL     1     -16.044   3.434   1.983  1.00  0.00     0.057 A 
ATOM     72  C   UNL     1     -16.774   4.580   2.322  1.00  0.00     0.134 A 
ATOM     73  C   UNL     1     -16.757   2.264   1.703  1.00  0.00     0.134 A 
ATOM     74  F   UNL     1     -16.142   5.726   2.617  1.00  0.00    -0.206 F 
ATOM     75  C   UNL     1     -18.166   4.556   2.400  1.00  0.00     0.040 A 
ATOM     76  C   UNL     1     -18.150   2.231   1.762  1.00  0.00     0.040 A 
ATOM     77  F   UNL     1     -16.111   1.135   1.372  1.00  0.00    -0.206 F 
ATOM     78  C   UNL     1     -18.858   3.379   2.116  1.00  0.00     0.006 A 
ENDBRANCH  54  71
ENDBRANCH  28  29
ENDBRANCH  21  23
ENDBRANCH  20  21
ENDBRANCH  19  20
ENDBRANCH   1  19
TORSDOF 15
