REMARK SMILES CCOc1cc(C(=O)OCCOC(=O)c2ccc(-c3c4nc(c(-c5c(F)cccc5F)c5ccc([nH]5)c(-c5c(F)cccc5F)c5nc(c(-c6c(F)cccc6F)c6ccc3[nH]6)C=C5)C=C4)cc2)c(NC(=O)c2ccccc2OC)cc1OC
REMARK SMILES IDX 10 1 9 2 7 3 8 4 6 5 4 6 5 7 82 8 81 9 69 10 3 11 2 12 1 13
REMARK SMILES IDX 83 14 84 15 70 16 71 17 72 19 73 20 74 21 78 22 75 23 77 24
REMARK SMILES IDX 76 25 79 26 80 27 11 28 12 29 13 30 14 31 15 32 16 33 68 34
REMARK SMILES IDX 17 35 67 36 18 37 19 38 20 39 61 40 21 41 66 42 60 43 62 44
REMARK SMILES IDX 22 45 65 46 59 47 58 48 23 50 49 51 32 52 48 53 33 54 36 55
REMARK SMILES IDX 47 56 63 57 34 58 35 59 46 61 64 62 37 63 24 64 25 65 30 66
REMARK SMILES IDX 26 67 27 68 29 69 31 70 28 71 50 72 51 73 56 74 52 75 53 76
REMARK SMILES IDX 55 77 57 78 54 79 38 80 39 81 44 82 40 83 41 84 43 85 45 86
REMARK SMILES IDX 42 87
REMARK H PARENT 70 18 62 49 36 60
REMARK Flexibility Score: inf
ROOT
ATOM      1  C   UNL     1       5.948  -3.029   6.365  1.00  0.00     0.275 C 
ENDROOT
BRANCH   1   2
ATOM      2  O   UNL     1       5.239  -2.244   5.388  1.00  0.00    -0.458 OA
BRANCH   2   3
ATOM      3  C   UNL     1       4.663  -2.993   4.413  1.00  0.00     0.340 C 
ATOM      4  O   UNL     1       4.476  -4.180   4.460  1.00  0.00    -0.246 OA
BRANCH   3   5
ATOM      5  C   UNL     1       4.372  -2.195   3.215  1.00  0.00     0.087 A 
ATOM      6  C   UNL     1       2.779  -0.944   1.876  1.00  0.00     0.162 A 
ATOM      7  C   UNL     1       3.044  -1.900   2.861  1.00  0.00     0.068 A 
ATOM      8  C   UNL     1       3.832  -0.174   1.379  1.00  0.00     0.162 A 
ATOM      9  C   UNL     1       5.153  -0.566   1.666  1.00  0.00     0.077 A 
ATOM     10  C   UNL     1       5.431  -1.665   2.489  1.00  0.00     0.060 A 
BRANCH   6  11
ATOM     11  O   UNL     1       1.478  -0.707   1.522  1.00  0.00    -0.490 OA
BRANCH  11  12
ATOM     12  C   UNL     1       0.985  -1.635   0.539  1.00  0.00     0.226 C 
ATOM     13  C   UNL     1       0.208  -0.867  -0.524  1.00  0.00     0.049 C 
ENDBRANCH  11  12
ENDBRANCH   6  11
BRANCH   8  14
ATOM     14  O   UNL     1       3.757   0.943   0.592  1.00  0.00    -0.493 OA
ATOM     15  C   UNL     1       2.516   1.635   0.522  1.00  0.00     0.278 C 
ENDBRANCH   8  14
BRANCH  10  16
ATOM     16  N   UNL     1       6.760  -2.143   2.501  1.00  0.00    -0.321 N 
ATOM     17  C   UNL     1       7.317  -3.400   2.684  1.00  0.00     0.259 C 
ATOM     18  H   UNL     1       7.430  -1.438   2.347  1.00  0.00     0.170 HD
ATOM     19  O   UNL     1       8.545  -3.466   2.790  1.00  0.00    -0.269 OA
BRANCH  17  20
ATOM     20  C   UNL     1       6.566  -4.689   2.714  1.00  0.00     0.082 A 
ATOM     21  C   UNL     1       6.931  -5.569   3.759  1.00  0.00     0.018 A 
ATOM     22  C   UNL     1       5.523  -5.068   1.853  1.00  0.00     0.131 A 
ATOM     23  C   UNL     1       6.184  -6.720   4.036  1.00  0.00     0.001 A 
ATOM     24  C   UNL     1       4.783  -6.233   2.137  1.00  0.00     0.047 A 
ATOM     25  C   UNL     1       5.095  -7.041   3.235  1.00  0.00     0.004 A 
BRANCH  22  26
ATOM     26  O   UNL     1       5.049  -4.369   0.777  1.00  0.00    -0.496 OA
ATOM     27  C   UNL     1       6.040  -3.880  -0.119  1.00  0.00     0.278 C 
ENDBRANCH  22  26
ENDBRANCH  17  20
ENDBRANCH  10  16
ENDBRANCH   3   5
ENDBRANCH   2   3
ENDBRANCH   1   2
BRANCH   1  28
ATOM     28  C   UNL     1       5.114  -3.706   7.467  1.00  0.00     0.275 C 
BRANCH  28  29
ATOM     29  O   UNL     1       3.985  -4.463   6.999  1.00  0.00    -0.458 OA
BRANCH  29  30
ATOM     30  C   UNL     1       2.848  -3.738   6.896  1.00  0.00     0.338 C 
ATOM     31  O   UNL     1       2.694  -2.572   7.231  1.00  0.00    -0.246 OA
BRANCH  30  32
ATOM     32  C   UNL     1       1.737  -4.498   6.296  1.00  0.00     0.060 A 
ATOM     33  C   UNL     1       1.636  -4.620   4.910  1.00  0.00     0.016 A 
ATOM     34  C   UNL     1       0.638  -4.804   7.092  1.00  0.00     0.016 A 
ATOM     35  C   UNL     1       0.424  -4.895   4.302  1.00  0.00     0.010 A 
ATOM     36  C   UNL     1      -0.560  -5.189   6.485  1.00  0.00     0.010 A 
ATOM     37  C   UNL     1      -0.690  -5.179   5.084  1.00  0.00    -0.014 A 
BRANCH  37  38
ATOM     38  C   UNL     1      -2.011  -5.355   4.443  1.00  0.00     0.031 A 
ATOM     39  C   UNL     1      -3.129  -4.427   4.815  1.00  0.00     0.074 A 
ATOM     40  C   UNL     1      -2.205  -6.315   3.521  1.00  0.00     0.049 A 
ATOM     41  N   UNL     1      -4.413  -4.549   4.607  1.00  0.00    -0.248 NA
ATOM     42  C   UNL     1      -2.747  -3.203   5.539  1.00  0.00     0.031 C 
ATOM     43  C   UNL     1      -1.174  -7.199   2.974  1.00  0.00     0.029 A 
ATOM     44  N   UNL     1      -3.353  -6.710   2.886  1.00  0.00    -0.354 N 
ATOM     45  C   UNL     1      -4.999  -3.460   5.239  1.00  0.00     0.074 A 
ATOM     46  C   UNL     1      -3.931  -2.691   5.840  1.00  0.00     0.031 C 
ATOM     47  C   UNL     1      -1.733  -8.024   2.076  1.00  0.00     0.029 A 
ATOM     48  C   UNL     1      -3.172  -7.798   2.069  1.00  0.00     0.049 A 
ATOM     49  H   UNL     1      -4.220  -6.260   3.003  1.00  0.00     0.167 HD
ATOM     50  C   UNL     1      -6.314  -3.145   5.315  1.00  0.00     0.037 A 
ATOM     51  C   UNL     1      -4.075  -8.569   1.438  1.00  0.00     0.037 A 
ATOM     52  C   UNL     1      -7.353  -3.909   4.675  1.00  0.00     0.049 A 
ATOM     53  C   UNL     1      -5.534  -8.270   1.623  1.00  0.00     0.074 A 
ATOM     54  C   UNL     1      -8.718  -3.689   4.680  1.00  0.00     0.029 A 
ATOM     55  N   UNL     1      -7.134  -5.044   3.905  1.00  0.00    -0.354 N 
ATOM     56  N   UNL     1      -6.101  -7.290   2.286  1.00  0.00    -0.248 NA
ATOM     57  C   UNL     1      -6.479  -9.199   0.992  1.00  0.00     0.031 C 
ATOM     58  C   UNL     1      -9.329  -4.720   3.957  1.00  0.00     0.029 A 
ATOM     59  C   UNL     1      -8.340  -5.549   3.450  1.00  0.00     0.049 A 
ATOM     60  H   UNL     1      -6.250  -5.433   3.711  1.00  0.00     0.167 HD
ATOM     61  C   UNL     1      -7.468  -7.465   2.126  1.00  0.00     0.074 A 
ATOM     62  C   UNL     1      -7.642  -8.641   1.297  1.00  0.00     0.031 C 
ATOM     63  C   UNL     1      -8.489  -6.718   2.616  1.00  0.00     0.037 A 
BRANCH  50  64
ATOM     64  C   UNL     1      -6.689  -1.970   6.173  1.00  0.00     0.057 A 
ATOM     65  C   UNL     1      -6.355  -0.652   5.836  1.00  0.00     0.134 A 
ATOM     66  C   UNL     1      -7.377  -2.169   7.378  1.00  0.00     0.134 A 
ATOM     67  F   UNL     1      -5.681  -0.389   4.705  1.00  0.00    -0.206 F 
ATOM     68  C   UNL     1      -6.648   0.417   6.686  1.00  0.00     0.040 A 
ATOM     69  C   UNL     1      -7.707  -1.105   8.219  1.00  0.00     0.040 A 
ATOM     70  F   UNL     1      -7.735  -3.404   7.763  1.00  0.00    -0.206 F 
ATOM     71  C   UNL     1      -7.329   0.192   7.880  1.00  0.00     0.006 A 
ENDBRANCH  50  64
BRANCH  51  72
ATOM     72  C   UNL     1      -3.622  -9.714   0.611  1.00  0.00     0.057 A 
ATOM     73  C   UNL     1      -3.777  -9.693  -0.779  1.00  0.00     0.134 A 
ATOM     74  C   UNL     1      -3.010 -10.841   1.175  1.00  0.00     0.134 A 
ATOM     75  F   UNL     1      -4.372  -8.649  -1.375  1.00  0.00    -0.206 F 
ATOM     76  C   UNL     1      -3.349 -10.753  -1.578  1.00  0.00     0.040 A 
ATOM     77  C   UNL     1      -2.551 -11.896   0.386  1.00  0.00     0.040 A 
ATOM     78  F   UNL     1      -2.826 -10.920   2.502  1.00  0.00    -0.206 F 
ATOM     79  C   UNL     1      -2.726 -11.855  -0.995  1.00  0.00     0.006 A 
ENDBRANCH  51  72
BRANCH  63  80
ATOM     80  C   UNL     1      -9.878  -7.120   2.219  1.00  0.00     0.057 A 
ATOM     81  C   UNL     1     -10.494  -8.271   2.724  1.00  0.00     0.134 A 
ATOM     82  C   UNL     1     -10.620  -6.324   1.336  1.00  0.00     0.134 A 
ATOM     83  F   UNL     1      -9.832  -9.087   3.559  1.00  0.00    -0.206 F 
ATOM     84  C   UNL     1     -11.790  -8.629   2.347  1.00  0.00     0.040 A 
ATOM     85  C   UNL     1     -11.926  -6.654   0.976  1.00  0.00     0.040 A 
ATOM     86  F   UNL     1     -10.090  -5.204   0.820  1.00  0.00    -0.206 F 
ATOM     87  C   UNL     1     -12.512  -7.814   1.477  1.00  0.00     0.006 A 
ENDBRANCH  63  80
ENDBRANCH  37  38
ENDBRANCH  30  32
ENDBRANCH  29  30
ENDBRANCH  28  29
ENDBRANCH   1  28
TORSDOF 17
