REMARK SMILES Cc1nn(Cc2ccc(Cl)cc2Cl)c(C)c1NC(=O)c1c(C(=O)OCCOC(=O)c2ccc(-c3c4nc(c(-c5c(F)cccc5F)c5ccc([nH]5)c(-c5c(F)cccc5F)c5nc(c(-c6c(F)cccc6F)c6ccc3[nH]6)C=C5)C=C4)cc2)cnn1C
REMARK SMILES IDX 25 1 24 2 22 3 23 4 21 5 20 6 86 7 84 8 85 9 87 10 18 11
REMARK SMILES IDX 17 12 19 14 16 15 1 16 2 17 3 18 4 19 14 20 15 21 5 22 6 23
REMARK SMILES IDX 7 24 12 25 8 26 11 27 13 28 9 29 10 30 26 31 27 32 28 33
REMARK SMILES IDX 29 34 30 35 31 36 83 37 32 38 82 39 33 40 34 41 35 42 76 43
REMARK SMILES IDX 36 44 81 45 75 46 77 47 37 48 80 49 74 50 73 51 38 53 64 54
REMARK SMILES IDX 47 55 63 56 48 57 51 58 62 59 78 60 49 61 50 62 61 64 79 65
REMARK SMILES IDX 52 66 39 67 40 68 45 69 41 70 42 71 44 72 46 73 43 74 65 75
REMARK SMILES IDX 66 76 71 77 67 78 68 79 70 80 72 81 69 82 53 83 54 84 59 85
REMARK SMILES IDX 55 86 56 87 58 88 60 89 57 90
REMARK H PARENT 17 13 77 52 51 63
REMARK Flexibility Score: inf
ROOT
ATOM      1  C   UNL     1       2.923  -1.856   4.124  1.00  0.00     0.275 C 
ENDROOT
BRANCH   1   2
ATOM      2  O   UNL     1       1.488  -1.939   4.146  1.00  0.00    -0.458 OA
BRANCH   2   3
ATOM      3  C   UNL     1       0.963  -1.841   5.395  1.00  0.00     0.342 C 
ATOM      4  O   UNL     1       1.641  -1.688   6.406  1.00  0.00    -0.246 OA
BRANCH   3   5
ATOM      5  C   UNL     1      -0.469  -2.038   5.484  1.00  0.00     0.111 A 
ATOM      6  C   UNL     1      -1.536  -1.732   4.636  1.00  0.00     0.140 A 
ATOM      7  N   UNL     1      -2.646  -1.861   5.454  1.00  0.00    -0.262 N 
ATOM      8  C   UNL     1      -1.082  -2.591   6.634  1.00  0.00     0.151 A 
ATOM      9  N   UNL     1      -2.409  -2.560   6.579  1.00  0.00    -0.180 NA
ATOM     10  C   UNL     1      -3.987  -1.368   5.235  1.00  0.00     0.174 C 
BRANCH   6  11
ATOM     11  C   UNL     1      -1.628  -1.218   3.290  1.00  0.00     0.274 C 
ATOM     12  N   UNL     1      -1.016  -1.841   2.222  1.00  0.00    -0.317 N 
ATOM     13  H   UNL     1      -1.021  -1.314   1.391  1.00  0.00     0.170 HD
ATOM     14  O   UNL     1      -2.280  -0.203   3.032  1.00  0.00    -0.267 OA
BRANCH  12  15
ATOM     15  C   UNL     1      -0.400  -3.066   2.109  1.00  0.00     0.085 A 
ATOM     16  C   UNL     1       1.054  -2.790  -0.070  1.00  0.00     0.071 C 
ATOM     17  C   UNL     1       0.580  -3.451   1.156  1.00  0.00     0.083 A 
ATOM     18  N   UNL     1       1.123  -4.624   1.477  1.00  0.00    -0.175 NA
ATOM     19  N   UNL     1       0.214  -5.163   2.309  1.00  0.00    -0.263 N 
ATOM     20  C   UNL     1      -0.743  -4.258   2.716  1.00  0.00     0.060 A 
ATOM     21  C   UNL     1      -1.983  -4.655   3.425  1.00  0.00     0.069 C 
BRANCH  19  22
ATOM     22  C   UNL     1       0.190  -6.623   2.398  1.00  0.00     0.181 C 
BRANCH  22  23
ATOM     23  C   UNL     1      -0.588  -7.178   1.220  1.00  0.00    -0.008 A 
ATOM     24  C   UNL     1      -0.071  -6.999  -0.083  1.00  0.00     0.009 A 
ATOM     25  C   UNL     1      -1.861  -7.748   1.352  1.00  0.00     0.047 A 
ATOM     26  C   UNL     1      -0.839  -7.286  -1.210  1.00  0.00     0.021 A 
ATOM     27  C   UNL     1      -2.637  -8.022   0.222  1.00  0.00     0.041 A 
ATOM     28  Cl  UNL     1      -2.535  -8.147   2.892  1.00  0.00    -0.084 Cl
ATOM     29  C   UNL     1      -2.129  -7.773  -1.050  1.00  0.00     0.042 A 
ATOM     30  Cl  UNL     1      -3.107  -8.068  -2.434  1.00  0.00    -0.084 Cl
ENDBRANCH  22  23
ENDBRANCH  19  22
ENDBRANCH  12  15
ENDBRANCH   6  11
ENDBRANCH   3   5
ENDBRANCH   2   3
ENDBRANCH   1   2
BRANCH   1  31
ATOM     31  C   UNL     1       3.389  -1.420   2.744  1.00  0.00     0.275 C 
BRANCH  31  32
ATOM     32  O   UNL     1       3.275   0.000   2.512  1.00  0.00    -0.458 OA
BRANCH  32  33
ATOM     33  C   UNL     1       2.007   0.492   2.480  1.00  0.00     0.338 C 
ATOM     34  O   UNL     1       1.330   0.732   3.447  1.00  0.00    -0.246 OA
BRANCH  33  35
ATOM     35  C   UNL     1       1.532   0.632   1.075  1.00  0.00     0.060 A 
ATOM     36  C   UNL     1       0.161   0.796   0.876  1.00  0.00     0.016 A 
ATOM     37  C   UNL     1       2.379   0.461  -0.026  1.00  0.00     0.016 A 
ATOM     38  C   UNL     1      -0.382   0.580  -0.386  1.00  0.00     0.010 A 
ATOM     39  C   UNL     1       1.841   0.307  -1.303  1.00  0.00     0.010 A 
ATOM     40  C   UNL     1       0.453   0.291  -1.478  1.00  0.00    -0.014 A 
BRANCH  40  41
ATOM     41  C   UNL     1      -0.166   0.203  -2.815  1.00  0.00     0.031 A 
ATOM     42  C   UNL     1      -0.991   1.401  -3.163  1.00  0.00     0.074 A 
ATOM     43  C   UNL     1       0.112  -0.733  -3.750  1.00  0.00     0.049 A 
ATOM     44  N   UNL     1      -2.172   1.467  -3.692  1.00  0.00    -0.248 NA
ATOM     45  C   UNL     1      -0.432   2.707  -2.758  1.00  0.00     0.031 C 
ATOM     46  C   UNL     1       1.087  -1.822  -3.655  1.00  0.00     0.029 A 
ATOM     47  N   UNL     1      -0.322  -0.826  -5.048  1.00  0.00    -0.354 N 
ATOM     48  C   UNL     1      -2.426   2.829  -3.833  1.00  0.00     0.074 A 
ATOM     49  C   UNL     1      -1.408   3.537  -3.104  1.00  0.00     0.031 C 
ATOM     50  C   UNL     1       1.334  -2.310  -4.889  1.00  0.00     0.029 A 
ATOM     51  C   UNL     1       0.493  -1.619  -5.850  1.00  0.00     0.049 A 
ATOM     52  H   UNL     1      -1.132  -0.374  -5.380  1.00  0.00     0.167 HD
ATOM     53  C   UNL     1      -3.299   3.340  -4.737  1.00  0.00     0.037 A 
ATOM     54  C   UNL     1       0.558  -1.641  -7.205  1.00  0.00     0.037 A 
ATOM     55  C   UNL     1      -4.303   2.413  -5.154  1.00  0.00     0.049 A 
ATOM     56  C   UNL     1      -0.650  -0.981  -7.744  1.00  0.00     0.074 A 
ATOM     57  C   UNL     1      -5.317   1.725  -4.519  1.00  0.00     0.029 A 
ATOM     58  N   UNL     1      -4.184   1.849  -6.396  1.00  0.00    -0.354 N 
ATOM     59  N   UNL     1      -1.842  -1.501  -7.760  1.00  0.00    -0.248 NA
ATOM     60  C   UNL     1      -0.587   0.445  -8.032  1.00  0.00     0.031 C 
ATOM     61  C   UNL     1      -5.471   0.512  -5.248  1.00  0.00     0.029 A 
ATOM     62  C   UNL     1      -4.542   0.529  -6.287  1.00  0.00     0.049 A 
ATOM     63  H   UNL     1      -3.894   2.307  -7.218  1.00  0.00     0.167 HD
ATOM     64  C   UNL     1      -2.696  -0.418  -7.640  1.00  0.00     0.074 A 
ATOM     65  C   UNL     1      -1.885   0.745  -7.967  1.00  0.00     0.031 C 
ATOM     66  C   UNL     1      -3.897  -0.543  -7.009  1.00  0.00     0.037 A 
BRANCH  53  67
ATOM     67  C   UNL     1      -2.982   4.619  -5.452  1.00  0.00     0.057 A 
ATOM     68  C   UNL     1      -3.990   5.413  -6.006  1.00  0.00     0.134 A 
ATOM     69  C   UNL     1      -1.659   4.989  -5.782  1.00  0.00     0.134 A 
ATOM     70  F   UNL     1      -5.283   5.105  -5.824  1.00  0.00    -0.206 F 
ATOM     71  C   UNL     1      -3.697   6.525  -6.806  1.00  0.00     0.040 A 
ATOM     72  C   UNL     1      -1.352   6.126  -6.526  1.00  0.00     0.040 A 
ATOM     73  F   UNL     1      -0.611   4.217  -5.456  1.00  0.00    -0.206 F 
ATOM     74  C   UNL     1      -2.377   6.895  -7.052  1.00  0.00     0.006 A 
ENDBRANCH  53  67
BRANCH  54  75
ATOM     75  C   UNL     1       1.697  -1.988  -8.093  1.00  0.00     0.057 A 
ATOM     76  C   UNL     1       1.495  -2.252  -9.457  1.00  0.00     0.134 A 
ATOM     77  C   UNL     1       3.035  -1.825  -7.695  1.00  0.00     0.134 A 
ATOM     78  F   UNL     1       0.256  -2.386  -9.952  1.00  0.00    -0.206 F 
ATOM     79  C   UNL     1       2.554  -2.325 -10.372  1.00  0.00     0.040 A 
ATOM     80  C   UNL     1       4.104  -1.915  -8.594  1.00  0.00     0.040 A 
ATOM     81  F   UNL     1       3.353  -1.487  -6.438  1.00  0.00    -0.206 F 
ATOM     82  C   UNL     1       3.865  -2.149  -9.941  1.00  0.00     0.006 A 
ENDBRANCH  54  75
BRANCH  66  83
ATOM     83  C   UNL     1      -4.429  -1.933  -6.802  1.00  0.00     0.057 A 
ATOM     84  C   UNL     1      -3.788  -2.914  -6.029  1.00  0.00     0.134 A 
ATOM     85  C   UNL     1      -5.691  -2.255  -7.315  1.00  0.00     0.134 A 
ATOM     86  F   UNL     1      -2.624  -2.662  -5.412  1.00  0.00    -0.206 F 
ATOM     87  C   UNL     1      -4.353  -4.176  -5.829  1.00  0.00     0.040 A 
ATOM     88  C   UNL     1      -6.284  -3.498  -7.089  1.00  0.00     0.040 A 
ATOM     89  F   UNL     1      -6.388  -1.346  -8.017  1.00  0.00    -0.206 F 
ATOM     90  C   UNL     1      -5.608  -4.470  -6.356  1.00  0.00     0.006 A 
ENDBRANCH  66  83
ENDBRANCH  40  41
ENDBRANCH  33  35
ENDBRANCH  32  33
ENDBRANCH  31  32
ENDBRANCH   1  31
TORSDOF 15
