REMARK SMILES CC[NH2+][C@@]1(C(=O)OCCOC(=O)c2ccc(-c3c4nc(c(-c5c(F)cccc5F)c5ccc([nH]5)c(-c5c(F)cccc5F)c5nc(c(-c6c(F)cccc6F)c6ccc3[nH]6)C=C5)C=C4)cc2)CC[C@@H]([N@@H+](C)Cc2nccn2C)C1
REMARK SMILES IDX 8 1 7 2 5 3 6 4 4 5 67 6 79 7 68 8 69 9 3 10 2 13 1 14 70 15
REMARK SMILES IDX 71 16 72 18 73 19 74 20 77 21 75 22 76 23 78 24 9 25 10 26
REMARK SMILES IDX 11 27 12 28 13 29 14 30 66 31 15 32 65 33 16 34 17 35 18 36
REMARK SMILES IDX 59 37 19 38 64 39 58 40 60 41 20 42 63 43 57 44 56 45 21 47
REMARK SMILES IDX 47 48 30 49 46 50 31 51 34 52 45 53 61 54 32 55 33 56 44 58
REMARK SMILES IDX 62 59 35 60 22 61 23 62 28 63 24 64 25 65 27 66 29 67 26 68
REMARK SMILES IDX 48 69 49 70 54 71 50 72 51 73 53 74 55 75 52 76 36 77 37 78
REMARK SMILES IDX 42 79 38 80 39 81 41 82 43 83 40 84
REMARK H PARENT 3 11 3 12 70 17 60 46 34 57
REMARK Flexibility Score: inf
ROOT
ATOM      1  C   UNL     1      -2.792   4.077   1.461  1.00  0.00     0.274 C 
ENDROOT
BRANCH   1   2
ATOM      2  O   UNL     1      -1.804   4.243   0.437  1.00  0.00    -0.457 OA
BRANCH   2   3
ATOM      3  C   UNL     1      -0.531   4.278   0.891  1.00  0.00     0.368 C 
ATOM      4  O   UNL     1      -0.227   4.445   2.072  1.00  0.00    -0.245 OA
BRANCH   3   5
ATOM      5  C   UNL     1       0.526   4.076  -0.224  1.00  0.00     0.200 C 
ATOM      6  C   UNL     1       1.451   5.289  -0.120  1.00  0.00     0.087 C 
ATOM      7  C   UNL     1       0.034   4.200  -1.684  1.00  0.00     0.146 C 
ATOM      8  C   UNL     1       0.629   6.392  -0.790  1.00  0.00     0.072 C 
ATOM      9  C   UNL     1      -0.107   5.710  -1.960  1.00  0.00     0.191 C 
BRANCH   5  10
ATOM     10  N   UNL     1       1.208   2.759  -0.108  1.00  0.00    -0.332 N 
ATOM     11  H   UNL     1       0.648   2.072  -0.614  1.00  0.00     0.347 HD
ATOM     12  H   UNL     1       2.143   2.900  -0.492  1.00  0.00     0.347 HD
BRANCH  10  13
ATOM     13  C   UNL     1       1.412   2.258   1.247  1.00  0.00     0.257 C 
ATOM     14  C   UNL     1       2.028   0.875   1.190  1.00  0.00     0.071 C 
ENDBRANCH  10  13
ENDBRANCH   5  10
BRANCH   9  15
ATOM     15  N   UNL     1       0.208   6.125  -3.338  1.00  0.00    -0.328 N 
ATOM     16  C   UNL     1      -0.245   7.491  -3.608  1.00  0.00     0.333 C 
ATOM     17  H   UNL     1      -0.336   5.448  -3.873  1.00  0.00     0.348 HD
BRANCH  15  18
ATOM     18  C   UNL     1       1.565   5.887  -3.876  1.00  0.00     0.338 C 
BRANCH  18  19
ATOM     19  C   UNL     1       2.710   6.525  -3.137  1.00  0.00     0.164 A 
ATOM     20  N   UNL     1       2.821   7.818  -2.871  1.00  0.00    -0.236 NA
ATOM     21  N   UNL     1       3.781   5.847  -2.592  1.00  0.00    -0.333 N 
ATOM     22  C   UNL     1       3.867   7.944  -1.999  1.00  0.00     0.131 A 
ATOM     23  C   UNL     1       4.469   6.729  -1.796  1.00  0.00     0.107 A 
ATOM     24  C   UNL     1       4.117   4.447  -2.691  1.00  0.00     0.151 C 
ENDBRANCH  18  19
ENDBRANCH  15  18
ENDBRANCH   9  15
ENDBRANCH   3   5
ENDBRANCH   2   3
ENDBRANCH   1   2
BRANCH   1  25
ATOM     25  C   UNL     1      -3.601   2.816   1.172  1.00  0.00     0.275 C 
BRANCH  25  26
ATOM     26  O   UNL     1      -2.748   1.685   0.902  1.00  0.00    -0.458 OA
BRANCH  26  27
ATOM     27  C   UNL     1      -2.479   1.458  -0.411  1.00  0.00     0.338 C 
ATOM     28  O   UNL     1      -2.870   2.114  -1.365  1.00  0.00    -0.246 OA
BRANCH  27  29
ATOM     29  C   UNL     1      -1.599   0.278  -0.548  1.00  0.00     0.060 A 
ATOM     30  C   UNL     1      -0.561   0.295  -1.487  1.00  0.00     0.016 A 
ATOM     31  C   UNL     1      -1.830  -0.869   0.218  1.00  0.00     0.016 A 
ATOM     32  C   UNL     1       0.277  -0.817  -1.626  1.00  0.00     0.010 A 
ATOM     33  C   UNL     1      -1.009  -1.989   0.060  1.00  0.00     0.010 A 
ATOM     34  C   UNL     1       0.056  -1.968  -0.854  1.00  0.00    -0.014 A 
BRANCH  34  35
ATOM     35  C   UNL     1       0.868  -3.190  -1.072  1.00  0.00     0.031 A 
ATOM     36  C   UNL     1       0.471  -4.130  -2.168  1.00  0.00     0.074 A 
ATOM     37  C   UNL     1       1.928  -3.474  -0.292  1.00  0.00     0.049 A 
ATOM     38  N   UNL     1       1.020  -5.260  -2.526  1.00  0.00    -0.248 NA
ATOM     39  C   UNL     1      -0.717  -3.755  -2.951  1.00  0.00     0.031 C 
ATOM     40  C   UNL     1       2.390  -2.657   0.822  1.00  0.00     0.029 A 
ATOM     41  N   UNL     1       2.806  -4.531  -0.309  1.00  0.00    -0.354 N 
ATOM     42  C   UNL     1       0.250  -5.732  -3.579  1.00  0.00     0.074 A 
ATOM     43  C   UNL     1      -0.818  -4.777  -3.787  1.00  0.00     0.031 C 
ATOM     44  C   UNL     1       3.487  -3.212   1.361  1.00  0.00     0.029 A 
ATOM     45  C   UNL     1       3.767  -4.468   0.674  1.00  0.00     0.049 A 
ATOM     46  H   UNL     1       2.753  -5.264  -0.964  1.00  0.00     0.167 HD
ATOM     47  C   UNL     1       0.414  -6.865  -4.299  1.00  0.00     0.037 A 
ATOM     48  C   UNL     1       4.740  -5.339   1.006  1.00  0.00     0.037 A 
ATOM     49  C   UNL     1       1.442  -7.840  -4.049  1.00  0.00     0.049 A 
ATOM     50  C   UNL     1       4.857  -6.623   0.228  1.00  0.00     0.074 A 
ATOM     51  C   UNL     1       1.685  -9.027  -4.718  1.00  0.00     0.029 A 
ATOM     52  N   UNL     1       2.383  -7.754  -3.033  1.00  0.00    -0.354 N 
ATOM     53  N   UNL     1       4.154  -7.035  -0.800  1.00  0.00    -0.248 NA
ATOM     54  C   UNL     1       5.890  -7.573   0.666  1.00  0.00     0.031 C 
ATOM     55  C   UNL     1       2.735  -9.685  -4.071  1.00  0.00     0.029 A 
ATOM     56  C   UNL     1       3.190  -8.880  -3.039  1.00  0.00     0.049 A 
ATOM     57  H   UNL     1       2.464  -7.004  -2.400  1.00  0.00     0.167 HD
ATOM     58  C   UNL     1       4.673  -8.276  -1.145  1.00  0.00     0.074 A 
ATOM     59  C   UNL     1       5.765  -8.540  -0.230  1.00  0.00     0.031 C 
ATOM     60  C   UNL     1       4.279  -9.123  -2.126  1.00  0.00     0.037 A 
BRANCH  47  61
ATOM     61  C   UNL     1      -0.577  -7.123  -5.394  1.00  0.00     0.057 A 
ATOM     62  C   UNL     1      -0.594  -6.358  -6.568  1.00  0.00     0.134 A 
ATOM     63  C   UNL     1      -1.525  -8.145  -5.274  1.00  0.00     0.134 A 
ATOM     64  F   UNL     1       0.276  -5.350  -6.736  1.00  0.00    -0.206 F 
ATOM     65  C   UNL     1      -1.537  -6.584  -7.572  1.00  0.00     0.040 A 
ATOM     66  C   UNL     1      -2.456  -8.398  -6.282  1.00  0.00     0.040 A 
ATOM     67  F   UNL     1      -1.564  -8.913  -4.174  1.00  0.00    -0.206 F 
ATOM     68  C   UNL     1      -2.469  -7.611  -7.431  1.00  0.00     0.006 A 
ENDBRANCH  47  61
BRANCH  48  69
ATOM     69  C   UNL     1       5.660  -5.059   2.141  1.00  0.00     0.057 A 
ATOM     70  C   UNL     1       7.034  -4.874   1.935  1.00  0.00     0.134 A 
ATOM     71  C   UNL     1       5.202  -5.015   3.464  1.00  0.00     0.134 A 
ATOM     72  F   UNL     1       7.543  -4.928   0.695  1.00  0.00    -0.206 F 
ATOM     73  C   UNL     1       7.918  -4.684   3.000  1.00  0.00     0.040 A 
ATOM     74  C   UNL     1       6.070  -4.793   4.536  1.00  0.00     0.040 A 
ATOM     75  F   UNL     1       3.900  -5.184   3.737  1.00  0.00    -0.206 F 
ATOM     76  C   UNL     1       7.435  -4.639   4.306  1.00  0.00     0.006 A 
ENDBRANCH  48  69
BRANCH  60  77
ATOM     77  C   UNL     1       5.058 -10.396  -2.290  1.00  0.00     0.057 A 
ATOM     78  C   UNL     1       4.979 -11.443  -1.363  1.00  0.00     0.134 A 
ATOM     79  C   UNL     1       5.867 -10.591  -3.418  1.00  0.00     0.134 A 
ATOM     80  F   UNL     1       4.235 -11.315  -0.254  1.00  0.00    -0.206 F 
ATOM     81  C   UNL     1       5.694 -12.629  -1.540  1.00  0.00     0.040 A 
ATOM     82  C   UNL     1       6.561 -11.784  -3.622  1.00  0.00     0.040 A 
ATOM     83  F   UNL     1       5.981  -9.632  -4.349  1.00  0.00    -0.206 F 
ATOM     84  C   UNL     1       6.481 -12.805  -2.677  1.00  0.00     0.006 A 
ENDBRANCH  60  77
ENDBRANCH  34  35
ENDBRANCH  27  29
ENDBRANCH  26  27
ENDBRANCH  25  26
ENDBRANCH   1  25
TORSDOF 16
