REMARK SMILES O=C(/C=C/c1ccc(S(=O)(=O)Nc2ccc3c(c2)OCCO3)cc1)OCCOC(=O)c1ccc(-c2c3nc(c(-c4c(F)cccc4F)c4ccc([nH]4)c(-c4c(F)cccc4F)c4nc(c(-c5c(F)cccc5F)c5ccc2[nH]5)C=C4)C=C3)cc1
REMARK SMILES IDX 26 1 25 2 2 3 1 4 3 5 4 6 5 7 6 8 24 9 7 10 23 11 8 12 9 13
REMARK SMILES IDX 10 14 11 15 12 16 13 18 14 19 18 20 15 21 17 22 16 23 19 24
REMARK SMILES IDX 22 25 20 26 21 27 27 28 28 29 29 30 30 31 31 32 32 33 84 34
REMARK SMILES IDX 33 35 83 36 34 37 35 38 36 39 77 40 37 41 82 42 76 43 78 44
REMARK SMILES IDX 38 45 81 46 75 47 74 48 39 50 65 51 48 52 64 53 49 54 52 55
REMARK SMILES IDX 63 56 79 57 50 58 51 59 62 61 80 62 53 63 40 64 41 65 46 66
REMARK SMILES IDX 42 67 43 68 45 69 47 70 44 71 66 72 67 73 72 74 68 75 69 76
REMARK SMILES IDX 71 77 73 78 70 79 54 80 55 81 60 82 56 83 57 84 59 85 61 86
REMARK SMILES IDX 58 87
REMARK H PARENT 12 17 78 49 52 60
REMARK Flexibility Score: inf
ROOT
ATOM      1  C   UNL     1       4.215  -0.748  -1.118  1.00  0.00     0.275 C 
ENDROOT
BRANCH   1   2
ATOM      2  O   UNL     1       3.015  -0.949  -0.345  1.00  0.00    -0.459 OA
BRANCH   2   3
ATOM      3  C   UNL     1       2.755  -0.506   0.906  1.00  0.00     0.330 C 
ATOM      4  O   UNL     1       1.861  -1.013   1.580  1.00  0.00    -0.247 OA
BRANCH   3   5
ATOM      5  C   UNL     1       3.381   0.729   1.415  1.00  0.00     0.094 C 
ATOM      6  C   UNL     1       4.684   1.036   1.454  1.00  0.00     0.015 C 
BRANCH   6   7
ATOM      7  C   UNL     1       5.273   2.304   1.928  1.00  0.00    -0.025 A 
ATOM      8  C   UNL     1       6.660   2.462   1.800  1.00  0.00     0.009 A 
ATOM      9  C   UNL     1       4.540   3.346   2.514  1.00  0.00     0.009 A 
ATOM     10  C   UNL     1       7.311   3.569   2.349  1.00  0.00     0.023 A 
ATOM     11  C   UNL     1       5.180   4.490   3.010  1.00  0.00     0.023 A 
ATOM     12  C   UNL     1       6.572   4.559   3.001  1.00  0.00     0.087 A 
BRANCH  12  13
ATOM     13  S   UNL     1       7.451   5.811   3.919  1.00  0.00     0.261 S 
ATOM     14  O   UNL     1       8.746   5.248   4.255  1.00  0.00    -0.201 OA
ATOM     15  O   UNL     1       7.356   7.046   3.175  1.00  0.00    -0.201 OA
BRANCH  13  16
ATOM     16  N   UNL     1       6.689   6.041   5.446  1.00  0.00    -0.279 N 
ATOM     17  H   UNL     1       6.774   6.889   5.938  1.00  0.00     0.180 HD
BRANCH  16  18
ATOM     18  C   UNL     1       5.925   4.946   5.970  1.00  0.00     0.053 A 
ATOM     19  C   UNL     1       4.571   5.181   6.225  1.00  0.00     0.031 A 
ATOM     20  C   UNL     1       6.464   3.667   6.101  1.00  0.00     0.077 A 
ATOM     21  C   UNL     1       3.716   4.104   6.438  1.00  0.00     0.052 A 
ATOM     22  C   UNL     1       5.595   2.589   6.235  1.00  0.00     0.163 A 
ATOM     23  C   UNL     1       4.218   2.810   6.352  1.00  0.00     0.161 A 
ATOM     24  O   UNL     1       6.151   1.342   6.117  1.00  0.00    -0.486 OA
ATOM     25  O   UNL     1       3.304   1.789   6.291  1.00  0.00    -0.486 OA
ATOM     26  C   UNL     1       5.180   0.287   6.072  1.00  0.00     0.271 C 
ATOM     27  C   UNL     1       3.855   0.741   5.481  1.00  0.00     0.271 C 
ENDBRANCH  16  18
ENDBRANCH  13  16
ENDBRANCH  12  13
ENDBRANCH   6   7
ENDBRANCH   3   5
ENDBRANCH   2   3
ENDBRANCH   1   2
BRANCH   1  28
ATOM     28  C   UNL     1       4.190   0.462  -2.057  1.00  0.00     0.275 C 
BRANCH  28  29
ATOM     29  O   UNL     1       3.760   1.670  -1.411  1.00  0.00    -0.458 OA
BRANCH  29  30
ATOM     30  C   UNL     1       2.436   1.946  -1.562  1.00  0.00     0.338 C 
ATOM     31  O   UNL     1       1.643   1.322  -2.235  1.00  0.00    -0.246 OA
BRANCH  30  32
ATOM     32  C   UNL     1       2.029   3.050  -0.658  1.00  0.00     0.060 A 
ATOM     33  C   UNL     1       0.766   2.954  -0.064  1.00  0.00     0.016 A 
ATOM     34  C   UNL     1       2.842   4.155  -0.389  1.00  0.00     0.016 A 
ATOM     35  C   UNL     1       0.301   3.970   0.774  1.00  0.00     0.010 A 
ATOM     36  C   UNL     1       2.376   5.172   0.460  1.00  0.00     0.010 A 
ATOM     37  C   UNL     1       1.093   5.098   1.031  1.00  0.00    -0.014 A 
BRANCH  37  38
ATOM     38  C   UNL     1       0.519   6.225   1.816  1.00  0.00     0.031 A 
ATOM     39  C   UNL     1       0.072   7.477   1.109  1.00  0.00     0.074 A 
ATOM     40  C   UNL     1       0.315   6.116   3.143  1.00  0.00     0.049 A 
ATOM     41  N   UNL     1      -0.539   8.530   1.596  1.00  0.00    -0.248 NA
ATOM     42  C   UNL     1       0.332   7.549  -0.337  1.00  0.00     0.031 C 
ATOM     43  C   UNL     1       0.657   4.956   3.965  1.00  0.00     0.029 A 
ATOM     44  N   UNL     1      -0.249   7.001   4.032  1.00  0.00    -0.354 N 
ATOM     45  C   UNL     1      -0.768   9.369   0.514  1.00  0.00     0.074 A 
ATOM     46  C   UNL     1      -0.170   8.736  -0.643  1.00  0.00     0.031 C 
ATOM     47  C   UNL     1       0.297   5.203   5.236  1.00  0.00     0.029 A 
ATOM     48  C   UNL     1      -0.270   6.546   5.327  1.00  0.00     0.049 A 
ATOM     49  H   UNL     1      -0.604   7.879   3.764  1.00  0.00     0.167 HD
ATOM     50  C   UNL     1      -1.444  10.542   0.472  1.00  0.00     0.037 A 
ATOM     51  C   UNL     1      -0.689   7.139   6.461  1.00  0.00     0.037 A 
ATOM     52  C   UNL     1      -2.036  11.195   1.610  1.00  0.00     0.049 A 
ATOM     53  C   UNL     1      -1.345   8.491   6.407  1.00  0.00     0.074 A 
ATOM     54  C   UNL     1      -2.754  12.380   1.646  1.00  0.00     0.029 A 
ATOM     55  N   UNL     1      -1.974  10.729   2.912  1.00  0.00    -0.354 N 
ATOM     56  N   UNL     1      -1.594   9.248   5.369  1.00  0.00    -0.248 NA
ATOM     57  C   UNL     1      -1.806   9.056   7.686  1.00  0.00     0.031 C 
ATOM     58  C   UNL     1      -3.090  12.651   2.977  1.00  0.00     0.029 A 
ATOM     59  C   UNL     1      -2.620  11.613   3.763  1.00  0.00     0.049 A 
ATOM     60  H   UNL     1      -1.535   9.893   3.193  1.00  0.00     0.167 HD
ATOM     61  C   UNL     1      -2.268  10.360   5.862  1.00  0.00     0.074 A 
ATOM     62  C   UNL     1      -2.398  10.173   7.291  1.00  0.00     0.031 C 
ATOM     63  C   UNL     1      -2.744  11.433   5.185  1.00  0.00     0.037 A 
BRANCH  50  64
ATOM     64  C   UNL     1      -1.596  11.196  -0.869  1.00  0.00     0.057 A 
ATOM     65  C   UNL     1      -2.478  10.687  -1.832  1.00  0.00     0.134 A 
ATOM     66  C   UNL     1      -0.899  12.368  -1.181  1.00  0.00     0.134 A 
ATOM     67  F   UNL     1      -3.165   9.559  -1.595  1.00  0.00    -0.206 F 
ATOM     68  C   UNL     1      -2.650  11.314  -3.066  1.00  0.00     0.040 A 
ATOM     69  C   UNL     1      -1.080  13.017  -2.404  1.00  0.00     0.040 A 
ATOM     70  F   UNL     1      -0.044  12.908  -0.300  1.00  0.00    -0.206 F 
ATOM     71  C   UNL     1      -1.955  12.488  -3.351  1.00  0.00     0.006 A 
ENDBRANCH  50  64
BRANCH  51  72
ATOM     72  C   UNL     1      -0.482   6.470   7.769  1.00  0.00     0.057 A 
ATOM     73  C   UNL     1      -1.551   5.944   8.502  1.00  0.00     0.134 A 
ATOM     74  C   UNL     1       0.794   6.403   8.342  1.00  0.00     0.134 A 
ATOM     75  F   UNL     1      -2.799   6.006   8.016  1.00  0.00    -0.206 F 
ATOM     76  C   UNL     1      -1.362   5.397   9.773  1.00  0.00     0.040 A 
ATOM     77  C   UNL     1       1.000   5.841   9.601  1.00  0.00     0.040 A 
ATOM     78  F   UNL     1       1.857   6.892   7.685  1.00  0.00    -0.206 F 
ATOM     79  C   UNL     1      -0.083   5.344  10.325  1.00  0.00     0.006 A 
ENDBRANCH  51  72
BRANCH  63  80
ATOM     80  C   UNL     1      -3.476  12.476   5.979  1.00  0.00     0.057 A 
ATOM     81  C   UNL     1      -2.811  13.337   6.862  1.00  0.00     0.134 A 
ATOM     82  C   UNL     1      -4.863  12.628   5.854  1.00  0.00     0.134 A 
ATOM     83  F   UNL     1      -1.485  13.235   7.041  1.00  0.00    -0.206 F 
ATOM     84  C   UNL     1      -3.502  14.288   7.615  1.00  0.00     0.040 A 
ATOM     85  C   UNL     1      -5.562  13.592   6.581  1.00  0.00     0.040 A 
ATOM     86  F   UNL     1      -5.562  11.842   5.020  1.00  0.00    -0.206 F 
ATOM     87  C   UNL     1      -4.882  14.420   7.472  1.00  0.00     0.006 A 
ENDBRANCH  63  80
ENDBRANCH  37  38
ENDBRANCH  30  32
ENDBRANCH  29  30
ENDBRANCH  28  29
ENDBRANCH   1  28
TORSDOF 15
