REMARK SMILES O=C(N[C@@H](Cc1c[nH]c2ccccc12)C(=O)N[C@@H](CS)C(=O)N[C@@H](CO)C(=O)OCCOC(=O)c1ccc(-c2c3nc(c(-c4c(F)cccc4F)c4ccc([nH]4)c(-c4c(F)cccc4F)c4nc(c(-c5c(F)cccc5F)c5ccc2[nH]5)C=C4)C=C3)cc1)c1ccc(F)cc1
REMARK SMILES IDX 27 1 28 2 24 3 23 4 21 5 22 6 18 8 17 9 15 10 16 11 4 13
REMARK SMILES IDX 3 14 1 15 2 16 89 18 90 19 95 20 91 21 94 22 92 23 93 24
REMARK SMILES IDX 5 25 6 26 7 27 14 28 8 29 9 30 13 31 10 33 12 34 11 35 19 36
REMARK SMILES IDX 20 37 25 39 26 40 29 42 30 43 31 44 32 45 33 46 34 47 35 48
REMARK SMILES IDX 36 49 88 50 37 51 87 52 38 53 39 54 40 55 81 56 41 57 86 58
REMARK SMILES IDX 80 59 82 60 42 61 85 62 79 63 78 64 43 66 69 67 52 68 68 69
REMARK SMILES IDX 53 70 56 71 67 72 83 73 54 74 55 75 66 77 84 78 57 79 44 80
REMARK SMILES IDX 45 81 50 82 46 83 47 84 49 85 51 86 48 87 70 88 71 89 76 90
REMARK SMILES IDX 72 91 73 92 75 93 77 94 74 95 58 96 59 97 64 98 60 99 61 100
REMARK SMILES IDX 63 101 65 102 62 103
REMARK H PARENT 23 7 17 12 3 17 8 32 20 38 26 41 82 65 56 76
REMARK Flexibility Score: inf
ROOT
ATOM      1  C   UNL     1       5.406  -2.525  -8.299  1.00  0.00     0.331 C 
ATOM      2  O   UNL     1       5.315  -1.697  -9.202  1.00  0.00    -0.250 OA
ENDROOT
BRANCH   1   3
ATOM      3  C   UNL     1       6.261  -2.251  -7.007  1.00  0.00     0.218 C 
BRANCH   3   4
ATOM      4  N   UNL     1       6.442  -3.295  -5.965  1.00  0.00    -0.339 N 
ATOM      5  C   UNL     1       6.058  -3.533  -4.680  1.00  0.00     0.244 C 
ATOM      6  O   UNL     1       6.808  -4.373  -4.136  1.00  0.00    -0.273 OA
ATOM      7  H   UNL     1       7.003  -4.031  -6.302  1.00  0.00     0.164 HD
BRANCH   5   8
ATOM      8  C   UNL     1       4.784  -2.838  -3.664  1.00  0.00     0.181 C 
BRANCH   8   9
ATOM      9  N   UNL     1       5.788  -1.692  -2.775  1.00  0.00    -0.342 N 
ATOM     10  C   UNL     1       5.788  -0.984  -1.568  1.00  0.00     0.243 C 
ATOM     11  O   UNL     1       6.601  -0.043  -1.532  1.00  0.00    -0.273 OA
ATOM     12  H   UNL     1       6.603  -1.485  -3.289  1.00  0.00     0.164 HD
BRANCH  10  13
ATOM     13  C   UNL     1       4.775  -1.132  -0.282  1.00  0.00     0.176 C 
BRANCH  13  14
ATOM     14  N   UNL     1       3.397  -0.524  -0.296  1.00  0.00    -0.340 N 
ATOM     15  O   UNL     1       1.512   0.535   0.250  1.00  0.00    -0.269 OA
ATOM     16  C   UNL     1       2.721   0.412   0.414  1.00  0.00     0.251 C 
ATOM     17  H   UNL     1       2.839  -0.907  -1.011  1.00  0.00     0.164 HD
BRANCH  16  18
ATOM     18  C   UNL     1       3.406   1.189   1.435  1.00  0.00     0.040 A 
ATOM     19  C   UNL     1       4.546   1.924   1.117  1.00  0.00     0.017 A 
ATOM     20  C   UNL     1       2.886   1.155   2.733  1.00  0.00     0.017 A 
ATOM     21  C   UNL     1       5.226   2.574   2.140  1.00  0.00     0.040 A 
ATOM     22  C   UNL     1       3.575   1.802   3.751  1.00  0.00     0.040 A 
ATOM     23  C   UNL     1       4.747   2.490   3.447  1.00  0.00     0.123 A 
ATOM     24  F   UNL     1       5.434   3.078   4.434  1.00  0.00    -0.207 F 
ENDBRANCH  16  18
ENDBRANCH  13  14
BRANCH  13  25
ATOM     25  C   UNL     1       4.623  -2.583   0.174  1.00  0.00     0.072 C 
BRANCH  25  26
ATOM     26  C   UNL     1       3.784  -3.357  -0.784  1.00  0.00    -0.020 A 
ATOM     27  C   UNL     1       3.533  -4.724  -0.736  1.00  0.00     0.087 A 
ATOM     28  C   UNL     1       3.419  -2.858  -2.066  1.00  0.00     0.003 A 
ATOM     29  N   UNL     1       3.204  -5.281  -1.964  1.00  0.00    -0.361 N 
ATOM     30  C   UNL     1       3.369  -4.357  -2.961  1.00  0.00     0.046 A 
ATOM     31  C   UNL     1       3.597  -1.278  -2.982  1.00  0.00     0.010 A 
ATOM     32  H   UNL     1       2.895  -6.207  -2.099  1.00  0.00     0.166 HD
ATOM     33  C   UNL     1       3.644  -4.372  -4.705  1.00  0.00     0.026 A 
ATOM     34  C   UNL     1       3.966  -1.290  -4.735  1.00  0.00     0.001 A 
ATOM     35  C   UNL     1       3.853  -2.826  -5.575  1.00  0.00     0.002 A 
ENDBRANCH  25  26
ENDBRANCH  13  25
ENDBRANCH  10  13
ENDBRANCH   8   9
BRANCH   8  36
ATOM     36  C   UNL     1       2.612  -2.683  -3.981  1.00  0.00     0.101 C 
BRANCH  36  37
ATOM     37  S   UNL     1       1.400  -1.138  -4.719  1.00  0.00    -0.177 SA
ATOM     38  H   UNL     1       1.262  -0.176  -3.768  1.00  0.00     0.102 HD
ENDBRANCH  36  37
ENDBRANCH   8  36
ENDBRANCH   5   8
ENDBRANCH   3   4
BRANCH   3  39
ATOM     39  C   UNL     1       7.652  -1.776  -7.457  1.00  0.00     0.193 C 
BRANCH  39  40
ATOM     40  O   UNL     1       8.438  -2.883  -7.902  1.00  0.00    -0.394 OA
ATOM     41  H   UNL     1       8.547  -3.515  -7.175  1.00  0.00     0.210 HD
ENDBRANCH  39  40
ENDBRANCH   3  39
ENDBRANCH   1   3
BRANCH   1  42
ATOM     42  O   UNL     1       4.649  -3.670  -8.261  1.00  0.00    -0.460 OA
BRANCH  42  43
ATOM     43  C   UNL     1       3.619  -3.820  -9.288  1.00  0.00     0.274 C 
BRANCH  43  44
ATOM     44  C   UNL     1       2.237  -4.258  -8.723  1.00  0.00     0.275 C 
BRANCH  44  45
ATOM     45  O   UNL     1       1.414  -3.160  -8.220  1.00  0.00    -0.458 OA
BRANCH  45  46
ATOM     46  C   UNL     1       0.238  -3.571  -7.629  1.00  0.00     0.338 C 
ATOM     47  O   UNL     1      -0.072  -4.744  -7.466  1.00  0.00    -0.246 OA
BRANCH  46  48
ATOM     48  C   UNL     1      -0.584  -2.448  -7.053  1.00  0.00     0.060 A 
ATOM     49  C   UNL     1      -0.508  -1.130  -7.490  1.00  0.00     0.016 A 
ATOM     50  C   UNL     1      -1.402  -2.696  -5.942  1.00  0.00     0.016 A 
ATOM     51  C   UNL     1      -1.009  -0.081  -6.671  1.00  0.00     0.010 A 
ATOM     52  C   UNL     1      -1.877  -1.631  -5.131  1.00  0.00     0.010 A 
ATOM     53  C   UNL     1      -1.484  -0.299  -5.355  1.00  0.00    -0.014 A 
BRANCH  53  54
ATOM     54  C   UNL     1      -1.403   0.767  -4.215  1.00  0.00     0.031 A 
ATOM     55  C   UNL     1      -1.743   0.459  -2.744  1.00  0.00     0.074 A 
ATOM     56  C   UNL     1      -0.777   1.974  -4.307  1.00  0.00     0.049 A 
ATOM     57  N   UNL     1      -2.229   1.247  -1.805  1.00  0.00    -0.248 NA
ATOM     58  C   UNL     1      -1.442  -0.892  -2.247  1.00  0.00     0.031 C 
ATOM     59  C   UNL     1       0.103   2.445  -5.376  1.00  0.00     0.029 A 
ATOM     60  N   UNL     1      -0.813   3.067  -3.447  1.00  0.00    -0.354 N 
ATOM     61  C   UNL     1      -2.424   0.446  -0.674  1.00  0.00     0.074 A 
ATOM     62  C   UNL     1      -1.976  -0.882  -1.033  1.00  0.00     0.031 C 
ATOM     63  C   UNL     1       0.365   3.749  -5.211  1.00  0.00     0.029 A 
ATOM     64  C   UNL     1      -0.322   4.221  -4.017  1.00  0.00     0.049 A 
ATOM     65  H   UNL     1      -1.154   3.019  -2.525  1.00  0.00     0.167 HD
ATOM     66  C   UNL     1      -2.924   0.777   0.547  1.00  0.00     0.037 A 
ATOM     67  C   UNL     1      -0.450   5.525  -3.691  1.00  0.00     0.037 A 
ATOM     68  C   UNL     1      -3.148   2.131   1.005  1.00  0.00     0.049 A 
ATOM     69  C   UNL     1      -1.159   5.936  -2.437  1.00  0.00     0.074 A 
ATOM     70  C   UNL     1      -3.685   2.567   2.208  1.00  0.00     0.029 A 
ATOM     71  N   UNL     1      -2.773   3.269   0.312  1.00  0.00    -0.354 N 
ATOM     72  N   UNL     1      -1.682   5.182  -1.504  1.00  0.00    -0.248 NA
ATOM     73  C   UNL     1      -1.296   7.379  -2.188  1.00  0.00     0.031 C 
ATOM     74  C   UNL     1      -3.699   3.968   2.209  1.00  0.00     0.029 A 
ATOM     75  C   UNL     1      -3.109   4.406   1.037  1.00  0.00     0.049 A 
ATOM     76  H   UNL     1      -2.332   3.273  -0.568  1.00  0.00     0.167 HD
ATOM     77  C   UNL     1      -2.197   6.053  -0.553  1.00  0.00     0.074 A 
ATOM     78  C   UNL     1      -1.905   7.394  -1.011  1.00  0.00     0.031 C 
ATOM     79  C   UNL     1      -2.852   5.753   0.595  1.00  0.00     0.037 A 
BRANCH  66  80
ATOM     80  C   UNL     1      -3.399  -0.343   1.445  1.00  0.00     0.057 A 
ATOM     81  C   UNL     1      -2.560  -1.230   2.128  1.00  0.00     0.134 A 
ATOM     82  C   UNL     1      -4.783  -0.499   1.647  1.00  0.00     0.134 A 
ATOM     83  F   UNL     1      -1.228  -1.147   2.002  1.00  0.00    -0.206 F 
ATOM     84  C   UNL     1      -3.075  -2.253   2.934  1.00  0.00     0.040 A 
ATOM     85  C   UNL     1      -5.307  -1.491   2.479  1.00  0.00     0.040 A 
ATOM     86  F   UNL     1      -5.655   0.329   1.052  1.00  0.00    -0.206 F 
ATOM     87  C   UNL     1      -4.452  -2.384   3.114  1.00  0.00     0.006 A 
ENDBRANCH  66  80
BRANCH  67  88
ATOM     88  C   UNL     1       0.007   6.552  -4.668  1.00  0.00     0.057 A 
ATOM     89  C   UNL     1       1.096   7.392  -4.423  1.00  0.00     0.134 A 
ATOM     90  C   UNL     1      -0.646   6.688  -5.904  1.00  0.00     0.134 A 
ATOM     91  F   UNL     1       1.735   7.347  -3.245  1.00  0.00    -0.206 F 
ATOM     92  C   UNL     1       1.535   8.313  -5.379  1.00  0.00     0.040 A 
ATOM     93  C   UNL     1      -0.201   7.580  -6.877  1.00  0.00     0.040 A 
ATOM     94  F   UNL     1      -1.714   5.928  -6.192  1.00  0.00    -0.206 F 
ATOM     95  C   UNL     1       0.897   8.396  -6.616  1.00  0.00     0.006 A 
ENDBRANCH  67  88
BRANCH  79  96
ATOM     96  C   UNL     1      -3.281   6.908   1.456  1.00  0.00     0.057 A 
ATOM     97  C   UNL     1      -4.290   7.796   1.057  1.00  0.00     0.134 A 
ATOM     98  C   UNL     1      -2.650   7.164   2.681  1.00  0.00     0.134 A 
ATOM     99  F   UNL     1      -4.927   7.620  -0.111  1.00  0.00    -0.206 F 
ATOM    100  C   UNL     1      -4.620   8.921   1.817  1.00  0.00     0.040 A 
ATOM    101  C   UNL     1      -2.992   8.269   3.464  1.00  0.00     0.040 A 
ATOM    102  F   UNL     1      -1.682   6.353   3.134  1.00  0.00    -0.206 F 
ATOM    103  C   UNL     1      -3.969   9.160   3.025  1.00  0.00     0.006 A 
ENDBRANCH  79  96
ENDBRANCH  53  54
ENDBRANCH  46  48
ENDBRANCH  45  46
ENDBRANCH  44  45
ENDBRANCH  43  44
ENDBRANCH  42  43
ENDBRANCH   1  42
TORSDOF 23
