REMARK SMILES Cc1ccc(S(=O)(=O)n2cc(C(=O)C(=O)NCC(=O)OCCOC(=O)c3ccc(-c4c5nc(c(-c6c(F)cccc6F)c6ccc([nH]6)c(-c6c(F)cccc6F)c6nc(c(-c7c(F)cccc7F)c7ccc4[nH]7)C=C6)C=C5)cc3)c3ccccc32)cc1
REMARK SMILES IDX 20 1 18 2 19 3 17 4 16 5 14 6 15 7 12 9 13 10 11 11 9 12
REMARK SMILES IDX 10 13 85 14 80 15 84 16 81 17 83 18 82 19 6 20 7 21 8 22
REMARK SMILES IDX 5 23 1 24 2 25 3 26 87 27 4 28 86 29 21 30 22 31 23 32 24 33
REMARK SMILES IDX 25 34 26 35 27 36 79 37 28 38 78 39 29 40 30 41 31 42 72 43
REMARK SMILES IDX 32 44 77 45 71 46 73 47 33 48 76 49 70 50 69 51 34 53 60 54
REMARK SMILES IDX 43 55 59 56 44 57 47 58 58 59 74 60 45 61 46 62 57 64 75 65
REMARK SMILES IDX 48 66 35 67 36 68 41 69 37 70 38 71 40 72 42 73 39 74 61 75
REMARK SMILES IDX 62 76 67 77 63 78 64 79 66 80 68 81 65 82 49 83 50 84 55 85
REMARK SMILES IDX 51 86 52 87 54 88 56 89 53 90
REMARK H PARENT 16 8 73 52 47 63
REMARK Flexibility Score: inf
ROOT
ATOM      1  O   UNL     1     -10.292   3.911   2.659  1.00  0.00    -0.461 OA
ENDROOT
BRANCH   1   2
ATOM      2  C   UNL     1      -9.539   4.125   1.545  1.00  0.00     0.325 C 
ATOM      3  O   UNL     1      -9.992   4.277   0.416  1.00  0.00    -0.250 OA
BRANCH   2   4
ATOM      4  C   UNL     1      -8.098   4.430   1.895  1.00  0.00     0.239 C 
BRANCH   4   5
ATOM      5  N   UNL     1      -7.449   3.640   2.915  1.00  0.00    -0.338 N 
ATOM      6  C   UNL     1      -6.078   3.492   2.973  1.00  0.00     0.292 C 
ATOM      7  O   UNL     1      -5.512   2.873   3.860  1.00  0.00    -0.265 OA
ATOM      8  H   UNL     1      -8.005   3.192   3.593  1.00  0.00     0.164 HD
BRANCH   6   9
ATOM      9  C   UNL     1      -5.276   4.108   1.809  1.00  0.00     0.252 C 
ATOM     10  O   UNL     1      -5.190   5.332   1.759  1.00  0.00    -0.283 OA
BRANCH   9  11
ATOM     11  C   UNL     1      -4.779   3.227   0.757  1.00  0.00     0.054 A 
ATOM     12  N   UNL     1      -4.088   1.379  -0.270  1.00  0.00    -0.240 N 
ATOM     13  C   UNL     1      -4.668   1.856   0.873  1.00  0.00     0.117 A 
ATOM     14  C   UNL     1      -3.866   2.392  -1.179  1.00  0.00     0.065 A 
ATOM     15  C   UNL     1      -4.313   3.571  -0.559  1.00  0.00     0.012 A 
ATOM     16  C   UNL     1      -3.271   2.403  -2.455  1.00  0.00     0.028 A 
ATOM     17  C   UNL     1      -4.207   4.785  -1.273  1.00  0.00     0.011 A 
ATOM     18  C   UNL     1      -3.151   3.625  -3.119  1.00  0.00     0.002 A 
ATOM     19  C   UNL     1      -3.625   4.799  -2.546  1.00  0.00     0.001 A 
BRANCH  12  20
ATOM     20  S   UNL     1      -3.469  -0.203  -0.382  1.00  0.00     0.268 S 
ATOM     21  O   UNL     1      -3.704  -0.617  -1.756  1.00  0.00    -0.201 OA
ATOM     22  O   UNL     1      -4.033  -0.922   0.740  1.00  0.00    -0.201 OA
BRANCH  20  23
ATOM     23  C   UNL     1      -1.718  -0.091  -0.132  1.00  0.00     0.088 A 
ATOM     24  C   UNL     1       2.574  -0.042   0.055  1.00  0.00     0.044 C 
ATOM     25  C   UNL     1       1.075  -0.056   0.035  1.00  0.00    -0.051 A 
ATOM     26  C   UNL     1       0.388  -1.272  -0.060  1.00  0.00     0.005 A 
ATOM     27  C   UNL     1       0.348   1.138   0.098  1.00  0.00     0.005 A 
ATOM     28  C   UNL     1      -1.004  -1.292  -0.148  1.00  0.00     0.022 A 
ATOM     29  C   UNL     1      -1.046   1.123   0.028  1.00  0.00     0.022 A 
ENDBRANCH  20  23
ENDBRANCH  12  20
ENDBRANCH   9  11
ENDBRANCH   6   9
ENDBRANCH   4   5
ENDBRANCH   2   4
ENDBRANCH   1   2
BRANCH   1  30
ATOM     30  C   UNL     1     -11.682   4.162   2.441  1.00  0.00     0.274 C 
BRANCH  30  31
ATOM     31  C   UNL     1     -12.388   4.573   3.740  1.00  0.00     0.275 C 
BRANCH  31  32
ATOM     32  O   UNL     1     -11.591   5.128   4.844  1.00  0.00    -0.458 OA
BRANCH  32  33
ATOM     33  C   UNL     1     -10.606   6.059   4.946  1.00  0.00     0.338 C 
ATOM     34  O   UNL     1      -9.951   6.184   5.974  1.00  0.00    -0.246 OA
BRANCH  33  35
ATOM     35  C   UNL     1     -10.269   6.895   3.784  1.00  0.00     0.060 A 
ATOM     36  C   UNL     1      -8.965   7.396   3.584  1.00  0.00     0.016 A 
ATOM     37  C   UNL     1     -11.241   7.102   2.833  1.00  0.00     0.016 A 
ATOM     38  C   UNL     1      -8.625   7.983   2.360  1.00  0.00     0.010 A 
ATOM     39  C   UNL     1     -10.843   7.398   1.565  1.00  0.00     0.010 A 
ATOM     40  C   UNL     1      -9.569   7.932   1.341  1.00  0.00    -0.014 A 
BRANCH  40  41
ATOM     41  C   UNL     1      -9.514   8.631   0.067  1.00  0.00     0.031 A 
ATOM     42  C   UNL     1      -8.752   8.123  -1.080  1.00  0.00     0.074 A 
ATOM     43  C   UNL     1     -10.467   9.591   0.003  1.00  0.00     0.049 A 
ATOM     44  N   UNL     1      -8.364   8.849  -2.067  1.00  0.00    -0.248 NA
ATOM     45  C   UNL     1      -8.354   6.725  -1.226  1.00  0.00     0.031 C 
ATOM     46  C   UNL     1     -11.088  10.282  -1.107  1.00  0.00     0.029 A 
ATOM     47  N   UNL     1     -11.072  10.181   1.126  1.00  0.00    -0.354 N 
ATOM     48  C   UNL     1      -8.019   7.989  -3.092  1.00  0.00     0.074 A 
ATOM     49  C   UNL     1      -7.886   6.692  -2.480  1.00  0.00     0.031 C 
ATOM     50  C   UNL     1     -11.692  11.393  -0.630  1.00  0.00     0.029 A 
ATOM     51  C   UNL     1     -11.373  11.496   0.792  1.00  0.00     0.049 A 
ATOM     52  H   UNL     1     -11.250   9.743   1.990  1.00  0.00     0.167 HD
ATOM     53  C   UNL     1      -8.104   8.430  -4.381  1.00  0.00     0.037 A 
ATOM     54  C   UNL     1     -10.613  12.453   1.403  1.00  0.00     0.037 A 
ATOM     55  C   UNL     1      -8.619   9.798  -4.390  1.00  0.00     0.049 A 
ATOM     56  C   UNL     1      -9.686  13.065   0.382  1.00  0.00     0.074 A 
ATOM     57  C   UNL     1      -9.912  10.280  -4.515  1.00  0.00     0.029 A 
ATOM     58  N   UNL     1      -7.874  10.815  -3.802  1.00  0.00    -0.354 N 
ATOM     59  N   UNL     1      -9.218  12.433  -0.663  1.00  0.00    -0.248 NA
ATOM     60  C   UNL     1      -9.337  14.479   0.396  1.00  0.00     0.031 C 
ATOM     61  C   UNL     1      -9.960  11.559  -3.900  1.00  0.00     0.029 A 
ATOM     62  C   UNL     1      -8.701  11.851  -3.403  1.00  0.00     0.049 A 
ATOM     63  H   UNL     1      -6.897  10.800  -3.686  1.00  0.00     0.167 HD
ATOM     64  C   UNL     1      -8.621  13.335  -1.500  1.00  0.00     0.074 A 
ATOM     65  C   UNL     1      -8.697  14.596  -0.779  1.00  0.00     0.031 C 
ATOM     66  C   UNL     1      -8.152  13.026  -2.746  1.00  0.00     0.037 A 
BRANCH  53  67
ATOM     67  C   UNL     1      -8.052   7.539  -5.600  1.00  0.00     0.057 A 
ATOM     68  C   UNL     1      -8.835   7.816  -6.740  1.00  0.00     0.134 A 
ATOM     69  C   UNL     1      -7.234   6.401  -5.717  1.00  0.00     0.134 A 
ATOM     70  F   UNL     1      -9.634   8.888  -6.804  1.00  0.00    -0.206 F 
ATOM     71  C   UNL     1      -8.846   7.002  -7.881  1.00  0.00     0.040 A 
ATOM     72  C   UNL     1      -7.258   5.559  -6.843  1.00  0.00     0.040 A 
ATOM     73  F   UNL     1      -6.351   6.080  -4.761  1.00  0.00    -0.206 F 
ATOM     74  C   UNL     1      -8.068   5.857  -7.931  1.00  0.00     0.006 A 
ENDBRANCH  53  67
BRANCH  54  75
ATOM     75  C   UNL     1     -10.290  12.088   2.831  1.00  0.00     0.057 A 
ATOM     76  C   UNL     1     -11.375  11.819   3.701  1.00  0.00     0.134 A 
ATOM     77  C   UNL     1      -9.040  11.620   3.250  1.00  0.00     0.134 A 
ATOM     78  F   UNL     1     -12.612  12.233   3.378  1.00  0.00    -0.206 F 
ATOM     79  C   UNL     1     -11.252  11.007   4.836  1.00  0.00     0.040 A 
ATOM     80  C   UNL     1      -8.900  10.833   4.409  1.00  0.00     0.040 A 
ATOM     81  F   UNL     1      -7.947  11.825   2.503  1.00  0.00    -0.206 F 
ATOM     82  C   UNL     1     -10.012  10.485   5.177  1.00  0.00     0.006 A 
ENDBRANCH  54  75
BRANCH  66  83
ATOM     83  C   UNL     1      -7.199  13.893  -3.519  1.00  0.00     0.057 A 
ATOM     84  C   UNL     1      -6.281  14.756  -2.906  1.00  0.00     0.134 A 
ATOM     85  C   UNL     1      -7.061  13.755  -4.918  1.00  0.00     0.134 A 
ATOM     86  F   UNL     1      -6.202  14.869  -1.573  1.00  0.00    -0.206 F 
ATOM     87  C   UNL     1      -5.357  15.504  -3.638  1.00  0.00     0.040 A 
ATOM     88  C   UNL     1      -6.090  14.439  -5.649  1.00  0.00     0.040 A 
ATOM     89  F   UNL     1      -7.836  12.927  -5.633  1.00  0.00    -0.206 F 
ATOM     90  C   UNL     1      -5.251  15.339  -5.012  1.00  0.00     0.006 A 
ENDBRANCH  66  83
ENDBRANCH  40  41
ENDBRANCH  33  35
ENDBRANCH  32  33
ENDBRANCH  31  32
ENDBRANCH  30  31
ENDBRANCH   1  30
TORSDOF 16
