REMARK SMILES C[C@H](C(=O)OCCOC(=O)c1ccc(-c2c3nc(c(-c4c(F)cccc4F)c4ccc([nH]4)c(-c4c(F)cccc4F)c4nc(c(-c5c(F)cccc5F)c5ccc2[nH]5)C=C4)C=C3)cc1)c1ccc2c(c1)OCCO2
REMARK SMILES IDX 7 1 6 2 5 3 3 4 4 5 2 6 1 7 65 8 66 9 70 10 67 11 69 12
REMARK SMILES IDX 68 13 71 14 74 15 72 16 73 17 8 18 9 19 10 20 11 21 12 22
REMARK SMILES IDX 64 23 13 24 63 25 14 26 15 27 16 28 57 29 17 30 62 31 56 32
REMARK SMILES IDX 58 33 18 34 61 35 55 36 54 37 19 39 45 40 28 41 44 42 29 43
REMARK SMILES IDX 32 44 43 45 59 46 30 47 31 48 42 50 60 51 33 52 20 53 21 54
REMARK SMILES IDX 26 55 22 56 23 57 25 58 27 59 24 60 46 61 47 62 52 63 48 64
REMARK SMILES IDX 49 65 51 66 53 67 50 68 34 69 35 70 40 71 36 72 37 73 39 74
REMARK SMILES IDX 41 75 38 76
REMARK H PARENT 58 38 32 49
REMARK Flexibility Score: inf
ROOT
ATOM      1  C   UNL     1       0.971  -0.696   2.518  1.00  0.00     0.275 C 
ENDROOT
BRANCH   1   2
ATOM      2  C   UNL     1       1.337   0.754   2.203  1.00  0.00     0.274 C 
BRANCH   2   3
ATOM      3  O   UNL     1       0.653   1.179   1.007  1.00  0.00    -0.462 OA
BRANCH   3   4
ATOM      4  C   UNL     1       1.342   1.016  -0.157  1.00  0.00     0.313 C 
ATOM      5  O   UNL     1       2.529   0.714  -0.223  1.00  0.00    -0.252 OA
BRANCH   4   6
ATOM      6  C   UNL     1       0.470   1.292  -1.377  1.00  0.00     0.126 C 
ATOM      7  C   UNL     1       1.110   0.673  -2.635  1.00  0.00     0.025 C 
BRANCH   6   8
ATOM      8  C   UNL     1      -0.957   0.760  -1.308  1.00  0.00    -0.030 A 
ATOM      9  C   UNL     1      -2.005   1.485  -1.898  1.00  0.00     0.009 A 
ATOM     10  C   UNL     1      -1.202  -0.552  -0.876  1.00  0.00     0.055 A 
ATOM     11  C   UNL     1      -3.235   0.870  -2.148  1.00  0.00     0.051 A 
ATOM     12  C   UNL     1      -2.399  -1.183  -1.180  1.00  0.00     0.161 A 
ATOM     13  C   UNL     1      -3.397  -0.481  -1.854  1.00  0.00     0.161 A 
ATOM     14  O   UNL     1      -2.461  -2.522  -0.898  1.00  0.00    -0.486 OA
ATOM     15  O   UNL     1      -4.515  -1.108  -2.345  1.00  0.00    -0.486 OA
ATOM     16  C   UNL     1      -3.622  -3.163  -1.439  1.00  0.00     0.271 C 
ATOM     17  C   UNL     1      -4.152  -2.455  -2.678  1.00  0.00     0.271 C 
ENDBRANCH   6   8
ENDBRANCH   4   6
ENDBRANCH   3   4
ENDBRANCH   2   3
ENDBRANCH   1   2
BRANCH   1  18
ATOM     18  O   UNL     1       1.442  -1.542   1.456  1.00  0.00    -0.458 OA
BRANCH  18  19
ATOM     19  C   UNL     1       0.964  -2.807   1.471  1.00  0.00     0.338 C 
ATOM     20  O   UNL     1       0.253  -3.297   2.340  1.00  0.00    -0.246 OA
BRANCH  19  21
ATOM     21  C   UNL     1       1.430  -3.545   0.270  1.00  0.00     0.060 A 
ATOM     22  C   UNL     1       1.841  -2.889  -0.897  1.00  0.00     0.016 A 
ATOM     23  C   UNL     1       1.430  -4.941   0.303  1.00  0.00     0.016 A 
ATOM     24  C   UNL     1       2.218  -3.618  -2.029  1.00  0.00     0.010 A 
ATOM     25  C   UNL     1       1.881  -5.668  -0.803  1.00  0.00     0.010 A 
ATOM     26  C   UNL     1       2.273  -5.017  -1.985  1.00  0.00    -0.014 A 
BRANCH  26  27
ATOM     27  C   UNL     1       2.753  -5.821  -3.145  1.00  0.00     0.031 A 
ATOM     28  C   UNL     1       1.861  -6.863  -3.764  1.00  0.00     0.074 A 
ATOM     29  C   UNL     1       4.014  -5.676  -3.600  1.00  0.00     0.049 A 
ATOM     30  N   UNL     1       2.164  -7.829  -4.594  1.00  0.00    -0.248 NA
ATOM     31  C   UNL     1       0.442  -6.823  -3.380  1.00  0.00     0.031 C 
ATOM     32  C   UNL     1       4.985  -4.694  -3.117  1.00  0.00     0.029 A 
ATOM     33  N   UNL     1       4.703  -6.378  -4.561  1.00  0.00    -0.354 N 
ATOM     34  C   UNL     1       0.988  -8.543  -4.792  1.00  0.00     0.074 A 
ATOM     35  C   UNL     1      -0.032  -7.901  -3.989  1.00  0.00     0.031 C 
ATOM     36  C   UNL     1       6.139  -4.851  -3.783  1.00  0.00     0.029 A 
ATOM     37  C   UNL     1       6.016  -5.992  -4.684  1.00  0.00     0.049 A 
ATOM     38  H   UNL     1       4.295  -7.088  -5.107  1.00  0.00     0.167 HD
ATOM     39  C   UNL     1       0.779  -9.633  -5.569  1.00  0.00     0.037 A 
ATOM     40  C   UNL     1       7.025  -6.523  -5.401  1.00  0.00     0.037 A 
ATOM     41  C   UNL     1       1.786 -10.248  -6.397  1.00  0.00     0.049 A 
ATOM     42  C   UNL     1       6.779  -7.749  -6.233  1.00  0.00     0.074 A 
ATOM     43  C   UNL     1       1.662 -11.342  -7.237  1.00  0.00     0.029 A 
ATOM     44  N   UNL     1       3.100  -9.817  -6.496  1.00  0.00    -0.354 N 
ATOM     45  N   UNL     1       5.673  -8.433  -6.388  1.00  0.00    -0.248 NA
ATOM     46  C   UNL     1       7.927  -8.284  -6.979  1.00  0.00     0.031 C 
ATOM     47  C   UNL     1       2.909 -11.593  -7.819  1.00  0.00     0.029 A 
ATOM     48  C   UNL     1       3.799 -10.629  -7.375  1.00  0.00     0.049 A 
ATOM     49  H   UNL     1       3.480  -9.048  -6.013  1.00  0.00     0.167 HD
ATOM     50  C   UNL     1       5.985  -9.469  -7.259  1.00  0.00     0.074 A 
ATOM     51  C   UNL     1       7.381  -9.313  -7.612  1.00  0.00     0.031 C 
ATOM     52  C   UNL     1       5.187 -10.461  -7.722  1.00  0.00     0.037 A 
BRANCH  39  53
ATOM     53  C   UNL     1      -0.589 -10.252  -5.543  1.00  0.00     0.057 A 
ATOM     54  C   UNL     1      -1.693  -9.641  -6.151  1.00  0.00     0.134 A 
ATOM     55  C   UNL     1      -0.795 -11.495  -4.931  1.00  0.00     0.134 A 
ATOM     56  F   UNL     1      -1.567  -8.444  -6.743  1.00  0.00    -0.206 F 
ATOM     57  C   UNL     1      -2.957 -10.234  -6.131  1.00  0.00     0.040 A 
ATOM     58  C   UNL     1      -2.048 -12.109  -4.926  1.00  0.00     0.040 A 
ATOM     59  F   UNL     1       0.222 -12.139  -4.336  1.00  0.00    -0.206 F 
ATOM     60  C   UNL     1      -3.135 -11.475  -5.522  1.00  0.00     0.006 A 
ENDBRANCH  39  53
BRANCH  40  61
ATOM     61  C   UNL     1       8.377  -5.913  -5.334  1.00  0.00     0.057 A 
ATOM     62  C   UNL     1       8.914  -5.226  -6.428  1.00  0.00     0.134 A 
ATOM     63  C   UNL     1       9.161  -5.997  -4.176  1.00  0.00     0.134 A 
ATOM     64  F   UNL     1       8.221  -5.134  -7.572  1.00  0.00    -0.206 F 
ATOM     65  C   UNL     1      10.184  -4.649  -6.377  1.00  0.00     0.040 A 
ATOM     66  C   UNL     1      10.421  -5.403  -4.102  1.00  0.00     0.040 A 
ATOM     67  F   UNL     1       8.702  -6.642  -3.093  1.00  0.00    -0.206 F 
ATOM     68  C   UNL     1      10.938  -4.731  -5.208  1.00  0.00     0.006 A 
ENDBRANCH  40  61
BRANCH  52  69
ATOM     69  C   UNL     1       5.795 -11.434  -8.688  1.00  0.00     0.057 A 
ATOM     70  C   UNL     1       6.699 -12.420  -8.274  1.00  0.00     0.134 A 
ATOM     71  C   UNL     1       5.452 -11.399 -10.045  1.00  0.00     0.134 A 
ATOM     72  F   UNL     1       7.080 -12.497  -6.990  1.00  0.00    -0.206 F 
ATOM     73  C   UNL     1       7.255 -13.325  -9.180  1.00  0.00     0.040 A 
ATOM     74  C   UNL     1       5.984 -12.312 -10.957  1.00  0.00     0.040 A 
ATOM     75  F   UNL     1       4.587 -10.482 -10.506  1.00  0.00    -0.206 F 
ATOM     76  C   UNL     1       6.893 -13.275 -10.525  1.00  0.00     0.006 A 
ENDBRANCH  52  69
ENDBRANCH  26  27
ENDBRANCH  19  21
ENDBRANCH  18  19
ENDBRANCH   1  18
TORSDOF 12
