REMARK SMILES O=C(OCCOC(=O)[C@@H](CCOCCO)c1cccc(F)c1)c1ccc(-c2c3nc(c(-c4c(F)cccc4F)c4ccc([nH]4)c(-c4c(F)cccc4F)c4nc(c(-c5c(F)cccc5F)c5ccc2[nH]5)C=C4)C=C3)cc1
REMARK SMILES IDX 7 1 8 2 6 3 5 4 4 5 3 6 2 7 1 8 23 9 24 10 76 11 25 12 75 13
REMARK SMILES IDX 26 14 27 15 28 16 69 17 29 18 74 19 68 20 70 21 30 22 73 23
REMARK SMILES IDX 67 24 66 25 31 27 57 28 40 29 56 30 41 31 44 32 55 33 71 34
REMARK SMILES IDX 42 35 43 36 54 38 72 39 45 40 32 41 33 42 38 43 34 44 35 45
REMARK SMILES IDX 37 46 39 47 36 48 58 49 59 50 64 51 60 52 61 53 63 54 65 55
REMARK SMILES IDX 62 56 46 57 47 58 52 59 48 60 49 61 51 62 53 63 50 64 9 65
REMARK SMILES IDX 10 66 11 67 12 68 13 69 14 70 15 71 16 73 17 74 22 75 18 76
REMARK SMILES IDX 20 77 19 78 21 79
REMARK H PARENT 70 26 44 37 15 72
REMARK Flexibility Score: inf
ROOT
ATOM      1  C   UNL     1       1.792  -1.107  -1.541  1.00  0.00     0.313 C 
ATOM      2  O   UNL     1       0.889  -1.330  -0.748  1.00  0.00    -0.252 OA
ENDROOT
BRANCH   1   3
ATOM      3  O   UNL     1       2.924  -1.874  -1.609  1.00  0.00    -0.462 OA
BRANCH   3   4
ATOM      4  C   UNL     1       3.576  -2.572  -0.494  1.00  0.00     0.274 C 
BRANCH   4   5
ATOM      5  C   UNL     1       4.111  -1.704   0.661  1.00  0.00     0.275 C 
BRANCH   5   6
ATOM      6  O   UNL     1       3.047  -1.046   1.330  1.00  0.00    -0.458 OA
BRANCH   6   7
ATOM      7  C   UNL     1       2.676   0.203   1.020  1.00  0.00     0.338 C 
ATOM      8  O   UNL     1       1.767   0.763   1.625  1.00  0.00    -0.246 OA
BRANCH   7   9
ATOM      9  C   UNL     1       3.309   0.958  -0.091  1.00  0.00     0.060 A 
ATOM     10  C   UNL     1       4.053   0.347  -1.641  1.00  0.00     0.016 A 
ATOM     11  C   UNL     1       2.947   2.694   0.042  1.00  0.00     0.016 A 
ATOM     12  C   UNL     1       4.260   1.491  -3.054  1.00  0.00     0.010 A 
ATOM     13  C   UNL     1       3.181   3.786  -1.320  1.00  0.00     0.010 A 
ATOM     14  C   UNL     1       3.947   3.262  -2.828  1.00  0.00    -0.014 A 
BRANCH  14  15
ATOM     15  C   UNL     1       4.665   4.365  -3.595  1.00  0.00     0.031 A 
ATOM     16  C   UNL     1       5.332   5.569  -2.884  1.00  0.00     0.074 A 
ATOM     17  C   UNL     1       4.847   4.260  -4.924  1.00  0.00     0.049 A 
ATOM     18  N   UNL     1       5.884   6.643  -3.413  1.00  0.00    -0.248 NA
ATOM     19  C   UNL     1       5.451   5.578  -1.415  1.00  0.00     0.031 C 
ATOM     20  C   UNL     1       4.529   3.087  -5.712  1.00  0.00     0.029 A 
ATOM     21  N   UNL     1       5.336   5.139  -5.861  1.00  0.00    -0.354 N 
ATOM     22  C   UNL     1       6.384   7.407  -2.351  1.00  0.00     0.074 A 
ATOM     23  C   UNL     1       6.053   6.720  -1.142  1.00  0.00     0.031 C 
ATOM     24  C   UNL     1       4.789   3.298  -6.999  1.00  0.00     0.029 A 
ATOM     25  C   UNL     1       5.181   4.678  -7.148  1.00  0.00     0.049 A 
ATOM     26  H   UNL     1       5.752   6.002  -5.635  1.00  0.00     0.167 HD
ATOM     27  C   UNL     1       7.062   8.580  -2.364  1.00  0.00     0.037 A 
ATOM     28  C   UNL     1       5.259   5.283  -8.344  1.00  0.00     0.037 A 
ATOM     29  C   UNL     1       7.375   9.272  -3.580  1.00  0.00     0.049 A 
ATOM     30  C   UNL     1       5.796   6.663  -8.366  1.00  0.00     0.074 A 
ATOM     31  C   UNL     1       7.990  10.497  -3.743  1.00  0.00     0.029 A 
ATOM     32  N   UNL     1       7.066   8.794  -4.846  1.00  0.00    -0.354 N 
ATOM     33  N   UNL     1       6.170   7.388  -7.340  1.00  0.00    -0.248 NA
ATOM     34  C   UNL     1       5.986   7.293  -9.672  1.00  0.00     0.031 C 
ATOM     35  C   UNL     1       7.954  10.809  -5.104  1.00  0.00     0.029 A 
ATOM     36  C   UNL     1       7.414   9.733  -5.796  1.00  0.00     0.049 A 
ATOM     37  H   UNL     1       6.661   7.917  -5.038  1.00  0.00     0.167 HD
ATOM     38  C   UNL     1       6.692   8.547  -7.873  1.00  0.00     0.074 A 
ATOM     39  C   UNL     1       6.566   8.433  -9.317  1.00  0.00     0.031 C 
ATOM     40  C   UNL     1       7.249   9.592  -7.221  1.00  0.00     0.037 A 
BRANCH  27  41
ATOM     41  C   UNL     1       7.398   9.231  -1.039  1.00  0.00     0.057 A 
ATOM     42  C   UNL     1       6.736  10.405  -0.648  1.00  0.00     0.134 A 
ATOM     43  C   UNL     1       8.341   8.710  -0.139  1.00  0.00     0.134 A 
ATOM     44  F   UNL     1       5.818  10.965  -1.450  1.00  0.00    -0.206 F 
ATOM     45  C   UNL     1       6.993  11.031   0.575  1.00  0.00     0.040 A 
ATOM     46  C   UNL     1       8.584   9.311   1.104  1.00  0.00     0.040 A 
ATOM     47  F   UNL     1       9.003   7.579  -0.423  1.00  0.00    -0.206 F 
ATOM     48  C   UNL     1       7.912  10.477   1.462  1.00  0.00     0.006 A 
ENDBRANCH  27  41
BRANCH  28  49
ATOM     49  C   UNL     1       4.820   4.517  -9.539  1.00  0.00     0.057 A 
ATOM     50  C   UNL     1       3.468   4.160  -9.700  1.00  0.00     0.134 A 
ATOM     51  C   UNL     1       5.747   3.916 -10.393  1.00  0.00     0.134 A 
ATOM     52  F   UNL     1       2.534   4.655  -8.873  1.00  0.00    -0.206 F 
ATOM     53  C   UNL     1       3.066   3.205 -10.636  1.00  0.00     0.040 A 
ATOM     54  C   UNL     1       5.354   2.974 -11.348  1.00  0.00     0.040 A 
ATOM     55  F   UNL     1       7.053   4.190 -10.268  1.00  0.00    -0.206 F 
ATOM     56  C   UNL     1       4.013   2.604 -11.460  1.00  0.00     0.006 A 
ENDBRANCH  28  49
BRANCH  40  57
ATOM     57  C   UNL     1       7.766  10.708  -8.060  1.00  0.00     0.057 A 
ATOM     58  C   UNL     1       9.143  10.949  -8.132  1.00  0.00     0.134 A 
ATOM     59  C   UNL     1       6.898  11.615  -8.673  1.00  0.00     0.134 A 
ATOM     60  F   UNL     1      10.015  10.110  -7.551  1.00  0.00    -0.206 F 
ATOM     61  C   UNL     1       9.639  12.089  -8.754  1.00  0.00     0.040 A 
ATOM     62  C   UNL     1       7.386  12.741  -9.328  1.00  0.00     0.040 A 
ATOM     63  F   UNL     1       5.572  11.416  -8.642  1.00  0.00    -0.206 F 
ATOM     64  C   UNL     1       8.758  12.989  -9.352  1.00  0.00     0.006 A 
ENDBRANCH  40  57
ENDBRANCH  14  15
ENDBRANCH   7   9
ENDBRANCH   6   7
ENDBRANCH   5   6
ENDBRANCH   4   5
ENDBRANCH   3   4
ENDBRANCH   1   3
BRANCH   1  65
ATOM     65  C   UNL     1       1.843   0.178  -2.522  1.00  0.00     0.131 C 
BRANCH  65  66
ATOM     66  C   UNL     1       2.639   1.755  -1.902  1.00  0.00     0.048 C 
BRANCH  66  67
ATOM     67  C   UNL     1       4.674   2.156  -1.190  1.00  0.00     0.161 C 
BRANCH  67  68
ATOM     68  O   UNL     1       6.131   2.198  -1.938  1.00  0.00    -0.379 OA
BRANCH  68  69
ATOM     69  C   UNL     1       6.814   1.304  -2.871  1.00  0.00     0.188 C 
BRANCH  69  70
ATOM     70  C   UNL     1       6.882  -0.219  -2.643  1.00  0.00     0.184 C 
BRANCH  70  71
ATOM     71  O   UNL     1       6.997  -0.534  -1.264  1.00  0.00    -0.394 OA
ATOM     72  H   UNL     1       7.813  -0.147  -0.910  1.00  0.00     0.210 HD
ENDBRANCH  70  71
ENDBRANCH  69  70
ENDBRANCH  68  69
ENDBRANCH  67  68
ENDBRANCH  66  67
ENDBRANCH  65  66
BRANCH  65  73
ATOM     73  C   UNL     1       2.087  -0.144  -4.021  1.00  0.00    -0.031 A 
ATOM     74  C   UNL     1       1.852   0.846  -4.997  1.00  0.00     0.005 A 
ATOM     75  C   UNL     1       2.634  -1.358  -4.467  1.00  0.00     0.043 A 
ATOM     76  C   UNL     1       2.287   0.681  -6.322  1.00  0.00     0.003 A 
ATOM     77  C   UNL     1       3.082  -1.504  -5.779  1.00  0.00     0.123 A 
ATOM     78  C   UNL     1       2.951  -0.480  -6.700  1.00  0.00     0.039 A 
ATOM     79  F   UNL     1       3.691  -2.642  -6.137  1.00  0.00    -0.207 F 
ENDBRANCH  65  73
ENDBRANCH   1  65
TORSDOF 18
