REMARK SMILES CO[C@@H]1C[C@H](C(=O)OCCOC(=O)c2ccc(-c3c4nc(c(-c5c(F)cccc5F)c5ccc([nH]5)c(-c5c(F)cccc5F)c5nc(c(-c6c(F)cccc6F)c6ccc3[nH]6)C=C5)C=C4)cc2)N(C(=O)c2ccn(C)c(=O)c2)C1
REMARK SMILES IDX 9 1 8 2 6 3 7 4 5 5 3 6 4 7 79 8 68 9 2 10 1 11 69 12 70 13
REMARK SMILES IDX 71 14 72 15 78 16 73 17 76 18 74 19 77 20 75 21 10 22 11 23
REMARK SMILES IDX 12 24 13 25 14 26 15 27 67 28 16 29 66 30 17 31 18 32 19 33
REMARK SMILES IDX 60 34 20 35 65 36 59 37 61 38 21 39 64 40 58 41 57 42 22 44
REMARK SMILES IDX 48 45 31 46 47 47 32 48 35 49 46 50 62 51 33 52 34 53 45 55
REMARK SMILES IDX 63 56 36 57 23 58 24 59 29 60 25 61 26 62 28 63 30 64 27 65
REMARK SMILES IDX 49 66 50 67 55 68 51 69 52 70 54 71 56 72 53 73 37 74 38 75
REMARK SMILES IDX 43 76 39 77 40 78 42 79 44 80 41 81
REMARK H PARENT 61 43 35 54
REMARK Flexibility Score: inf
ROOT
ATOM      1  C   UNL     1      -2.854  -1.422   0.307  1.00  0.00     0.274 C 
ENDROOT
BRANCH   1   2
ATOM      2  O   UNL     1      -1.786  -1.420  -0.657  1.00  0.00    -0.461 OA
BRANCH   2   3
ATOM      3  C   UNL     1      -1.876  -2.303  -1.680  1.00  0.00     0.329 C 
ATOM      4  O   UNL     1      -2.796  -3.104  -1.823  1.00  0.00    -0.250 OA
BRANCH   3   5
ATOM      5  C   UNL     1      -0.707  -2.199  -2.679  1.00  0.00     0.198 C 
ATOM      6  C   UNL     1       1.354  -1.931  -1.466  1.00  0.00     0.140 C 
ATOM      7  C   UNL     1       0.388  -1.183  -2.389  1.00  0.00     0.071 C 
ATOM      8  C   UNL     1       1.186  -3.410  -1.870  1.00  0.00     0.152 C 
ATOM      9  N   UNL     1       0.010  -3.465  -2.728  1.00  0.00    -0.322 N 
BRANCH   6  10
ATOM     10  O   UNL     1       1.011  -1.751  -0.091  1.00  0.00    -0.380 OA
ATOM     11  C   UNL     1       1.357  -0.460   0.403  1.00  0.00     0.195 C 
ENDBRANCH   6  10
BRANCH   9  12
ATOM     12  C   UNL     1      -0.322  -4.605  -3.423  1.00  0.00     0.254 C 
ATOM     13  O   UNL     1       0.281  -5.667  -3.284  1.00  0.00    -0.269 OA
BRANCH  12  14
ATOM     14  C   UNL     1      -1.443  -4.521  -4.403  1.00  0.00     0.046 A 
ATOM     15  C   UNL     1      -2.655  -5.280  -4.212  1.00  0.00     0.032 A 
ATOM     16  C   UNL     1      -1.260  -3.797  -5.517  1.00  0.00     0.085 A 
ATOM     17  C   UNL     1      -3.618  -5.244  -5.141  1.00  0.00     0.089 A 
ATOM     18  C   UNL     1      -2.343  -3.708  -6.529  1.00  0.00     0.251 A 
ATOM     19  N   UNL     1      -3.481  -4.472  -6.283  1.00  0.00    -0.319 N 
ATOM     20  O   UNL     1      -2.181  -2.971  -7.498  1.00  0.00    -0.269 OA
ATOM     21  C   UNL     1      -4.546  -4.493  -7.274  1.00  0.00     0.153 C 
ENDBRANCH  12  14
ENDBRANCH   9  12
ENDBRANCH   3   5
ENDBRANCH   2   3
ENDBRANCH   1   2
BRANCH   1  22
ATOM     22  C   UNL     1      -3.573  -0.074   0.289  1.00  0.00     0.275 C 
BRANCH  22  23
ATOM     23  O   UNL     1      -4.202   0.158  -0.986  1.00  0.00    -0.458 OA
BRANCH  23  24
ATOM     24  C   UNL     1      -3.422   0.785  -1.897  1.00  0.00     0.338 C 
ATOM     25  O   UNL     1      -2.290   1.212  -1.750  1.00  0.00    -0.246 OA
BRANCH  24  26
ATOM     26  C   UNL     1      -4.090   0.766  -3.203  1.00  0.00     0.060 A 
ATOM     27  C   UNL     1      -3.578  -0.081  -4.187  1.00  0.00     0.016 A 
ATOM     28  C   UNL     1      -5.132   1.645  -3.490  1.00  0.00     0.016 A 
ATOM     29  C   UNL     1      -4.083  -0.040  -5.479  1.00  0.00     0.010 A 
ATOM     30  C   UNL     1      -5.656   1.674  -4.785  1.00  0.00     0.010 A 
ATOM     31  C   UNL     1      -5.123   0.844  -5.788  1.00  0.00    -0.014 A 
BRANCH  31  32
ATOM     32  C   UNL     1      -5.620   0.922  -7.179  1.00  0.00     0.031 A 
ATOM     33  C   UNL     1      -5.287   2.114  -8.025  1.00  0.00     0.074 A 
ATOM     34  C   UNL     1      -6.345  -0.093  -7.681  1.00  0.00     0.049 A 
ATOM     35  N   UNL     1      -5.715   2.423  -9.221  1.00  0.00    -0.248 NA
ATOM     36  C   UNL     1      -4.358   3.095  -7.443  1.00  0.00     0.031 C 
ATOM     37  C   UNL     1      -6.686  -1.322  -6.964  1.00  0.00     0.029 A 
ATOM     38  N   UNL     1      -6.918  -0.255  -8.915  1.00  0.00    -0.354 N 
ATOM     39  C   UNL     1      -5.140   3.650  -9.521  1.00  0.00     0.074 A 
ATOM     40  C   UNL     1      -4.331   4.030  -8.383  1.00  0.00     0.031 C 
ATOM     41  C   UNL     1      -7.390  -2.123  -7.780  1.00  0.00     0.029 A 
ATOM     42  C   UNL     1      -7.588  -1.444  -9.057  1.00  0.00     0.049 A 
ATOM     43  H   UNL     1      -6.855   0.417  -9.632  1.00  0.00     0.167 HD
ATOM     44  C   UNL     1      -5.287   4.394 -10.643  1.00  0.00     0.037 A 
ATOM     45  C   UNL     1      -8.297  -1.923 -10.095  1.00  0.00     0.037 A 
ATOM     46  C   UNL     1      -6.071   3.992 -11.781  1.00  0.00     0.049 A 
ATOM     47  C   UNL     1      -8.453  -1.073 -11.323  1.00  0.00     0.074 A 
ATOM     48  C   UNL     1      -6.295   4.677 -12.962  1.00  0.00     0.029 A 
ATOM     49  N   UNL     1      -6.751   2.787 -11.881  1.00  0.00    -0.354 N 
ATOM     50  N   UNL     1      -7.950   0.111 -11.578  1.00  0.00    -0.248 NA
ATOM     51  C   UNL     1      -9.296  -1.613 -12.399  1.00  0.00     0.031 C 
ATOM     52  C   UNL     1      -7.136   3.898 -13.766  1.00  0.00     0.029 A 
ATOM     53  C   UNL     1      -7.406   2.713 -13.099  1.00  0.00     0.049 A 
ATOM     54  H   UNL     1      -6.765   2.087 -11.189  1.00  0.00     0.167 HD
ATOM     55  C   UNL     1      -8.412   0.458 -12.839  1.00  0.00     0.074 A 
ATOM     56  C   UNL     1      -9.214  -0.653 -13.310  1.00  0.00     0.031 C 
ATOM     57  C   UNL     1      -8.202   1.598 -13.541  1.00  0.00     0.037 A 
BRANCH  44  58
ATOM     58  C   UNL     1      -4.621   5.736 -10.671  1.00  0.00     0.057 A 
ATOM     59  C   UNL     1      -3.239   5.878 -10.847  1.00  0.00     0.134 A 
ATOM     60  C   UNL     1      -5.381   6.905 -10.537  1.00  0.00     0.134 A 
ATOM     61  F   UNL     1      -2.454   4.797 -10.963  1.00  0.00    -0.206 F 
ATOM     62  C   UNL     1      -2.634   7.137 -10.872  1.00  0.00     0.040 A 
ATOM     63  C   UNL     1      -4.790   8.169 -10.580  1.00  0.00     0.040 A 
ATOM     64  F   UNL     1      -6.710   6.837 -10.365  1.00  0.00    -0.206 F 
ATOM     65  C   UNL     1      -3.412   8.287 -10.743  1.00  0.00     0.006 A 
ENDBRANCH  44  58
BRANCH  45  66
ATOM     66  C   UNL     1      -8.924  -3.264 -10.009  1.00  0.00     0.057 A 
ATOM     67  C   UNL     1      -8.444  -4.332 -10.774  1.00  0.00     0.134 A 
ATOM     68  C   UNL     1     -10.006  -3.515  -9.157  1.00  0.00     0.134 A 
ATOM     69  F   UNL     1      -7.421  -4.148 -11.622  1.00  0.00    -0.206 F 
ATOM     70  C   UNL     1      -9.022  -5.600 -10.703  1.00  0.00     0.040 A 
ATOM     71  C   UNL     1     -10.579  -4.783  -9.057  1.00  0.00     0.040 A 
ATOM     72  F   UNL     1     -10.509  -2.534  -8.393  1.00  0.00    -0.206 F 
ATOM     73  C   UNL     1     -10.089  -5.830  -9.836  1.00  0.00     0.006 A 
ENDBRANCH  45  66
BRANCH  57  74
ATOM     74  C   UNL     1      -8.850   1.692 -14.888  1.00  0.00     0.057 A 
ATOM     75  C   UNL     1     -10.222   1.941 -15.024  1.00  0.00     0.134 A 
ATOM     76  C   UNL     1      -8.092   1.568 -16.058  1.00  0.00     0.134 A 
ATOM     77  F   UNL     1     -11.002   2.055 -13.939  1.00  0.00    -0.206 F 
ATOM     78  C   UNL     1     -10.820   2.046 -16.280  1.00  0.00     0.040 A 
ATOM     79  C   UNL     1      -8.676   1.691 -17.319  1.00  0.00     0.040 A 
ATOM     80  F   UNL     1      -6.772   1.336 -15.993  1.00  0.00    -0.206 F 
ATOM     81  C   UNL     1     -10.045   1.926 -17.432  1.00  0.00     0.006 A 
ENDBRANCH  57  74
ENDBRANCH  31  32
ENDBRANCH  24  26
ENDBRANCH  23  24
ENDBRANCH  22  23
ENDBRANCH   1  22
TORSDOF 14
