REMARK SMILES COc1ccc2c(c1)c(Cc1nc(-c3ccc(C(=O)OCCOC(=O)c4ccc(-c5c6nc(c(-c7c(F)cccc7F)c7ccc([nH]7)c(-c7c(F)cccc7F)c7nc(c(-c8c(F)cccc8F)c8ccc5[nH]8)C=C7)C=C6)cc4)cc3)cs1)c(C)n2C(=O)c1ccc(Cl)cc1
REMARK SMILES IDX 20 1 18 2 19 3 17 4 14 5 15 6 81 7 16 8 80 9 13 10 11 11
REMARK SMILES IDX 12 12 83 13 82 14 10 15 9 16 3 17 4 18 8 19 5 20 7 21 6 22
REMARK SMILES IDX 86 23 84 24 85 25 2 26 1 27 87 28 88 29 89 30 90 31 95 32
REMARK SMILES IDX 91 33 94 34 92 35 93 36 21 37 22 38 23 39 24 40 25 41 26 42
REMARK SMILES IDX 27 43 79 44 28 45 78 46 29 47 30 48 31 49 72 50 32 51 77 52
REMARK SMILES IDX 71 53 73 54 33 55 76 56 70 57 69 58 34 60 60 61 43 62 59 63
REMARK SMILES IDX 44 64 47 65 58 66 74 67 45 68 46 69 57 71 75 72 48 73 35 74
REMARK SMILES IDX 36 75 41 76 37 77 38 78 40 79 42 80 39 81 61 82 62 83 67 84
REMARK SMILES IDX 63 85 64 86 66 87 68 88 65 89 49 90 50 91 55 92 51 93 52 94
REMARK SMILES IDX 54 95 56 96 53 97
REMARK H PARENT 73 59 47 70
REMARK Flexibility Score: inf
ROOT
ATOM      1  O   UNL     1      -3.107  -4.636  -5.108  1.00  0.00    -0.458 OA
ENDROOT
BRANCH   1   2
ATOM      2  C   UNL     1      -1.999  -3.998  -4.654  1.00  0.00     0.338 C 
ATOM      3  O   UNL     1      -0.906  -4.500  -4.449  1.00  0.00    -0.246 OA
BRANCH   2   4
ATOM      4  C   UNL     1      -2.250  -2.531  -4.582  1.00  0.00     0.060 A 
ATOM      5  C   UNL     1      -2.619   0.237  -4.935  1.00  0.00     0.001 A 
ATOM      6  C   UNL     1      -1.351  -0.324  -5.066  1.00  0.00     0.011 A 
ATOM      7  C   UNL     1      -3.673  -0.567  -4.488  1.00  0.00     0.011 A 
ATOM      8  C   UNL     1      -1.174  -1.689  -4.844  1.00  0.00     0.016 A 
ATOM      9  C   UNL     1      -3.497  -1.956  -4.337  1.00  0.00     0.016 A 
BRANCH   5  10
ATOM     10  C   UNL     1      -2.780   1.647  -5.229  1.00  0.00     0.081 A 
ATOM     11  C   UNL     1      -2.580   3.776  -4.703  1.00  0.00     0.098 A 
ATOM     12  N   UNL     1      -2.841   2.577  -4.220  1.00  0.00    -0.241 NA
ATOM     13  S   UNL     1      -2.582   3.883  -6.420  1.00  0.00    -0.126 S 
ATOM     14  C   UNL     1      -2.720   2.171  -6.506  1.00  0.00     0.095 A 
BRANCH  11  15
ATOM     15  C   UNL     1      -2.187   4.952  -3.849  1.00  0.00     0.105 C 
BRANCH  15  16
ATOM     16  C   UNL     1      -0.713   4.915  -3.519  1.00  0.00    -0.012 A 
ATOM     17  C   UNL     1       0.319   1.785  -1.557  1.00  0.00     0.119 A 
ATOM     18  C   UNL     1       1.652   2.109  -1.531  1.00  0.00     0.048 A 
ATOM     19  C   UNL     1      -0.552   2.672  -2.180  1.00  0.00     0.057 A 
ATOM     20  C   UNL     1       2.122   3.305  -2.092  1.00  0.00     0.031 A 
ATOM     21  C   UNL     1      -0.084   3.869  -2.794  1.00  0.00     0.008 A 
ATOM     22  C   UNL     1       1.270   4.179  -2.747  1.00  0.00     0.057 A 
ATOM     23  N   UNL     1       1.518   5.400  -3.382  1.00  0.00    -0.280 N 
ATOM     24  C   UNL     1       0.269   5.850  -3.851  1.00  0.00     0.028 A 
ATOM     25  C   UNL     1       0.041   7.126  -4.593  1.00  0.00     0.065 C 
BRANCH  17  26
ATOM     26  O   UNL     1      -0.212   0.632  -1.050  1.00  0.00    -0.497 OA
ATOM     27  C   UNL     1       0.513   0.035   0.024  1.00  0.00     0.278 C 
ENDBRANCH  17  26
BRANCH  23  28
ATOM     28  C   UNL     1       2.782   6.084  -3.476  1.00  0.00     0.262 C 
ATOM     29  O   UNL     1       2.780   7.253  -3.864  1.00  0.00    -0.268 OA
BRANCH  28  30
ATOM     30  C   UNL     1       4.146   5.600  -3.123  1.00  0.00     0.040 A 
ATOM     31  C   UNL     1       4.797   4.600  -3.857  1.00  0.00     0.015 A 
ATOM     32  C   UNL     1       4.870   6.313  -2.149  1.00  0.00     0.015 A 
ATOM     33  C   UNL     1       6.142   4.296  -3.585  1.00  0.00     0.021 A 
ATOM     34  C   UNL     1       6.208   6.001  -1.877  1.00  0.00     0.021 A 
ATOM     35  C   UNL     1       6.839   4.989  -2.594  1.00  0.00     0.041 A 
ATOM     36  Cl  UNL     1       8.480   4.595  -2.261  1.00  0.00    -0.084 Cl
ENDBRANCH  28  30
ENDBRANCH  23  28
ENDBRANCH  15  16
ENDBRANCH  11  15
ENDBRANCH   5  10
ENDBRANCH   2   4
ENDBRANCH   1   2
BRANCH   1  37
ATOM     37  C   UNL     1      -2.983  -6.049  -5.396  1.00  0.00     0.275 C 
BRANCH  37  38
ATOM     38  C   UNL     1      -3.234  -6.320  -6.885  1.00  0.00     0.275 C 
BRANCH  38  39
ATOM     39  O   UNL     1      -2.044  -5.978  -7.614  1.00  0.00    -0.458 OA
BRANCH  39  40
ATOM     40  C   UNL     1      -2.087  -4.832  -8.329  1.00  0.00     0.338 C 
ATOM     41  O   UNL     1      -3.083  -4.298  -8.805  1.00  0.00    -0.246 OA
BRANCH  40  42
ATOM     42  C   UNL     1      -0.786  -4.157  -8.131  1.00  0.00     0.060 A 
ATOM     43  C   UNL     1       0.389  -4.865  -7.856  1.00  0.00     0.016 A 
ATOM     44  C   UNL     1      -0.805  -2.771  -8.002  1.00  0.00     0.016 A 
ATOM     45  C   UNL     1       1.473  -4.209  -7.259  1.00  0.00     0.010 A 
ATOM     46  C   UNL     1       0.293  -2.126  -7.437  1.00  0.00     0.010 A 
ATOM     47  C   UNL     1       1.393  -2.845  -6.941  1.00  0.00    -0.014 A 
BRANCH  47  48
ATOM     48  C   UNL     1       2.598  -2.122  -6.457  1.00  0.00     0.031 A 
ATOM     49  C   UNL     1       3.326  -1.655  -7.657  1.00  0.00     0.074 A 
ATOM     50  C   UNL     1       3.079  -1.805  -5.220  1.00  0.00     0.049 A 
ATOM     51  N   UNL     1       4.202  -2.345  -8.309  1.00  0.00    -0.248 NA
ATOM     52  C   UNL     1       2.840  -0.467  -8.377  1.00  0.00     0.031 C 
ATOM     53  C   UNL     1       2.414  -1.901  -3.918  1.00  0.00     0.029 A 
ATOM     54  N   UNL     1       4.317  -1.277  -4.861  1.00  0.00    -0.354 N 
ATOM     55  C   UNL     1       4.589  -1.517  -9.350  1.00  0.00     0.074 A 
ATOM     56  C   UNL     1       3.520  -0.576  -9.521  1.00  0.00     0.031 C 
ATOM     57  C   UNL     1       3.161  -1.293  -2.957  1.00  0.00     0.029 A 
ATOM     58  C   UNL     1       4.454  -0.903  -3.508  1.00  0.00     0.049 A 
ATOM     59  H   UNL     1       5.050  -1.172  -5.511  1.00  0.00     0.167 HD
ATOM     60  C   UNL     1       5.914  -1.404  -9.640  1.00  0.00     0.037 A 
ATOM     61  C   UNL     1       5.544  -0.362  -2.869  1.00  0.00     0.037 A 
ATOM     62  C   UNL     1       6.657  -2.454  -8.973  1.00  0.00     0.049 A 
ATOM     63  C   UNL     1       6.735  -0.575  -3.682  1.00  0.00     0.074 A 
ATOM     64  C   UNL     1       6.857  -3.813  -9.091  1.00  0.00     0.029 A 
ATOM     65  N   UNL     1       7.013  -2.115  -7.699  1.00  0.00    -0.354 N 
ATOM     66  N   UNL     1       7.409  -1.680  -3.652  1.00  0.00    -0.248 NA
ATOM     67  C   UNL     1       7.048   0.341  -4.772  1.00  0.00     0.031 C 
ATOM     68  C   UNL     1       7.321  -4.275  -7.819  1.00  0.00     0.029 A 
ATOM     69  C   UNL     1       7.435  -3.186  -6.967  1.00  0.00     0.049 A 
ATOM     70  H   UNL     1       6.970  -1.196  -7.347  1.00  0.00     0.167 HD
ATOM     71  C   UNL     1       7.805  -1.817  -4.957  1.00  0.00     0.074 A 
ATOM     72  C   UNL     1       7.802  -0.471  -5.515  1.00  0.00     0.031 C 
ATOM     73  C   UNL     1       7.673  -3.031  -5.559  1.00  0.00     0.037 A 
BRANCH  60  74
ATOM     74  C   UNL     1       6.605  -0.090  -9.982  1.00  0.00     0.057 A 
ATOM     75  C   UNL     1       6.085   1.206  -9.770  1.00  0.00     0.134 A 
ATOM     76  C   UNL     1       7.988  -0.127 -10.243  1.00  0.00     0.134 A 
ATOM     77  F   UNL     1       4.807   1.447  -9.464  1.00  0.00    -0.206 F 
ATOM     78  C   UNL     1       6.877   2.358  -9.766  1.00  0.00     0.040 A 
ATOM     79  C   UNL     1       8.797   1.016 -10.198  1.00  0.00     0.040 A 
ATOM     80  F   UNL     1       8.614  -1.291 -10.470  1.00  0.00    -0.206 F 
ATOM     81  C   UNL     1       8.244   2.263  -9.946  1.00  0.00     0.006 A 
ENDBRANCH  60  74
BRANCH  61  82
ATOM     82  C   UNL     1       5.739   0.456  -1.641  1.00  0.00     0.057 A 
ATOM     83  C   UNL     1       4.941   1.578  -1.550  1.00  0.00     0.134 A 
ATOM     84  C   UNL     1       6.852   0.474  -0.787  1.00  0.00     0.134 A 
ATOM     85  F   UNL     1       4.124   1.796  -2.586  1.00  0.00    -0.206 F 
ATOM     86  C   UNL     1       5.077   2.567  -0.559  1.00  0.00     0.040 A 
ATOM     87  C   UNL     1       7.064   1.499   0.163  1.00  0.00     0.040 A 
ATOM     88  F   UNL     1       7.822  -0.440  -0.913  1.00  0.00    -0.206 F 
ATOM     89  C   UNL     1       6.150   2.533   0.306  1.00  0.00     0.006 A 
ENDBRANCH  61  82
BRANCH  73  90
ATOM     90  C   UNL     1       7.644  -4.212  -4.643  1.00  0.00     0.057 A 
ATOM     91  C   UNL     1       8.740  -5.074  -4.652  1.00  0.00     0.134 A 
ATOM     92  C   UNL     1       6.613  -4.491  -3.730  1.00  0.00     0.134 A 
ATOM     93  F   UNL     1       9.750  -4.871  -5.512  1.00  0.00    -0.206 F 
ATOM     94  C   UNL     1       8.827  -6.158  -3.779  1.00  0.00     0.040 A 
ATOM     95  C   UNL     1       6.703  -5.553  -2.827  1.00  0.00     0.040 A 
ATOM     96  F   UNL     1       5.502  -3.743  -3.688  1.00  0.00    -0.206 F 
ATOM     97  C   UNL     1       7.815  -6.391  -2.851  1.00  0.00     0.006 A 
ENDBRANCH  73  90
ENDBRANCH  47  48
ENDBRANCH  40  42
ENDBRANCH  39  40
ENDBRANCH  38  39
ENDBRANCH  37  38
ENDBRANCH   1  37
TORSDOF 17
