REMARK SMILES C[C@@H]1CN(C(=O)N2CC(CC(=O)OCCOC(=O)c3ccc(-c4c5nc(c(-c6c(F)cccc6F)c6ccc([nH]6)c(-c6c(F)cccc6F)c6nc(c(-c7c(F)cccc7F)c7ccc4[nH]7)C=C6)C=C5)cc3)C2)C[C@H]1C
REMARK SMILES IDX 15 1 14 2 13 3 11 4 12 5 10 6 9 7 1 8 2 9 3 10 75 11 4 12
REMARK SMILES IDX 74 13 76 14 5 15 6 16 7 17 8 18 73 19 16 20 17 21 18 22
REMARK SMILES IDX 19 23 20 24 72 25 21 26 71 27 22 28 23 29 24 30 65 31 25 32
REMARK SMILES IDX 70 33 64 34 66 35 26 36 69 37 63 38 62 39 27 41 53 42 36 43
REMARK SMILES IDX 52 44 37 45 40 46 51 47 67 48 38 49 39 50 50 52 68 53 41 54
REMARK SMILES IDX 28 55 29 56 34 57 30 58 31 59 33 60 35 61 32 62 54 63 55 64
REMARK SMILES IDX 60 65 56 66 57 67 59 68 61 69 58 70 42 71 43 72 48 73 44 74
REMARK SMILES IDX 45 75 47 76 49 77 46 78
REMARK H PARENT 66 40 40 51
REMARK Flexibility Score: inf
ROOT
ATOM      1  C   UNL     1       6.194   7.607  -4.002  1.00  0.00     0.275 C 
ENDROOT
BRANCH   1   2
ATOM      2  C   UNL     1       6.566   6.587  -2.924  1.00  0.00     0.274 C 
BRANCH   2   3
ATOM      3  O   UNL     1       5.450   6.317  -2.053  1.00  0.00    -0.462 OA
BRANCH   3   4
ATOM      4  C   UNL     1       5.479   6.922  -0.837  1.00  0.00     0.306 C 
ATOM      5  O   UNL     1       6.397   7.614  -0.415  1.00  0.00    -0.252 OA
BRANCH   4   6
ATOM      6  C   UNL     1       4.250   6.620  -0.018  1.00  0.00     0.130 C 
BRANCH   6   7
ATOM      7  C   UNL     1       2.964   6.451  -0.816  1.00  0.00     0.039 C 
ATOM      8  C   UNL     1       0.928  -0.070  -0.092  1.00  0.00     0.010 C 
ATOM      9  C   UNL     1       0.494   0.925  -1.159  1.00  0.00     0.010 C 
ATOM     10  C   UNL     1       1.174   2.289  -0.993  1.00  0.00     0.125 C 
ATOM     11  C   UNL     1      -1.006   1.266  -1.094  1.00  0.00     0.010 C 
ATOM     12  N   UNL     1       0.166   3.271  -1.363  1.00  0.00    -0.324 N 
ATOM     13  C   UNL     1      -1.062   2.626  -1.786  1.00  0.00     0.125 C 
ATOM     14  C   UNL     1      -1.898   0.227  -1.752  1.00  0.00     0.010 C 
ATOM     15  C   UNL     1       0.192   4.603  -1.010  1.00  0.00     0.320 C 
ATOM     16  O   UNL     1      -0.823   5.298  -0.984  1.00  0.00    -0.248 OA
ATOM     17  N   UNL     1       1.410   5.095  -0.625  1.00  0.00    -0.324 N 
ATOM     18  C   UNL     1       1.680   6.368   0.015  1.00  0.00     0.127 C 
ATOM     19  C   UNL     1       2.676   5.037  -1.340  1.00  0.00     0.127 C 
ENDBRANCH   6   7
ENDBRANCH   4   6
ENDBRANCH   3   4
ENDBRANCH   2   3
ENDBRANCH   1   2
BRANCH   1  20
ATOM     20  O   UNL     1       5.912   8.897  -3.427  1.00  0.00    -0.458 OA
BRANCH  20  21
ATOM     21  C   UNL     1       4.599   9.174  -3.258  1.00  0.00     0.338 C 
ATOM     22  O   UNL     1       3.648   8.480  -3.571  1.00  0.00    -0.246 OA
BRANCH  21  23
ATOM     23  C   UNL     1       4.452  10.434  -2.514  1.00  0.00     0.060 A 
ATOM     24  C   UNL     1       3.934  10.383  -1.218  1.00  0.00     0.016 A 
ATOM     25  C   UNL     1       4.729  11.660  -3.122  1.00  0.00     0.016 A 
ATOM     26  C   UNL     1       3.683  11.564  -0.523  1.00  0.00     0.010 A 
ATOM     27  C   UNL     1       4.480  12.845  -2.421  1.00  0.00     0.010 A 
ATOM     28  C   UNL     1       3.941  12.804  -1.123  1.00  0.00    -0.014 A 
BRANCH  28  29
ATOM     29  C   UNL     1       3.609  14.051  -0.393  1.00  0.00     0.031 A 
ATOM     30  C   UNL     1       2.381  14.836  -0.756  1.00  0.00     0.074 A 
ATOM     31  C   UNL     1       4.394  14.460   0.620  1.00  0.00     0.049 A 
ATOM     32  N   UNL     1       1.922  15.944  -0.230  1.00  0.00    -0.248 NA
ATOM     33  C   UNL     1       1.561  14.306  -1.856  1.00  0.00     0.031 C 
ATOM     34  C   UNL     1       5.605  13.778   1.077  1.00  0.00     0.029 A 
ATOM     35  N   UNL     1       4.287  15.547   1.449  1.00  0.00    -0.354 N 
ATOM     36  C   UNL     1       0.766  16.249  -0.937  1.00  0.00     0.074 A 
ATOM     37  C   UNL     1       0.607  15.222  -1.946  1.00  0.00     0.031 C 
ATOM     38  C   UNL     1       6.124  14.458   2.112  1.00  0.00     0.029 A 
ATOM     39  C   UNL     1       5.298  15.634   2.373  1.00  0.00     0.049 A 
ATOM     40  H   UNL     1       3.554  16.202   1.388  1.00  0.00     0.167 HD
ATOM     41  C   UNL     1      -0.088  17.284  -0.755  1.00  0.00     0.037 A 
ATOM     42  C   UNL     1       5.535  16.561   3.320  1.00  0.00     0.037 A 
ATOM     43  C   UNL     1       0.062  18.301   0.253  1.00  0.00     0.049 A 
ATOM     44  C   UNL     1       4.583  17.712   3.485  1.00  0.00     0.074 A 
ATOM     45  C   UNL     1      -0.762  19.381   0.520  1.00  0.00     0.029 A 
ATOM     46  N   UNL     1       1.108  18.363   1.161  1.00  0.00    -0.354 N 
ATOM     47  N   UNL     1       3.485  17.979   2.821  1.00  0.00    -0.248 NA
ATOM     48  C   UNL     1       4.902  18.687   4.538  1.00  0.00     0.031 C 
ATOM     49  C   UNL     1      -0.198  20.114   1.572  1.00  0.00     0.029 A 
ATOM     50  C   UNL     1       0.957  19.470   1.982  1.00  0.00     0.049 A 
ATOM     51  H   UNL     1       1.848  17.716   1.216  1.00  0.00     0.167 HD
ATOM     52  C   UNL     1       2.973  19.140   3.385  1.00  0.00     0.074 A 
ATOM     53  C   UNL     1       3.871  19.517   4.457  1.00  0.00     0.031 C 
ATOM     54  C   UNL     1       1.859  19.833   3.044  1.00  0.00     0.037 A 
BRANCH  41  55
ATOM     55  C   UNL     1      -1.262  17.376  -1.683  1.00  0.00     0.057 A 
ATOM     56  C   UNL     1      -2.365  16.520  -1.564  1.00  0.00     0.134 A 
ATOM     57  C   UNL     1      -1.306  18.353  -2.685  1.00  0.00     0.134 A 
ATOM     58  F   UNL     1      -2.378  15.556  -0.632  1.00  0.00    -0.206 F 
ATOM     59  C   UNL     1      -3.462  16.622  -2.421  1.00  0.00     0.040 A 
ATOM     60  C   UNL     1      -2.407  18.478  -3.535  1.00  0.00     0.040 A 
ATOM     61  F   UNL     1      -0.284  19.207  -2.849  1.00  0.00    -0.206 F 
ATOM     62  C   UNL     1      -3.487  17.607  -3.406  1.00  0.00     0.006 A 
ENDBRANCH  41  55
BRANCH  42  63
ATOM     63  C   UNL     1       6.726  16.435   4.194  1.00  0.00     0.057 A 
ATOM     64  C   UNL     1       6.599  16.090   5.543  1.00  0.00     0.134 A 
ATOM     65  C   UNL     1       8.015  16.666   3.702  1.00  0.00     0.134 A 
ATOM     66  F   UNL     1       5.386  15.879   6.075  1.00  0.00    -0.206 F 
ATOM     67  C   UNL     1       7.713  15.991   6.378  1.00  0.00     0.040 A 
ATOM     68  C   UNL     1       9.140  16.550   4.520  1.00  0.00     0.040 A 
ATOM     69  F   UNL     1       8.200  17.000   2.416  1.00  0.00    -0.206 F 
ATOM     70  C   UNL     1       8.989  16.216   5.864  1.00  0.00     0.006 A 
ENDBRANCH  42  63
BRANCH  54  71
ATOM     71  C   UNL     1       1.543  21.052   3.857  1.00  0.00     0.057 A 
ATOM     72  C   UNL     1       2.272  22.240   3.717  1.00  0.00     0.134 A 
ATOM     73  C   UNL     1       0.492  21.042   4.782  1.00  0.00     0.134 A 
ATOM     74  F   UNL     1       3.300  22.309   2.858  1.00  0.00    -0.206 F 
ATOM     75  C   UNL     1       1.984  23.367   4.489  1.00  0.00     0.040 A 
ATOM     76  C   UNL     1       0.180  22.169   5.544  1.00  0.00     0.040 A 
ATOM     77  F   UNL     1      -0.248  19.937   4.960  1.00  0.00    -0.206 F 
ATOM     78  C   UNL     1       0.932  23.334   5.403  1.00  0.00     0.006 A 
ENDBRANCH  54  71
ENDBRANCH  28  29
ENDBRANCH  21  23
ENDBRANCH  20  21
ENDBRANCH   1  20
TORSDOF 12
