REMARK SMILES Cc1cccc(OCC(=O)Nc2cc(C(=O)OCCOC(=O)c3ccc(-c4c5nc(c(-c6c(F)cccc6F)c6ccc([nH]6)c(-c6c(F)cccc6F)c6nc(c(-c7c(F)cccc7F)c7ccc4[nH]7)C=C6)C=C5)cc3)c(Cl)cc2Cl)c1
REMARK SMILES IDX 18 1 17 2 15 3 16 4 14 5 12 6 13 7 80 8 79 9 81 10 77 11
REMARK SMILES IDX 78 12 11 13 9 14 10 15 8 17 7 18 6 19 1 20 2 21 3 22 82 23
REMARK SMILES IDX 4 24 5 25 19 26 20 27 21 28 22 29 23 30 24 31 76 32 25 33
REMARK SMILES IDX 75 34 26 35 27 36 28 37 69 38 29 39 74 40 68 41 70 42 30 43
REMARK SMILES IDX 73 44 67 45 66 46 31 48 57 49 40 50 56 51 41 52 44 53 55 54
REMARK SMILES IDX 71 55 42 56 43 57 54 59 72 60 45 61 32 62 33 63 38 64 34 65
REMARK SMILES IDX 35 66 37 67 39 68 36 69 58 70 59 71 64 72 60 73 61 74 63 75
REMARK SMILES IDX 65 76 62 77 46 78 47 79 52 80 48 81 49 82 51 83 53 84 50 85
REMARK H PARENT 11 16 70 47 44 58
REMARK Flexibility Score: inf
ROOT
ATOM      1  C   UNL     1      -5.276  -0.791  -0.708  1.00  0.00     0.275 C 
ENDROOT
BRANCH   1   2
ATOM      2  O   UNL     1      -4.535   0.405  -0.508  1.00  0.00    -0.458 OA
BRANCH   2   3
ATOM      3  C   UNL     1      -4.125   0.565   0.752  1.00  0.00     0.339 C 
ATOM      4  O   UNL     1      -3.679  -0.316   1.474  1.00  0.00    -0.246 OA
BRANCH   3   5
ATOM      5  C   UNL     1      -4.350   2.027   1.202  1.00  0.00     0.080 A 
ATOM      6  C   UNL     1      -2.168   3.398   2.778  1.00  0.00     0.061 A 
ATOM      7  C   UNL     1      -2.651   2.231   1.700  1.00  0.00     0.045 A 
ATOM      8  C   UNL     1      -3.249   4.430   3.603  1.00  0.00     0.066 A 
ATOM      9  C   UNL     1      -4.960   4.447   3.343  1.00  0.00     0.044 A 
ATOM     10  Cl  UNL     1      -2.566   5.499   4.785  1.00  0.00    -0.082 Cl
ATOM     11  C   UNL     1      -5.723   3.226   2.193  1.00  0.00     0.057 A 
ATOM     12  Cl  UNL     1      -6.956   2.853   3.855  1.00  0.00    -0.083 Cl
BRANCH   6  13
ATOM     13  N   UNL     1      -0.778   3.610   2.794  1.00  0.00    -0.322 N 
ATOM     14  C   UNL     1       0.016   3.547   1.656  1.00  0.00     0.262 C 
ATOM     15  O   UNL     1       1.228   3.759   1.752  1.00  0.00    -0.271 OA
ATOM     16  H   UNL     1      -0.346   3.812   3.655  1.00  0.00     0.170 HD
BRANCH  14  17
ATOM     17  C   UNL     1      -0.652   3.435   0.229  1.00  0.00     0.329 C 
BRANCH  17  18
ATOM     18  O   UNL     1      -1.241   2.281  -0.387  1.00  0.00    -0.484 OA
BRANCH  18  19
ATOM     19  C   UNL     1      -0.573   1.099  -0.332  1.00  0.00     0.120 A 
ATOM     20  C   UNL     1       2.909  -0.166   0.005  1.00  0.00     0.044 C 
ATOM     21  C   UNL     1       1.424  -0.174  -0.055  1.00  0.00    -0.047 A 
ATOM     22  C   UNL     1       0.695  -1.369   0.009  1.00  0.00     0.003 A 
ATOM     23  C   UNL     1       0.786   1.052  -0.210  1.00  0.00     0.049 A 
ATOM     24  C   UNL     1      -0.678  -1.337  -0.130  1.00  0.00     0.004 A 
ATOM     25  C   UNL     1      -1.284  -0.108  -0.368  1.00  0.00     0.046 A 
ENDBRANCH  18  19
ENDBRANCH  17  18
ENDBRANCH  14  17
ENDBRANCH   6  13
ENDBRANCH   3   5
ENDBRANCH   2   3
ENDBRANCH   1   2
BRANCH   1  26
ATOM     26  C   UNL     1      -5.792  -1.595   0.551  1.00  0.00     0.275 C 
BRANCH  26  27
ATOM     27  O   UNL     1      -6.477  -1.008   1.768  1.00  0.00    -0.458 OA
BRANCH  27  28
ATOM     28  C   UNL     1      -6.038  -0.268   2.887  1.00  0.00     0.338 C 
ATOM     29  O   UNL     1      -6.439  -0.511   4.014  1.00  0.00    -0.246 OA
BRANCH  28  30
ATOM     30  C   UNL     1      -5.603   1.123   2.553  1.00  0.00     0.060 A 
ATOM     31  C   UNL     1      -4.309   2.401   2.991  1.00  0.00     0.016 A 
ATOM     32  C   UNL     1      -6.477   1.355   1.067  1.00  0.00     0.016 A 
ATOM     33  C   UNL     1      -4.119   3.836   1.512  1.00  0.00     0.010 A 
ATOM     34  C   UNL     1      -6.191   2.444  -0.010  1.00  0.00     0.010 A 
ATOM     35  C   UNL     1      -5.278   3.709   0.080  1.00  0.00    -0.014 A 
BRANCH  35  36
ATOM     36  C   UNL     1      -5.787   4.168  -1.460  1.00  0.00     0.031 A 
ATOM     37  C   UNL     1      -4.522   4.728  -2.068  1.00  0.00     0.074 A 
ATOM     38  C   UNL     1      -7.096   3.736  -2.093  1.00  0.00     0.049 A 
ATOM     39  N   UNL     1      -4.176   5.934  -2.383  1.00  0.00    -0.248 NA
ATOM     40  C   UNL     1      -3.272   3.941  -1.953  1.00  0.00     0.031 C 
ATOM     41  C   UNL     1      -7.862   3.782  -3.454  1.00  0.00     0.029 A 
ATOM     42  N   UNL     1      -8.249   3.130  -1.421  1.00  0.00    -0.354 N 
ATOM     43  C   UNL     1      -3.022   5.772  -3.173  1.00  0.00     0.074 A 
ATOM     44  C   UNL     1      -2.345   4.654  -2.604  1.00  0.00     0.031 C 
ATOM     45  C   UNL     1      -9.210   3.947  -3.291  1.00  0.00     0.029 A 
ATOM     46  C   UNL     1      -9.468   3.698  -1.906  1.00  0.00     0.049 A 
ATOM     47  H   UNL     1      -8.192   2.430  -0.731  1.00  0.00     0.167 HD
ATOM     48  C   UNL     1      -3.085   6.024  -4.515  1.00  0.00     0.037 A 
ATOM     49  C   UNL     1     -10.262   4.477  -1.137  1.00  0.00     0.037 A 
ATOM     50  C   UNL     1      -4.500   6.128  -4.863  1.00  0.00     0.049 A 
ATOM     51  C   UNL     1      -9.691   5.873  -1.454  1.00  0.00     0.074 A 
ATOM     52  C   UNL     1      -5.378   5.274  -5.494  1.00  0.00     0.029 A 
ATOM     53  N   UNL     1      -5.285   7.009  -4.138  1.00  0.00    -0.354 N 
ATOM     54  N   UNL     1      -8.481   6.112  -1.924  1.00  0.00    -0.248 NA
ATOM     55  C   UNL     1     -10.594   6.994  -1.611  1.00  0.00     0.031 C 
ATOM     56  C   UNL     1      -6.699   5.731  -5.180  1.00  0.00     0.029 A 
ATOM     57  C   UNL     1      -6.633   6.764  -4.245  1.00  0.00     0.049 A 
ATOM     58  H   UNL     1      -4.913   7.743  -3.597  1.00  0.00     0.167 HD
ATOM     59  C   UNL     1      -8.517   7.248  -2.694  1.00  0.00     0.074 A 
ATOM     60  C   UNL     1      -9.872   7.739  -2.459  1.00  0.00     0.031 C 
ATOM     61  C   UNL     1      -7.554   7.700  -3.574  1.00  0.00     0.037 A 
BRANCH  48  62
ATOM     62  C   UNL     1      -1.973   5.901  -5.546  1.00  0.00     0.057 A 
ATOM     63  C   UNL     1      -2.293   6.103  -6.904  1.00  0.00     0.134 A 
ATOM     64  C   UNL     1      -0.592   5.728  -5.300  1.00  0.00     0.134 A 
ATOM     65  F   UNL     1      -3.552   6.336  -7.297  1.00  0.00    -0.206 F 
ATOM     66  C   UNL     1      -1.346   6.122  -7.934  1.00  0.00     0.040 A 
ATOM     67  C   UNL     1       0.374   5.734  -6.333  1.00  0.00     0.040 A 
ATOM     68  F   UNL     1      -0.108   5.586  -4.058  1.00  0.00    -0.206 F 
ATOM     69  C   UNL     1      -0.003   5.939  -7.655  1.00  0.00     0.006 A 
ENDBRANCH  48  62
BRANCH  49  70
ATOM     70  C   UNL     1     -10.389   3.774   0.170  1.00  0.00     0.057 A 
ATOM     71  C   UNL     1     -10.865   2.403   0.197  1.00  0.00     0.134 A 
ATOM     72  C   UNL     1      -9.425   4.134   1.058  1.00  0.00     0.134 A 
ATOM     73  F   UNL     1     -11.758   1.987  -0.712  1.00  0.00    -0.206 F 
ATOM     74  C   UNL     1     -10.252   1.389   0.947  1.00  0.00     0.040 A 
ATOM     75  C   UNL     1      -8.810   3.092   1.683  1.00  0.00     0.040 A 
ATOM     76  F   UNL     1      -8.717   5.269   0.946  1.00  0.00    -0.206 F 
ATOM     77  C   UNL     1      -9.199   1.749   1.729  1.00  0.00     0.006 A 
ENDBRANCH  49  70
BRANCH  61  78
ATOM     78  C   UNL     1      -7.401   9.196  -3.904  1.00  0.00     0.057 A 
ATOM     79  C   UNL     1      -8.188  10.207  -3.336  1.00  0.00     0.134 A 
ATOM     80  C   UNL     1      -6.355   9.709  -4.720  1.00  0.00     0.134 A 
ATOM     81  F   UNL     1      -9.036   9.991  -2.327  1.00  0.00    -0.206 F 
ATOM     82  C   UNL     1      -8.089  11.552  -3.692  1.00  0.00     0.040 A 
ATOM     83  C   UNL     1      -6.152  11.069  -4.960  1.00  0.00     0.040 A 
ATOM     84  F   UNL     1      -5.426   8.954  -5.316  1.00  0.00    -0.206 F 
ATOM     85  C   UNL     1      -7.056  11.994  -4.491  1.00  0.00     0.006 A 
ENDBRANCH  61  78
ENDBRANCH  35  36
ENDBRANCH  28  30
ENDBRANCH  27  28
ENDBRANCH  26  27
ENDBRANCH   1  26
TORSDOF 15
