REMARK SMILES C[C@@H](CNC(=O)Cc1ccc(F)cc1F)C(=O)OCCOC(=O)c1ccc(-c2c3nc(c(-c4c(F)cccc4F)c4ccc([nH]4)c(-c4c(F)cccc4F)c4nc(c(-c5c(F)cccc5F)c5ccc2[nH]5)C=C4)C=C3)cc1
REMARK SMILES IDX 19 1 18 2 16 3 17 4 2 5 1 6 3 7 4 8 5 9 6 11 7 12 8 13 9 14
REMARK SMILES IDX 14 15 10 16 13 17 15 18 11 19 12 20 20 21 21 22 22 23 23 24
REMARK SMILES IDX 24 25 25 26 77 27 26 28 76 29 27 30 28 31 29 32 70 33 30 34
REMARK SMILES IDX 75 35 69 36 71 37 31 38 74 39 68 40 67 41 32 43 58 44 41 45
REMARK SMILES IDX 57 46 42 47 45 48 56 49 72 50 43 51 44 52 55 54 73 55 46 56
REMARK SMILES IDX 33 57 34 58 39 59 35 60 36 61 38 62 40 63 37 64 59 65 60 66
REMARK SMILES IDX 65 67 61 68 62 69 64 70 66 71 63 72 47 73 48 74 53 75 49 76
REMARK SMILES IDX 50 77 52 78 54 79 51 80
REMARK H PARENT 4 10 71 42 45 53
REMARK Flexibility Score: inf
ROOT
ATOM      1  C   UNL     1      -2.912  -0.026  -0.749  1.00  0.00     0.274 C 
ENDROOT
BRANCH   1   2
ATOM      2  O   UNL     1      -1.477  -0.125  -0.838  1.00  0.00    -0.462 OA
BRANCH   2   3
ATOM      3  C   UNL     1      -0.781   1.037  -0.738  1.00  0.00     0.310 C 
ATOM      4  O   UNL     1      -1.275   2.135  -0.506  1.00  0.00    -0.252 OA
BRANCH   3   5
ATOM      5  C   UNL     1       0.701   0.868  -0.995  1.00  0.00     0.115 C 
ATOM      6  C   UNL     1       1.229  -0.534  -0.710  1.00  0.00     0.022 C 
BRANCH   5   7
ATOM      7  C   UNL     1       1.032   1.367  -2.403  1.00  0.00     0.130 C 
BRANCH   7   8
ATOM      8  N   UNL     1       0.291   0.677  -3.445  1.00  0.00    -0.355 N 
ATOM      9  C   UNL     1      -0.536   1.185  -4.405  1.00  0.00     0.224 C 
ATOM     10  H   UNL     1       0.402  -0.301  -3.461  1.00  0.00     0.163 HD
ATOM     11  O   UNL     1      -1.091   0.390  -5.166  1.00  0.00    -0.275 OA
BRANCH   9  12
ATOM     12  C   UNL     1      -0.694   2.688  -4.572  1.00  0.00     0.138 C 
BRANCH  12  13
ATOM     13  C   UNL     1      -1.563   3.383  -3.552  1.00  0.00    -0.003 A 
ATOM     14  C   UNL     1      -1.115   4.561  -2.929  1.00  0.00     0.010 A 
ATOM     15  C   UNL     1      -2.847   2.920  -3.243  1.00  0.00     0.129 A 
ATOM     16  C   UNL     1      -1.917   5.217  -1.992  1.00  0.00     0.040 A 
ATOM     17  C   UNL     1      -3.655   3.572  -2.316  1.00  0.00     0.078 A 
ATOM     18  F   UNL     1      -3.322   1.814  -3.831  1.00  0.00    -0.207 F 
ATOM     19  C   UNL     1      -3.176   4.711  -1.689  1.00  0.00     0.126 A 
ATOM     20  F   UNL     1      -3.938   5.339  -0.784  1.00  0.00    -0.207 F 
ENDBRANCH  12  13
ENDBRANCH   9  12
ENDBRANCH   7   8
ENDBRANCH   5   7
ENDBRANCH   3   5
ENDBRANCH   2   3
ENDBRANCH   1   2
BRANCH   1  21
ATOM     21  C   UNL     1      -3.448  -0.202   0.676  1.00  0.00     0.275 C 
BRANCH  21  22
ATOM     22  O   UNL     1      -3.108   0.908   1.528  1.00  0.00    -0.458 OA
BRANCH  22  23
ATOM     23  C   UNL     1      -1.921   0.776   2.161  1.00  0.00     0.338 C 
ATOM     24  O   UNL     1      -1.180  -0.195   2.135  1.00  0.00    -0.246 OA
BRANCH  23  25
ATOM     25  C   UNL     1      -1.522   2.036   2.812  1.00  0.00     0.060 A 
ATOM     26  C   UNL     1      -0.214   2.475   2.584  1.00  0.00     0.016 A 
ATOM     27  C   UNL     1      -2.344   2.696   3.729  1.00  0.00     0.016 A 
ATOM     28  C   UNL     1       0.305   3.536   3.313  1.00  0.00     0.010 A 
ATOM     29  C   UNL     1      -1.817   3.757   4.475  1.00  0.00     0.010 A 
ATOM     30  C   UNL     1      -0.477   4.146   4.300  1.00  0.00    -0.014 A 
BRANCH  30  31
ATOM     31  C   UNL     1       0.203   5.043   5.263  1.00  0.00     0.031 A 
ATOM     32  C   UNL     1       0.673   4.470   6.571  1.00  0.00     0.074 A 
ATOM     33  C   UNL     1       0.512   6.305   4.922  1.00  0.00     0.049 A 
ATOM     34  N   UNL     1       1.343   5.046   7.536  1.00  0.00    -0.248 NA
ATOM     35  C   UNL     1       0.356   3.054   6.821  1.00  0.00     0.031 C 
ATOM     36  C   UNL     1       0.174   6.941   3.650  1.00  0.00     0.029 A 
ATOM     37  N   UNL     1       1.205   7.267   5.610  1.00  0.00    -0.354 N 
ATOM     38  C   UNL     1       1.522   4.067   8.505  1.00  0.00     0.074 A 
ATOM     39  C   UNL     1       0.874   2.867   8.025  1.00  0.00     0.031 C 
ATOM     40  C   UNL     1       0.678   8.188   3.642  1.00  0.00     0.029 A 
ATOM     41  C   UNL     1       1.349   8.442   4.915  1.00  0.00     0.049 A 
ATOM     42  H   UNL     1       1.565   7.128   6.516  1.00  0.00     0.167 HD
ATOM     43  C   UNL     1       2.176   4.158   9.687  1.00  0.00     0.037 A 
ATOM     44  C   UNL     1       1.954   9.591   5.271  1.00  0.00     0.037 A 
ATOM     45  C   UNL     1       2.824   5.350  10.162  1.00  0.00     0.049 A 
ATOM     46  C   UNL     1       2.626   9.686   6.613  1.00  0.00     0.074 A 
ATOM     47  C   UNL     1       3.482   5.556  11.361  1.00  0.00     0.029 A 
ATOM     48  N   UNL     1       2.900   6.538   9.451  1.00  0.00    -0.354 N 
ATOM     49  N   UNL     1       2.761   8.765   7.537  1.00  0.00    -0.248 NA
ATOM     50  C   UNL     1       3.231  10.979   6.963  1.00  0.00     0.031 C 
ATOM     51  C   UNL     1       3.935   6.880  11.388  1.00  0.00     0.029 A 
ATOM     52  C   UNL     1       3.590   7.485  10.190  1.00  0.00     0.049 A 
ATOM     53  H   UNL     1       2.521   6.687   8.555  1.00  0.00     0.167 HD
ATOM     54  C   UNL     1       3.480   9.358   8.566  1.00  0.00     0.074 A 
ATOM     55  C   UNL     1       3.764  10.716   8.148  1.00  0.00     0.031 C 
ATOM     56  C   UNL     1       3.870   8.827   9.750  1.00  0.00     0.037 A 
BRANCH  43  57
ATOM     57  C   UNL     1       2.193   2.938  10.556  1.00  0.00     0.057 A 
ATOM     58  C   UNL     1       1.396   2.870  11.705  1.00  0.00     0.134 A 
ATOM     59  C   UNL     1       3.010   1.838  10.267  1.00  0.00     0.134 A 
ATOM     60  F   UNL     1       0.591   3.891  12.036  1.00  0.00    -0.206 F 
ATOM     61  C   UNL     1       1.413   1.752  12.539  1.00  0.00     0.040 A 
ATOM     62  C   UNL     1       3.021   0.705  11.082  1.00  0.00     0.040 A 
ATOM     63  F   UNL     1       3.782   1.835   9.170  1.00  0.00    -0.206 F 
ATOM     64  C   UNL     1       2.224   0.663  12.225  1.00  0.00     0.006 A 
ENDBRANCH  43  57
BRANCH  44  65
ATOM     65  C   UNL     1       1.956  10.741   4.336  1.00  0.00     0.057 A 
ATOM     66  C   UNL     1       0.787  11.463   4.068  1.00  0.00     0.134 A 
ATOM     67  C   UNL     1       3.126  11.139   3.680  1.00  0.00     0.134 A 
ATOM     68  F   UNL     1      -0.366  11.130   4.667  1.00  0.00    -0.206 F 
ATOM     69  C   UNL     1       0.777  12.530   3.170  1.00  0.00     0.040 A 
ATOM     70  C   UNL     1       3.136  12.217   2.794  1.00  0.00     0.040 A 
ATOM     71  F   UNL     1       4.282  10.498   3.912  1.00  0.00    -0.206 F 
ATOM     72  C   UNL     1       1.956  12.912   2.532  1.00  0.00     0.006 A 
ENDBRANCH  44  65
BRANCH  56  73
ATOM     73  C   UNL     1       4.668   9.703  10.668  1.00  0.00     0.057 A 
ATOM     74  C   UNL     1       6.040   9.483  10.847  1.00  0.00     0.134 A 
ATOM     75  C   UNL     1       4.069  10.722  11.417  1.00  0.00     0.134 A 
ATOM     76  F   UNL     1       6.669   8.514  10.165  1.00  0.00    -0.206 F 
ATOM     77  C   UNL     1       6.787  10.244  11.746  1.00  0.00     0.040 A 
ATOM     78  C   UNL     1       4.811  11.503  12.305  1.00  0.00     0.040 A 
ATOM     79  F   UNL     1       2.761  10.986  11.282  1.00  0.00    -0.206 F 
ATOM     80  C   UNL     1       6.173  11.259  12.476  1.00  0.00     0.006 A 
ENDBRANCH  56  73
ENDBRANCH  30  31
ENDBRANCH  23  25
ENDBRANCH  22  23
ENDBRANCH  21  22
ENDBRANCH   1  21
TORSDOF 15
