REMARK SMILES CCCCN(c1ccccc1C(=O)OCCOC(=O)c1ccc(-c2c3nc(c(-c4c(F)cccc4F)c4ccc([nH]4)c(-c4c(F)cccc4F)c4nc(c(-c5c(F)cccc5F)c5ccc2[nH]5)C=C4)C=C3)cc1)S(=O)(=O)c1ccc2c(c1)oc(=O)n2C
REMARK SMILES IDX 15 1 14 2 12 3 13 4 11 5 6 6 7 7 8 8 10 9 9 10 5 11 4 12
REMARK SMILES IDX 3 13 2 14 1 15 74 16 75 17 76 18 77 19 78 20 82 21 79 22
REMARK SMILES IDX 81 23 80 24 83 25 86 26 84 27 87 28 85 29 16 30 17 31 18 32
REMARK SMILES IDX 19 33 20 34 21 35 73 36 22 37 72 38 23 39 24 40 25 41 66 42
REMARK SMILES IDX 26 43 71 44 65 45 67 46 27 47 70 48 64 49 63 50 28 52 54 53
REMARK SMILES IDX 37 54 53 55 38 56 41 57 52 58 68 59 39 60 40 61 51 63 69 64
REMARK SMILES IDX 42 65 29 66 30 67 35 68 31 69 32 70 34 71 36 72 33 73 55 74
REMARK SMILES IDX 56 75 61 76 57 77 58 78 60 79 62 80 59 81 43 82 44 83 49 84
REMARK SMILES IDX 45 85 46 86 48 87 50 88 47 89
REMARK H PARENT 67 51 41 62
REMARK Flexibility Score: inf
ROOT
ATOM      1  C   UNL     1       1.399  -1.492  -4.220  1.00  0.00     0.275 C 
ENDROOT
BRANCH   1   2
ATOM      2  O   UNL     1       0.065  -0.932  -4.138  1.00  0.00    -0.458 OA
BRANCH   2   3
ATOM      3  C   UNL     1      -0.193   0.093  -4.980  1.00  0.00     0.340 C 
ATOM      4  O   UNL     1       0.548   0.503  -5.862  1.00  0.00    -0.246 OA
BRANCH   3   5
ATOM      5  C   UNL     1      -1.501   0.742  -4.747  1.00  0.00     0.084 A 
ATOM      6  C   UNL     1      -1.781   1.543  -3.629  1.00  0.00     0.066 A 
ATOM      7  C   UNL     1      -2.836   2.467  -3.733  1.00  0.00     0.028 A 
ATOM      8  C   UNL     1      -3.685   2.500  -4.843  1.00  0.00     0.002 A 
ATOM      9  C   UNL     1      -2.360   0.790  -5.863  1.00  0.00     0.018 A 
ATOM     10  C   UNL     1      -3.467   1.632  -5.899  1.00  0.00     0.001 A 
BRANCH   6  11
ATOM     11  N   UNL     1      -1.125   1.461  -2.343  1.00  0.00    -0.265 N 
BRANCH  11  12
ATOM     12  C   UNL     1       0.360   1.348  -2.276  1.00  0.00     0.136 C 
BRANCH  12  13
ATOM     13  C   UNL     1       1.061   2.223  -1.238  1.00  0.00     0.022 C 
BRANCH  13  14
ATOM     14  C   UNL     1       1.088   1.735   0.213  1.00  0.00    -0.002 C 
ATOM     15  C   UNL     1       1.618   0.323   0.426  1.00  0.00     0.004 C 
ENDBRANCH  13  14
ENDBRANCH  12  13
ENDBRANCH  11  12
BRANCH  11  16
ATOM     16  S   UNL     1      -2.012   0.863  -1.001  1.00  0.00     0.264 S 
ATOM     17  O   UNL     1      -1.354  -0.342  -0.538  1.00  0.00    -0.201 OA
ATOM     18  O   UNL     1      -2.213   1.980  -0.099  1.00  0.00    -0.201 OA
BRANCH  16  19
ATOM     19  C   UNL     1      -3.656   0.355  -1.502  1.00  0.00     0.091 A 
ATOM     20  C   UNL     1      -4.699   1.313  -1.521  1.00  0.00     0.025 A 
ATOM     21  C   UNL     1      -3.944  -1.010  -1.634  1.00  0.00     0.071 A 
ATOM     22  C   UNL     1      -6.022   0.937  -1.777  1.00  0.00     0.032 A 
ATOM     23  C   UNL     1      -5.268  -1.357  -1.823  1.00  0.00     0.157 A 
ATOM     24  C   UNL     1      -6.272  -0.410  -1.915  1.00  0.00     0.090 A 
ATOM     25  O   UNL     1      -5.751  -2.654  -1.910  1.00  0.00    -0.408 OA
ATOM     26  N   UNL     1      -7.436  -1.112  -2.113  1.00  0.00    -0.277 N 
ATOM     27  C   UNL     1      -7.128  -2.458  -2.085  1.00  0.00     0.419 A 
ATOM     28  C   UNL     1      -8.746  -0.576  -2.337  1.00  0.00     0.157 C 
ATOM     29  O   UNL     1      -7.928  -3.379  -2.196  1.00  0.00    -0.223 OA
ENDBRANCH  16  19
ENDBRANCH  11  16
ENDBRANCH   6  11
ENDBRANCH   3   5
ENDBRANCH   2   3
ENDBRANCH   1   2
BRANCH   1  30
ATOM     30  C   UNL     1       1.369  -2.960  -4.636  1.00  0.00     0.275 C 
BRANCH  30  31
ATOM     31  O   UNL     1       0.957  -3.068  -6.007  1.00  0.00    -0.458 OA
BRANCH  31  32
ATOM     32  C   UNL     1      -0.370  -3.242  -6.168  1.00  0.00     0.338 C 
ATOM     33  O   UNL     1      -1.219  -3.409  -5.309  1.00  0.00    -0.246 OA
BRANCH  32  34
ATOM     34  C   UNL     1      -0.721  -3.058  -7.576  1.00  0.00     0.060 A 
ATOM     35  C   UNL     1      -0.926  -1.757  -8.019  1.00  0.00     0.016 A 
ATOM     36  C   UNL     1      -1.062  -4.141  -8.375  1.00  0.00     0.016 A 
ATOM     37  C   UNL     1      -1.639  -1.528  -9.185  1.00  0.00     0.010 A 
ATOM     38  C   UNL     1      -1.639  -3.902  -9.625  1.00  0.00     0.010 A 
ATOM     39  C   UNL     1      -1.988  -2.596 -10.019  1.00  0.00    -0.014 A 
BRANCH  39  40
ATOM     40  C   UNL     1      -2.736  -2.351 -11.283  1.00  0.00     0.031 A 
ATOM     41  C   UNL     1      -4.026  -3.082 -11.550  1.00  0.00     0.074 A 
ATOM     42  C   UNL     1      -2.259  -1.480 -12.195  1.00  0.00     0.049 A 
ATOM     43  N   UNL     1      -4.699  -3.192 -12.666  1.00  0.00    -0.248 NA
ATOM     44  C   UNL     1      -4.625  -3.806 -10.416  1.00  0.00     0.031 C 
ATOM     45  C   UNL     1      -1.050  -0.665 -12.044  1.00  0.00     0.029 A 
ATOM     46  N   UNL     1      -2.731  -1.137 -13.438  1.00  0.00    -0.354 N 
ATOM     47  C   UNL     1      -5.756  -4.052 -12.389  1.00  0.00     0.074 A 
ATOM     48  C   UNL     1      -5.634  -4.437 -10.999  1.00  0.00     0.031 C 
ATOM     49  C   UNL     1      -0.895   0.103 -13.131  1.00  0.00     0.029 A 
ATOM     50  C   UNL     1      -1.920  -0.249 -14.102  1.00  0.00     0.049 A 
ATOM     51  H   UNL     1      -3.568  -1.492 -13.815  1.00  0.00     0.167 HD
ATOM     52  C   UNL     1      -6.734  -4.482 -13.223  1.00  0.00     0.037 A 
ATOM     53  C   UNL     1      -1.950   0.187 -15.375  1.00  0.00     0.037 A 
ATOM     54  C   UNL     1      -6.871  -4.046 -14.589  1.00  0.00     0.049 A 
ATOM     55  C   UNL     1      -3.016  -0.334 -16.292  1.00  0.00     0.074 A 
ATOM     56  C   UNL     1      -7.842  -4.393 -15.513  1.00  0.00     0.029 A 
ATOM     57  N   UNL     1      -6.015  -3.158 -15.225  1.00  0.00    -0.354 N 
ATOM     58  N   UNL     1      -3.985  -1.179 -16.034  1.00  0.00    -0.248 NA
ATOM     59  C   UNL     1      -2.984   0.144 -17.679  1.00  0.00     0.031 C 
ATOM     60  C   UNL     1      -7.543  -3.756 -16.721  1.00  0.00     0.029 A 
ATOM     61  C   UNL     1      -6.421  -2.963 -16.535  1.00  0.00     0.049 A 
ATOM     62  H   UNL     1      -5.233  -2.729 -14.806  1.00  0.00     0.167 HD
ATOM     63  C   UNL     1      -4.690  -1.321 -17.221  1.00  0.00     0.074 A 
ATOM     64  C   UNL     1      -4.047  -0.458 -18.192  1.00  0.00     0.031 C 
ATOM     65  C   UNL     1      -5.770  -2.096 -17.484  1.00  0.00     0.037 A 
BRANCH  52  66
ATOM     66  C   UNL     1      -7.701  -5.507 -12.699  1.00  0.00     0.057 A 
ATOM     67  C   UNL     1      -8.664  -5.209 -11.727  1.00  0.00     0.134 A 
ATOM     68  C   UNL     1      -7.682  -6.816 -13.203  1.00  0.00     0.134 A 
ATOM     69  F   UNL     1      -8.732  -3.981 -11.192  1.00  0.00    -0.206 F 
ATOM     70  C   UNL     1      -9.551  -6.180 -11.254  1.00  0.00     0.040 A 
ATOM     71  C   UNL     1      -8.583  -7.786 -12.761  1.00  0.00     0.040 A 
ATOM     72  F   UNL     1      -6.792  -7.172 -14.142  1.00  0.00    -0.206 F 
ATOM     73  C   UNL     1      -9.516  -7.471 -11.776  1.00  0.00     0.006 A 
ENDBRANCH  52  66
BRANCH  53  74
ATOM     74  C   UNL     1      -0.903   1.121 -15.861  1.00  0.00     0.057 A 
ATOM     75  C   UNL     1      -1.213   2.440 -16.209  1.00  0.00     0.134 A 
ATOM     76  C   UNL     1       0.437   0.725 -15.971  1.00  0.00     0.134 A 
ATOM     77  F   UNL     1      -2.480   2.875 -16.143  1.00  0.00    -0.206 F 
ATOM     78  C   UNL     1      -0.233   3.328 -16.657  1.00  0.00     0.040 A 
ATOM     79  C   UNL     1       1.432   1.610 -16.385  1.00  0.00     0.040 A 
ATOM     80  F   UNL     1       0.803  -0.524 -15.645  1.00  0.00    -0.206 F 
ATOM     81  C   UNL     1       1.096   2.915 -16.737  1.00  0.00     0.006 A 
ENDBRANCH  53  74
BRANCH  65  82
ATOM     82  C   UNL     1      -6.348  -2.009 -18.866  1.00  0.00     0.057 A 
ATOM     83  C   UNL     1      -5.696  -2.554 -19.979  1.00  0.00     0.134 A 
ATOM     84  C   UNL     1      -7.587  -1.392 -19.078  1.00  0.00     0.134 A 
ATOM     85  F   UNL     1      -4.498  -3.143 -19.845  1.00  0.00    -0.206 F 
ATOM     86  C   UNL     1      -6.245  -2.466 -21.259  1.00  0.00     0.040 A 
ATOM     87  C   UNL     1      -8.160  -1.325 -20.348  1.00  0.00     0.040 A 
ATOM     88  F   UNL     1      -8.266  -0.856 -18.053  1.00  0.00    -0.206 F 
ATOM     89  C   UNL     1      -7.484  -1.856 -21.444  1.00  0.00     0.006 A 
ENDBRANCH  65  82
ENDBRANCH  39  40
ENDBRANCH  32  34
ENDBRANCH  31  32
ENDBRANCH  30  31
ENDBRANCH   1  30
TORSDOF 17
