REMARK SMILES NS(=O)(=O)c1ccc(-c2cc(Cl)cc3c2O[C@H](C(F)(F)F)C(C(=O)OCCOC(=O)c2ccc(-c4c5nc(c(-c6c(F)cccc6F)c6ccc([nH]6)c(-c6c(F)cccc6F)c6nc(c(-c7c(F)cccc7F)c7ccc4[nH]7)C=C6)C=C5)cc2)=C3)cc1
REMARK SMILES IDX 26 1 25 2 23 3 24 4 22 5 9 6 10 7 15 8 11 9 14 10 16 11
REMARK SMILES IDX 12 12 13 13 85 14 17 15 8 16 5 17 6 18 87 19 7 20 86 21 2 22
REMARK SMILES IDX 3 23 4 24 1 25 18 28 19 29 20 30 21 31 27 32 28 33 29 34
REMARK SMILES IDX 30 35 31 36 32 37 84 38 33 39 83 40 34 41 35 42 36 43 77 44
REMARK SMILES IDX 37 45 82 46 76 47 78 48 38 49 81 50 75 51 74 52 39 54 65 55
REMARK SMILES IDX 48 56 64 57 49 58 52 59 63 60 79 61 50 62 51 63 62 65 80 66
REMARK SMILES IDX 53 67 40 68 41 69 46 70 42 71 43 72 45 73 47 74 44 75 66 76
REMARK SMILES IDX 67 77 72 78 68 79 69 80 71 81 73 82 70 83 54 84 55 85 60 86
REMARK SMILES IDX 56 87 57 88 59 89 61 90 58 91
REMARK H PARENT 1 26 1 27 78 53 52 64
REMARK Flexibility Score: inf
ROOT
ATOM      1  C   UNL     1       2.271  10.066   8.490  1.00  0.00     0.275 C 
ENDROOT
BRANCH   1   2
ATOM      2  O   UNL     1       1.285   9.932   7.439  1.00  0.00    -0.459 OA
BRANCH   2   3
ATOM      3  C   UNL     1       1.286  11.009   6.609  1.00  0.00     0.338 C 
ATOM      4  O   UNL     1       1.970  12.011   6.779  1.00  0.00    -0.246 OA
BRANCH   3   5
ATOM      5  C   UNL     1       0.473  10.822   5.382  1.00  0.00     0.087 C 
ATOM      6  C   UNL     1       1.122   7.611   2.953  1.00  0.00     0.026 A 
ATOM      7  C   UNL     1       2.495   7.314   3.144  1.00  0.00     0.033 A 
ATOM      8  C   UNL     1       0.700   8.821   3.509  1.00  0.00     0.135 A 
ATOM      9  C   UNL     1       3.404   8.229   3.690  1.00  0.00     0.042 A 
ATOM     10  C   UNL     1       1.660   9.809   3.829  1.00  0.00     0.019 A 
ATOM     11  O   UNL     1      -0.602   9.084   3.903  1.00  0.00    -0.475 OA
ATOM     12  Cl  UNL     1       5.031   7.836   4.059  1.00  0.00    -0.084 Cl
ATOM     13  C   UNL     1       3.005   9.518   3.941  1.00  0.00     0.032 A 
ATOM     14  C   UNL     1       1.181  11.129   4.283  1.00  0.00     0.027 C 
ATOM     15  C   UNL     1      -0.631   9.788   5.234  1.00  0.00     0.316 C 
BRANCH   6  16
ATOM     16  C   UNL     1       0.402   6.721   1.998  1.00  0.00    -0.015 A 
ATOM     17  C   UNL     1      -0.095   4.657   0.102  1.00  0.00     0.082 A 
ATOM     18  C   UNL     1      -0.522   4.517   1.425  1.00  0.00     0.022 A 
ATOM     19  C   UNL     1       0.486   5.854  -0.309  1.00  0.00     0.022 A 
ATOM     20  C   UNL     1      -0.303   5.561   2.356  1.00  0.00     0.010 A 
ATOM     21  C   UNL     1       0.726   6.866   0.629  1.00  0.00     0.010 A 
BRANCH  17  22
ATOM     22  S   UNL     1      -0.259   3.332  -1.074  1.00  0.00     0.238 S 
ATOM     23  O   UNL     1       0.547   3.627  -2.229  1.00  0.00    -0.207 OA
ATOM     24  O   UNL     1      -1.668   3.001  -1.180  1.00  0.00    -0.207 OA
BRANCH  22  25
ATOM     25  N   UNL     1       0.485   2.035  -0.325  1.00  0.00    -0.225 NA
ATOM     26  H   UNL     1       0.439   1.218  -0.934  1.00  0.00     0.137 HD
ATOM     27  H   UNL     1       0.010   1.831   0.554  1.00  0.00     0.137 HD
ENDBRANCH  22  25
ENDBRANCH  17  22
ENDBRANCH   6  16
BRANCH  15  28
ATOM     28  C   UNL     1      -1.955  10.534   5.421  1.00  0.00     0.430 C 
ATOM     29  F   UNL     1      -2.159  11.451   4.445  1.00  0.00    -0.167 F 
ATOM     30  F   UNL     1      -3.014   9.696   5.427  1.00  0.00    -0.167 F 
ATOM     31  F   UNL     1      -1.971  11.202   6.603  1.00  0.00    -0.167 F 
ENDBRANCH  15  28
ENDBRANCH   3   5
ENDBRANCH   2   3
ENDBRANCH   1   2
BRANCH   1  32
ATOM     32  C   UNL     1       2.388   8.815   9.364  1.00  0.00     0.275 C 
BRANCH  32  33
ATOM     33  O   UNL     1       2.787   7.679   8.574  1.00  0.00    -0.458 OA
BRANCH  33  34
ATOM     34  C   UNL     1       1.759   6.888   8.189  1.00  0.00     0.338 C 
ATOM     35  O   UNL     1       0.588   7.013   8.516  1.00  0.00    -0.246 OA
BRANCH  34  36
ATOM     36  C   UNL     1       2.193   5.906   7.167  1.00  0.00     0.060 A 
ATOM     37  C   UNL     1       1.242   5.566   6.211  1.00  0.00     0.016 A 
ATOM     38  C   UNL     1       3.463   5.315   7.114  1.00  0.00     0.016 A 
ATOM     39  C   UNL     1       1.572   4.674   5.195  1.00  0.00     0.010 A 
ATOM     40  C   UNL     1       3.780   4.398   6.086  1.00  0.00     0.010 A 
ATOM     41  C   UNL     1       2.840   4.081   5.097  1.00  0.00    -0.014 A 
BRANCH  41  42
ATOM     42  C   UNL     1       3.075   3.177   3.922  1.00  0.00     0.031 A 
ATOM     43  C   UNL     1       2.214   1.962   3.728  1.00  0.00     0.074 A 
ATOM     44  C   UNL     1       3.864   3.558   2.894  1.00  0.00     0.049 A 
ATOM     45  N   UNL     1       2.170   1.145   2.707  1.00  0.00    -0.248 NA
ATOM     46  C   UNL     1       1.288   1.619   4.817  1.00  0.00     0.031 C 
ATOM     47  C   UNL     1       4.743   4.710   2.916  1.00  0.00     0.029 A 
ATOM     48  N   UNL     1       3.987   3.088   1.605  1.00  0.00    -0.354 N 
ATOM     49  C   UNL     1       1.204   0.205   3.021  1.00  0.00     0.074 A 
ATOM     50  C   UNL     1       0.668   0.560   4.318  1.00  0.00     0.031 C 
ATOM     51  C   UNL     1       5.174   4.977   1.674  1.00  0.00     0.029 A 
ATOM     52  C   UNL     1       4.735   3.910   0.784  1.00  0.00     0.049 A 
ATOM     53  H   UNL     1       3.581   2.245   1.298  1.00  0.00     0.167 HD
ATOM     54  C   UNL     1       0.821  -0.879   2.309  1.00  0.00     0.037 A 
ATOM     55  C   UNL     1       5.073   3.802  -0.518  1.00  0.00     0.037 A 
ATOM     56  C   UNL     1       1.408  -1.291   1.065  1.00  0.00     0.049 A 
ATOM     57  C   UNL     1       4.706   2.536  -1.247  1.00  0.00     0.074 A 
ATOM     58  C   UNL     1       1.184  -2.450   0.345  1.00  0.00     0.029 A 
ATOM     59  N   UNL     1       2.348  -0.558   0.361  1.00  0.00    -0.354 N 
ATOM     60  N   UNL     1       3.932   1.553  -0.855  1.00  0.00    -0.248 NA
ATOM     61  C   UNL     1       5.333   2.320  -2.561  1.00  0.00     0.031 C 
ATOM     62  C   UNL     1       1.971  -2.406  -0.811  1.00  0.00     0.029 A 
ATOM     63  C   UNL     1       2.646  -1.197  -0.830  1.00  0.00     0.049 A 
ATOM     64  H   UNL     1       2.744   0.292   0.662  1.00  0.00     0.167 HD
ATOM     65  C   UNL     1       4.037   0.579  -1.839  1.00  0.00     0.074 A 
ATOM     66  C   UNL     1       4.877   1.118  -2.885  1.00  0.00     0.031 C 
ATOM     67  C   UNL     1       3.506  -0.666  -1.854  1.00  0.00     0.037 A 
BRANCH  54  68
ATOM     68  C   UNL     1      -0.253  -1.723   2.912  1.00  0.00     0.057 A 
ATOM     69  C   UNL     1      -1.594  -1.322   2.884  1.00  0.00     0.134 A 
ATOM     70  C   UNL     1       0.059  -2.929   3.547  1.00  0.00     0.134 A 
ATOM     71  F   UNL     1      -1.942  -0.160   2.311  1.00  0.00    -0.206 F 
ATOM     72  C   UNL     1      -2.590  -2.089   3.487  1.00  0.00     0.040 A 
ATOM     73  C   UNL     1      -0.930  -3.714   4.137  1.00  0.00     0.040 A 
ATOM     74  F   UNL     1       1.329  -3.356   3.610  1.00  0.00    -0.206 F 
ATOM     75  C   UNL     1      -2.258  -3.291   4.113  1.00  0.00     0.006 A 
ENDBRANCH  54  68
BRANCH  55  76
ATOM     76  C   UNL     1       5.919   4.831  -1.194  1.00  0.00     0.057 A 
ATOM     77  C   UNL     1       5.471   5.513  -2.334  1.00  0.00     0.134 A 
ATOM     78  C   UNL     1       7.223   5.111  -0.763  1.00  0.00     0.134 A 
ATOM     79  F   UNL     1       4.252   5.267  -2.833  1.00  0.00    -0.206 F 
ATOM     80  C   UNL     1       6.287   6.421  -3.018  1.00  0.00     0.040 A 
ATOM     81  C   UNL     1       8.033   6.047  -1.410  1.00  0.00     0.040 A 
ATOM     82  F   UNL     1       7.737   4.476   0.301  1.00  0.00    -0.206 F 
ATOM     83  C   UNL     1       7.569   6.698  -2.549  1.00  0.00     0.006 A 
ENDBRANCH  55  76
BRANCH  67  84
ATOM     84  C   UNL     1       3.802  -1.523  -3.045  1.00  0.00     0.057 A 
ATOM     85  C   UNL     1       5.037  -2.162  -3.207  1.00  0.00     0.134 A 
ATOM     86  C   UNL     1       2.824  -1.739  -4.023  1.00  0.00     0.134 A 
ATOM     87  F   UNL     1       6.020  -1.979  -2.312  1.00  0.00    -0.206 F 
ATOM     88  C   UNL     1       5.291  -2.983  -4.306  1.00  0.00     0.040 A 
ATOM     89  C   UNL     1       3.060  -2.571  -5.117  1.00  0.00     0.040 A 
ATOM     90  F   UNL     1       1.621  -1.155  -3.920  1.00  0.00    -0.206 F 
ATOM     91  C   UNL     1       4.298  -3.195  -5.261  1.00  0.00     0.006 A 
ENDBRANCH  67  84
ENDBRANCH  41  42
ENDBRANCH  34  36
ENDBRANCH  33  34
ENDBRANCH  32  33
ENDBRANCH   1  32
TORSDOF 15
