REMARK SMILES C[C@@H](C(=O)OCCOC(=O)c1ccc(-c2c3nc(c(-c4c(F)cccc4F)c4ccc([nH]4)c(-c4c(F)cccc4F)c4nc(c(-c5c(F)cccc5F)c5ccc2[nH]5)C=C4)C=C3)cc1)c1ccc(-c2cccc(OC(=O)NC3CC3)c2)c(F)c1
REMARK SMILES IDX 5 1 3 2 4 3 2 4 1 5 65 6 66 7 84 8 67 9 82 10 68 11 83 12
REMARK SMILES IDX 69 13 70 14 81 15 71 16 73 17 72 18 74 19 75 20 76 21 77 22
REMARK SMILES IDX 78 24 79 25 80 26 6 27 7 28 8 29 9 30 10 31 11 32 12 33
REMARK SMILES IDX 64 34 13 35 63 36 14 37 15 38 16 39 57 40 17 41 62 42 56 43
REMARK SMILES IDX 58 44 18 45 61 46 55 47 54 48 19 50 45 51 28 52 44 53 29 54
REMARK SMILES IDX 32 55 43 56 59 57 30 58 31 59 42 61 60 62 33 63 20 64 21 65
REMARK SMILES IDX 26 66 22 67 23 68 25 69 27 70 24 71 46 72 47 73 52 74 48 75
REMARK SMILES IDX 49 76 51 77 53 78 50 79 34 80 35 81 40 82 36 83 37 84 39 85
REMARK SMILES IDX 41 86 38 87
REMARK H PARENT 77 23 58 49 32 60
REMARK Flexibility Score: inf
ROOT
ATOM      1  O   UNL     1       2.177   2.132  -1.098  1.00  0.00    -0.462 OA
ENDROOT
BRANCH   1   2
ATOM      2  C   UNL     1       1.094   2.494  -0.353  1.00  0.00     0.313 C 
ATOM      3  O   UNL     1       0.518   3.569  -0.479  1.00  0.00    -0.252 OA
BRANCH   2   4
ATOM      4  C   UNL     1       0.724   1.435   0.708  1.00  0.00     0.126 C 
ATOM      5  C   UNL     1       1.408   0.087   0.431  1.00  0.00     0.025 C 
BRANCH   4   6
ATOM      6  C   UNL     1      -0.793   1.322   0.924  1.00  0.00    -0.031 A 
ATOM      7  C   UNL     1      -1.524   2.441   1.366  1.00  0.00     0.005 A 
ATOM      8  C   UNL     1      -1.515   0.144   0.680  1.00  0.00     0.044 A 
ATOM      9  C   UNL     1      -2.921   2.398   1.506  1.00  0.00     0.012 A 
ATOM     10  C   UNL     1      -2.904   0.102   0.842  1.00  0.00     0.131 A 
ATOM     11  C   UNL     1      -3.641   1.225   1.240  1.00  0.00     0.018 A 
ATOM     12  F   UNL     1      -3.531  -1.051   0.562  1.00  0.00    -0.206 F 
BRANCH  11  13
ATOM     13  C   UNL     1      -5.109   1.186   1.338  1.00  0.00    -0.012 A 
ATOM     14  C   UNL     1      -5.909   2.053   0.573  1.00  0.00     0.009 A 
ATOM     15  C   UNL     1      -5.754   0.276   2.190  1.00  0.00     0.056 A 
ATOM     16  C   UNL     1      -7.302   1.972   0.599  1.00  0.00     0.004 A 
ATOM     17  C   UNL     1      -7.146   0.250   2.261  1.00  0.00     0.133 A 
ATOM     18  C   UNL     1      -7.922   1.063   1.439  1.00  0.00     0.047 A 
BRANCH  17  19
ATOM     19  O   UNL     1      -7.897  -0.527   3.167  1.00  0.00    -0.410 OA
BRANCH  19  20
ATOM     20  C   UNL     1      -7.424  -1.086   4.338  1.00  0.00     0.412 C 
ATOM     21  O   UNL     1      -6.244  -1.230   4.651  1.00  0.00    -0.224 OA
ATOM     22  N   UNL     1      -8.417  -1.480   5.197  1.00  0.00    -0.318 N 
ATOM     23  H   UNL     1      -8.111  -2.015   5.965  1.00  0.00     0.167 HD
BRANCH  22  24
ATOM     24  C   UNL     1      -9.825  -1.240   5.156  1.00  0.00     0.085 C 
ATOM     25  C   UNL     1     -10.646  -0.697   4.021  1.00  0.00     0.027 C 
ATOM     26  C   UNL     1     -10.713  -2.155   4.357  1.00  0.00     0.027 C 
ENDBRANCH  22  24
ENDBRANCH  19  20
ENDBRANCH  17  19
ENDBRANCH  11  13
ENDBRANCH   4   6
ENDBRANCH   2   4
ENDBRANCH   1   2
BRANCH   1  27
ATOM     27  C   UNL     1       2.619   3.064  -2.106  1.00  0.00     0.274 C 
BRANCH  27  28
ATOM     28  C   UNL     1       2.218   2.587  -3.501  1.00  0.00     0.275 C 
BRANCH  28  29
ATOM     29  O   UNL     1       0.791   2.682  -3.672  1.00  0.00    -0.458 OA
BRANCH  29  30
ATOM     30  C   UNL     1       0.118   1.512  -3.669  1.00  0.00     0.338 C 
ATOM     31  O   UNL     1       0.578   0.381  -3.580  1.00  0.00    -0.246 OA
BRANCH  30  32
ATOM     32  C   UNL     1      -1.322   1.789  -3.690  1.00  0.00     0.060 A 
ATOM     33  C   UNL     1      -1.943   2.069  -2.480  1.00  0.00     0.016 A 
ATOM     34  C   UNL     1      -2.080   1.660  -4.855  1.00  0.00     0.016 A 
ATOM     35  C   UNL     1      -3.327   2.165  -2.414  1.00  0.00     0.010 A 
ATOM     36  C   UNL     1      -3.475   1.810  -4.793  1.00  0.00     0.010 A 
ATOM     37  C   UNL     1      -4.116   2.034  -3.562  1.00  0.00    -0.014 A 
BRANCH  37  38
ATOM     38  C   UNL     1      -5.600   2.049  -3.425  1.00  0.00     0.031 A 
ATOM     39  C   UNL     1      -6.385   0.780  -3.636  1.00  0.00     0.074 A 
ATOM     40  C   UNL     1      -6.237   3.152  -2.983  1.00  0.00     0.049 A 
ATOM     41  N   UNL     1      -7.680   0.587  -3.585  1.00  0.00    -0.248 NA
ATOM     42  C   UNL     1      -5.610  -0.433  -3.940  1.00  0.00     0.031 C 
ATOM     43  C   UNL     1      -5.585   4.404  -2.596  1.00  0.00     0.029 A 
ATOM     44  N   UNL     1      -7.565   3.371  -2.698  1.00  0.00    -0.354 N 
ATOM     45  C   UNL     1      -7.877  -0.748  -3.922  1.00  0.00     0.074 A 
ATOM     46  C   UNL     1      -6.569  -1.325  -4.144  1.00  0.00     0.031 C 
ATOM     47  C   UNL     1      -6.489   5.207  -2.013  1.00  0.00     0.029 A 
ATOM     48  C   UNL     1      -7.803   4.570  -2.064  1.00  0.00     0.049 A 
ATOM     49  H   UNL     1      -8.278   2.731  -2.926  1.00  0.00     0.167 HD
ATOM     50  C   UNL     1      -9.043  -1.424  -4.056  1.00  0.00     0.037 A 
ATOM     51  C   UNL     1      -8.943   5.080  -1.558  1.00  0.00     0.037 A 
ATOM     52  C   UNL     1     -10.341  -0.873  -3.766  1.00  0.00     0.049 A 
ATOM     53  C   UNL     1     -10.229   4.314  -1.725  1.00  0.00     0.074 A 
ATOM     54  C   UNL     1     -11.585  -1.458  -3.930  1.00  0.00     0.029 A 
ATOM     55  N   UNL     1     -10.559   0.382  -3.221  1.00  0.00    -0.354 N 
ATOM     56  N   UNL     1     -10.416   3.086  -2.143  1.00  0.00    -0.248 NA
ATOM     57  C   UNL     1     -11.470   5.024  -1.377  1.00  0.00     0.031 C 
ATOM     58  C   UNL     1     -12.559  -0.540  -3.524  1.00  0.00     0.029 A 
ATOM     59  C   UNL     1     -11.918   0.599  -3.064  1.00  0.00     0.049 A 
ATOM     60  H   UNL     1      -9.853   1.024  -2.981  1.00  0.00     0.167 HD
ATOM     61  C   UNL     1     -11.791   2.881  -2.115  1.00  0.00     0.074 A 
ATOM     62  C   UNL     1     -12.386   4.089  -1.585  1.00  0.00     0.031 C 
ATOM     63  C   UNL     1     -12.500   1.799  -2.522  1.00  0.00     0.037 A 
BRANCH  50  64
ATOM     64  C   UNL     1      -8.979  -2.809  -4.628  1.00  0.00     0.057 A 
ATOM     65  C   UNL     1      -8.550  -3.916  -3.888  1.00  0.00     0.134 A 
ATOM     66  C   UNL     1      -9.389  -3.033  -5.950  1.00  0.00     0.134 A 
ATOM     67  F   UNL     1      -8.130  -3.768  -2.623  1.00  0.00    -0.206 F 
ATOM     68  C   UNL     1      -8.513  -5.195  -4.450  1.00  0.00     0.040 A 
ATOM     69  C   UNL     1      -9.380  -4.309  -6.514  1.00  0.00     0.040 A 
ATOM     70  F   UNL     1      -9.817  -2.014  -6.711  1.00  0.00    -0.206 F 
ATOM     71  C   UNL     1      -8.935  -5.394  -5.764  1.00  0.00     0.006 A 
ENDBRANCH  50  64
BRANCH  51  72
ATOM     72  C   UNL     1      -8.944   6.371  -0.818  1.00  0.00     0.057 A 
ATOM     73  C   UNL     1      -9.323   6.420   0.531  1.00  0.00     0.134 A 
ATOM     74  C   UNL     1      -8.615   7.584  -1.434  1.00  0.00     0.134 A 
ATOM     75  F   UNL     1      -9.677   5.297   1.173  1.00  0.00    -0.206 F 
ATOM     76  C   UNL     1      -9.392   7.625   1.232  1.00  0.00     0.040 A 
ATOM     77  C   UNL     1      -8.647   8.793  -0.736  1.00  0.00     0.040 A 
ATOM     78  F   UNL     1      -8.254   7.613  -2.725  1.00  0.00    -0.206 F 
ATOM     79  C   UNL     1      -9.046   8.817   0.598  1.00  0.00     0.006 A 
ENDBRANCH  51  72
BRANCH  63  80
ATOM     80  C   UNL     1     -13.996   1.870  -2.417  1.00  0.00     0.057 A 
ATOM     81  C   UNL     1     -14.752   2.682  -3.273  1.00  0.00     0.134 A 
ATOM     82  C   UNL     1     -14.693   1.079  -1.496  1.00  0.00     0.134 A 
ATOM     83  F   UNL     1     -14.145   3.471  -4.173  1.00  0.00    -0.206 F 
ATOM     84  C   UNL     1     -16.145   2.721  -3.202  1.00  0.00     0.040 A 
ATOM     85  C   UNL     1     -16.088   1.089  -1.433  1.00  0.00     0.040 A 
ATOM     86  F   UNL     1     -14.032   0.270  -0.654  1.00  0.00    -0.206 F 
ATOM     87  C   UNL     1     -16.817   1.916  -2.285  1.00  0.00     0.006 A 
ENDBRANCH  63  80
ENDBRANCH  37  38
ENDBRANCH  30  32
ENDBRANCH  29  30
ENDBRANCH  28  29
ENDBRANCH  27  28
ENDBRANCH   1  27
TORSDOF 16
