REMARK SMILES CCc1ccc(S(=O)(=O)c2nnn(-c3ccc(C(=O)OCCOC(=O)c4ccc(-c5c6nc(c(-c7c(F)cccc7F)c7ccc([nH]7)c(-c7c(F)cccc7F)c7nc(c(-c8c(F)cccc8F)c8ccc5[nH]8)C=C7)C=C6)cc4)cc3)c2C)cc1
REMARK SMILES IDX 21 1 20 2 18 3 19 4 17 5 14 6 15 7 81 8 16 9 80 10 13 11
REMARK SMILES IDX 10 12 11 13 82 14 12 15 83 16 7 17 8 18 9 19 6 20 3 21 4 22
REMARK SMILES IDX 85 23 5 24 84 25 2 26 1 27 22 28 23 29 24 30 25 31 26 32
REMARK SMILES IDX 27 33 79 34 28 35 78 36 29 37 30 38 31 39 72 40 32 41 77 42
REMARK SMILES IDX 71 43 73 44 33 45 76 46 70 47 69 48 34 50 60 51 43 52 59 53
REMARK SMILES IDX 44 54 47 55 58 56 74 57 45 58 46 59 57 61 75 62 48 63 35 64
REMARK SMILES IDX 36 65 41 66 37 67 38 68 40 69 42 70 39 71 61 72 62 73 67 74
REMARK SMILES IDX 63 75 64 76 66 77 68 78 65 79 49 80 50 81 55 82 51 83 52 84
REMARK SMILES IDX 54 85 56 86 53 87
REMARK H PARENT 73 49 47 60
REMARK Flexibility Score: inf
ROOT
ATOM      1  C   UNL     1      12.403   0.506  -7.105  1.00  0.00     0.275 C 
ENDROOT
BRANCH   1   2
ATOM      2  O   UNL     1      11.086  -0.063  -7.117  1.00  0.00    -0.458 OA
BRANCH   2   3
ATOM      3  C   UNL     1      10.063   0.790  -7.375  1.00  0.00     0.338 C 
ATOM      4  O   UNL     1      10.132   2.008  -7.449  1.00  0.00    -0.246 OA
BRANCH   3   5
ATOM      5  C   UNL     1       8.817   0.025  -7.624  1.00  0.00     0.060 A 
ATOM      6  C   UNL     1       6.357  -1.248  -7.810  1.00  0.00     0.067 A 
ATOM      7  C   UNL     1       6.509   0.017  -8.384  1.00  0.00     0.029 A 
ATOM      8  C   UNL     1       7.460  -1.936  -7.290  1.00  0.00     0.029 A 
ATOM      9  C   UNL     1       7.742   0.664  -8.263  1.00  0.00     0.018 A 
ATOM     10  C   UNL     1       8.691  -1.301  -7.200  1.00  0.00     0.018 A 
BRANCH   6  11
ATOM     11  N   UNL     1       5.065  -1.773  -7.609  1.00  0.00    -0.216 N 
ATOM     12  C   UNL     1       3.272  -2.672  -6.769  1.00  0.00     0.205 A 
ATOM     13  N   UNL     1       2.986  -2.225  -8.030  1.00  0.00    -0.117 NA
ATOM     14  C   UNL     1       4.570  -2.325  -6.437  1.00  0.00     0.081 A 
ATOM     15  N   UNL     1       4.062  -1.601  -8.497  1.00  0.00    -0.061 NA
ATOM     16  C   UNL     1       5.285  -2.324  -5.135  1.00  0.00     0.070 C 
BRANCH  12  17
ATOM     17  S   UNL     1       2.089  -3.403  -5.747  1.00  0.00     0.227 S 
ATOM     18  O   UNL     1       2.809  -4.487  -5.102  1.00  0.00    -0.217 OA
ATOM     19  O   UNL     1       0.923  -3.631  -6.575  1.00  0.00    -0.217 OA
BRANCH  17  20
ATOM     20  C   UNL     1       1.644  -2.238  -4.486  1.00  0.00     0.073 A 
ATOM     21  C   UNL     1       0.946  -0.506  -2.393  1.00  0.00    -0.048 A 
ATOM     22  C   UNL     1       0.560  -1.854  -2.360  1.00  0.00     0.005 A 
ATOM     23  C   UNL     1       1.682  -0.038  -3.491  1.00  0.00     0.005 A 
ATOM     24  C   UNL     1       0.916  -2.720  -3.394  1.00  0.00     0.021 A 
ATOM     25  C   UNL     1       2.023  -0.894  -4.542  1.00  0.00     0.021 A 
BRANCH  21  26
ATOM     26  C   UNL     1       0.536   0.440  -1.290  1.00  0.00     0.032 C 
ATOM     27  C   UNL     1       1.096   0.056   0.072  1.00  0.00     0.009 C 
ENDBRANCH  21  26
ENDBRANCH  17  20
ENDBRANCH  12  17
ENDBRANCH   6  11
ENDBRANCH   3   5
ENDBRANCH   2   3
ENDBRANCH   1   2
BRANCH   1  28
ATOM     28  C   UNL     1      13.013   0.481  -8.500  1.00  0.00     0.275 C 
BRANCH  28  29
ATOM     29  O   UNL     1      12.411   1.466  -9.338  1.00  0.00    -0.458 OA
BRANCH  29  30
ATOM     30  C   UNL     1      11.379   1.040 -10.100  1.00  0.00     0.338 C 
ATOM     31  O   UNL     1      10.795  -0.028 -10.028  1.00  0.00    -0.246 OA
BRANCH  30  32
ATOM     32  C   UNL     1      11.165   2.003 -11.187  1.00  0.00     0.060 A 
ATOM     33  C   UNL     1      10.082   1.786 -12.042  1.00  0.00     0.016 A 
ATOM     34  C   UNL     1      12.169   2.934 -11.493  1.00  0.00     0.016 A 
ATOM     35  C   UNL     1      10.101   2.374 -13.290  1.00  0.00     0.010 A 
ATOM     36  C   UNL     1      12.186   3.520 -12.737  1.00  0.00     0.010 A 
ATOM     37  C   UNL     1      11.200   3.165 -13.651  1.00  0.00    -0.014 A 
BRANCH  37  38
ATOM     38  C   UNL     1      11.284   3.623 -15.022  1.00  0.00     0.031 A 
ATOM     39  C   UNL     1      10.234   4.590 -15.419  1.00  0.00     0.074 A 
ATOM     40  C   UNL     1      12.296   3.277 -15.839  1.00  0.00     0.049 A 
ATOM     41  N   UNL     1       9.326   4.450 -16.327  1.00  0.00    -0.248 NA
ATOM     42  C   UNL     1      10.119   5.825 -14.630  1.00  0.00     0.031 C 
ATOM     43  C   UNL     1      13.544   2.578 -15.515  1.00  0.00     0.029 A 
ATOM     44  N   UNL     1      12.450   3.583 -17.153  1.00  0.00    -0.354 N 
ATOM     45  C   UNL     1       8.620   5.648 -16.344  1.00  0.00     0.074 A 
ATOM     46  C   UNL     1       9.065   6.406 -15.202  1.00  0.00     0.031 C 
ATOM     47  C   UNL     1      14.412   2.722 -16.542  1.00  0.00     0.029 A 
ATOM     48  C   UNL     1      13.732   3.390 -17.639  1.00  0.00     0.049 A 
ATOM     49  H   UNL     1      11.712   3.915 -17.713  1.00  0.00     0.167 HD
ATOM     50  C   UNL     1       7.862   6.016 -17.410  1.00  0.00     0.037 A 
ATOM     51  C   UNL     1      14.204   3.825 -18.831  1.00  0.00     0.037 A 
ATOM     52  C   UNL     1       7.534   4.895 -18.249  1.00  0.00     0.049 A 
ATOM     53  C   UNL     1      13.036   4.098 -19.707  1.00  0.00     0.074 A 
ATOM     54  C   UNL     1       6.844   3.713 -18.060  1.00  0.00     0.029 A 
ATOM     55  N   UNL     1       8.240   4.726 -19.414  1.00  0.00    -0.354 N 
ATOM     56  N   UNL     1      12.249   3.172 -20.181  1.00  0.00    -0.248 NA
ATOM     57  C   UNL     1      12.476   5.442 -19.690  1.00  0.00     0.031 C 
ATOM     58  C   UNL     1       7.554   2.744 -18.828  1.00  0.00     0.029 A 
ATOM     59  C   UNL     1       8.604   3.405 -19.467  1.00  0.00     0.049 A 
ATOM     60  H   UNL     1       8.444   5.419 -20.083  1.00  0.00     0.167 HD
ATOM     61  C   UNL     1      10.977   3.723 -20.125  1.00  0.00     0.074 A 
ATOM     62  C   UNL     1      11.190   5.151 -19.900  1.00  0.00     0.031 C 
ATOM     63  C   UNL     1       9.868   2.940 -19.986  1.00  0.00     0.037 A 
BRANCH  50  64
ATOM     64  C   UNL     1       7.709   7.440 -17.868  1.00  0.00     0.057 A 
ATOM     65  C   UNL     1       6.741   7.758 -18.834  1.00  0.00     0.134 A 
ATOM     66  C   UNL     1       8.665   8.444 -17.614  1.00  0.00     0.134 A 
ATOM     67  F   UNL     1       5.793   6.873 -19.176  1.00  0.00    -0.206 F 
ATOM     68  C   UNL     1       6.762   8.966 -19.542  1.00  0.00     0.040 A 
ATOM     69  C   UNL     1       8.665   9.672 -18.278  1.00  0.00     0.040 A 
ATOM     70  F   UNL     1       9.704   8.250 -16.792  1.00  0.00    -0.206 F 
ATOM     71  C   UNL     1       7.730   9.925 -19.269  1.00  0.00     0.006 A 
ENDBRANCH  50  64
BRANCH  51  72
ATOM     72  C   UNL     1      15.557   4.344 -19.127  1.00  0.00     0.057 A 
ATOM     73  C   UNL     1      16.026   4.443 -20.443  1.00  0.00     0.134 A 
ATOM     74  C   UNL     1      16.316   5.008 -18.146  1.00  0.00     0.134 A 
ATOM     75  F   UNL     1      15.345   3.880 -21.451  1.00  0.00    -0.206 F 
ATOM     76  C   UNL     1      17.175   5.176 -20.768  1.00  0.00     0.040 A 
ATOM     77  C   UNL     1      17.467   5.737 -18.456  1.00  0.00     0.040 A 
ATOM     78  F   UNL     1      15.915   5.047 -16.867  1.00  0.00    -0.206 F 
ATOM     79  C   UNL     1      17.894   5.835 -19.774  1.00  0.00     0.006 A 
ENDBRANCH  51  72
BRANCH  63  80
ATOM     80  C   UNL     1      10.038   1.452 -20.121  1.00  0.00     0.057 A 
ATOM     81  C   UNL     1      10.795   0.671 -19.234  1.00  0.00     0.134 A 
ATOM     82  C   UNL     1       9.286   0.768 -21.081  1.00  0.00     0.134 A 
ATOM     83  F   UNL     1      11.463   1.229 -18.217  1.00  0.00    -0.206 F 
ATOM     84  C   UNL     1      10.837  -0.723 -19.329  1.00  0.00     0.040 A 
ATOM     85  C   UNL     1       9.294  -0.626 -21.167  1.00  0.00     0.040 A 
ATOM     86  F   UNL     1       8.490   1.444 -21.924  1.00  0.00    -0.206 F 
ATOM     87  C   UNL     1      10.079  -1.377 -20.295  1.00  0.00     0.006 A 
ENDBRANCH  63  80
ENDBRANCH  37  38
ENDBRANCH  30  32
ENDBRANCH  29  30
ENDBRANCH  28  29
ENDBRANCH   1  28
TORSDOF 15
