REMARK SMILES Cc1ccc2cc(C[N@H+]3CC[NH2+][C@H](C(=O)OCCOC(=O)c4ccc(-c5c6nc(c(-c7c(F)cccc7F)c7ccc([nH]7)c(-c7c(F)cccc7F)c7nc(c(-c8c(F)cccc8F)c8ccc5[nH]8)C=C7)C=C6)cc4)C3)c(N3CCOCC3)nc2c1
REMARK SMILES IDX 17 1 16 2 14 3 15 4 13 5 9 6 10 7 76 8 11 10 12 11 8 14 7 15
REMARK SMILES IDX 1 16 2 17 3 18 86 19 4 20 85 21 5 22 84 23 6 24 77 25 78 26
REMARK SMILES IDX 79 27 83 28 80 29 82 30 81 31 18 32 19 33 20 34 21 35 22 36
REMARK SMILES IDX 23 37 75 38 24 39 74 40 25 41 26 42 27 43 68 44 28 45 73 46
REMARK SMILES IDX 67 47 69 48 29 49 72 50 66 51 65 52 30 54 56 55 39 56 55 57
REMARK SMILES IDX 40 58 43 59 54 60 70 61 41 62 42 63 53 65 71 66 44 67 31 68
REMARK SMILES IDX 32 69 37 70 33 71 34 72 36 73 38 74 35 75 57 76 58 77 63 78
REMARK SMILES IDX 59 79 60 80 62 81 64 82 61 83 45 84 46 85 51 86 47 87 48 88
REMARK SMILES IDX 50 89 52 90 49 91
REMARK H PARENT 9 9 12 12 12 13 69 53 43 64
REMARK Flexibility Score: inf
ROOT
ATOM      1  C   UNL     1       1.094  -6.070  -5.681  1.00  0.00     0.274 C 
ENDROOT
BRANCH   1   2
ATOM      2  O   UNL     1       0.909  -4.855  -6.431  1.00  0.00    -0.457 OA
BRANCH   2   3
ATOM      3  C   UNL     1       0.414  -3.830  -5.690  1.00  0.00     0.371 C 
ATOM      4  O   UNL     1       0.074  -3.931  -4.513  1.00  0.00    -0.245 OA
BRANCH   3   5
ATOM      5  C   UNL     1       0.266  -2.531  -6.455  1.00  0.00     0.348 C 
ATOM      6  N   UNL     1      -1.178  -1.327  -8.108  1.00  0.00    -0.321 N 
ATOM      7  C   UNL     1      -0.006  -0.465  -8.371  1.00  0.00     0.324 C 
ATOM      8  C   UNL     1      -0.793  -2.635  -7.558  1.00  0.00     0.341 C 
ATOM      9  H   UNL     1      -1.577  -1.517  -9.027  1.00  0.00     0.348 HD
ATOM     10  C   UNL     1       1.193  -0.560  -7.386  1.00  0.00     0.323 C 
ATOM     11  N   UNL     1       1.525  -1.940  -6.966  1.00  0.00    -0.325 N 
ATOM     12  H   UNL     1       2.232  -1.925  -6.232  1.00  0.00     0.347 HD
ATOM     13  H   UNL     1       1.903  -2.483  -7.742  1.00  0.00     0.347 HD
BRANCH   6  14
ATOM     14  C   UNL     1      -2.313  -0.673  -7.426  1.00  0.00     0.303 C 
BRANCH  14  15
ATOM     15  C   UNL     1      -2.136  -0.237  -5.984  1.00  0.00     0.049 A 
ATOM     16  C   UNL     1      -0.314  -0.118   0.259  1.00  0.00     0.044 C 
ATOM     17  C   UNL     1      -0.834  -0.377  -1.123  1.00  0.00    -0.049 A 
ATOM     18  C   UNL     1      -1.244  -1.666  -1.451  1.00  0.00     0.004 A 
ATOM     19  C   UNL     1      -0.874   0.628  -2.112  1.00  0.00     0.032 A 
ATOM     20  C   UNL     1      -1.750  -1.927  -2.717  1.00  0.00     0.010 A 
ATOM     21  C   UNL     1      -1.347   0.387  -3.406  1.00  0.00     0.073 A 
ATOM     22  C   UNL     1      -1.810  -0.910  -3.681  1.00  0.00     0.001 A 
ATOM     23  N   UNL     1      -1.348   1.355  -4.356  1.00  0.00    -0.230 NA
ATOM     24  C   UNL     1      -2.260  -1.190  -4.968  1.00  0.00     0.023 A 
ATOM     25  C   UNL     1      -1.755   1.061  -5.619  1.00  0.00     0.138 A 
BRANCH  25  26
ATOM     26  N   UNL     1      -1.790   2.070  -6.566  1.00  0.00    -0.352 N 
ATOM     27  C   UNL     1      -3.121   2.522  -7.003  1.00  0.00     0.146 C 
ATOM     28  C   UNL     1      -0.813   3.159  -6.513  1.00  0.00     0.146 C 
ATOM     29  C   UNL     1      -2.975   3.148  -8.398  1.00  0.00     0.181 C 
ATOM     30  C   UNL     1      -0.749   3.804  -7.915  1.00  0.00     0.181 C 
ATOM     31  O   UNL     1      -2.042   4.243  -8.377  1.00  0.00    -0.378 OA
ENDBRANCH  25  26
ENDBRANCH  14  15
ENDBRANCH   6  14
ENDBRANCH   3   5
ENDBRANCH   2   3
ENDBRANCH   1   2
BRANCH   1  32
ATOM     32  C   UNL     1       2.523  -6.187  -5.149  1.00  0.00     0.275 C 
BRANCH  32  33
ATOM     33  O   UNL     1       2.879  -5.077  -4.302  1.00  0.00    -0.458 OA
BRANCH  33  34
ATOM     34  C   UNL     1       3.580  -4.095  -4.921  1.00  0.00     0.338 C 
ATOM     35  O   UNL     1       3.957  -4.081  -6.080  1.00  0.00    -0.246 OA
BRANCH  34  36
ATOM     36  C   UNL     1       3.852  -2.988  -3.987  1.00  0.00     0.060 A 
ATOM     37  C   UNL     1       5.007  -3.005  -3.210  1.00  0.00     0.016 A 
ATOM     38  C   UNL     1       3.061  -1.841  -4.035  1.00  0.00     0.016 A 
ATOM     39  C   UNL     1       5.367  -1.855  -2.496  1.00  0.00     0.010 A 
ATOM     40  C   UNL     1       3.460  -0.675  -3.385  1.00  0.00     0.010 A 
ATOM     41  C   UNL     1       4.615  -0.666  -2.601  1.00  0.00    -0.014 A 
BRANCH  41  42
ATOM     42  C   UNL     1       5.118   0.581  -1.970  1.00  0.00     0.031 A 
ATOM     43  C   UNL     1       4.392   1.277  -0.860  1.00  0.00     0.074 A 
ATOM     44  C   UNL     1       6.256   1.139  -2.422  1.00  0.00     0.049 A 
ATOM     45  N   UNL     1       4.869   2.098   0.044  1.00  0.00    -0.248 NA
ATOM     46  C   UNL     1       2.945   1.059  -0.768  1.00  0.00     0.031 C 
ATOM     47  C   UNL     1       6.997   0.714  -3.608  1.00  0.00     0.029 A 
ATOM     48  N   UNL     1       6.990   2.183  -1.920  1.00  0.00    -0.354 N 
ATOM     49  C   UNL     1       3.797   2.413   0.864  1.00  0.00     0.074 A 
ATOM     50  C   UNL     1       2.627   1.816   0.272  1.00  0.00     0.031 C 
ATOM     51  C   UNL     1       8.104   1.464  -3.721  1.00  0.00     0.029 A 
ATOM     52  C   UNL     1       8.159   2.402  -2.601  1.00  0.00     0.049 A 
ATOM     53  H   UNL     1       6.705   2.722  -1.146  1.00  0.00     0.167 HD
ATOM     54  C   UNL     1       3.786   3.100   2.030  1.00  0.00     0.037 A 
ATOM     55  C   UNL     1       9.183   3.229  -2.325  1.00  0.00     0.037 A 
ATOM     56  C   UNL     1       4.915   3.824   2.540  1.00  0.00     0.049 A 
ATOM     57  C   UNL     1       9.174   4.029  -1.053  1.00  0.00     0.074 A 
ATOM     58  C   UNL     1       5.050   4.511   3.733  1.00  0.00     0.029 A 
ATOM     59  N   UNL     1       6.091   4.014   1.831  1.00  0.00    -0.354 N 
ATOM     60  N   UNL     1       8.267   4.075  -0.108  1.00  0.00    -0.248 NA
ATOM     61  C   UNL     1      10.355   4.864  -0.794  1.00  0.00     0.031 C 
ATOM     62  C   UNL     1       6.285   5.176   3.712  1.00  0.00     0.029 A 
ATOM     63  C   UNL     1       6.933   4.861   2.527  1.00  0.00     0.049 A 
ATOM     64  H   UNL     1       6.296   3.605   0.959  1.00  0.00     0.167 HD
ATOM     65  C   UNL     1       8.776   4.921   0.870  1.00  0.00     0.074 A 
ATOM     66  C   UNL     1      10.078   5.355   0.407  1.00  0.00     0.031 C 
ATOM     67  C   UNL     1       8.219   5.298   2.049  1.00  0.00     0.037 A 
BRANCH  54  68
ATOM     68  C   UNL     1       2.513   3.061   2.823  1.00  0.00     0.057 A 
ATOM     69  C   UNL     1       1.700   4.188   2.968  1.00  0.00     0.134 A 
ATOM     70  C   UNL     1       2.091   1.874   3.443  1.00  0.00     0.134 A 
ATOM     71  F   UNL     1       2.041   5.354   2.400  1.00  0.00    -0.206 F 
ATOM     72  C   UNL     1       0.506   4.135   3.693  1.00  0.00     0.040 A 
ATOM     73  C   UNL     1       0.893   1.804   4.155  1.00  0.00     0.040 A 
ATOM     74  F   UNL     1       2.820   0.752   3.332  1.00  0.00    -0.206 F 
ATOM     75  C   UNL     1       0.097   2.939   4.283  1.00  0.00     0.006 A 
ENDBRANCH  54  68
BRANCH  55  76
ATOM     76  C   UNL     1      10.350   3.255  -3.237  1.00  0.00     0.057 A 
ATOM     77  C   UNL     1      10.278   3.871  -4.491  1.00  0.00     0.134 A 
ATOM     78  C   UNL     1      11.550   2.625  -2.889  1.00  0.00     0.134 A 
ATOM     79  F   UNL     1       9.149   4.479  -4.882  1.00  0.00    -0.206 F 
ATOM     80  C   UNL     1      11.358   3.853  -5.373  1.00  0.00     0.040 A 
ATOM     81  C   UNL     1      12.644   2.615  -3.754  1.00  0.00     0.040 A 
ATOM     82  F   UNL     1      11.677   2.026  -1.696  1.00  0.00    -0.206 F 
ATOM     83  C   UNL     1      12.547   3.226  -5.004  1.00  0.00     0.006 A 
ENDBRANCH  55  76
BRANCH  67  84
ATOM     84  C   UNL     1       9.014   6.226   2.917  1.00  0.00     0.057 A 
ATOM     85  C   UNL     1       9.584   5.774   4.113  1.00  0.00     0.134 A 
ATOM     86  C   UNL     1       9.192   7.574   2.583  1.00  0.00     0.134 A 
ATOM     87  F   UNL     1       9.442   4.496   4.496  1.00  0.00    -0.206 F 
ATOM     88  C   UNL     1      10.306   6.630   4.946  1.00  0.00     0.040 A 
ATOM     89  C   UNL     1       9.932   8.434   3.396  1.00  0.00     0.040 A 
ATOM     90  F   UNL     1       8.679   8.067   1.445  1.00  0.00    -0.206 F 
ATOM     91  C   UNL     1      10.487   7.963   4.584  1.00  0.00     0.006 A 
ENDBRANCH  67  84
ENDBRANCH  41  42
ENDBRANCH  34  36
ENDBRANCH  33  34
ENDBRANCH  32  33
ENDBRANCH   1  32
TORSDOF 14
