REMARK SMILES COc1ccc(C(=O)N[C@H](C(=O)OCCOC(=O)c2ccc(-c3c4nc(c(-c5c(F)cccc5F)c5ccc([nH]5)c(-c5c(F)cccc5F)c5nc(c(-c6c(F)cccc6F)c6ccc3[nH]6)C=C5)C=C4)cc2)C2=C(C)N=N[C@H]2C)c(F)c1F
REMARK SMILES IDX 14 1 13 2 11 3 12 4 10 5 9 6 7 7 8 8 6 10 3 11 4 12 82 13
REMARK SMILES IDX 5 14 80 15 83 16 81 17 2 18 1 19 73 20 74 21 78 22 75 23
REMARK SMILES IDX 76 24 77 25 79 26 15 27 16 28 17 29 18 30 19 31 20 32 72 33
REMARK SMILES IDX 21 34 71 35 22 36 23 37 24 38 65 39 25 40 70 41 64 42 66 43
REMARK SMILES IDX 26 44 69 45 63 46 62 47 27 49 53 50 36 51 52 52 37 53 40 54
REMARK SMILES IDX 51 55 67 56 38 57 39 58 50 60 68 61 41 62 28 63 29 64 34 65
REMARK SMILES IDX 30 66 31 67 33 68 35 69 32 70 54 71 55 72 60 73 56 74 57 75
REMARK SMILES IDX 59 76 61 77 58 78 42 79 43 80 48 81 44 82 45 83 47 84 49 85
REMARK SMILES IDX 46 86
REMARK H PARENT 9 9 66 48 40 59
REMARK Flexibility Score: inf
ROOT
ATOM      1  C   UNL     1       3.098   3.954  -6.048  1.00  0.00     0.274 C 
ENDROOT
BRANCH   1   2
ATOM      2  O   UNL     1       1.830   3.265  -6.033  1.00  0.00    -0.460 OA
BRANCH   2   3
ATOM      3  C   UNL     1       0.726   4.053  -6.180  1.00  0.00     0.333 C 
ATOM      4  O   UNL     1       0.760   5.240  -6.480  1.00  0.00    -0.249 OA
BRANCH   3   5
ATOM      5  C   UNL     1      -0.564   3.287  -5.799  1.00  0.00     0.223 C 
BRANCH   5   6
ATOM      6  N   UNL     1      -1.624   4.173  -5.300  1.00  0.00    -0.335 N 
ATOM      7  C   UNL     1      -1.586   5.073  -4.260  1.00  0.00     0.255 C 
ATOM      8  O   UNL     1      -2.601   5.672  -3.921  1.00  0.00    -0.269 OA
ATOM      9  H   UNL     1      -2.483   4.114  -5.777  1.00  0.00     0.165 HD
BRANCH   7  10
ATOM     10  C   UNL     1      -0.311   5.415  -3.609  1.00  0.00     0.078 A 
ATOM     11  C   UNL     1       2.216   6.053  -2.626  1.00  0.00     0.157 A 
ATOM     12  C   UNL     1       1.461   7.031  -3.274  1.00  0.00     0.050 A 
ATOM     13  C   UNL     1       1.695   4.770  -2.450  1.00  0.00     0.201 A 
ATOM     14  C   UNL     1       0.186   6.718  -3.753  1.00  0.00     0.021 A 
ATOM     15  C   UNL     1       0.425   4.458  -2.919  1.00  0.00     0.175 A 
ATOM     16  F   UNL     1       2.438   3.808  -1.883  1.00  0.00    -0.200 F 
ATOM     17  F   UNL     1      -0.050   3.216  -2.754  1.00  0.00    -0.203 F 
BRANCH  11  18
ATOM     18  O   UNL     1       3.509   6.365  -2.302  1.00  0.00    -0.494 OA
ATOM     19  C   UNL     1       3.718   6.367  -0.891  1.00  0.00     0.278 C 
ENDBRANCH  11  18
ENDBRANCH   7  10
ENDBRANCH   5   6
BRANCH   5  20
ATOM     20  C   UNL     1      -1.082   2.458  -6.930  1.00  0.00     0.012 C 
ATOM     21  C   UNL     1      -1.022   1.127  -7.078  1.00  0.00     0.064 C 
ATOM     22  C   UNL     1      -1.667   2.946  -8.217  1.00  0.00     0.156 C 
ATOM     23  C   UNL     1      -0.420   0.105  -6.178  1.00  0.00     0.069 C 
ATOM     24  N   UNL     1      -1.564   0.698  -8.263  1.00  0.00    -0.160 NA
ATOM     25  N   UNL     1      -1.966   1.679  -8.941  1.00  0.00    -0.181 NA
ATOM     26  C   UNL     1      -2.946   3.766  -8.159  1.00  0.00     0.040 C 
ENDBRANCH   5  20
ENDBRANCH   3   5
ENDBRANCH   2   3
ENDBRANCH   1   2
BRANCH   1  27
ATOM     27  C   UNL     1       3.777   3.920  -7.415  1.00  0.00     0.275 C 
BRANCH  27  28
ATOM     28  O   UNL     1       3.059   4.713  -8.376  1.00  0.00    -0.458 OA
BRANCH  28  29
ATOM     29  C   UNL     1       2.251   4.011  -9.195  1.00  0.00     0.338 C 
ATOM     30  O   UNL     1       2.079   2.799  -9.211  1.00  0.00    -0.246 OA
BRANCH  29  31
ATOM     31  C   UNL     1       1.511   4.915 -10.081  1.00  0.00     0.060 A 
ATOM     32  C   UNL     1       0.352   5.526  -9.604  1.00  0.00     0.016 A 
ATOM     33  C   UNL     1       1.842   4.987 -11.431  1.00  0.00     0.016 A 
ATOM     34  C   UNL     1      -0.542   6.114 -10.485  1.00  0.00     0.010 A 
ATOM     35  C   UNL     1       0.987   5.664 -12.305  1.00  0.00     0.010 A 
ATOM     36  C   UNL     1      -0.231   6.197 -11.844  1.00  0.00    -0.014 A 
BRANCH  36  37
ATOM     37  C   UNL     1      -1.198   6.788 -12.797  1.00  0.00     0.031 A 
ATOM     38  C   UNL     1      -1.735   5.947 -13.916  1.00  0.00     0.074 A 
ATOM     39  C   UNL     1      -1.595   8.066 -12.664  1.00  0.00     0.049 A 
ATOM     40  N   UNL     1      -2.311   6.323 -15.026  1.00  0.00    -0.248 NA
ATOM     41  C   UNL     1      -1.592   4.489 -13.771  1.00  0.00     0.031 C 
ATOM     42  C   UNL     1      -1.229   8.964 -11.566  1.00  0.00     0.029 A 
ATOM     43  N   UNL     1      -2.391   8.837 -13.473  1.00  0.00    -0.354 N 
ATOM     44  C   UNL     1      -2.526   5.157 -15.749  1.00  0.00     0.074 A 
ATOM     45  C   UNL     1      -2.053   4.057 -14.937  1.00  0.00     0.031 C 
ATOM     46  C   UNL     1      -1.805  10.159 -11.765  1.00  0.00     0.029 A 
ATOM     47  C   UNL     1      -2.490  10.139 -13.052  1.00  0.00     0.049 A 
ATOM     48  H   UNL     1      -2.845   8.490 -14.275  1.00  0.00     0.167 HD
ATOM     49  C   UNL     1      -3.051   5.033 -16.990  1.00  0.00     0.037 A 
ATOM     50  C   UNL     1      -3.007  11.217 -13.668  1.00  0.00     0.037 A 
ATOM     51  C   UNL     1      -3.571   6.135 -17.754  1.00  0.00     0.049 A 
ATOM     52  C   UNL     1      -3.560  11.066 -15.054  1.00  0.00     0.074 A 
ATOM     53  C   UNL     1      -4.109   6.129 -19.029  1.00  0.00     0.029 A 
ATOM     54  N   UNL     1      -3.641   7.441 -17.293  1.00  0.00    -0.354 N 
ATOM     55  N   UNL     1      -3.640   9.987 -15.794  1.00  0.00    -0.248 NA
ATOM     56  C   UNL     1      -4.059  12.285 -15.704  1.00  0.00     0.031 C 
ATOM     57  C   UNL     1      -4.493   7.438 -19.344  1.00  0.00     0.029 A 
ATOM     58  C   UNL     1      -4.215   8.251 -18.256  1.00  0.00     0.049 A 
ATOM     59  H   UNL     1      -3.329   7.747 -16.411  1.00  0.00     0.167 HD
ATOM     60  C   UNL     1      -4.191  10.395 -17.000  1.00  0.00     0.074 A 
ATOM     61  C   UNL     1      -4.445  11.818 -16.883  1.00  0.00     0.031 C 
ATOM     62  C   UNL     1      -4.454   9.662 -18.108  1.00  0.00     0.037 A 
BRANCH  49  63
ATOM     63  C   UNL     1      -3.035   3.673 -17.615  1.00  0.00     0.057 A 
ATOM     64  C   UNL     1      -3.956   2.679 -17.267  1.00  0.00     0.134 A 
ATOM     65  C   UNL     1      -2.092   3.366 -18.606  1.00  0.00     0.134 A 
ATOM     66  F   UNL     1      -4.870   2.905 -16.313  1.00  0.00    -0.206 F 
ATOM     67  C   UNL     1      -3.934   1.423 -17.877  1.00  0.00     0.040 A 
ATOM     68  C   UNL     1      -2.071   2.121 -19.235  1.00  0.00     0.040 A 
ATOM     69  F   UNL     1      -1.181   4.276 -18.983  1.00  0.00    -0.206 F 
ATOM     70  C   UNL     1      -2.994   1.143 -18.868  1.00  0.00     0.006 A 
ENDBRANCH  49  63
BRANCH  50  71
ATOM     71  C   UNL     1      -2.936  12.541 -13.006  1.00  0.00     0.057 A 
ATOM     72  C   UNL     1      -4.079  13.147 -12.477  1.00  0.00     0.134 A 
ATOM     73  C   UNL     1      -1.715  13.210 -12.850  1.00  0.00     0.134 A 
ATOM     74  F   UNL     1      -5.278  12.562 -12.614  1.00  0.00    -0.206 F 
ATOM     75  C   UNL     1      -4.012  14.372 -11.812  1.00  0.00     0.040 A 
ATOM     76  C   UNL     1      -1.630  14.424 -12.169  1.00  0.00     0.040 A 
ATOM     77  F   UNL     1      -0.584  12.676 -13.332  1.00  0.00    -0.206 F 
ATOM     78  C   UNL     1      -2.782  15.009 -11.649  1.00  0.00     0.006 A 
ENDBRANCH  50  71
BRANCH  62  79
ATOM     79  C   UNL     1      -5.058  10.389 -19.267  1.00  0.00     0.057 A 
ATOM     80  C   UNL     1      -4.272  11.150 -20.139  1.00  0.00     0.134 A 
ATOM     81  C   UNL     1      -6.429  10.294 -19.532  1.00  0.00     0.134 A 
ATOM     82  F   UNL     1      -2.955  11.286 -19.925  1.00  0.00    -0.206 F 
ATOM     83  C   UNL     1      -4.834  11.805 -21.235  1.00  0.00     0.040 A 
ATOM     84  C   UNL     1      -7.000  10.933 -20.632  1.00  0.00     0.040 A 
ATOM     85  F   UNL     1      -7.229   9.576 -18.730  1.00  0.00    -0.206 F 
ATOM     86  C   UNL     1      -6.201  11.692 -21.486  1.00  0.00     0.006 A 
ENDBRANCH  62  79
ENDBRANCH  36  37
ENDBRANCH  29  31
ENDBRANCH  28  29
ENDBRANCH  27  28
ENDBRANCH   1  27
TORSDOF 15
