REMARK SMILES O=C(OCCOC(=O)c1cncnc1N1CC[C@H]2[NH2+]CCC[C@]2(CO)C1)c1ccc(-c2c3nc(c(-c4c(F)cccc4F)c4ccc([nH]4)c(-c4c(F)cccc4F)c4nc(c(-c5c(F)cccc5F)c5ccc2[nH]5)C=C4)C=C3)cc1
REMARK SMILES IDX 5 1 4 2 3 3 2 4 1 5 27 6 28 7 80 8 29 9 79 10 30 11 31 12
REMARK SMILES IDX 32 13 73 14 33 15 78 16 72 17 74 18 34 19 77 20 71 21 70 22
REMARK SMILES IDX 35 24 61 25 44 26 60 27 45 28 48 29 59 30 75 31 46 32 47 33
REMARK SMILES IDX 58 35 76 36 49 37 36 38 37 39 42 40 38 41 39 42 41 43 43 44
REMARK SMILES IDX 40 45 62 46 63 47 68 48 64 49 65 50 67 51 69 52 66 53 50 54
REMARK SMILES IDX 51 55 56 56 52 57 53 58 55 59 57 60 54 61 6 62 7 63 8 64
REMARK SMILES IDX 9 65 10 66 14 67 11 68 13 69 12 70 15 71 16 72 26 73 17 74
REMARK SMILES IDX 23 75 18 76 22 77 19 78 21 79 20 80 24 83 25 84
REMARK H PARENT 74 23 48 34 19 81 19 82 25 85
REMARK Flexibility Score: inf
ROOT
ATOM      1  C   UNL     1       3.837  -0.704   2.099  1.00  0.00     0.275 C 
ENDROOT
BRANCH   1   2
ATOM      2  C   UNL     1       4.752   0.522   1.860  1.00  0.00     0.275 C 
BRANCH   2   3
ATOM      3  O   UNL     1       5.244   0.742   0.537  1.00  0.00    -0.458 OA
BRANCH   3   4
ATOM      4  C   UNL     1       4.343   0.775  -0.467  1.00  0.00     0.338 C 
ATOM      5  O   UNL     1       3.304   1.407  -0.490  1.00  0.00    -0.246 OA
BRANCH   4   6
ATOM      6  C   UNL     1       4.762  -0.274  -1.439  1.00  0.00     0.060 A 
ATOM      7  C   UNL     1       5.765  -1.191  -1.089  1.00  0.00     0.016 A 
ATOM      8  C   UNL     1       4.043  -0.462  -2.616  1.00  0.00     0.016 A 
ATOM      9  C   UNL     1       6.025  -2.287  -1.889  1.00  0.00     0.010 A 
ATOM     10  C   UNL     1       4.220  -1.615  -3.365  1.00  0.00     0.010 A 
ATOM     11  C   UNL     1       5.242  -2.505  -3.021  1.00  0.00    -0.014 A 
BRANCH  11  12
ATOM     12  C   UNL     1       5.620  -3.570  -3.955  1.00  0.00     0.031 A 
ATOM     13  C   UNL     1       6.249  -3.156  -5.249  1.00  0.00     0.074 A 
ATOM     14  C   UNL     1       5.405  -4.854  -3.623  1.00  0.00     0.049 A 
ATOM     15  N   UNL     1       6.700  -3.902  -6.218  1.00  0.00    -0.248 NA
ATOM     16  C   UNL     1       6.382  -1.706  -5.495  1.00  0.00     0.031 C 
ATOM     17  C   UNL     1       4.781  -5.312  -2.380  1.00  0.00     0.029 A 
ATOM     18  N   UNL     1       5.660  -6.007  -4.308  1.00  0.00    -0.354 N 
ATOM     19  C   UNL     1       7.179  -3.015  -7.171  1.00  0.00     0.074 A 
ATOM     20  C   UNL     1       6.892  -1.679  -6.715  1.00  0.00     0.031 C 
ATOM     21  C   UNL     1       4.649  -6.647  -2.416  1.00  0.00     0.029 A 
ATOM     22  C   UNL     1       5.197  -7.134  -3.674  1.00  0.00     0.049 A 
ATOM     23  H   UNL     1       6.130  -6.028  -5.173  1.00  0.00     0.167 HD
ATOM     24  C   UNL     1       7.844  -3.306  -8.309  1.00  0.00     0.037 A 
ATOM     25  C   UNL     1       5.216  -8.413  -4.088  1.00  0.00     0.037 A 
ATOM     26  C   UNL     1       8.127  -4.652  -8.713  1.00  0.00     0.049 A 
ATOM     27  C   UNL     1       5.921  -8.708  -5.383  1.00  0.00     0.074 A 
ATOM     28  C   UNL     1       8.863  -5.093  -9.793  1.00  0.00     0.029 A 
ATOM     29  N   UNL     1       7.663  -5.777  -8.044  1.00  0.00    -0.354 N 
ATOM     30  N   UNL     1       6.493  -7.869  -6.217  1.00  0.00    -0.248 NA
ATOM     31  C   UNL     1       6.018 -10.115  -5.781  1.00  0.00     0.031 C 
ATOM     32  C   UNL     1       8.799  -6.490  -9.808  1.00  0.00     0.029 A 
ATOM     33  C   UNL     1       8.060  -6.917  -8.712  1.00  0.00     0.049 A 
ATOM     34  H   UNL     1       7.131  -5.764  -7.215  1.00  0.00     0.167 HD
ATOM     35  C   UNL     1       7.045  -8.647  -7.222  1.00  0.00     0.074 A 
ATOM     36  C   UNL     1       6.749 -10.027  -6.883  1.00  0.00     0.031 C 
ATOM     37  C   UNL     1       7.736  -8.267  -8.324  1.00  0.00     0.037 A 
BRANCH  24  38
ATOM     38  C   UNL     1       8.300  -2.160  -9.159  1.00  0.00     0.057 A 
ATOM     39  C   UNL     1       9.329  -1.299  -8.751  1.00  0.00     0.134 A 
ATOM     40  C   UNL     1       7.706  -1.914 -10.401  1.00  0.00     0.134 A 
ATOM     41  F   UNL     1       9.921  -1.462  -7.558  1.00  0.00    -0.206 F 
ATOM     42  C   UNL     1       9.740  -0.226  -9.543  1.00  0.00     0.040 A 
ATOM     43  C   UNL     1       8.124  -0.858 -11.213  1.00  0.00     0.040 A 
ATOM     44  F   UNL     1       6.707  -2.692 -10.845  1.00  0.00    -0.206 F 
ATOM     45  C   UNL     1       9.142  -0.008 -10.782  1.00  0.00     0.006 A 
ENDBRANCH  24  38
BRANCH  25  46
ATOM     46  C   UNL     1       4.579  -9.480  -3.276  1.00  0.00     0.057 A 
ATOM     47  C   UNL     1       5.338 -10.463  -2.630  1.00  0.00     0.134 A 
ATOM     48  C   UNL     1       3.187  -9.549  -3.134  1.00  0.00     0.134 A 
ATOM     49  F   UNL     1       6.675 -10.457  -2.731  1.00  0.00    -0.206 F 
ATOM     50  C   UNL     1       4.737 -11.491  -1.900  1.00  0.00     0.040 A 
ATOM     51  C   UNL     1       2.574 -10.558  -2.387  1.00  0.00     0.040 A 
ATOM     52  F   UNL     1       2.400  -8.633  -3.717  1.00  0.00    -0.206 F 
ATOM     53  C   UNL     1       3.350 -11.540  -1.775  1.00  0.00     0.006 A 
ENDBRANCH  25  46
BRANCH  37  54
ATOM     54  C   UNL     1       8.216  -9.360  -9.225  1.00  0.00     0.057 A 
ATOM     55  C   UNL     1       7.334 -10.051 -10.063  1.00  0.00     0.134 A 
ATOM     56  C   UNL     1       9.578  -9.670  -9.305  1.00  0.00     0.134 A 
ATOM     57  F   UNL     1       6.016  -9.803 -10.018  1.00  0.00    -0.206 F 
ATOM     58  C   UNL     1       7.792 -11.028 -10.944  1.00  0.00     0.040 A 
ATOM     59  C   UNL     1      10.051 -10.624 -10.203  1.00  0.00     0.040 A 
ATOM     60  F   UNL     1      10.470  -9.030  -8.533  1.00  0.00    -0.206 F 
ATOM     61  C   UNL     1       9.155 -11.308 -11.023  1.00  0.00     0.006 A 
ENDBRANCH  37  54
ENDBRANCH  11  12
ENDBRANCH   4   6
ENDBRANCH   3   4
ENDBRANCH   2   3
ENDBRANCH   1   2
BRANCH   1  62
ATOM     62  O   UNL     1       3.281  -1.292   0.912  1.00  0.00    -0.458 OA
BRANCH  62  63
ATOM     63  C   UNL     1       1.941  -1.533   0.898  1.00  0.00     0.343 C 
ATOM     64  O   UNL     1       1.153  -1.342   1.798  1.00  0.00    -0.246 OA
BRANCH  63  65
ATOM     65  C   UNL     1       1.627  -2.220  -0.357  1.00  0.00     0.120 A 
ATOM     66  C   UNL     1       2.007  -3.537  -0.505  1.00  0.00     0.132 A 
ATOM     67  C   UNL     1       0.948  -1.644  -1.418  1.00  0.00     0.146 A 
ATOM     68  N   UNL     1       1.779  -4.260  -1.619  1.00  0.00    -0.244 NA
ATOM     69  N   UNL     1       0.760  -2.325  -2.576  1.00  0.00    -0.219 NA
ATOM     70  C   UNL     1       1.177  -3.601  -2.617  1.00  0.00     0.224 A 
BRANCH  67  71
ATOM     71  N   UNL     1       0.306  -0.400  -1.301  1.00  0.00    -0.355 N 
ATOM     72  C   UNL     1       0.621   0.566  -2.344  1.00  0.00     0.124 C 
ATOM     73  C   UNL     1      -1.111  -0.604  -0.960  1.00  0.00     0.133 C 
ATOM     74  C   UNL     1       0.021   1.944  -2.087  1.00  0.00     0.087 C 
ATOM     75  C   UNL     1      -1.973   0.660  -1.190  1.00  0.00     0.063 C 
ATOM     76  C   UNL     1      -1.085   1.915  -1.038  1.00  0.00     0.194 C 
ATOM     77  C   UNL     1      -3.063   0.707  -0.092  1.00  0.00     0.023 C 
ATOM     78  N   UNL     1      -1.859   3.166  -1.123  1.00  0.00    -0.343 N 
ATOM     79  C   UNL     1      -3.820   2.032  -0.099  1.00  0.00     0.062 C 
ATOM     80  C   UNL     1      -2.869   3.228  -0.065  1.00  0.00     0.260 C 
ATOM     81  H   UNL     1      -2.322   3.212  -2.030  1.00  0.00     0.346 HD
ATOM     82  H   UNL     1      -1.220   3.953  -1.009  1.00  0.00     0.346 HD
BRANCH  75  83
ATOM     83  C   UNL     1      -2.620   0.599  -2.602  1.00  0.00     0.171 C 
BRANCH  83  84
ATOM     84  O   UNL     1      -3.448  -0.554  -2.745  1.00  0.00    -0.395 OA
ATOM     85  H   UNL     1      -2.911  -1.354  -2.631  1.00  0.00     0.210 HD
ENDBRANCH  83  84
ENDBRANCH  75  83
ENDBRANCH  67  71
ENDBRANCH  63  65
ENDBRANCH  62  63
ENDBRANCH   1  62
TORSDOF 14
