REMARK SMILES CCOc1c(F)cccc1C(=O)OCCOC(=O)c1ccc(-c2c3nc(c(-c4c(F)cccc4F)c4ccc([nH]4)c(-c4c(F)cccc4F)c4nc(c(-c5c(F)cccc5F)c5ccc2[nH]5)C=C4)C=C3)cc1
REMARK SMILES IDX 14 1 13 2 11 3 12 4 10 5 4 6 5 7 6 8 7 9 9 10 8 11 3 12 2 13
REMARK SMILES IDX 1 14 15 15 16 16 17 17 18 18 19 19 20 20 72 21 21 22 71 23
REMARK SMILES IDX 22 24 23 25 24 26 65 27 25 28 70 29 64 30 66 31 26 32 69 33
REMARK SMILES IDX 63 34 62 35 27 37 53 38 36 39 52 40 37 41 40 42 51 43 67 44
REMARK SMILES IDX 38 45 39 46 50 48 68 49 41 50 28 51 29 52 34 53 30 54 31 55
REMARK SMILES IDX 33 56 35 57 32 58 54 59 55 60 60 61 56 62 57 63 59 64 61 65
REMARK SMILES IDX 58 66 42 67 43 68 48 69 44 70 45 71 47 72 49 73 46 74
REMARK H PARENT 66 36 40 47
REMARK Flexibility Score: inf
ROOT
ATOM      1  C   UNL     1       0.054   4.437   3.369  1.00  0.00     0.275 C 
ENDROOT
BRANCH   1   2
ATOM      2  O   UNL     1       0.941   3.512   2.702  1.00  0.00    -0.458 OA
BRANCH   2   3
ATOM      3  C   UNL     1       1.925   4.076   1.963  1.00  0.00     0.342 C 
ATOM      4  O   UNL     1       2.183   5.269   1.886  1.00  0.00    -0.246 OA
BRANCH   3   5
ATOM      5  C   UNL     1       2.772   3.060   1.304  1.00  0.00     0.105 A 
ATOM      6  C   UNL     1       2.253   2.072   0.466  1.00  0.00     0.169 A 
ATOM      7  C   UNL     1       3.141   1.289  -0.280  1.00  0.00     0.165 A 
ATOM      8  F   UNL     1       2.677   0.417  -1.186  1.00  0.00    -0.203 F 
ATOM      9  C   UNL     1       4.521   1.409  -0.136  1.00  0.00     0.043 A 
ATOM     10  C   UNL     1       4.166   3.194   1.431  1.00  0.00     0.020 A 
ATOM     11  C   UNL     1       5.038   2.356   0.738  1.00  0.00     0.004 A 
BRANCH   6  12
ATOM     12  O   UNL     1       0.906   1.940   0.261  1.00  0.00    -0.490 OA
BRANCH  12  13
ATOM     13  C   UNL     1       0.354   0.877   1.054  1.00  0.00     0.226 C 
ATOM     14  C   UNL     1       0.317  -0.434   0.286  1.00  0.00     0.049 C 
ENDBRANCH  12  13
ENDBRANCH   6  12
ENDBRANCH   3   5
ENDBRANCH   2   3
ENDBRANCH   1   2
BRANCH   1  15
ATOM     15  C   UNL     1       0.367   4.535   4.860  1.00  0.00     0.275 C 
BRANCH  15  16
ATOM     16  O   UNL     1       1.673   5.106   5.050  1.00  0.00    -0.458 OA
BRANCH  16  17
ATOM     17  C   UNL     1       2.568   4.323   5.691  1.00  0.00     0.338 C 
ATOM     18  O   UNL     1       2.382   3.221   6.178  1.00  0.00    -0.246 OA
BRANCH  17  19
ATOM     19  C   UNL     1       3.885   4.982   5.712  1.00  0.00     0.060 A 
ATOM     20  C   UNL     1       4.503   5.311   4.510  1.00  0.00     0.016 A 
ATOM     21  C   UNL     1       4.574   5.127   6.914  1.00  0.00     0.016 A 
ATOM     22  C   UNL     1       5.853   5.654   4.491  1.00  0.00     0.010 A 
ATOM     23  C   UNL     1       5.893   5.594   6.902  1.00  0.00     0.010 A 
ATOM     24  C   UNL     1       6.568   5.814   5.687  1.00  0.00    -0.014 A 
BRANCH  24  25
ATOM     25  C   UNL     1       8.020   6.164   5.669  1.00  0.00     0.031 A 
ATOM     26  C   UNL     1       9.027   5.283   6.365  1.00  0.00     0.074 A 
ATOM     27  C   UNL     1       8.458   7.254   5.007  1.00  0.00     0.049 A 
ATOM     28  N   UNL     1      10.293   5.509   6.617  1.00  0.00    -0.248 NA
ATOM     29  C   UNL     1       8.546   3.981   6.854  1.00  0.00     0.031 C 
ATOM     30  C   UNL     1       7.619   8.175   4.239  1.00  0.00     0.029 A 
ATOM     31  N   UNL     1       9.726   7.762   4.857  1.00  0.00    -0.354 N 
ATOM     32  C   UNL     1      10.739   4.413   7.347  1.00  0.00     0.074 A 
ATOM     33  C   UNL     1       9.609   3.522   7.499  1.00  0.00     0.031 C 
ATOM     34  C   UNL     1       8.399   9.089   3.643  1.00  0.00     0.029 A 
ATOM     35  C   UNL     1       9.779   8.886   4.070  1.00  0.00     0.049 A 
ATOM     36  H   UNL     1      10.521   7.358   5.274  1.00  0.00     0.167 HD
ATOM     37  C   UNL     1      11.975   4.173   7.846  1.00  0.00     0.037 A 
ATOM     38  C   UNL     1      10.809   9.694   3.752  1.00  0.00     0.037 A 
ATOM     39  C   UNL     1      13.116   5.028   7.642  1.00  0.00     0.049 A 
ATOM     40  C   UNL     1      12.162   9.431   4.340  1.00  0.00     0.074 A 
ATOM     41  C   UNL     1      14.410   4.867   8.109  1.00  0.00     0.029 A 
ATOM     42  N   UNL     1      13.107   6.191   6.888  1.00  0.00    -0.354 N 
ATOM     43  N   UNL     1      12.545   8.448   5.116  1.00  0.00    -0.248 NA
ATOM     44  C   UNL     1      13.217  10.410   4.040  1.00  0.00     0.031 C 
ATOM     45  C   UNL     1      15.176   5.947   7.660  1.00  0.00     0.029 A 
ATOM     46  C   UNL     1      14.369   6.761   6.882  1.00  0.00     0.049 A 
ATOM     47  H   UNL     1      12.319   6.558   6.425  1.00  0.00     0.167 HD
ATOM     48  C   UNL     1      13.882   8.689   5.402  1.00  0.00     0.074 A 
ATOM     49  C   UNL     1      14.250   9.900   4.698  1.00  0.00     0.031 C 
ATOM     50  C   UNL     1      14.722   7.972   6.186  1.00  0.00     0.037 A 
BRANCH  37  51
ATOM     51  C   UNL     1      12.156   2.946   8.691  1.00  0.00     0.057 A 
ATOM     52  C   UNL     1      12.335   3.061  10.077  1.00  0.00     0.134 A 
ATOM     53  C   UNL     1      12.188   1.659   8.141  1.00  0.00     0.134 A 
ATOM     54  F   UNL     1      12.323   4.265  10.667  1.00  0.00    -0.206 F 
ATOM     55  C   UNL     1      12.543   1.941  10.883  1.00  0.00     0.040 A 
ATOM     56  C   UNL     1      12.371   0.528   8.941  1.00  0.00     0.040 A 
ATOM     57  F   UNL     1      12.009   1.478   6.824  1.00  0.00    -0.206 F 
ATOM     58  C   UNL     1      12.556   0.668  10.316  1.00  0.00     0.006 A 
ENDBRANCH  37  51
BRANCH  38  59
ATOM     59  C   UNL     1      10.573  10.845   2.846  1.00  0.00     0.057 A 
ATOM     60  C   UNL     1       9.824  11.956   3.253  1.00  0.00     0.134 A 
ATOM     61  C   UNL     1      11.037  10.824   1.527  1.00  0.00     0.134 A 
ATOM     62  F   UNL     1       9.350  12.030   4.505  1.00  0.00    -0.206 F 
ATOM     63  C   UNL     1       9.510  12.987   2.369  1.00  0.00     0.040 A 
ATOM     64  C   UNL     1      10.750  11.861   0.638  1.00  0.00     0.040 A 
ATOM     65  F   UNL     1      11.779   9.797   1.088  1.00  0.00    -0.206 F 
ATOM     66  C   UNL     1       9.972  12.940   1.055  1.00  0.00     0.006 A 
ENDBRANCH  38  59
BRANCH  50  67
ATOM     67  C   UNL     1      16.128   8.472   6.324  1.00  0.00     0.057 A 
ATOM     68  C   UNL     1      17.185   7.824   5.672  1.00  0.00     0.134 A 
ATOM     69  C   UNL     1      16.440   9.558   7.149  1.00  0.00     0.134 A 
ATOM     70  F   UNL     1      16.950   6.773   4.873  1.00  0.00    -0.206 F 
ATOM     71  C   UNL     1      18.507   8.235   5.845  1.00  0.00     0.040 A 
ATOM     72  C   UNL     1      17.757   9.990   7.315  1.00  0.00     0.040 A 
ATOM     73  F   UNL     1      15.470  10.226   7.790  1.00  0.00    -0.206 F 
ATOM     74  C   UNL     1      18.796   9.322   6.668  1.00  0.00     0.006 A 
ENDBRANCH  50  67
ENDBRANCH  24  25
ENDBRANCH  17  19
ENDBRANCH  16  17
ENDBRANCH  15  16
ENDBRANCH   1  15
TORSDOF 13
