REMARK SMILES Nc1cc(C(=O)OCCOC(=O)c2ccc(-c3c4nc(c(-c5c(F)cccc5F)c5ccc([nH]5)c(-c5c(F)cccc5F)c5nc(c(-c6c(F)cccc6F)c6ccc3[nH]6)C=C5)C=C4)cc2)nc2ccccc12
REMARK SMILES IDX 9 1 8 2 7 3 5 4 6 5 4 6 2 7 3 8 73 9 68 10 72 11 67 12 69 13
REMARK SMILES IDX 71 14 70 15 1 16 10 19 11 20 12 21 13 22 14 23 66 24 15 25
REMARK SMILES IDX 65 26 16 27 17 28 18 29 59 30 19 31 64 32 58 33 60 34 20 35
REMARK SMILES IDX 63 36 57 37 56 38 21 40 47 41 30 42 46 43 31 44 34 45 45 46
REMARK SMILES IDX 61 47 32 48 33 49 44 51 62 52 35 53 22 54 23 55 28 56 24 57
REMARK SMILES IDX 25 58 27 59 29 60 26 61 48 62 49 63 54 64 50 65 51 66 53 67
REMARK SMILES IDX 55 68 52 69 36 70 37 71 42 72 38 73 39 74 41 75 43 76 40 77
REMARK H PARENT 1 17 1 18 60 39 34 50
REMARK Flexibility Score: inf
ROOT
ATOM      1  C   UNL     1       0.674   4.889   5.025  1.00  0.00     0.275 C 
ENDROOT
BRANCH   1   2
ATOM      2  C   UNL     1       1.804   3.864   4.862  1.00  0.00     0.275 C 
BRANCH   2   3
ATOM      3  O   UNL     1       1.492   2.865   3.868  1.00  0.00    -0.457 OA
BRANCH   3   4
ATOM      4  C   UNL     1       1.018   1.683   4.348  1.00  0.00     0.357 C 
ATOM      5  O   UNL     1       0.915   1.390   5.530  1.00  0.00    -0.244 OA
BRANCH   4   6
ATOM      6  C   UNL     1       0.522   0.816   3.232  1.00  0.00     0.151 A 
ATOM      7  C   UNL     1       0.516   0.024   0.979  1.00  0.00     0.043 A 
ATOM      8  C   UNL     1       1.086   0.828   1.971  1.00  0.00     0.062 A 
ATOM      9  C   UNL     1      -0.629  -0.762   1.287  1.00  0.00     0.023 A 
ATOM     10  C   UNL     1      -1.121  -0.693   2.605  1.00  0.00     0.073 A 
ATOM     11  C   UNL     1      -1.317  -1.594   0.367  1.00  0.00     0.012 A 
ATOM     12  N   UNL     1      -0.533   0.032   3.558  1.00  0.00    -0.241 NA
ATOM     13  C   UNL     1      -2.279  -1.381   2.944  1.00  0.00     0.029 A 
ATOM     14  C   UNL     1      -2.478  -2.282   0.730  1.00  0.00     0.001 A 
ATOM     15  C   UNL     1      -2.970  -2.162   2.020  1.00  0.00     0.002 A 
BRANCH   7  16
ATOM     16  N   UNL     1       1.130  -0.018  -0.271  1.00  0.00    -0.398 N 
ATOM     17  H   UNL     1       1.921   0.540  -0.450  1.00  0.00     0.156 HD
ATOM     18  H   UNL     1       0.773  -0.607  -0.975  1.00  0.00     0.156 HD
ENDBRANCH   7  16
ENDBRANCH   4   6
ENDBRANCH   3   4
ENDBRANCH   2   3
ENDBRANCH   1   2
BRANCH   1  19
ATOM     19  O   UNL     1      -0.474   4.334   5.695  1.00  0.00    -0.458 OA
BRANCH  19  20
ATOM     20  C   UNL     1      -1.424   3.817   4.879  1.00  0.00     0.338 C 
ATOM     21  O   UNL     1      -1.421   3.806   3.662  1.00  0.00    -0.246 OA
BRANCH  20  22
ATOM     22  C   UNL     1      -2.438   3.123   5.694  1.00  0.00     0.060 A 
ATOM     23  C   UNL     1      -3.241   3.787   6.618  1.00  0.00     0.016 A 
ATOM     24  C   UNL     1      -2.605   1.757   5.481  1.00  0.00     0.016 A 
ATOM     25  C   UNL     1      -4.184   3.055   7.351  1.00  0.00     0.010 A 
ATOM     26  C   UNL     1      -3.557   1.033   6.186  1.00  0.00     0.010 A 
ATOM     27  C   UNL     1      -4.343   1.670   7.148  1.00  0.00    -0.014 A 
BRANCH  27  28
ATOM     28  C   UNL     1      -5.334   0.881   7.920  1.00  0.00     0.031 A 
ATOM     29  C   UNL     1      -4.887  -0.179   8.890  1.00  0.00     0.074 A 
ATOM     30  C   UNL     1      -6.646   1.095   7.712  1.00  0.00     0.049 A 
ATOM     31  N   UNL     1      -5.607  -0.907   9.708  1.00  0.00    -0.248 NA
ATOM     32  C   UNL     1      -3.448  -0.481   8.931  1.00  0.00     0.031 C 
ATOM     33  C   UNL     1      -7.203   2.029   6.732  1.00  0.00     0.029 A 
ATOM     34  N   UNL     1      -7.748   0.549   8.318  1.00  0.00    -0.354 N 
ATOM     35  C   UNL     1      -4.709  -1.737  10.369  1.00  0.00     0.074 A 
ATOM     36  C   UNL     1      -3.405  -1.482   9.798  1.00  0.00     0.031 C 
ATOM     37  C   UNL     1      -8.540   2.036   6.846  1.00  0.00     0.029 A 
ATOM     38  C   UNL     1      -8.934   1.089   7.885  1.00  0.00     0.049 A 
ATOM     39  H   UNL     1      -7.694  -0.161   8.998  1.00  0.00     0.167 HD
ATOM     40  C   UNL     1      -4.942  -2.605  11.384  1.00  0.00     0.037 A 
ATOM     41  C   UNL     1     -10.194   0.859   8.296  1.00  0.00     0.037 A 
ATOM     42  C   UNL     1      -6.247  -2.868  11.935  1.00  0.00     0.049 A 
ATOM     43  C   UNL     1     -10.431  -0.124   9.410  1.00  0.00     0.074 A 
ATOM     44  C   UNL     1      -6.593  -3.697  12.988  1.00  0.00     0.029 A 
ATOM     45  N   UNL     1      -7.427  -2.312  11.462  1.00  0.00    -0.354 N 
ATOM     46  N   UNL     1      -9.563  -0.826  10.098  1.00  0.00    -0.248 NA
ATOM     47  C   UNL     1     -11.828  -0.334   9.810  1.00  0.00     0.031 C 
ATOM     48  C   UNL     1      -7.987  -3.681  13.119  1.00  0.00     0.029 A 
ATOM     49  C   UNL     1      -8.505  -2.796  12.187  1.00  0.00     0.049 A 
ATOM     50  H   UNL     1      -7.490  -1.669  10.720  1.00  0.00     0.167 HD
ATOM     51  C   UNL     1     -10.304  -1.534  11.035  1.00  0.00     0.074 A 
ATOM     52  C   UNL     1     -11.690  -1.160  10.837  1.00  0.00     0.031 C 
ATOM     53  C   UNL     1      -9.879  -2.415  11.975  1.00  0.00     0.037 A 
BRANCH  40  54
ATOM     54  C   UNL     1      -3.752  -3.321  11.961  1.00  0.00     0.057 A 
ATOM     55  C   UNL     1      -3.600  -4.706  11.819  1.00  0.00     0.134 A 
ATOM     56  C   UNL     1      -2.750  -2.635  12.664  1.00  0.00     0.134 A 
ATOM     57  F   UNL     1      -4.524  -5.432  11.172  1.00  0.00    -0.206 F 
ATOM     58  C   UNL     1      -2.492  -5.378  12.342  1.00  0.00     0.040 A 
ATOM     59  C   UNL     1      -1.622  -3.291  13.162  1.00  0.00     0.040 A 
ATOM     60  F   UNL     1      -2.828  -1.307  12.835  1.00  0.00    -0.206 F 
ATOM     61  C   UNL     1      -1.493  -4.668  13.004  1.00  0.00     0.006 A 
ENDBRANCH  40  54
BRANCH  41  62
ATOM     62  C   UNL     1     -11.325   1.612   7.699  1.00  0.00     0.057 A 
ATOM     63  C   UNL     1     -11.736   1.395   6.379  1.00  0.00     0.134 A 
ATOM     64  C   UNL     1     -12.036   2.557   8.449  1.00  0.00     0.134 A 
ATOM     65  F   UNL     1     -11.090   0.513   5.604  1.00  0.00    -0.206 F 
ATOM     66  C   UNL     1     -12.815   2.088   5.828  1.00  0.00     0.040 A 
ATOM     67  C   UNL     1     -13.135   3.235   7.920  1.00  0.00     0.040 A 
ATOM     68  F   UNL     1     -11.698   2.798   9.725  1.00  0.00    -0.206 F 
ATOM     69  C   UNL     1     -13.525   3.003   6.603  1.00  0.00     0.006 A 
ENDBRANCH  41  62
BRANCH  53  70
ATOM     70  C   UNL     1     -10.927  -2.995  12.883  1.00  0.00     0.057 A 
ATOM     71  C   UNL     1     -10.969  -2.639  14.238  1.00  0.00     0.134 A 
ATOM     72  C   UNL     1     -11.895  -3.897  12.423  1.00  0.00     0.134 A 
ATOM     73  F   UNL     1     -10.066  -1.789  14.748  1.00  0.00    -0.206 F 
ATOM     74  C   UNL     1     -11.941  -3.151  15.098  1.00  0.00     0.040 A 
ATOM     75  C   UNL     1     -12.893  -4.389  13.266  1.00  0.00     0.040 A 
ATOM     76  F   UNL     1     -11.921  -4.269  11.134  1.00  0.00    -0.206 F 
ATOM     77  C   UNL     1     -12.915  -4.019  14.609  1.00  0.00     0.006 A 
ENDBRANCH  53  70
ENDBRANCH  27  28
ENDBRANCH  20  22
ENDBRANCH  19  20
ENDBRANCH   1  19
TORSDOF 12
