REMARK SMILES CC[C@@H](NC(=O)[C@H](C)C[NH2+]C)C(=O)OCCOC(=O)c1ccc(-c2c3nc(c(-c4c(F)cccc4F)c4ccc([nH]4)c(-c4c(F)cccc4F)c4nc(c(-c5c(F)cccc5F)c5ccc2[nH]5)C=C4)C=C3)cc1
REMARK SMILES IDX 15 1 14 2 12 3 13 4 3 5 2 6 1 7 4 8 5 9 6 11 7 12 8 13 9 14
REMARK SMILES IDX 10 15 11 16 16 19 17 20 18 21 19 22 20 23 21 24 73 25 22 26
REMARK SMILES IDX 72 27 23 28 24 29 25 30 66 31 26 32 71 33 65 34 67 35 27 36
REMARK SMILES IDX 70 37 64 38 63 39 28 41 54 42 37 43 53 44 38 45 41 46 52 47
REMARK SMILES IDX 68 48 39 49 40 50 51 52 69 53 42 54 29 55 30 56 35 57 31 58
REMARK SMILES IDX 32 59 34 60 36 61 33 62 55 63 56 64 61 65 57 66 58 67 60 68
REMARK SMILES IDX 62 69 59 70 43 71 44 72 49 73 45 74 46 75 48 76 50 77 47 78
REMARK H PARENT 4 10 10 17 10 18 67 40 41 51
REMARK Flexibility Score: inf
ROOT
ATOM      1  C   UNL     1       2.600  -2.029   4.248  1.00  0.00     0.274 C 
ENDROOT
BRANCH   1   2
ATOM      2  O   UNL     1       2.012  -2.406   2.985  1.00  0.00    -0.461 OA
BRANCH   2   3
ATOM      3  C   UNL     1       0.895  -1.725   2.600  1.00  0.00     0.328 C 
ATOM      4  O   UNL     1       0.426  -0.772   3.213  1.00  0.00    -0.250 OA
BRANCH   3   5
ATOM      5  C   UNL     1       0.232  -2.320   1.345  1.00  0.00     0.192 C 
BRANCH   5   6
ATOM      6  C   UNL     1       1.212  -2.951   0.340  1.00  0.00     0.033 C 
ATOM      7  C   UNL     1       0.713  -2.860  -1.104  1.00  0.00     0.007 C 
ENDBRANCH   5   6
BRANCH   5   8
ATOM      8  N   UNL     1      -1.050  -3.043   1.452  1.00  0.00    -0.342 N 
ATOM      9  C   UNL     1      -1.672  -3.826   2.366  1.00  0.00     0.229 C 
ATOM     10  H   UNL     1      -1.600  -2.925   0.644  1.00  0.00     0.164 HD
ATOM     11  O   UNL     1      -2.664  -4.444   1.961  1.00  0.00    -0.275 OA
BRANCH   9  12
ATOM     12  C   UNL     1      -1.274  -3.936   3.832  1.00  0.00     0.130 C 
ATOM     13  C   UNL     1      -1.387  -2.594   4.558  1.00  0.00     0.024 C 
BRANCH  12  14
ATOM     14  C   UNL     1       0.025  -4.742   3.964  1.00  0.00     0.273 C 
BRANCH  14  15
ATOM     15  N   UNL     1       0.625  -4.727   5.302  1.00  0.00    -0.348 N 
ATOM     16  C   UNL     1       1.874  -5.481   5.312  1.00  0.00     0.330 C 
ATOM     17  H   UNL     1      -0.026  -5.147   5.966  1.00  0.00     0.346 HD
ATOM     18  H   UNL     1       0.821  -3.761   5.565  1.00  0.00     0.346 HD
ENDBRANCH  14  15
ENDBRANCH  12  14
ENDBRANCH   9  12
ENDBRANCH   5   8
ENDBRANCH   3   5
ENDBRANCH   2   3
ENDBRANCH   1   2
BRANCH   1  19
ATOM     19  C   UNL     1       3.798  -1.093   4.108  1.00  0.00     0.275 C 
BRANCH  19  20
ATOM     20  O   UNL     1       3.387   0.202   3.662  1.00  0.00    -0.458 OA
BRANCH  20  21
ATOM     21  C   UNL     1       3.263   0.318   2.322  1.00  0.00     0.338 C 
ATOM     22  O   UNL     1       3.577  -0.499   1.471  1.00  0.00    -0.246 OA
BRANCH  21  23
ATOM     23  C   UNL     1       2.489   1.527   2.029  1.00  0.00     0.060 A 
ATOM     24  C   UNL     1       1.430   1.418   1.119  1.00  0.00     0.016 A 
ATOM     25  C   UNL     1       2.811   2.747   2.623  1.00  0.00     0.016 A 
ATOM     26  C   UNL     1       0.691   2.538   0.781  1.00  0.00     0.010 A 
ATOM     27  C   UNL     1       2.087   3.877   2.267  1.00  0.00     0.010 A 
ATOM     28  C   UNL     1       1.050   3.775   1.324  1.00  0.00    -0.014 A 
BRANCH  28  29
ATOM     29  C   UNL     1       0.476   5.002   0.753  1.00  0.00     0.031 A 
ATOM     30  C   UNL     1       1.300   5.753  -0.247  1.00  0.00     0.074 A 
ATOM     31  C   UNL     1      -0.744   5.414   1.129  1.00  0.00     0.049 A 
ATOM     32  N   UNL     1       1.086   6.920  -0.788  1.00  0.00    -0.248 NA
ATOM     33  C   UNL     1       2.548   5.102  -0.686  1.00  0.00     0.031 C 
ATOM     34  C   UNL     1      -1.630   4.702   2.050  1.00  0.00     0.029 A 
ATOM     35  N   UNL     1      -1.438   6.543   0.792  1.00  0.00    -0.354 N 
ATOM     36  C   UNL     1       2.180   7.154  -1.611  1.00  0.00     0.074 A 
ATOM     37  C   UNL     1       3.068   6.022  -1.482  1.00  0.00     0.031 C 
ATOM     38  C   UNL     1      -2.747   5.427   2.223  1.00  0.00     0.029 A 
ATOM     39  C   UNL     1      -2.628   6.668   1.463  1.00  0.00     0.049 A 
ATOM     40  H   UNL     1      -1.115   7.201   0.135  1.00  0.00     0.167 HD
ATOM     41  C   UNL     1       2.412   8.226  -2.402  1.00  0.00     0.037 A 
ATOM     42  C   UNL     1      -3.496   7.696   1.479  1.00  0.00     0.037 A 
ATOM     43  C   UNL     1       1.506   9.338  -2.504  1.00  0.00     0.049 A 
ATOM     44  C   UNL     1      -3.179   8.908   0.643  1.00  0.00     0.074 A 
ATOM     45  C   UNL     1       1.621  10.480  -3.272  1.00  0.00     0.029 A 
ATOM     46  N   UNL     1       0.311   9.440  -1.802  1.00  0.00    -0.354 N 
ATOM     47  N   UNL     1      -2.147   9.130  -0.137  1.00  0.00    -0.248 NA
ATOM     48  C   UNL     1      -4.145  10.012   0.691  1.00  0.00     0.031 C 
ATOM     49  C   UNL     1       0.522  11.299  -2.994  1.00  0.00     0.029 A 
ATOM     50  C   UNL     1      -0.310  10.639  -2.101  1.00  0.00     0.049 A 
ATOM     51  H   UNL     1      -0.042   8.760  -1.183  1.00  0.00     0.167 HD
ATOM     52  C   UNL     1      -2.354  10.383  -0.699  1.00  0.00     0.074 A 
ATOM     53  C   UNL     1      -3.618  10.864  -0.177  1.00  0.00     0.031 C 
ATOM     54  C   UNL     1      -1.576  11.077  -1.567  1.00  0.00     0.037 A 
BRANCH  41  55
ATOM     55  C   UNL     1       3.701   8.258  -3.168  1.00  0.00     0.057 A 
ATOM     56  C   UNL     1       3.957   7.387  -4.236  1.00  0.00     0.134 A 
ATOM     57  C   UNL     1       4.703   9.178  -2.836  1.00  0.00     0.134 A 
ATOM     58  F   UNL     1       3.051   6.463  -4.593  1.00  0.00    -0.206 F 
ATOM     59  C   UNL     1       5.169   7.415  -4.929  1.00  0.00     0.040 A 
ATOM     60  C   UNL     1       5.907   9.236  -3.539  1.00  0.00     0.040 A 
ATOM     61  F   UNL     1       4.529  10.038  -1.821  1.00  0.00    -0.206 F 
ATOM     62  C   UNL     1       6.146   8.348  -4.586  1.00  0.00     0.006 A 
ENDBRANCH  41  55
BRANCH  42  63
ATOM     63  C   UNL     1      -4.718   7.630   2.318  1.00  0.00     0.057 A 
ATOM     64  C   UNL     1      -5.992   7.578   1.740  1.00  0.00     0.134 A 
ATOM     65  C   UNL     1      -4.647   7.626   3.717  1.00  0.00     0.134 A 
ATOM     66  F   UNL     1      -6.128   7.595   0.405  1.00  0.00    -0.206 F 
ATOM     67  C   UNL     1      -7.149   7.545   2.519  1.00  0.00     0.040 A 
ATOM     68  C   UNL     1      -5.795   7.565   4.509  1.00  0.00     0.040 A 
ATOM     69  F   UNL     1      -3.458   7.669   4.336  1.00  0.00    -0.206 F 
ATOM     70  C   UNL     1      -7.052   7.534   3.909  1.00  0.00     0.006 A 
ENDBRANCH  42  63
BRANCH  54  71
ATOM     71  C   UNL     1      -2.099  12.402  -2.038  1.00  0.00     0.057 A 
ATOM     72  C   UNL     1      -2.148  13.522  -1.199  1.00  0.00     0.134 A 
ATOM     73  C   UNL     1      -2.517  12.565  -3.365  1.00  0.00     0.134 A 
ATOM     74  F   UNL     1      -1.772  13.427   0.086  1.00  0.00    -0.206 F 
ATOM     75  C   UNL     1      -2.620  14.752  -1.657  1.00  0.00     0.040 A 
ATOM     76  C   UNL     1      -2.959  13.798  -3.843  1.00  0.00     0.040 A 
ATOM     77  F   UNL     1      -2.482  11.534  -4.223  1.00  0.00    -0.206 F 
ATOM     78  C   UNL     1      -3.019  14.894  -2.985  1.00  0.00     0.006 A 
ENDBRANCH  54  71
ENDBRANCH  28  29
ENDBRANCH  21  23
ENDBRANCH  20  21
ENDBRANCH  19  20
ENDBRANCH   1  19
TORSDOF 16
