REMARK SMILES CCn1nc(C)c(Br)c1C[C@H](C(=O)OCCOC(=O)c1ccc(-c2c3nc(c(-c4c(F)cccc4F)c4ccc([nH]4)c(-c4c(F)cccc4F)c4nc(c(-c5c(F)cccc5F)c5ccc2[nH]5)C=C4)C=C3)cc1)c1ccc(F)cc1
REMARK SMILES IDX 15 1 14 2 12 3 13 4 11 5 10 6 9 7 3 8 4 9 5 10 7 11 6 12
REMARK SMILES IDX 8 13 2 14 1 15 74 16 75 17 80 18 76 19 79 20 77 21 78 22
REMARK SMILES IDX 16 23 17 24 18 25 19 26 20 27 21 28 73 29 22 30 72 31 23 32
REMARK SMILES IDX 24 33 25 34 66 35 26 36 71 37 65 38 67 39 27 40 70 41 64 42
REMARK SMILES IDX 63 43 28 45 54 46 37 47 53 48 38 49 41 50 52 51 68 52 39 53
REMARK SMILES IDX 40 54 51 56 69 57 42 58 29 59 30 60 35 61 31 62 32 63 34 64
REMARK SMILES IDX 36 65 33 66 55 67 56 68 61 69 57 70 58 71 60 72 62 73 59 74
REMARK SMILES IDX 43 75 44 76 49 77 45 78 46 79 48 80 50 81 47 82
REMARK H PARENT 67 44 41 55
REMARK Flexibility Score: inf
ROOT
ATOM      1  C   UNL     1       0.106  -2.230   2.297  1.00  0.00     0.274 C 
ENDROOT
BRANCH   1   2
ATOM      2  O   UNL     1       1.319  -2.864   2.759  1.00  0.00    -0.462 OA
BRANCH   2   3
ATOM      3  C   UNL     1       2.401  -2.074   2.949  1.00  0.00     0.313 C 
ATOM      4  O   UNL     1       2.425  -0.874   2.686  1.00  0.00    -0.252 OA
BRANCH   3   5
ATOM      5  C   UNL     1       3.594  -2.780   3.585  1.00  0.00     0.135 C 
BRANCH   5   6
ATOM      6  C   UNL     1       3.619  -2.442   5.111  1.00  0.00     0.077 C 
BRANCH   6   7
ATOM      7  C   UNL     1       3.531  -3.554   6.153  1.00  0.00     0.054 A 
ATOM      8  N   UNL     1       4.374  -3.614   7.254  1.00  0.00    -0.268 N 
ATOM      9  N   UNL     1       4.080  -4.607   8.114  1.00  0.00    -0.177 NA
ATOM     10  C   UNL     1       3.109  -5.298   7.519  1.00  0.00     0.074 A 
ATOM     11  C   UNL     1       2.730  -4.679   6.308  1.00  0.00     0.062 A 
ATOM     12  C   UNL     1       2.586  -6.526   8.173  1.00  0.00     0.070 C 
ATOM     13  Br  UNL     1       1.349  -5.379   5.239  1.00  0.00    -0.047 Br
BRANCH   8  14
ATOM     14  C   UNL     1       5.544  -2.814   7.584  1.00  0.00     0.141 C 
ATOM     15  C   UNL     1       6.813  -3.656   7.620  1.00  0.00     0.029 C 
ENDBRANCH   8  14
ENDBRANCH   6   7
ENDBRANCH   5   6
BRANCH   5  16
ATOM     16  C   UNL     1       3.958  -4.230   3.259  1.00  0.00    -0.033 A 
ATOM     17  C   UNL     1       3.157  -5.117   2.528  1.00  0.00     0.007 A 
ATOM     18  C   UNL     1       5.107  -4.750   3.894  1.00  0.00     0.007 A 
ATOM     19  C   UNL     1       3.353  -6.499   2.651  1.00  0.00     0.039 A 
ATOM     20  C   UNL     1       5.285  -6.123   4.041  1.00  0.00     0.039 A 
ATOM     21  C   UNL     1       4.375  -6.985   3.455  1.00  0.00     0.123 A 
ATOM     22  F   UNL     1       4.462  -8.300   3.696  1.00  0.00    -0.207 F 
ENDBRANCH   5  16
ENDBRANCH   3   5
ENDBRANCH   2   3
ENDBRANCH   1   2
BRANCH   1  23
ATOM     23  C   UNL     1      -1.056  -2.883   3.036  1.00  0.00     0.275 C 
BRANCH  23  24
ATOM     24  O   UNL     1      -1.474  -2.170   4.217  1.00  0.00    -0.458 OA
BRANCH  24  25
ATOM     25  C   UNL     1      -0.556  -2.070   5.201  1.00  0.00     0.338 C 
ATOM     26  O   UNL     1       0.499  -1.453   5.131  1.00  0.00    -0.246 OA
BRANCH  25  27
ATOM     27  C   UNL     1      -0.929  -2.919   6.345  1.00  0.00     0.060 A 
ATOM     28  C   UNL     1       0.036  -3.150   7.327  1.00  0.00     0.016 A 
ATOM     29  C   UNL     1      -2.141  -3.619   6.359  1.00  0.00     0.016 A 
ATOM     30  C   UNL     1      -0.130  -4.215   8.195  1.00  0.00     0.010 A 
ATOM     31  C   UNL     1      -2.337  -4.632   7.280  1.00  0.00     0.010 A 
ATOM     32  C   UNL     1      -1.302  -4.987   8.148  1.00  0.00    -0.014 A 
BRANCH  32  33
ATOM     33  C   UNL     1      -1.545  -5.949   9.234  1.00  0.00     0.031 A 
ATOM     34  C   UNL     1      -1.333  -5.313  10.578  1.00  0.00     0.074 A 
ATOM     35  C   UNL     1      -2.096  -7.164   8.996  1.00  0.00     0.049 A 
ATOM     36  N   UNL     1      -0.680  -5.768  11.597  1.00  0.00    -0.248 NA
ATOM     37  C   UNL     1      -1.725  -3.887  10.728  1.00  0.00     0.031 C 
ATOM     38  C   UNL     1      -2.433  -7.728   7.681  1.00  0.00     0.029 A 
ATOM     39  N   UNL     1      -2.632  -8.089   9.854  1.00  0.00    -0.354 N 
ATOM     40  C   UNL     1      -0.780  -4.772  12.572  1.00  0.00     0.074 A 
ATOM     41  C   UNL     1      -1.204  -3.576  11.912  1.00  0.00     0.031 C 
ATOM     42  C   UNL     1      -3.334  -8.722   7.827  1.00  0.00     0.029 A 
ATOM     43  C   UNL     1      -3.558  -8.945   9.240  1.00  0.00     0.049 A 
ATOM     44  H   UNL     1      -2.391  -8.147  10.806  1.00  0.00     0.167 HD
ATOM     45  C   UNL     1      -0.888  -5.103  13.886  1.00  0.00     0.037 A 
ATOM     46  C   UNL     1      -4.514  -9.693   9.854  1.00  0.00     0.037 A 
ATOM     47  C   UNL     1      -0.270  -6.379  14.131  1.00  0.00     0.049 A 
ATOM     48  C   UNL     1      -4.149  -9.779  11.284  1.00  0.00     0.074 A 
ATOM     49  C   UNL     1       1.009  -6.886  14.048  1.00  0.00     0.029 A 
ATOM     50  N   UNL     1      -1.119  -7.452  14.155  1.00  0.00    -0.354 N 
ATOM     51  N   UNL     1      -3.115 -10.431  11.730  1.00  0.00    -0.248 NA
ATOM     52  C   UNL     1      -4.682  -8.761  12.174  1.00  0.00     0.031 C 
ATOM     53  C   UNL     1       0.851  -8.247  13.654  1.00  0.00     0.029 A 
ATOM     54  C   UNL     1      -0.512  -8.534  13.586  1.00  0.00     0.049 A 
ATOM     55  H   UNL     1      -2.030  -7.445  14.527  1.00  0.00     0.167 HD
ATOM     56  C   UNL     1      -2.592  -9.612  12.718  1.00  0.00     0.074 A 
ATOM     57  C   UNL     1      -3.657  -8.659  13.022  1.00  0.00     0.031 C 
ATOM     58  C   UNL     1      -1.251  -9.614  12.973  1.00  0.00     0.037 A 
BRANCH  45  59
ATOM     59  C   UNL     1      -2.020  -4.569  14.755  1.00  0.00     0.057 A 
ATOM     60  C   UNL     1      -2.095  -4.994  16.094  1.00  0.00     0.134 A 
ATOM     61  C   UNL     1      -3.193  -3.942  14.273  1.00  0.00     0.134 A 
ATOM     62  F   UNL     1      -1.055  -5.606  16.679  1.00  0.00    -0.206 F 
ATOM     63  C   UNL     1      -3.271  -4.897  16.851  1.00  0.00     0.040 A 
ATOM     64  C   UNL     1      -4.356  -3.803  15.034  1.00  0.00     0.040 A 
ATOM     65  F   UNL     1      -3.332  -3.506  13.018  1.00  0.00    -0.206 F 
ATOM     66  C   UNL     1      -4.412  -4.314  16.316  1.00  0.00     0.006 A 
ENDBRANCH  45  59
BRANCH  46  67
ATOM     67  C   UNL     1      -5.880 -10.038   9.377  1.00  0.00     0.057 A 
ATOM     68  C   UNL     1      -6.638 -11.057   9.979  1.00  0.00     0.134 A 
ATOM     69  C   UNL     1      -6.584  -9.199   8.495  1.00  0.00     0.134 A 
ATOM     70  F   UNL     1      -6.080 -11.877  10.882  1.00  0.00    -0.206 F 
ATOM     71  C   UNL     1      -8.008 -11.226   9.723  1.00  0.00     0.040 A 
ATOM     72  C   UNL     1      -7.948  -9.361   8.223  1.00  0.00     0.040 A 
ATOM     73  F   UNL     1      -5.995  -8.134   7.933  1.00  0.00    -0.206 F 
ATOM     74  C   UNL     1      -8.669 -10.371   8.846  1.00  0.00     0.006 A 
ENDBRANCH  46  67
BRANCH  58  75
ATOM     75  C   UNL     1      -0.442 -10.751  12.413  1.00  0.00     0.057 A 
ATOM     76  C   UNL     1      -0.232 -10.986  11.046  1.00  0.00     0.134 A 
ATOM     77  C   UNL     1       0.259 -11.561  13.313  1.00  0.00     0.134 A 
ATOM     78  F   UNL     1      -0.793 -10.205  10.113  1.00  0.00    -0.206 F 
ATOM     79  C   UNL     1       0.611 -12.010  10.600  1.00  0.00     0.040 A 
ATOM     80  C   UNL     1       1.131 -12.560  12.882  1.00  0.00     0.040 A 
ATOM     81  F   UNL     1       0.141 -11.359  14.635  1.00  0.00    -0.206 F 
ATOM     82  C   UNL     1       1.302 -12.794  11.520  1.00  0.00     0.006 A 
ENDBRANCH  58  75
ENDBRANCH  32  33
ENDBRANCH  25  27
ENDBRANCH  24  25
ENDBRANCH  23  24
ENDBRANCH   1  23
TORSDOF 15
