REMARK SMILES CCc1ccc(-c2cc(Cl)cc3c2O[C@H](C(F)(F)F)C(C(=O)OCCOC(=O)c2ccc(-c4c5nc(c(-c6c(F)cccc6F)c6ccc([nH]6)c(-c6c(F)cccc6F)c6nc(c(-c7c(F)cccc7F)c7ccc4[nH]7)C=C6)C=C5)cc2)=C3)cc1
REMARK SMILES IDX 24 1 23 2 21 3 22 4 20 5 7 6 8 7 13 8 9 9 12 10 14 11 10 12
REMARK SMILES IDX 11 13 83 14 15 15 6 16 3 17 4 18 85 19 5 20 84 21 2 22 1 23
REMARK SMILES IDX 16 24 17 25 18 26 19 27 25 28 26 29 27 30 28 31 29 32 30 33
REMARK SMILES IDX 82 34 31 35 81 36 32 37 33 38 34 39 75 40 35 41 80 42 74 43
REMARK SMILES IDX 76 44 36 45 79 46 73 47 72 48 37 50 63 51 46 52 62 53 47 54
REMARK SMILES IDX 50 55 61 56 77 57 48 58 49 59 60 61 78 62 51 63 38 64 39 65
REMARK SMILES IDX 44 66 40 67 41 68 43 69 45 70 42 71 64 72 65 73 70 74 66 75
REMARK SMILES IDX 67 76 69 77 71 78 68 79 52 80 53 81 58 82 54 83 55 84 57 85
REMARK SMILES IDX 59 86 56 87
REMARK H PARENT 76 49 50 60
REMARK Flexibility Score: inf
ROOT
ATOM      1  C   UNL     1       3.421  -0.440  13.027  1.00  0.00     0.275 C 
ENDROOT
BRANCH   1   2
ATOM      2  O   UNL     1       2.443   0.235  12.193  1.00  0.00    -0.459 OA
BRANCH   2   3
ATOM      3  C   UNL     1       2.882   1.420  11.694  1.00  0.00     0.338 C 
ATOM      4  O   UNL     1       4.012   1.865  11.870  1.00  0.00    -0.246 OA
BRANCH   3   5
ATOM      5  C   UNL     1       1.873   2.167  10.891  1.00  0.00     0.087 C 
ATOM      6  C   UNL     1       1.633   1.056   7.016  1.00  0.00     0.026 A 
ATOM      7  C   UNL     1       2.927   0.499   6.864  1.00  0.00     0.033 A 
ATOM      8  C   UNL     1       1.466   1.783   8.198  1.00  0.00     0.135 A 
ATOM      9  C   UNL     1       4.011   0.824   7.683  1.00  0.00     0.042 A 
ATOM     10  C   UNL     1       2.611   2.312   8.847  1.00  0.00     0.019 A 
ATOM     11  O   UNL     1       0.288   1.812   8.942  1.00  0.00    -0.475 OA
ATOM     12  Cl  UNL     1       5.504  -0.018   7.682  1.00  0.00    -0.084 Cl
ATOM     13  C   UNL     1       3.886   1.847   8.583  1.00  0.00     0.032 A 
ATOM     14  C   UNL     1       2.420   3.092  10.082  1.00  0.00     0.027 C 
ATOM     15  C   UNL     1       0.542   1.599  10.426  1.00  0.00     0.316 C 
BRANCH   6  16
ATOM     16  C   UNL     1       0.789   0.980   5.775  1.00  0.00    -0.015 A 
ATOM     17  C   UNL     1       0.253   0.287   3.017  1.00  0.00    -0.048 A 
ATOM     18  C   UNL     1      -0.268  -0.461   4.087  1.00  0.00     0.004 A 
ATOM     19  C   UNL     1       0.929   1.461   3.343  1.00  0.00     0.004 A 
ATOM     20  C   UNL     1      -0.038  -0.099   5.440  1.00  0.00     0.009 A 
ATOM     21  C   UNL     1       1.185   1.797   4.689  1.00  0.00     0.009 A 
BRANCH  17  22
ATOM     22  C   UNL     1       0.120  -0.247   1.599  1.00  0.00     0.032 C 
ATOM     23  C   UNL     1       0.630   0.624   0.451  1.00  0.00     0.009 C 
ENDBRANCH  17  22
ENDBRANCH   6  16
BRANCH  15  24
ATOM     24  C   UNL     1      -0.522   2.310  11.274  1.00  0.00     0.430 C 
ATOM     25  F   UNL     1      -0.594   3.632  10.982  1.00  0.00    -0.167 F 
ATOM     26  F   UNL     1      -1.753   1.784  11.104  1.00  0.00    -0.167 F 
ATOM     27  F   UNL     1      -0.231   2.219  12.598  1.00  0.00    -0.167 F 
ENDBRANCH  15  24
ENDBRANCH   3   5
ENDBRANCH   2   3
ENDBRANCH   1   2
BRANCH   1  28
ATOM     28  C   UNL     1       3.465  -1.958  12.824  1.00  0.00     0.275 C 
BRANCH  28  29
ATOM     29  O   UNL     1       3.612  -2.317  11.438  1.00  0.00    -0.458 OA
BRANCH  29  30
ATOM     30  C   UNL     1       2.440  -2.573  10.811  1.00  0.00     0.338 C 
ATOM     31  O   UNL     1       1.327  -2.526  11.324  1.00  0.00    -0.246 OA
BRANCH  30  32
ATOM     32  C   UNL     1       2.630  -2.801   9.358  1.00  0.00     0.060 A 
ATOM     33  C   UNL     1       1.577  -2.418   8.535  1.00  0.00     0.016 A 
ATOM     34  C   UNL     1       3.768  -3.382   8.778  1.00  0.00     0.016 A 
ATOM     35  C   UNL     1       1.688  -2.569   7.153  1.00  0.00     0.010 A 
ATOM     36  C   UNL     1       3.868  -3.524   7.372  1.00  0.00     0.010 A 
ATOM     37  C   UNL     1       2.837  -3.086   6.531  1.00  0.00    -0.014 A 
BRANCH  37  38
ATOM     38  C   UNL     1       2.840  -3.147   5.023  1.00  0.00     0.031 A 
ATOM     39  C   UNL     1       1.782  -3.953   4.327  1.00  0.00     0.074 A 
ATOM     40  C   UNL     1       3.605  -2.342   4.251  1.00  0.00     0.049 A 
ATOM     41  N   UNL     1       1.478  -3.992   3.055  1.00  0.00    -0.248 NA
ATOM     42  C   UNL     1       0.958  -4.828   5.175  1.00  0.00     0.031 C 
ATOM     43  C   UNL     1       4.646  -1.468   4.751  1.00  0.00     0.029 A 
ATOM     44  N   UNL     1       3.572  -2.040   2.904  1.00  0.00    -0.354 N 
ATOM     45  C   UNL     1       0.430  -4.889   2.949  1.00  0.00     0.074 A 
ATOM     46  C   UNL     1       0.127  -5.350   4.288  1.00  0.00     0.031 C 
ATOM     47  C   UNL     1       5.002  -0.585   3.807  1.00  0.00     0.029 A 
ATOM     48  C   UNL     1       4.367  -0.964   2.552  1.00  0.00     0.049 A 
ATOM     49  H   UNL     1       3.031  -2.544   2.253  1.00  0.00     0.167 HD
ATOM     50  C   UNL     1      -0.198  -5.326   1.835  1.00  0.00     0.037 A 
ATOM     51  C   UNL     1       4.608  -0.376   1.358  1.00  0.00     0.037 A 
ATOM     52  C   UNL     1       0.145  -4.951   0.491  1.00  0.00     0.049 A 
ATOM     53  C   UNL     1       4.021  -1.006   0.123  1.00  0.00     0.074 A 
ATOM     54  C   UNL     1      -0.397  -5.420  -0.693  1.00  0.00     0.029 A 
ATOM     55  N   UNL     1       1.133  -4.043   0.146  1.00  0.00    -0.354 N 
ATOM     56  N   UNL     1       3.104  -1.937   0.028  1.00  0.00    -0.248 NA
ATOM     57  C   UNL     1       4.547  -0.551  -1.175  1.00  0.00     0.031 C 
ATOM     58  C   UNL     1       0.292  -4.827  -1.756  1.00  0.00     0.029 A 
ATOM     59  C   UNL     1       1.217  -3.939  -1.234  1.00  0.00     0.049 A 
ATOM     60  H   UNL     1       1.691  -3.545   0.785  1.00  0.00     0.167 HD
ATOM     61  C   UNL     1       2.938  -2.171  -1.331  1.00  0.00     0.074 A 
ATOM     62  C   UNL     1       3.829  -1.269  -2.027  1.00  0.00     0.031 C 
ATOM     63  C   UNL     1       2.117  -3.060  -1.938  1.00  0.00     0.037 A 
BRANCH  50  64
ATOM     64  C   UNL     1      -1.270  -6.346   2.043  1.00  0.00     0.057 A 
ATOM     65  C   UNL     1      -2.527  -6.000   2.550  1.00  0.00     0.134 A 
ATOM     66  C   UNL     1      -1.022  -7.696   1.766  1.00  0.00     0.134 A 
ATOM     67  F   UNL     1      -2.806  -4.726   2.866  1.00  0.00    -0.206 F 
ATOM     68  C   UNL     1      -3.499  -6.970   2.795  1.00  0.00     0.040 A 
ATOM     69  C   UNL     1      -1.993  -8.670   1.986  1.00  0.00     0.040 A 
ATOM     70  F   UNL     1       0.171  -8.085   1.291  1.00  0.00    -0.206 F 
ATOM     71  C   UNL     1      -3.233  -8.309   2.508  1.00  0.00     0.006 A 
ENDBRANCH  50  64
BRANCH  51  72
ATOM     72  C   UNL     1       5.524   0.800   1.218  1.00  0.00     0.057 A 
ATOM     73  C   UNL     1       5.091   1.996   0.624  1.00  0.00     0.134 A 
ATOM     74  C   UNL     1       6.875   0.735   1.582  1.00  0.00     0.134 A 
ATOM     75  F   UNL     1       3.824   2.125   0.203  1.00  0.00    -0.206 F 
ATOM     76  C   UNL     1       5.964   3.064   0.388  1.00  0.00     0.040 A 
ATOM     77  C   UNL     1       7.748   1.810   1.394  1.00  0.00     0.040 A 
ATOM     78  F   UNL     1       7.380  -0.385   2.121  1.00  0.00    -0.206 F 
ATOM     79  C   UNL     1       7.296   2.976   0.783  1.00  0.00     0.006 A 
ENDBRANCH  51  72
BRANCH  63  80
ATOM     80  C   UNL     1       2.111  -3.088  -3.438  1.00  0.00     0.057 A 
ATOM     81  C   UNL     1       3.184  -3.598  -4.180  1.00  0.00     0.134 A 
ATOM     82  C   UNL     1       0.992  -2.635  -4.150  1.00  0.00     0.134 A 
ATOM     83  F   UNL     1       4.294  -4.031  -3.563  1.00  0.00    -0.206 F 
ATOM     84  C   UNL     1       3.150  -3.644  -5.576  1.00  0.00     0.040 A 
ATOM     85  C   UNL     1       0.934  -2.703  -5.543  1.00  0.00     0.040 A 
ATOM     86  F   UNL     1      -0.070  -2.135  -3.502  1.00  0.00    -0.206 F 
ATOM     87  C   UNL     1       2.018  -3.204  -6.260  1.00  0.00     0.006 A 
ENDBRANCH  63  80
ENDBRANCH  37  38
ENDBRANCH  30  32
ENDBRANCH  29  30
ENDBRANCH  28  29
ENDBRANCH   1  28
TORSDOF 14
