REMARK SMILES Cc1ccnc(-n2c(C)nc3c(C(=O)OCCOC(=O)c4ccc(-c5c6nc(c(-c7c(F)cccc7F)c7ccc([nH]7)c(-c7c(F)cccc7F)c7nc(c(-c8c(F)cccc8F)c8ccc5[nH]8)C=C7)C=C6)cc4)cccc32)c1
REMARK SMILES IDX 17 1 16 2 15 3 13 4 14 5 12 6 7 7 8 8 78 9 9 10 10 11 11 12
REMARK SMILES IDX 77 13 76 14 75 15 6 16 1 17 2 18 3 19 79 20 4 21 5 22 18 23
REMARK SMILES IDX 19 24 20 25 21 26 22 27 74 28 23 29 73 30 24 31 25 32 26 33
REMARK SMILES IDX 67 34 27 35 72 36 66 37 68 38 28 39 71 40 65 41 64 42 29 44
REMARK SMILES IDX 55 45 38 46 54 47 39 48 42 49 53 50 69 51 40 52 41 53 52 55
REMARK SMILES IDX 70 56 43 57 30 58 31 59 36 60 32 61 33 62 35 63 37 64 34 65
REMARK SMILES IDX 56 66 57 67 62 68 58 69 59 70 61 71 63 72 60 73 44 74 45 75
REMARK SMILES IDX 50 76 46 77 47 78 49 79 51 80 48 81
REMARK H PARENT 68 43 42 54
REMARK Flexibility Score: inf
ROOT
ATOM      1  C   UNL     1       5.831  -8.236  -1.486  1.00  0.00     0.275 C 
ENDROOT
BRANCH   1   2
ATOM      2  C   UNL     1       4.360  -8.291  -1.922  1.00  0.00     0.275 C 
BRANCH   2   3
ATOM      3  O   UNL     1       3.867  -7.020  -2.431  1.00  0.00    -0.458 OA
BRANCH   3   4
ATOM      4  C   UNL     1       2.913  -6.429  -1.668  1.00  0.00     0.340 C 
ATOM      5  O   UNL     1       2.558  -6.832  -0.573  1.00  0.00    -0.246 OA
BRANCH   4   6
ATOM      6  C   UNL     1       2.143  -5.384  -2.376  1.00  0.00     0.087 A 
ATOM      7  N   UNL     1       1.339  -2.006  -1.588  1.00  0.00    -0.281 N 
ATOM      8  C   UNL     1       2.582  -2.157  -0.986  1.00  0.00     0.112 A 
ATOM      9  C   UNL     1       1.112  -3.176  -2.313  1.00  0.00     0.075 A 
ATOM     10  C   UNL     1       3.181  -1.161  -0.049  1.00  0.00     0.088 C 
ATOM     11  N   UNL     1       3.067  -3.365  -1.188  1.00  0.00    -0.232 NA
ATOM     12  C   UNL     1       2.149  -4.042  -1.939  1.00  0.00     0.104 A 
ATOM     13  C   UNL     1       0.156  -3.555  -3.268  1.00  0.00     0.029 A 
ATOM     14  C   UNL     1       0.243  -4.855  -3.793  1.00  0.00     0.003 A 
ATOM     15  C   UNL     1       1.188  -5.773  -3.325  1.00  0.00     0.018 A 
BRANCH   7  16
ATOM     16  C   UNL     1       0.496  -0.875  -1.363  1.00  0.00     0.138 A 
ATOM     17  C   UNL     1      -2.973  -0.066  -0.048  1.00  0.00     0.044 C 
ATOM     18  C   UNL     1      -1.552   0.049  -0.516  1.00  0.00    -0.046 A 
ATOM     19  C   UNL     1      -0.902   1.280  -0.386  1.00  0.00     0.023 A 
ATOM     20  C   UNL     1      -0.852  -1.047  -1.054  1.00  0.00     0.051 A 
ATOM     21  C   UNL     1       0.419   1.371  -0.766  1.00  0.00     0.114 A 
ATOM     22  N   UNL     1       1.125   0.325  -1.233  1.00  0.00    -0.239 NA
ENDBRANCH   7  16
ENDBRANCH   4   6
ENDBRANCH   3   4
ENDBRANCH   2   3
ENDBRANCH   1   2
BRANCH   1  23
ATOM     23  O   UNL     1       5.884  -7.931  -0.083  1.00  0.00    -0.458 OA
BRANCH  23  24
ATOM     24  C   UNL     1       6.312  -6.689   0.231  1.00  0.00     0.338 C 
ATOM     25  O   UNL     1       7.129  -6.015  -0.384  1.00  0.00    -0.246 OA
BRANCH  24  26
ATOM     26  C   UNL     1       5.329  -6.163   1.195  1.00  0.00     0.060 A 
ATOM     27  C   UNL     1       4.760  -6.943   2.214  1.00  0.00     0.016 A 
ATOM     28  C   UNL     1       4.772  -4.939   0.859  1.00  0.00     0.016 A 
ATOM     29  C   UNL     1       3.554  -6.543   2.811  1.00  0.00     0.010 A 
ATOM     30  C   UNL     1       3.562  -4.584   1.430  1.00  0.00     0.010 A 
ATOM     31  C   UNL     1       2.915  -5.384   2.367  1.00  0.00    -0.014 A 
BRANCH  31  32
ATOM     32  C   UNL     1       1.626  -4.907   2.886  1.00  0.00     0.031 A 
ATOM     33  C   UNL     1       1.690  -3.798   3.888  1.00  0.00     0.074 A 
ATOM     34  C   UNL     1       0.404  -5.177   2.362  1.00  0.00     0.049 A 
ATOM     35  N   UNL     1       1.207  -3.803   5.089  1.00  0.00    -0.248 NA
ATOM     36  C   UNL     1       2.348  -2.531   3.528  1.00  0.00     0.031 C 
ATOM     37  C   UNL     1       0.051  -5.934   1.163  1.00  0.00     0.029 A 
ATOM     38  N   UNL     1      -0.823  -4.747   2.806  1.00  0.00    -0.354 N 
ATOM     39  C   UNL     1       1.362  -2.509   5.578  1.00  0.00     0.074 A 
ATOM     40  C   UNL     1       2.122  -1.779   4.603  1.00  0.00     0.031 C 
ATOM     41  C   UNL     1      -1.269  -5.798   0.891  1.00  0.00     0.029 A 
ATOM     42  C   UNL     1      -1.898  -5.072   1.980  1.00  0.00     0.049 A 
ATOM     43  H   UNL     1      -0.934  -4.246   3.646  1.00  0.00     0.167 HD
ATOM     44  C   UNL     1       0.719  -2.073   6.691  1.00  0.00     0.037 A 
ATOM     45  C   UNL     1      -3.214  -4.811   2.190  1.00  0.00     0.037 A 
ATOM     46  C   UNL     1       0.334  -3.160   7.548  1.00  0.00     0.049 A 
ATOM     47  C   UNL     1      -3.374  -4.529   3.632  1.00  0.00     0.074 A 
ATOM     48  C   UNL     1       1.020  -4.227   8.101  1.00  0.00     0.029 A 
ATOM     49  N   UNL     1      -0.991  -3.502   7.651  1.00  0.00    -0.354 N 
ATOM     50  N   UNL     1      -3.346  -5.433   4.566  1.00  0.00    -0.248 NA
ATOM     51  C   UNL     1      -3.258  -3.152   4.080  1.00  0.00     0.031 C 
ATOM     52  C   UNL     1       0.135  -5.337   7.965  1.00  0.00     0.029 A 
ATOM     53  C   UNL     1      -1.043  -4.851   7.397  1.00  0.00     0.049 A 
ATOM     54  H   UNL     1      -1.746  -2.906   7.862  1.00  0.00     0.167 HD
ATOM     55  C   UNL     1      -2.782  -4.791   5.652  1.00  0.00     0.074 A 
ATOM     56  C   UNL     1      -2.869  -3.367   5.338  1.00  0.00     0.031 C 
ATOM     57  C   UNL     1      -2.050  -5.476   6.577  1.00  0.00     0.037 A 
BRANCH  44  58
ATOM     58  C   UNL     1       0.203  -0.671   6.841  1.00  0.00     0.057 A 
ATOM     59  C   UNL     1      -0.163   0.140   5.747  1.00  0.00     0.134 A 
ATOM     60  C   UNL     1      -0.204  -0.206   8.101  1.00  0.00     0.134 A 
ATOM     61  F   UNL     1       0.075  -0.227   4.479  1.00  0.00    -0.206 F 
ATOM     62  C   UNL     1      -0.881   1.329   5.895  1.00  0.00     0.040 A 
ATOM     63  C   UNL     1      -0.962   0.960   8.257  1.00  0.00     0.040 A 
ATOM     64  F   UNL     1       0.061  -0.910   9.211  1.00  0.00    -0.206 F 
ATOM     65  C   UNL     1      -1.307   1.730   7.152  1.00  0.00     0.006 A 
ENDBRANCH  44  58
BRANCH  45  66
ATOM     66  C   UNL     1      -4.396  -4.739   1.300  1.00  0.00     0.057 A 
ATOM     67  C   UNL     1      -4.305  -4.230  -0.003  1.00  0.00     0.134 A 
ATOM     68  C   UNL     1      -5.699  -4.888   1.813  1.00  0.00     0.134 A 
ATOM     69  F   UNL     1      -3.111  -3.992  -0.566  1.00  0.00    -0.206 F 
ATOM     70  C   UNL     1      -5.439  -3.852  -0.736  1.00  0.00     0.040 A 
ATOM     71  C   UNL     1      -6.838  -4.505   1.096  1.00  0.00     0.040 A 
ATOM     72  F   UNL     1      -5.900  -5.348   3.056  1.00  0.00    -0.206 F 
ATOM     73  C   UNL     1      -6.709  -3.969  -0.179  1.00  0.00     0.006 A 
ENDBRANCH  45  66
BRANCH  57  74
ATOM     74  C   UNL     1      -2.068  -6.983   6.541  1.00  0.00     0.057 A 
ATOM     75  C   UNL     1      -2.316  -7.680   7.731  1.00  0.00     0.134 A 
ATOM     76  C   UNL     1      -1.703  -7.757   5.427  1.00  0.00     0.134 A 
ATOM     77  F   UNL     1      -2.619  -7.012   8.856  1.00  0.00    -0.206 F 
ATOM     78  C   UNL     1      -2.214  -9.071   7.812  1.00  0.00     0.040 A 
ATOM     79  C   UNL     1      -1.638  -9.154   5.485  1.00  0.00     0.040 A 
ATOM     80  F   UNL     1      -1.340  -7.190   4.270  1.00  0.00    -0.206 F 
ATOM     81  C   UNL     1      -1.885  -9.815   6.683  1.00  0.00     0.006 A 
ENDBRANCH  57  74
ENDBRANCH  31  32
ENDBRANCH  24  26
ENDBRANCH  23  24
ENDBRANCH   1  23
TORSDOF 12
