REMARK SMILES CCCN1C(=O)/C(=C\c2ccc(OC)c(OC)c2C(=O)OCCOC(=O)c2ccc(-c3c4nc(c(-c5c(F)cccc5F)c5ccc([nH]5)c(-c5c(F)cccc5F)c5nc(c(-c6c(F)cccc6F)c6ccc3[nH]6)C=C5)C=C4)cc2)S/C1=[NH+]\c1nccs1
REMARK SMILES IDX 22 1 21 2 19 3 20 4 18 5 9 6 10 7 11 8 15 9 12 10 8 11 4 12
REMARK SMILES IDX 5 13 82 14 6 15 7 16 81 17 83 18 3 20 2 21 1 22 84 23 85 24
REMARK SMILES IDX 88 25 86 26 87 27 16 28 17 29 13 30 14 31 23 32 24 33 25 34
REMARK SMILES IDX 26 35 27 36 28 37 80 38 29 39 79 40 30 41 31 42 32 43 73 44
REMARK SMILES IDX 33 45 78 46 72 47 74 48 34 49 77 50 71 51 70 52 35 54 61 55
REMARK SMILES IDX 44 56 60 57 45 58 48 59 59 60 75 61 46 62 47 63 58 65 76 66
REMARK SMILES IDX 49 67 36 68 37 69 42 70 38 71 39 72 41 73 43 74 40 75 62 76
REMARK SMILES IDX 63 77 68 78 64 79 65 80 67 81 69 82 66 83 50 84 51 85 56 86
REMARK SMILES IDX 52 87 53 88 55 89 57 90 54 91
REMARK H PARENT 83 19 74 53 48 64
REMARK Flexibility Score: inf
ROOT
ATOM      1  C   UNL     1      -3.089  -3.103  -2.974  1.00  0.00     0.275 C 
ENDROOT
BRANCH   1   2
ATOM      2  O   UNL     1      -3.082  -3.082  -1.531  1.00  0.00    -0.458 OA
BRANCH   2   3
ATOM      3  C   UNL     1      -2.483  -2.011  -0.955  1.00  0.00     0.342 C 
ATOM      4  O   UNL     1      -1.921  -1.113  -1.557  1.00  0.00    -0.246 OA
BRANCH   3   5
ATOM      5  C   UNL     1      -2.507  -2.151   0.525  1.00  0.00     0.113 A 
ATOM      6  C   UNL     1      -1.849  -3.300   1.065  1.00  0.00    -0.006 A 
ATOM      7  C   UNL     1      -1.843  -3.529   2.442  1.00  0.00     0.013 A 
ATOM      8  C   UNL     1      -2.398  -2.586   3.293  1.00  0.00     0.051 A 
ATOM      9  C   UNL     1      -3.058  -1.179   1.388  1.00  0.00     0.175 A 
ATOM     10  C   UNL     1      -2.982  -1.421   2.782  1.00  0.00     0.161 A 
BRANCH   6  11
ATOM     11  C   UNL     1      -1.038  -4.221   0.242  1.00  0.00     0.032 C 
ATOM     12  N   UNL     1       1.118  -2.106  -1.624  1.00  0.00    -0.219 N 
ATOM     13  C   UNL     1       0.599  -2.419  -0.391  1.00  0.00     0.321 C 
ATOM     14  C   UNL     1       1.327  -3.181  -2.466  1.00  0.00     0.271 C 
ATOM     15  O   UNL     1       0.566  -1.726   0.614  1.00  0.00    -0.250 OA
ATOM     16  C   UNL     1       0.047  -3.802  -0.427  1.00  0.00     0.100 C 
ATOM     17  S   UNL     1       0.816  -4.677  -1.681  1.00  0.00    -0.012 SA
ATOM     18  N   UNL     1       1.840  -3.035  -3.643  1.00  0.00    -0.228 N 
ATOM     19  H   UNL     1       2.111  -2.148  -3.975  1.00  0.00     0.268 HD
BRANCH  12  20
ATOM     20  C   UNL     1       1.427  -0.744  -2.068  1.00  0.00     0.206 C 
BRANCH  20  21
ATOM     21  C   UNL     1       0.967   0.441  -1.210  1.00  0.00     0.035 C 
ATOM     22  C   UNL     1       1.962   0.825  -0.124  1.00  0.00     0.007 C 
ENDBRANCH  20  21
ENDBRANCH  12  20
BRANCH  18  23
ATOM     23  C   UNL     1       1.992  -4.144  -4.403  1.00  0.00     0.319 A 
ATOM     24  N   UNL     1       1.037  -4.911  -4.891  1.00  0.00    -0.101 NA
ATOM     25  S   UNL     1       3.593  -4.629  -4.842  1.00  0.00    -0.070 S 
ATOM     26  C   UNL     1       1.583  -5.970  -5.589  1.00  0.00     0.219 A 
ATOM     27  C   UNL     1       2.956  -5.987  -5.665  1.00  0.00     0.110 A 
ENDBRANCH  18  23
ENDBRANCH   6  11
BRANCH   9  28
ATOM     28  O   UNL     1      -3.704  -0.018   1.073  1.00  0.00    -0.492 OA
ATOM     29  C   UNL     1      -3.584   0.611  -0.189  1.00  0.00     0.278 C 
ENDBRANCH   9  28
BRANCH  10  30
ATOM     30  O   UNL     1      -3.325  -0.521   3.767  1.00  0.00    -0.493 OA
ATOM     31  C   UNL     1      -4.633   0.025   3.669  1.00  0.00     0.278 C 
ENDBRANCH  10  30
ENDBRANCH   3   5
ENDBRANCH   2   3
ENDBRANCH   1   2
BRANCH   1  32
ATOM     32  C   UNL     1      -4.500  -3.389  -3.485  1.00  0.00     0.275 C 
BRANCH  32  33
ATOM     33  O   UNL     1      -5.433  -2.439  -2.940  1.00  0.00    -0.458 OA
BRANCH  33  34
ATOM     34  C   UNL     1      -5.980  -2.812  -1.755  1.00  0.00     0.338 C 
ATOM     35  O   UNL     1      -5.845  -3.877  -1.181  1.00  0.00    -0.246 OA
BRANCH  34  36
ATOM     36  C   UNL     1      -6.681  -1.663  -1.154  1.00  0.00     0.060 A 
ATOM     37  C   UNL     1      -6.500  -1.442   0.214  1.00  0.00     0.016 A 
ATOM     38  C   UNL     1      -7.525  -0.835  -1.901  1.00  0.00     0.016 A 
ATOM     39  C   UNL     1      -7.156  -0.386   0.836  1.00  0.00     0.010 A 
ATOM     40  C   UNL     1      -8.205   0.210  -1.266  1.00  0.00     0.010 A 
ATOM     41  C   UNL     1      -8.027   0.430   0.107  1.00  0.00    -0.014 A 
BRANCH  41  42
ATOM     42  C   UNL     1      -8.846   1.413   0.847  1.00  0.00     0.031 A 
ATOM     43  C   UNL     1     -10.140   0.957   1.453  1.00  0.00     0.074 A 
ATOM     44  C   UNL     1      -8.393   2.660   1.062  1.00  0.00     0.049 A 
ATOM     45  N   UNL     1     -10.988   1.619   2.193  1.00  0.00    -0.248 NA
ATOM     46  C   UNL     1     -10.513  -0.446   1.207  1.00  0.00     0.031 C 
ATOM     47  C   UNL     1      -7.109   3.181   0.600  1.00  0.00     0.029 A 
ATOM     48  N   UNL     1      -8.958   3.707   1.743  1.00  0.00    -0.354 N 
ATOM     49  C   UNL     1     -11.988   0.712   2.517  1.00  0.00     0.074 A 
ATOM     50  C   UNL     1     -11.652  -0.541   1.876  1.00  0.00     0.031 C 
ATOM     51  C   UNL     1      -6.980   4.453   1.016  1.00  0.00     0.029 A 
ATOM     52  C   UNL     1      -8.186   4.842   1.745  1.00  0.00     0.049 A 
ATOM     53  H   UNL     1      -9.834   3.650   2.189  1.00  0.00     0.167 HD
ATOM     54  C   UNL     1     -13.089   0.908   3.278  1.00  0.00     0.037 A 
ATOM     55  C   UNL     1      -8.437   6.059   2.266  1.00  0.00     0.037 A 
ATOM     56  C   UNL     1     -13.445   2.169   3.871  1.00  0.00     0.049 A 
ATOM     57  C   UNL     1      -9.734   6.288   2.998  1.00  0.00     0.074 A 
ATOM     58  C   UNL     1     -14.569   2.490   4.610  1.00  0.00     0.029 A 
ATOM     59  N   UNL     1     -12.684   3.325   3.774  1.00  0.00    -0.354 N 
ATOM     60  N   UNL     1     -10.682   5.430   3.289  1.00  0.00    -0.248 NA
ATOM     61  C   UNL     1      -9.999   7.656   3.465  1.00  0.00     0.031 C 
ATOM     62  C   UNL     1     -14.511   3.854   4.918  1.00  0.00     0.029 A 
ATOM     63  C   UNL     1     -13.327   4.370   4.414  1.00  0.00     0.049 A 
ATOM     64  H   UNL     1     -11.814   3.391   3.317  1.00  0.00     0.167 HD
ATOM     65  C   UNL     1     -11.643   6.146   3.991  1.00  0.00     0.074 A 
ATOM     66  C   UNL     1     -11.157   7.507   4.093  1.00  0.00     0.031 C 
ATOM     67  C   UNL     1     -12.823   5.717   4.505  1.00  0.00     0.037 A 
BRANCH  54  68
ATOM     68  C   UNL     1     -14.008  -0.263   3.447  1.00  0.00     0.057 A 
ATOM     69  C   UNL     1     -13.675  -1.353   4.261  1.00  0.00     0.134 A 
ATOM     70  C   UNL     1     -15.226  -0.316   2.759  1.00  0.00     0.134 A 
ATOM     71  F   UNL     1     -12.511  -1.374   4.927  1.00  0.00    -0.206 F 
ATOM     72  C   UNL     1     -14.509  -2.468   4.363  1.00  0.00     0.040 A 
ATOM     73  C   UNL     1     -16.078  -1.415   2.869  1.00  0.00     0.040 A 
ATOM     74  F   UNL     1     -15.601   0.694   1.959  1.00  0.00    -0.206 F 
ATOM     75  C   UNL     1     -15.716  -2.500   3.666  1.00  0.00     0.006 A 
ENDBRANCH  54  68
BRANCH  55  76
ATOM     76  C   UNL     1      -7.456   7.161   2.098  1.00  0.00     0.057 A 
ATOM     77  C   UNL     1      -6.765   7.694   3.192  1.00  0.00     0.134 A 
ATOM     78  C   UNL     1      -7.204   7.726   0.841  1.00  0.00     0.134 A 
ATOM     79  F   UNL     1      -6.982   7.215   4.426  1.00  0.00    -0.206 F 
ATOM     80  C   UNL     1      -5.870   8.755   3.046  1.00  0.00     0.040 A 
ATOM     81  C   UNL     1      -6.293   8.771   0.676  1.00  0.00     0.040 A 
ATOM     82  F   UNL     1      -7.837   7.265  -0.248  1.00  0.00    -0.206 F 
ATOM     83  C   UNL     1      -5.628   9.293   1.783  1.00  0.00     0.006 A 
ENDBRANCH  55  76
BRANCH  67  84
ATOM     84  C   UNL     1     -13.658   6.723   5.242  1.00  0.00     0.057 A 
ATOM     85  C   UNL     1     -14.365   7.728   4.571  1.00  0.00     0.134 A 
ATOM     86  C   UNL     1     -13.796   6.651   6.634  1.00  0.00     0.134 A 
ATOM     87  F   UNL     1     -14.265   7.858   3.240  1.00  0.00    -0.206 F 
ATOM     88  C   UNL     1     -15.169   8.637   5.261  1.00  0.00     0.040 A 
ATOM     89  C   UNL     1     -14.616   7.538   7.332  1.00  0.00     0.040 A 
ATOM     90  F   UNL     1     -13.152   5.705   7.335  1.00  0.00    -0.206 F 
ATOM     91  C   UNL     1     -15.302   8.538   6.645  1.00  0.00     0.006 A 
ENDBRANCH  67  84
ENDBRANCH  41  42
ENDBRANCH  34  36
ENDBRANCH  33  34
ENDBRANCH  32  33
ENDBRANCH   1  32
TORSDOF 17
