REMARK SMILES Cc1nn(C)c(C)c1CNC(=O)NCC(=O)NCC(=O)OCCOC(=O)c1ccc(-c2c3nc(c(-c4c(F)cccc4F)c4ccc([nH]4)c(-c4c(F)cccc4F)c4nc(c(-c5c(F)cccc5F)c5ccc2[nH]5)C=C4)C=C3)cc1
REMARK SMILES IDX 21 1 19 2 20 3 18 4 17 5 15 6 16 7 14 9 13 10 10 11 11 12
REMARK SMILES IDX 12 14 9 16 8 17 1 18 2 19 3 20 4 21 6 22 5 23 7 24 22 25
REMARK SMILES IDX 23 26 24 27 25 28 26 29 27 30 28 31 80 32 29 33 79 34 30 35
REMARK SMILES IDX 31 36 32 37 73 38 33 39 78 40 72 41 74 42 34 43 77 44 71 45
REMARK SMILES IDX 70 46 35 48 61 49 44 50 60 51 45 52 48 53 59 54 75 55 46 56
REMARK SMILES IDX 47 57 58 59 76 60 49 61 36 62 37 63 42 64 38 65 39 66 41 67
REMARK SMILES IDX 43 68 40 69 62 70 63 71 68 72 64 73 65 74 67 75 69 76 66 77
REMARK SMILES IDX 50 78 51 79 56 80 52 81 53 82 55 83 57 84 54 85
REMARK H PARENT 17 8 10 13 13 15 74 47 48 58
REMARK Flexibility Score: inf
ROOT
ATOM      1  O   UNL     1      -0.366   7.880   0.530  1.00  0.00    -0.461 OA
ENDROOT
BRANCH   1   2
ATOM      2  C   UNL     1      -1.132   6.768   0.686  1.00  0.00     0.325 C 
ATOM      3  O   UNL     1      -1.732   6.463   1.712  1.00  0.00    -0.250 OA
BRANCH   2   4
ATOM      4  C   UNL     1      -1.334   6.012  -0.625  1.00  0.00     0.238 C 
BRANCH   4   5
ATOM      5  N   UNL     1      -0.487   6.357  -1.747  1.00  0.00    -0.344 N 
ATOM      6  C   UNL     1       0.613   5.701  -2.209  1.00  0.00     0.239 C 
ATOM      7  O   UNL     1       1.056   6.009  -3.317  1.00  0.00    -0.273 OA
ATOM      8  H   UNL     1      -0.739   7.171  -2.240  1.00  0.00     0.164 HD
BRANCH   6   9
ATOM      9  C   UNL     1       1.181   4.506  -1.436  1.00  0.00     0.217 C 
BRANCH   9  10
ATOM     10  N   UNL     1       1.320   4.780  -0.013  1.00  0.00    -0.329 N 
ATOM     11  N   UNL     1       0.251   3.059   1.205  1.00  0.00    -0.334 N 
ATOM     12  C   UNL     1       1.038   4.129   1.115  1.00  0.00     0.315 C 
ATOM     13  H   UNL     1       0.322   2.619   2.083  1.00  0.00     0.165 HD
ATOM     14  O   UNL     1       1.541   4.564   2.153  1.00  0.00    -0.249 OA
ATOM     15  H   UNL     1       1.719   5.664   0.158  1.00  0.00     0.165 HD
BRANCH  11  16
ATOM     16  C   UNL     1      -0.682   2.383   0.332  1.00  0.00     0.157 C 
BRANCH  16  17
ATOM     17  C   UNL     1      -0.309   0.952   0.169  1.00  0.00     0.015 A 
ATOM     18  C   UNL     1      -2.701  -0.141   0.074  1.00  0.00     0.069 C 
ATOM     19  C   UNL     1      -1.215  -0.145   0.068  1.00  0.00     0.065 A 
ATOM     20  N   UNL     1      -0.573  -1.310  -0.049  1.00  0.00    -0.178 NA
ATOM     21  N   UNL     1       0.728  -0.981  -0.034  1.00  0.00    -0.272 N 
ATOM     22  C   UNL     1       0.948   0.371   0.032  1.00  0.00     0.040 A 
ATOM     23  C   UNL     1       1.698  -2.049  -0.088  1.00  0.00     0.174 C 
ATOM     24  C   UNL     1       2.307   0.969  -0.017  1.00  0.00     0.067 C 
ENDBRANCH  16  17
ENDBRANCH  11  16
ENDBRANCH   9  10
ENDBRANCH   6   9
ENDBRANCH   4   5
ENDBRANCH   2   4
ENDBRANCH   1   2
BRANCH   1  25
ATOM     25  C   UNL     1      -0.426   8.836   1.605  1.00  0.00     0.274 C 
BRANCH  25  26
ATOM     26  C   UNL     1      -1.440   9.941   1.286  1.00  0.00     0.275 C 
BRANCH  26  27
ATOM     27  O   UNL     1      -2.803   9.470   1.360  1.00  0.00    -0.458 OA
BRANCH  27  28
ATOM     28  C   UNL     1      -3.314   8.986   0.206  1.00  0.00     0.338 C 
ATOM     29  O   UNL     1      -2.757   8.902  -0.878  1.00  0.00    -0.246 OA
BRANCH  28  30
ATOM     30  C   UNL     1      -4.653   8.429   0.439  1.00  0.00     0.060 A 
ATOM     31  C   UNL     1      -4.802   7.040   0.467  1.00  0.00     0.016 A 
ATOM     32  C   UNL     1      -5.772   9.260   0.485  1.00  0.00     0.016 A 
ATOM     33  C   UNL     1      -6.069   6.472   0.487  1.00  0.00     0.010 A 
ATOM     34  C   UNL     1      -7.047   8.687   0.551  1.00  0.00     0.010 A 
ATOM     35  C   UNL     1      -7.204   7.290   0.529  1.00  0.00    -0.014 A 
BRANCH  35  36
ATOM     36  C   UNL     1      -8.549   6.667   0.520  1.00  0.00     0.031 A 
ATOM     37  C   UNL     1      -9.441   6.816  -0.679  1.00  0.00     0.074 A 
ATOM     38  C   UNL     1      -8.950   5.931   1.574  1.00  0.00     0.049 A 
ATOM     39  N   UNL     1     -10.685   6.443  -0.834  1.00  0.00    -0.248 NA
ATOM     40  C   UNL     1      -8.857   7.471  -1.860  1.00  0.00     0.031 C 
ATOM     41  C   UNL     1      -8.153   5.665   2.773  1.00  0.00     0.029 A 
ATOM     42  N   UNL     1     -10.128   5.265   1.802  1.00  0.00    -0.354 N 
ATOM     43  C   UNL     1     -11.044   6.844  -2.114  1.00  0.00     0.074 A 
ATOM     44  C   UNL     1      -9.887   7.494  -2.694  1.00  0.00     0.031 C 
ATOM     45  C   UNL     1      -8.859   4.883   3.604  1.00  0.00     0.029 A 
ATOM     46  C   UNL     1     -10.176   4.642   3.024  1.00  0.00     0.049 A 
ATOM     47  H   UNL     1     -10.867   5.237   1.152  1.00  0.00     0.167 HD
ATOM     48  C   UNL     1     -12.231   6.684  -2.745  1.00  0.00     0.037 A 
ATOM     49  C   UNL     1     -11.182   3.980   3.625  1.00  0.00     0.037 A 
ATOM     50  C   UNL     1     -13.370   6.014  -2.175  1.00  0.00     0.049 A 
ATOM     51  C   UNL     1     -12.500   3.850   2.918  1.00  0.00     0.074 A 
ATOM     52  C   UNL     1     -14.624   5.820  -2.728  1.00  0.00     0.029 A 
ATOM     53  N   UNL     1     -13.386   5.414  -0.925  1.00  0.00    -0.354 N 
ATOM     54  N   UNL     1     -12.845   4.284   1.730  1.00  0.00    -0.248 NA
ATOM     55  C   UNL     1     -13.573   3.153   3.640  1.00  0.00     0.031 C 
ATOM     56  C   UNL     1     -15.406   5.119  -1.802  1.00  0.00     0.029 A 
ATOM     57  C   UNL     1     -14.628   4.852  -0.688  1.00  0.00     0.049 A 
ATOM     58  H   UNL     1     -12.626   5.391  -0.300  1.00  0.00     0.167 HD
ATOM     59  C   UNL     1     -14.169   3.906   1.559  1.00  0.00     0.074 A 
ATOM     60  C   UNL     1     -14.560   3.190   2.756  1.00  0.00     0.031 C 
ATOM     61  C   UNL     1     -14.992   4.138   0.508  1.00  0.00     0.037 A 
BRANCH  48  62
ATOM     62  C   UNL     1     -12.367   7.267  -4.118  1.00  0.00     0.057 A 
ATOM     63  C   UNL     1     -11.803   6.651  -5.241  1.00  0.00     0.134 A 
ATOM     64  C   UNL     1     -13.109   8.437  -4.324  1.00  0.00     0.134 A 
ATOM     65  F   UNL     1     -11.067   5.537  -5.107  1.00  0.00    -0.206 F 
ATOM     66  C   UNL     1     -11.963   7.184  -6.521  1.00  0.00     0.040 A 
ATOM     67  C   UNL     1     -13.291   8.970  -5.601  1.00  0.00     0.040 A 
ATOM     68  F   UNL     1     -13.677   9.074  -3.289  1.00  0.00    -0.206 F 
ATOM     69  C   UNL     1     -12.715   8.344  -6.704  1.00  0.00     0.006 A 
ENDBRANCH  48  62
BRANCH  49  70
ATOM     70  C   UNL     1     -10.993   3.425   4.987  1.00  0.00     0.057 A 
ATOM     71  C   UNL     1     -10.921   2.045   5.204  1.00  0.00     0.134 A 
ATOM     72  C   UNL     1     -10.888   4.263   6.104  1.00  0.00     0.134 A 
ATOM     73  F   UNL     1     -11.038   1.193   4.176  1.00  0.00    -0.206 F 
ATOM     74  C   UNL     1     -10.764   1.516   6.486  1.00  0.00     0.040 A 
ATOM     75  C   UNL     1     -10.706   3.749   7.388  1.00  0.00     0.040 A 
ATOM     76  F   UNL     1     -10.948   5.595   5.960  1.00  0.00    -0.206 F 
ATOM     77  C   UNL     1     -10.650   2.370   7.582  1.00  0.00     0.006 A 
ENDBRANCH  49  70
BRANCH  61  78
ATOM     78  C   UNL     1     -16.382   3.592   0.603  1.00  0.00     0.057 A 
ATOM     79  C   UNL     1     -17.360   4.210   1.391  1.00  0.00     0.134 A 
ATOM     80  C   UNL     1     -16.753   2.453  -0.122  1.00  0.00     0.134 A 
ATOM     81  F   UNL     1     -17.059   5.296   2.119  1.00  0.00    -0.206 F 
ATOM     82  C   UNL     1     -18.657   3.703   1.469  1.00  0.00     0.040 A 
ATOM     83  C   UNL     1     -18.051   1.947  -0.066  1.00  0.00     0.040 A 
ATOM     84  F   UNL     1     -15.861   1.819  -0.898  1.00  0.00    -0.206 F 
ATOM     85  C   UNL     1     -19.007   2.570   0.735  1.00  0.00     0.006 A 
ENDBRANCH  61  78
ENDBRANCH  35  36
ENDBRANCH  28  30
ENDBRANCH  27  28
ENDBRANCH  26  27
ENDBRANCH  25  26
ENDBRANCH   1  25
TORSDOF 16
