REMARK SMILES O=C(CC1CC[NH+](C[C@H]2COc3ccccc3O2)CC1)OCCOC(=O)c1ccc(-c2c3nc(c(-c4c(F)cccc4F)c4ccc([nH]4)c(-c4c(F)cccc4F)c4nc(c(-c5c(F)cccc5F)c5ccc2[nH]5)C=C4)C=C3)cc1
REMARK SMILES IDX 22 1 21 2 2 3 1 4 3 5 4 6 5 7 20 8 6 9 19 10 7 11 8 13 9 14
REMARK SMILES IDX 10 15 18 16 11 17 17 18 12 19 16 20 13 21 15 22 14 23 23 24
REMARK SMILES IDX 24 25 25 26 26 27 27 28 28 29 80 30 29 31 79 32 30 33 31 34
REMARK SMILES IDX 32 35 73 36 33 37 78 38 72 39 74 40 34 41 77 42 71 43 70 44
REMARK SMILES IDX 35 46 61 47 44 48 60 49 45 50 48 51 59 52 75 53 46 54 47 55
REMARK SMILES IDX 58 57 76 58 49 59 36 60 37 61 42 62 38 63 39 64 41 65 43 66
REMARK SMILES IDX 40 67 62 68 63 69 68 70 64 71 65 72 67 73 69 74 66 75 50 76
REMARK SMILES IDX 51 77 56 78 52 79 53 80 55 81 57 82 54 83
REMARK H PARENT 7 12 74 45 48 56
REMARK Flexibility Score: inf
ROOT
ATOM      1  C   UNL     1       2.353   4.423   4.019  1.00  0.00     0.274 C 
ENDROOT
BRANCH   1   2
ATOM      2  O   UNL     1       2.540   4.016   2.647  1.00  0.00    -0.462 OA
BRANCH   2   3
ATOM      3  C   UNL     1       2.999   4.803   1.648  1.00  0.00     0.306 C 
ATOM      4  O   UNL     1       3.442   4.288   0.624  1.00  0.00    -0.252 OA
BRANCH   3   5
ATOM      5  C   UNL     1       2.937   6.306   1.792  1.00  0.00     0.126 C 
BRANCH   5   6
ATOM      6  C   UNL     1       1.749   7.046   1.150  1.00  0.00     0.011 C 
ATOM      7  C   UNL     1       0.362   6.615   1.631  1.00  0.00     0.066 C 
ATOM      8  C   UNL     1       1.763   7.070  -0.382  1.00  0.00     0.066 C 
ATOM      9  C   UNL     1      -0.147   5.330   0.977  1.00  0.00     0.262 C 
ATOM     10  C   UNL     1       1.235   5.791  -1.032  1.00  0.00     0.262 C 
ATOM     11  N   UNL     1      -0.032   5.318  -0.476  1.00  0.00    -0.332 N 
ATOM     12  H   UNL     1      -0.699   6.041  -0.746  1.00  0.00     0.348 HD
BRANCH  11  13
ATOM     13  C   UNL     1      -0.486   4.055  -1.103  1.00  0.00     0.311 C 
BRANCH  13  14
ATOM     14  C   UNL     1       0.452   2.816  -1.200  1.00  0.00     0.265 C 
ATOM     15  C   UNL     1       0.714   2.125   0.135  1.00  0.00     0.281 C 
ATOM     16  O   UNL     1      -0.193   1.868  -2.089  1.00  0.00    -0.477 OA
ATOM     17  O   UNL     1       1.637   1.038  -0.005  1.00  0.00    -0.486 OA
ATOM     18  C   UNL     1       0.453   0.658  -2.093  1.00  0.00     0.162 A 
ATOM     19  C   UNL     1       1.349   0.267  -1.095  1.00  0.00     0.161 A 
ATOM     20  C   UNL     1       0.173  -0.209  -3.147  1.00  0.00     0.050 A 
ATOM     21  C   UNL     1       2.005  -0.960  -1.175  1.00  0.00     0.050 A 
ATOM     22  C   UNL     1       0.814  -1.448  -3.219  1.00  0.00     0.004 A 
ATOM     23  C   UNL     1       1.736  -1.820  -2.239  1.00  0.00     0.004 A 
ENDBRANCH  13  14
ENDBRANCH  11  13
ENDBRANCH   5   6
ENDBRANCH   3   5
ENDBRANCH   2   3
ENDBRANCH   1   2
BRANCH   1  24
ATOM     24  C   UNL     1       3.643   4.260   4.824  1.00  0.00     0.275 C 
BRANCH  24  25
ATOM     25  O   UNL     1       4.685   5.050   4.231  1.00  0.00    -0.458 OA
BRANCH  25  26
ATOM     26  C   UNL     1       5.575   4.361   3.467  1.00  0.00     0.338 C 
ATOM     27  O   UNL     1       5.687   3.154   3.376  1.00  0.00    -0.246 OA
BRANCH  26  28
ATOM     28  C   UNL     1       6.290   5.328   2.607  1.00  0.00     0.060 A 
ATOM     29  C   UNL     1       6.517   4.988   1.267  1.00  0.00     0.016 A 
ATOM     30  C   UNL     1       6.700   6.569   3.103  1.00  0.00     0.016 A 
ATOM     31  C   UNL     1       7.176   5.881   0.421  1.00  0.00     0.010 A 
ATOM     32  C   UNL     1       7.371   7.454   2.262  1.00  0.00     0.010 A 
ATOM     33  C   UNL     1       7.635   7.103   0.927  1.00  0.00    -0.014 A 
BRANCH  33  34
ATOM     34  C   UNL     1       8.568   7.945   0.150  1.00  0.00     0.031 A 
ATOM     35  C   UNL     1      10.040   7.741   0.361  1.00  0.00     0.074 A 
ATOM     36  C   UNL     1       8.123   8.926  -0.652  1.00  0.00     0.049 A 
ATOM     37  N   UNL     1      11.048   8.455  -0.064  1.00  0.00    -0.248 NA
ATOM     38  C   UNL     1      10.420   6.580   1.183  1.00  0.00     0.031 C 
ATOM     39  C   UNL     1       6.721   9.209  -0.948  1.00  0.00     0.029 A 
ATOM     40  N   UNL     1       8.818   9.892  -1.335  1.00  0.00    -0.354 N 
ATOM     41  C   UNL     1      12.181   7.840   0.450  1.00  0.00     0.074 A 
ATOM     42  C   UNL     1      11.737   6.708   1.232  1.00  0.00     0.031 C 
ATOM     43  C   UNL     1       6.656  10.306  -1.724  1.00  0.00     0.029 A 
ATOM     44  C   UNL     1       8.009  10.813  -1.952  1.00  0.00     0.049 A 
ATOM     45  H   UNL     1       9.802   9.921  -1.379  1.00  0.00     0.167 HD
ATOM     46  C   UNL     1      13.478   8.190   0.287  1.00  0.00     0.037 A 
ATOM     47  C   UNL     1       8.329  11.953  -2.594  1.00  0.00     0.037 A 
ATOM     48  C   UNL     1      13.918   9.323  -0.478  1.00  0.00     0.049 A 
ATOM     49  C   UNL     1       9.774  12.355  -2.723  1.00  0.00     0.074 A 
ATOM     50  C   UNL     1      15.210   9.748  -0.728  1.00  0.00     0.029 A 
ATOM     51  N   UNL     1      13.069  10.221  -1.106  1.00  0.00    -0.354 N 
ATOM     52  N   UNL     1      10.845  11.748  -2.269  1.00  0.00    -0.248 NA
ATOM     53  C   UNL     1      10.056  13.601  -3.451  1.00  0.00     0.031 C 
ATOM     54  C   UNL     1      15.141  10.929  -1.474  1.00  0.00     0.029 A 
ATOM     55  C   UNL     1      13.808  11.215  -1.723  1.00  0.00     0.049 A 
ATOM     56  H   UNL     1      12.086  10.161  -1.113  1.00  0.00     0.167 HD
ATOM     57  C   UNL     1      11.925  12.521  -2.677  1.00  0.00     0.074 A 
ATOM     58  C   UNL     1      11.382  13.642  -3.416  1.00  0.00     0.031 C 
ATOM     59  C   UNL     1      13.248  12.318  -2.462  1.00  0.00     0.037 A 
BRANCH  46  60
ATOM     60  C   UNL     1      14.497   7.348   0.991  1.00  0.00     0.057 A 
ATOM     61  C   UNL     1      14.811   6.053   0.559  1.00  0.00     0.134 A 
ATOM     62  C   UNL     1      15.152   7.830   2.131  1.00  0.00     0.134 A 
ATOM     63  F   UNL     1      14.200   5.528  -0.513  1.00  0.00    -0.206 F 
ATOM     64  C   UNL     1      15.719   5.254   1.255  1.00  0.00     0.040 A 
ATOM     65  C   UNL     1      16.079   7.049   2.822  1.00  0.00     0.040 A 
ATOM     66  F   UNL     1      14.892   9.060   2.598  1.00  0.00    -0.206 F 
ATOM     67  C   UNL     1      16.358   5.753   2.389  1.00  0.00     0.006 A 
ENDBRANCH  46  60
BRANCH  47  68
ATOM     68  C   UNL     1       7.252  12.810  -3.147  1.00  0.00     0.057 A 
ATOM     69  C   UNL     1       7.025  12.887  -4.524  1.00  0.00     0.134 A 
ATOM     70  C   UNL     1       6.425  13.570  -2.310  1.00  0.00     0.134 A 
ATOM     71  F   UNL     1       7.801  12.201  -5.375  1.00  0.00    -0.206 F 
ATOM     72  C   UNL     1       6.016  13.694  -5.054  1.00  0.00     0.040 A 
ATOM     73  C   UNL     1       5.402  14.367  -2.824  1.00  0.00     0.040 A 
ATOM     74  F   UNL     1       6.595  13.538  -0.980  1.00  0.00    -0.206 F 
ATOM     75  C   UNL     1       5.197  14.433  -4.201  1.00  0.00     0.006 A 
ENDBRANCH  47  68
BRANCH  59  76
ATOM     76  C   UNL     1      14.207  13.304  -3.059  1.00  0.00     0.057 A 
ATOM     77  C   UNL     1      14.413  14.567  -2.494  1.00  0.00     0.134 A 
ATOM     78  C   UNL     1      14.989  12.951  -4.167  1.00  0.00     0.134 A 
ATOM     79  F   UNL     1      13.688  14.966  -1.438  1.00  0.00    -0.206 F 
ATOM     80  C   UNL     1      15.361  15.450  -3.014  1.00  0.00     0.040 A 
ATOM     81  C   UNL     1      15.953  13.818  -4.683  1.00  0.00     0.040 A 
ATOM     82  F   UNL     1      14.845  11.751  -4.748  1.00  0.00    -0.206 F 
ATOM     83  C   UNL     1      16.140  15.072  -4.107  1.00  0.00     0.006 A 
ENDBRANCH  59  76
ENDBRANCH  33  34
ENDBRANCH  26  28
ENDBRANCH  25  26
ENDBRANCH  24  25
ENDBRANCH   1  24
TORSDOF 14
