REMARK SMILES O=C(OCCOC(=O)[C@H](c1c[nH]c2cc(F)ccc12)[NH+]1CCN(c2ccccc2)CC1)c1ccc(-c2c3nc(c(-c4c(F)cccc4F)c4ccc([nH]4)c(-c4c(F)cccc4F)c4nc(c(-c5c(F)cccc5F)c5ccc2[nH]5)C=C4)C=C3)cc1
REMARK SMILES IDX 4 1 3 2 2 3 1 4 32 5 33 6 85 7 34 8 84 9 35 10 36 11 37 12
REMARK SMILES IDX 78 13 38 14 83 15 77 16 79 17 39 18 82 19 76 20 75 21 40 23
REMARK SMILES IDX 66 24 49 25 65 26 50 27 53 28 64 29 80 30 51 31 52 32 63 34
REMARK SMILES IDX 81 35 54 36 41 37 42 38 47 39 43 40 44 41 46 42 48 43 45 44
REMARK SMILES IDX 67 45 68 46 73 47 69 48 70 49 72 50 74 51 71 52 55 53 56 54
REMARK SMILES IDX 61 55 57 56 58 57 60 58 62 59 59 60 5 61 6 62 7 63 8 64 9 65
REMARK SMILES IDX 20 66 21 67 31 68 22 70 30 71 23 72 24 73 25 74 29 75 26 76
REMARK SMILES IDX 28 77 27 78 10 79 11 80 19 81 12 82 13 83 18 84 14 86 17 87
REMARK SMILES IDX 15 88 16 89
REMARK H PARENT 79 22 53 33 20 69 12 85
REMARK Flexibility Score: inf
ROOT
ATOM      1  C   UNL     1       2.341   2.258   4.992  1.00  0.00     0.275 C 
ENDROOT
BRANCH   1   2
ATOM      2  O   UNL     1       1.597   1.169   4.410  1.00  0.00    -0.458 OA
BRANCH   2   3
ATOM      3  C   UNL     1       0.728   1.125   3.373  1.00  0.00     0.338 C 
ATOM      4  O   UNL     1       0.251   0.035   3.061  1.00  0.00    -0.246 OA
BRANCH   3   5
ATOM      5  C   UNL     1       0.345   2.301   2.522  1.00  0.00     0.060 A 
ATOM      6  C   UNL     1       0.413   3.642   2.897  1.00  0.00     0.016 A 
ATOM      7  C   UNL     1      -0.153   2.016   1.234  1.00  0.00     0.016 A 
ATOM      8  C   UNL     1       0.089   4.661   1.992  1.00  0.00     0.010 A 
ATOM      9  C   UNL     1      -0.498   3.031   0.324  1.00  0.00     0.010 A 
ATOM     10  C   UNL     1      -0.364   4.367   0.695  1.00  0.00    -0.014 A 
BRANCH  10  11
ATOM     11  C   UNL     1      -0.971   5.478  -0.081  1.00  0.00     0.031 A 
ATOM     12  C   UNL     1      -2.364   5.850   0.317  1.00  0.00     0.074 A 
ATOM     13  C   UNL     1      -0.292   6.223  -0.975  1.00  0.00     0.049 A 
ATOM     14  N   UNL     1      -3.057   6.914   0.025  1.00  0.00    -0.248 NA
ATOM     15  C   UNL     1      -3.068   4.873   1.167  1.00  0.00     0.031 C 
ATOM     16  C   UNL     1       1.026   5.917  -1.507  1.00  0.00     0.029 A 
ATOM     17  N   UNL     1      -0.594   7.438  -1.544  1.00  0.00    -0.354 N 
ATOM     18  C   UNL     1      -4.282   6.729   0.645  1.00  0.00     0.074 A 
ATOM     19  C   UNL     1      -4.236   5.464   1.340  1.00  0.00     0.031 C 
ATOM     20  C   UNL     1       1.502   6.986  -2.171  1.00  0.00     0.029 A 
ATOM     21  C   UNL     1       0.465   8.010  -2.221  1.00  0.00     0.049 A 
ATOM     22  H   UNL     1      -1.481   7.859  -1.476  1.00  0.00     0.167 HD
ATOM     23  C   UNL     1      -5.369   7.530   0.607  1.00  0.00     0.037 A 
ATOM     24  C   UNL     1       0.568   9.216  -2.818  1.00  0.00     0.037 A 
ATOM     25  C   UNL     1      -5.435   8.736  -0.164  1.00  0.00     0.049 A 
ATOM     26  C   UNL     1      -0.668  10.082  -2.864  1.00  0.00     0.074 A 
ATOM     27  C   UNL     1      -6.513   9.576  -0.363  1.00  0.00     0.029 A 
ATOM     28  N   UNL     1      -4.374   9.256  -0.894  1.00  0.00    -0.354 N 
ATOM     29  N   UNL     1      -1.827   9.904  -2.275  1.00  0.00    -0.248 NA
ATOM     30  C   UNL     1      -0.601  11.289  -3.701  1.00  0.00     0.031 C 
ATOM     31  C   UNL     1      -6.118  10.576  -1.258  1.00  0.00     0.029 A 
ATOM     32  C   UNL     1      -4.775  10.400  -1.557  1.00  0.00     0.049 A 
ATOM     33  H   UNL     1      -3.470   8.867  -0.932  1.00  0.00     0.167 HD
ATOM     34  C   UNL     1      -2.625  10.971  -2.669  1.00  0.00     0.074 A 
ATOM     35  C   UNL     1      -1.804  11.814  -3.514  1.00  0.00     0.031 C 
ATOM     36  C   UNL     1      -3.925  11.224  -2.379  1.00  0.00     0.037 A 
BRANCH  23  37
ATOM     37  C   UNL     1      -6.580   7.022   1.324  1.00  0.00     0.057 A 
ATOM     38  C   UNL     1      -6.646   6.963   2.723  1.00  0.00     0.134 A 
ATOM     39  C   UNL     1      -7.647   6.479   0.598  1.00  0.00     0.134 A 
ATOM     40  F   UNL     1      -5.630   7.419   3.472  1.00  0.00    -0.206 F 
ATOM     41  C   UNL     1      -7.715   6.345   3.373  1.00  0.00     0.040 A 
ATOM     42  C   UNL     1      -8.734   5.885   1.238  1.00  0.00     0.040 A 
ATOM     43  F   UNL     1      -7.631   6.484  -0.743  1.00  0.00    -0.206 F 
ATOM     44  C   UNL     1      -8.764   5.806   2.629  1.00  0.00     0.006 A 
ENDBRANCH  23  37
BRANCH  24  45
ATOM     45  C   UNL     1       1.833   9.682  -3.464  1.00  0.00     0.057 A 
ATOM     46  C   UNL     1       2.471  10.862  -3.049  1.00  0.00     0.134 A 
ATOM     47  C   UNL     1       2.397   9.017  -4.559  1.00  0.00     0.134 A 
ATOM     48  F   UNL     1       1.973  11.576  -2.028  1.00  0.00    -0.206 F 
ATOM     49  C   UNL     1       3.596  11.370  -3.709  1.00  0.00     0.040 A 
ATOM     50  C   UNL     1       3.543   9.492  -5.206  1.00  0.00     0.040 A 
ATOM     51  F   UNL     1       1.838   7.893  -5.031  1.00  0.00    -0.206 F 
ATOM     52  C   UNL     1       4.138  10.679  -4.789  1.00  0.00     0.006 A 
ENDBRANCH  24  45
BRANCH  36  53
ATOM     53  C   UNL     1      -4.521  12.482  -2.937  1.00  0.00     0.057 A 
ATOM     54  C   UNL     1      -4.808  12.633  -4.299  1.00  0.00     0.134 A 
ATOM     55  C   UNL     1      -4.863  13.536  -2.080  1.00  0.00     0.134 A 
ATOM     56  F   UNL     1      -4.497  11.663  -5.172  1.00  0.00    -0.206 F 
ATOM     57  C   UNL     1      -5.393  13.799  -4.793  1.00  0.00     0.040 A 
ATOM     58  C   UNL     1      -5.477  14.693  -2.557  1.00  0.00     0.040 A 
ATOM     59  F   UNL     1      -4.625  13.448  -0.762  1.00  0.00    -0.206 F 
ATOM     60  C   UNL     1      -5.737  14.829  -3.919  1.00  0.00     0.006 A 
ENDBRANCH  36  53
ENDBRANCH  10  11
ENDBRANCH   3   5
ENDBRANCH   2   3
ENDBRANCH   1   2
BRANCH   1  61
ATOM     61  C   UNL     1       3.566   2.671   4.186  1.00  0.00     0.274 C 
BRANCH  61  62
ATOM     62  O   UNL     1       3.241   2.860   2.802  1.00  0.00    -0.457 OA
BRANCH  62  63
ATOM     63  C   UNL     1       3.867   2.043   1.900  1.00  0.00     0.370 C 
ATOM     64  O   UNL     1       4.619   1.137   2.221  1.00  0.00    -0.245 OA
BRANCH  63  65
ATOM     65  C   UNL     1       3.516   2.472   0.455  1.00  0.00     0.328 C 
BRANCH  65  66
ATOM     66  N   UNL     1       4.080   3.786   0.038  1.00  0.00    -0.316 N 
ATOM     67  C   UNL     1       3.341   4.968   0.511  1.00  0.00     0.284 C 
ATOM     68  C   UNL     1       5.512   4.027   0.253  1.00  0.00     0.284 C 
ATOM     69  H   UNL     1       3.953   3.671  -0.968  1.00  0.00     0.349 HD
ATOM     70  C   UNL     1       3.691   5.637   1.853  1.00  0.00     0.178 C 
ATOM     71  C   UNL     1       5.924   4.491   1.667  1.00  0.00     0.178 C 
ATOM     72  N   UNL     1       5.126   5.641   2.106  1.00  0.00    -0.360 N 
BRANCH  72  73
ATOM     73  C   UNL     1       5.649   6.553   3.006  1.00  0.00     0.037 A 
ATOM     74  C   UNL     1       4.951   6.966   4.151  1.00  0.00     0.026 A 
ATOM     75  C   UNL     1       6.889   7.154   2.754  1.00  0.00     0.026 A 
ATOM     76  C   UNL     1       5.466   7.948   5.003  1.00  0.00     0.002 A 
ATOM     77  C   UNL     1       7.404   8.144   3.592  1.00  0.00     0.002 A 
ATOM     78  C   UNL     1       6.690   8.543   4.717  1.00  0.00     0.000 A 
ENDBRANCH  72  73
ENDBRANCH  65  66
BRANCH  65  79
ATOM     79  C   UNL     1       3.878   1.384  -0.557  1.00  0.00     0.046 A 
ATOM     80  C   UNL     1       5.139   0.851  -0.777  1.00  0.00     0.094 A 
ATOM     81  C   UNL     1       2.985   0.613  -1.401  1.00  0.00     0.009 A 
ATOM     82  N   UNL     1       5.061  -0.133  -1.717  1.00  0.00    -0.361 N 
ATOM     83  C   UNL     1       3.757  -0.327  -2.091  1.00  0.00     0.049 A 
ATOM     84  C   UNL     1       1.591   0.591  -1.634  1.00  0.00     0.014 A 
ATOM     85  H   UNL     1       5.830  -0.632  -2.076  1.00  0.00     0.166 HD
ATOM     86  C   UNL     1       3.217  -1.271  -2.974  1.00  0.00     0.065 A 
ATOM     87  C   UNL     1       1.025  -0.364  -2.492  1.00  0.00     0.040 A 
ATOM     88  C   UNL     1       1.837  -1.274  -3.146  1.00  0.00     0.125 A 
ATOM     89  F   UNL     1       1.284  -2.180  -3.965  1.00  0.00    -0.207 F 
ENDBRANCH  65  79
ENDBRANCH  63  65
ENDBRANCH  62  63
ENDBRANCH  61  62
ENDBRANCH   1  61
TORSDOF 14
