REMARK SMILES C[N@H+]1CCO[C@H](C[C@@H](NC(=O)OC(C)(C)C)C(=O)OCCOC(=O)c2ccc(-c3c4nc(c(-c5c(F)cccc5F)c5ccc([nH]5)c(-c5c(F)cccc5F)c5nc(c(-c6c(F)cccc6F)c6ccc3[nH]6)C=C5)C=C4)cc2)C1
REMARK SMILES IDX 20 1 19 2 17 3 18 4 8 5 7 6 6 7 1 8 2 9 3 10 79 11 4 13 5 14
REMARK SMILES IDX 9 15 10 16 11 18 12 19 13 20 14 21 15 22 16 23 21 24 22 25
REMARK SMILES IDX 23 26 24 27 25 28 26 29 78 30 27 31 77 32 28 33 29 34 30 35
REMARK SMILES IDX 71 36 31 37 76 38 70 39 72 40 32 41 75 42 69 43 68 44 33 46
REMARK SMILES IDX 59 47 42 48 58 49 43 50 46 51 57 52 73 53 44 54 45 55 56 57
REMARK SMILES IDX 74 58 47 59 34 60 35 61 40 62 36 63 37 64 39 65 41 66 38 67
REMARK SMILES IDX 60 68 61 69 66 70 62 71 63 72 65 73 67 74 64 75 48 76 49 77
REMARK SMILES IDX 54 78 50 79 51 80 53 81 55 82 52 83
REMARK H PARENT 2 12 9 17 72 45 46 56
REMARK Flexibility Score: inf
ROOT
ATOM      1  C   UNL     1       0.539  -7.981  -2.619  1.00  0.00     0.274 C 
ENDROOT
BRANCH   1   2
ATOM      2  O   UNL     1       0.227  -6.587  -2.433  1.00  0.00    -0.461 OA
BRANCH   2   3
ATOM      3  C   UNL     1      -0.962  -6.316  -1.823  1.00  0.00     0.328 C 
ATOM      4  O   UNL     1      -1.740  -7.169  -1.405  1.00  0.00    -0.250 OA
BRANCH   3   5
ATOM      5  C   UNL     1      -1.276  -4.805  -1.784  1.00  0.00     0.198 C 
BRANCH   5   6
ATOM      6  C   UNL     1      -0.014  -3.955  -1.557  1.00  0.00     0.075 C 
BRANCH   6   7
ATOM      7  C   UNL     1      -0.232  -2.511  -1.052  1.00  0.00     0.176 C 
ATOM      8  C   UNL     1       1.123   0.130   0.046  1.00  0.00     0.332 C 
ATOM      9  N   UNL     1       0.419  -0.895   0.811  1.00  0.00    -0.333 N 
ATOM     10  C   UNL     1      -1.023  -0.609   0.928  1.00  0.00     0.290 C 
ATOM     11  C   UNL     1       0.601  -2.243   0.233  1.00  0.00     0.294 C 
ATOM     12  H   UNL     1       0.834  -0.878   1.743  1.00  0.00     0.348 HD
ATOM     13  C   UNL     1      -1.824  -0.904  -0.351  1.00  0.00     0.222 C 
ATOM     14  O   UNL     1      -1.624  -2.253  -0.803  1.00  0.00    -0.366 OA
ENDBRANCH   6   7
ENDBRANCH   5   6
BRANCH   5  15
ATOM     15  N   UNL     1      -2.103  -4.266  -2.864  1.00  0.00    -0.308 N 
ATOM     16  C   UNL     1      -2.714  -4.905  -3.900  1.00  0.00     0.408 C 
ATOM     17  H   UNL     1      -2.238  -3.292  -2.838  1.00  0.00     0.168 HD
ATOM     18  O   UNL     1      -3.490  -4.308  -4.631  1.00  0.00    -0.225 OA
BRANCH  16  19
ATOM     19  O   UNL     1      -2.353  -6.200  -4.024  1.00  0.00    -0.444 OA
BRANCH  19  20
ATOM     20  C   UNL     1      -2.904  -7.044  -5.066  1.00  0.00     0.106 C 
ATOM     21  C   UNL     1      -4.423  -7.185  -4.933  1.00  0.00     0.056 C 
ATOM     22  C   UNL     1      -2.478  -6.537  -6.447  1.00  0.00     0.056 C 
ATOM     23  C   UNL     1      -2.276  -8.429  -4.845  1.00  0.00     0.056 C 
ENDBRANCH  19  20
ENDBRANCH  16  19
ENDBRANCH   5  15
ENDBRANCH   3   5
ENDBRANCH   2   3
ENDBRANCH   1   2
BRANCH   1  24
ATOM     24  C   UNL     1       1.483  -8.520  -1.543  1.00  0.00     0.275 C 
BRANCH  24  25
ATOM     25  O   UNL     1       0.837  -8.571  -0.259  1.00  0.00    -0.458 OA
BRANCH  25  26
ATOM     26  C   UNL     1       0.958  -7.442   0.475  1.00  0.00     0.338 C 
ATOM     27  O   UNL     1       1.622  -6.454   0.209  1.00  0.00    -0.246 OA
BRANCH  26  28
ATOM     28  C   UNL     1       0.029  -7.483   1.613  1.00  0.00     0.060 A 
ATOM     29  C   UNL     1      -0.874  -6.425   1.754  1.00  0.00     0.016 A 
ATOM     30  C   UNL     1       0.106  -8.491   2.575  1.00  0.00     0.016 A 
ATOM     31  C   UNL     1      -1.696  -6.353   2.871  1.00  0.00     0.010 A 
ATOM     32  C   UNL     1      -0.711  -8.412   3.704  1.00  0.00     0.010 A 
ATOM     33  C   UNL     1      -1.595  -7.329   3.867  1.00  0.00    -0.014 A 
BRANCH  33  34
ATOM     34  C   UNL     1      -2.321  -7.142   5.140  1.00  0.00     0.031 A 
ATOM     35  C   UNL     1      -1.563  -6.663   6.344  1.00  0.00     0.074 A 
ATOM     36  C   UNL     1      -3.644  -7.364   5.205  1.00  0.00     0.049 A 
ATOM     37  N   UNL     1      -1.970  -6.515   7.577  1.00  0.00    -0.248 NA
ATOM     38  C   UNL     1      -0.151  -6.305   6.126  1.00  0.00     0.031 C 
ATOM     39  C   UNL     1      -4.489  -7.766   4.081  1.00  0.00     0.029 A 
ATOM     40  N   UNL     1      -4.507  -7.285   6.266  1.00  0.00    -0.354 N 
ATOM     41  C   UNL     1      -0.864  -6.066   8.286  1.00  0.00     0.074 A 
ATOM     42  C   UNL     1       0.238  -5.987   7.352  1.00  0.00     0.031 C 
ATOM     43  C   UNL     1      -5.753  -7.906   4.515  1.00  0.00     0.029 A 
ATOM     44  C   UNL     1      -5.793  -7.648   5.952  1.00  0.00     0.049 A 
ATOM     45  H   UNL     1      -4.232  -6.997   7.166  1.00  0.00     0.167 HD
ATOM     46  C   UNL     1      -0.780  -5.745   9.599  1.00  0.00     0.037 A 
ATOM     47  C   UNL     1      -6.872  -7.783   6.746  1.00  0.00     0.037 A 
ATOM     48  C   UNL     1      -1.887  -5.822  10.515  1.00  0.00     0.049 A 
ATOM     49  C   UNL     1      -6.734  -7.495   8.216  1.00  0.00     0.074 A 
ATOM     50  C   UNL     1      -1.913  -5.524  11.866  1.00  0.00     0.029 A 
ATOM     51  N   UNL     1      -3.168  -6.228  10.169  1.00  0.00    -0.354 N 
ATOM     52  N   UNL     1      -5.683  -7.086   8.886  1.00  0.00    -0.248 NA
ATOM     53  C   UNL     1      -7.933  -7.690   9.042  1.00  0.00     0.031 C 
ATOM     54  C   UNL     1      -3.200  -5.792  12.346  1.00  0.00     0.029 A 
ATOM     55  C   UNL     1      -3.988  -6.207  11.285  1.00  0.00     0.049 A 
ATOM     56  H   UNL     1      -3.452  -6.492   9.264  1.00  0.00     0.167 HD
ATOM     57  C   UNL     1      -6.099  -6.948  10.203  1.00  0.00     0.074 A 
ATOM     58  C   UNL     1      -7.503  -7.306  10.236  1.00  0.00     0.031 C 
ATOM     59  C   UNL     1      -5.386  -6.560  11.290  1.00  0.00     0.037 A 
BRANCH  46  60
ATOM     60  C   UNL     1       0.562  -5.321  10.120  1.00  0.00     0.057 A 
ATOM     61  C   UNL     1       1.133  -4.086   9.785  1.00  0.00     0.134 A 
ATOM     62  C   UNL     1       1.290  -6.157  10.977  1.00  0.00     0.134 A 
ATOM     63  F   UNL     1       0.498  -3.245   8.955  1.00  0.00    -0.206 F 
ATOM     64  C   UNL     1       2.391  -3.710  10.263  1.00  0.00     0.040 A 
ATOM     65  C   UNL     1       2.535  -5.780  11.482  1.00  0.00     0.040 A 
ATOM     66  F   UNL     1       0.801  -7.353  11.339  1.00  0.00    -0.206 F 
ATOM     67  C   UNL     1       3.093  -4.556  11.118  1.00  0.00     0.006 A 
ENDBRANCH  46  60
BRANCH  47  68
ATOM     68  C   UNL     1      -8.166  -8.228   6.173  1.00  0.00     0.057 A 
ATOM     69  C   UNL     1      -9.263  -7.362   6.103  1.00  0.00     0.134 A 
ATOM     70  C   UNL     1      -8.341  -9.531   5.690  1.00  0.00     0.134 A 
ATOM     71  F   UNL     1      -9.165  -6.109   6.570  1.00  0.00    -0.206 F 
ATOM     72  C   UNL     1     -10.492  -7.779   5.588  1.00  0.00     0.040 A 
ATOM     73  C   UNL     1      -9.556  -9.954   5.148  1.00  0.00     0.040 A 
ATOM     74  F   UNL     1      -7.329 -10.410   5.729  1.00  0.00    -0.206 F 
ATOM     75  C   UNL     1     -10.638  -9.078   5.103  1.00  0.00     0.006 A 
ENDBRANCH  47  68
BRANCH  59  76
ATOM     76  C   UNL     1      -6.125  -6.462  12.592  1.00  0.00     0.057 A 
ATOM     77  C   UNL     1      -6.538  -7.599  13.297  1.00  0.00     0.134 A 
ATOM     78  C   UNL     1      -6.399  -5.212  13.160  1.00  0.00     0.134 A 
ATOM     79  F   UNL     1      -6.318  -8.826  12.800  1.00  0.00    -0.206 F 
ATOM     80  C   UNL     1      -7.220  -7.495  14.511  1.00  0.00     0.040 A 
ATOM     81  C   UNL     1      -7.055  -5.096  14.386  1.00  0.00     0.040 A 
ATOM     82  F   UNL     1      -6.022  -4.083  12.540  1.00  0.00    -0.206 F 
ATOM     83  C   UNL     1      -7.474  -6.240  15.061  1.00  0.00     0.006 A 
ENDBRANCH  59  76
ENDBRANCH  33  34
ENDBRANCH  26  28
ENDBRANCH  25  26
ENDBRANCH  24  25
ENDBRANCH   1  24
TORSDOF 16
