REMARK SMILES NC(=O)C[C@H](NC(=O)C1(c2ccccc2)CCN(C(=O)[C@@H]2CCC[NH2+]2)CC1)C(=O)OCCOC(=O)c1ccc(-c2c3nc(c(-c4c(F)cccc4F)c4ccc([nH]4)c(-c4c(F)cccc4F)c4nc(c(-c5c(F)cccc5F)c5ccc2[nH]5)C=C4)C=C3)cc1
REMARK SMILES IDX 31 1 30 2 28 3 29 4 5 5 4 6 2 7 1 8 3 11 6 12 7 13 8 15 9 16
REMARK SMILES IDX 16 17 27 18 17 19 26 20 18 21 19 22 20 23 10 24 11 25 15 26
REMARK SMILES IDX 12 27 14 28 13 29 21 30 22 31 25 32 23 33 24 34 32 37 33 38
REMARK SMILES IDX 34 39 35 40 36 41 37 42 89 43 38 44 88 45 39 46 40 47 41 48
REMARK SMILES IDX 82 49 42 50 87 51 81 52 83 53 43 54 86 55 80 56 79 57 44 59
REMARK SMILES IDX 70 60 53 61 69 62 54 63 57 64 68 65 84 66 55 67 56 68 67 70
REMARK SMILES IDX 85 71 58 72 45 73 46 74 51 75 47 76 48 77 50 78 52 79 49 80
REMARK SMILES IDX 71 81 72 82 77 83 73 84 74 85 76 86 78 87 75 88 59 89 60 90
REMARK SMILES IDX 65 91 61 92 62 93 64 94 66 95 63 96
REMARK H PARENT 1 9 1 10 6 14 25 35 25 36 83 58 57 69
REMARK Flexibility Score: inf
ROOT
ATOM      1  C   UNL     1       4.372  -2.038  -5.442  1.00  0.00     0.274 C 
ENDROOT
BRANCH   1   2
ATOM      2  O   UNL     1       3.443  -1.963  -4.337  1.00  0.00    -0.461 OA
BRANCH   2   3
ATOM      3  C   UNL     1       3.870  -1.209  -3.280  1.00  0.00     0.329 C 
ATOM      4  O   UNL     1       4.999  -0.740  -3.189  1.00  0.00    -0.250 OA
BRANCH   3   5
ATOM      5  C   UNL     1       2.683  -0.733  -2.421  1.00  0.00     0.201 C 
BRANCH   5   6
ATOM      6  C   UNL     1       3.099  -0.057  -1.106  1.00  0.00     0.136 C 
BRANCH   6   7
ATOM      7  C   UNL     1       2.974  -0.965   0.083  1.00  0.00     0.220 C 
ATOM      8  N   UNL     1       1.772  -0.913   0.727  1.00  0.00    -0.370 N 
ATOM      9  H   UNL     1       1.612  -1.479   1.517  1.00  0.00     0.159 HD
ATOM     10  H   UNL     1       1.066  -0.309   0.403  1.00  0.00     0.159 HD
ATOM     11  O   UNL     1       3.854  -1.740   0.433  1.00  0.00    -0.275 OA
ENDBRANCH   6   7
ENDBRANCH   5   6
BRANCH   5  12
ATOM     12  N   UNL     1       1.420  -1.497  -2.316  1.00  0.00    -0.342 N 
ATOM     13  C   UNL     1       0.125  -1.169  -2.625  1.00  0.00     0.231 C 
ATOM     14  H   UNL     1       1.530  -2.408  -1.959  1.00  0.00     0.164 HD
ATOM     15  O   UNL     1      -0.714  -1.509  -1.781  1.00  0.00    -0.274 OA
BRANCH  13  16
ATOM     16  C   UNL     1      -0.343  -0.588  -4.001  1.00  0.00     0.077 C 
ATOM     17  C   UNL     1       0.693   0.253  -4.728  1.00  0.00     0.043 C 
ATOM     18  C   UNL     1      -1.581   0.353  -3.767  1.00  0.00     0.043 C 
ATOM     19  C   UNL     1       0.995   1.613  -4.113  1.00  0.00     0.121 C 
ATOM     20  C   UNL     1      -1.233   1.717  -3.154  1.00  0.00     0.121 C 
ATOM     21  N   UNL     1      -0.193   2.398  -3.928  1.00  0.00    -0.337 N 
ATOM     22  C   UNL     1      -0.015   3.769  -4.098  1.00  0.00     0.280 C 
ATOM     23  O   UNL     1       1.127   4.251  -4.119  1.00  0.00    -0.268 OA
BRANCH  16  24
ATOM     24  C   UNL     1      -0.701  -1.776  -4.974  1.00  0.00    -0.032 A 
ATOM     25  C   UNL     1      -1.733  -1.693  -5.933  1.00  0.00     0.005 A 
ATOM     26  C   UNL     1       0.082  -2.949  -5.003  1.00  0.00     0.005 A 
ATOM     27  C   UNL     1      -1.981  -2.723  -6.851  1.00  0.00     0.000 A 
ATOM     28  C   UNL     1      -0.169  -3.982  -5.918  1.00  0.00     0.000 A 
ATOM     29  C   UNL     1      -1.199  -3.869  -6.843  1.00  0.00     0.000 A 
ENDBRANCH  16  24
BRANCH  22  30
ATOM     30  C   UNL     1      -1.199   4.704  -4.308  1.00  0.00     0.272 C 
ATOM     31  C   UNL     1      -1.870   5.189  -3.048  1.00  0.00     0.081 C 
ATOM     32  N   UNL     1      -2.277   4.114  -5.118  1.00  0.00    -0.336 N 
ATOM     33  C   UNL     1      -3.179   5.736  -3.585  1.00  0.00     0.068 C 
ATOM     34  C   UNL     1      -3.468   4.925  -4.844  1.00  0.00     0.261 C 
ATOM     35  H   UNL     1      -2.437   3.144  -4.845  1.00  0.00     0.346 HD
ATOM     36  H   UNL     1      -2.044   4.110  -6.111  1.00  0.00     0.346 HD
ENDBRANCH  22  30
ENDBRANCH  13  16
ENDBRANCH   5  12
ENDBRANCH   3   5
ENDBRANCH   2   3
ENDBRANCH   1   2
BRANCH   1  37
ATOM     37  C   UNL     1       3.607  -2.260  -6.753  1.00  0.00     0.275 C 
BRANCH  37  38
ATOM     38  O   UNL     1       2.876  -1.063  -7.098  1.00  0.00    -0.458 OA
BRANCH  38  39
ATOM     39  C   UNL     1       1.931  -1.210  -8.073  1.00  0.00     0.338 C 
ATOM     40  O   UNL     1       1.704  -2.233  -8.691  1.00  0.00    -0.246 OA
BRANCH  39  41
ATOM     41  C   UNL     1       1.148   0.056  -8.242  1.00  0.00     0.060 A 
ATOM     42  C   UNL     1       1.516   1.221  -7.581  1.00  0.00     0.016 A 
ATOM     43  C   UNL     1      -0.048   0.064  -8.973  1.00  0.00     0.016 A 
ATOM     44  C   UNL     1       0.617   2.295  -7.511  1.00  0.00     0.010 A 
ATOM     45  C   UNL     1      -0.866   1.219  -9.026  1.00  0.00     0.010 A 
ATOM     46  C   UNL     1      -0.563   2.365  -8.273  1.00  0.00    -0.014 A 
BRANCH  46  47
ATOM     47  C   UNL     1      -1.413   3.621  -8.268  1.00  0.00     0.031 A 
ATOM     48  C   UNL     1      -2.933   3.589  -8.174  1.00  0.00     0.074 A 
ATOM     49  C   UNL     1      -0.837   4.849  -8.253  1.00  0.00     0.049 A 
ATOM     50  N   UNL     1      -3.801   4.556  -8.385  1.00  0.00    -0.248 NA
ATOM     51  C   UNL     1      -3.563   2.320  -7.775  1.00  0.00     0.031 C 
ATOM     52  C   UNL     1       0.602   5.119  -8.234  1.00  0.00     0.029 A 
ATOM     53  N   UNL     1      -1.390   6.113  -8.200  1.00  0.00    -0.354 N 
ATOM     54  C   UNL     1      -5.065   4.008  -8.182  1.00  0.00     0.074 A 
ATOM     55  C   UNL     1      -4.857   2.617  -7.832  1.00  0.00     0.031 C 
ATOM     56  C   UNL     1       0.813   6.421  -8.019  1.00  0.00     0.029 A 
ATOM     57  C   UNL     1      -0.455   7.120  -8.134  1.00  0.00     0.049 A 
ATOM     58  H   UNL     1      -2.360   6.278  -8.208  1.00  0.00     0.167 HD
ATOM     59  C   UNL     1      -6.282   4.605  -8.274  1.00  0.00     0.037 A 
ATOM     60  C   UNL     1      -0.552   8.459  -8.260  1.00  0.00     0.037 A 
ATOM     61  C   UNL     1      -6.498   6.009  -8.544  1.00  0.00     0.049 A 
ATOM     62  C   UNL     1      -1.886   9.070  -8.553  1.00  0.00     0.074 A 
ATOM     63  C   UNL     1      -7.699   6.682  -8.715  1.00  0.00     0.029 A 
ATOM     64  N   UNL     1      -5.497   6.961  -8.657  1.00  0.00    -0.354 N 
ATOM     65  N   UNL     1      -3.069   8.512  -8.546  1.00  0.00    -0.248 NA
ATOM     66  C   UNL     1      -1.890  10.491  -8.931  1.00  0.00     0.031 C 
ATOM     67  C   UNL     1      -7.423   8.027  -8.984  1.00  0.00     0.029 A 
ATOM     68  C   UNL     1      -6.053   8.205  -8.927  1.00  0.00     0.049 A 
ATOM     69  H   UNL     1      -4.534   6.782  -8.560  1.00  0.00     0.167 HD
ATOM     70  C   UNL     1      -3.957   9.507  -8.926  1.00  0.00     0.074 A 
ATOM     71  C   UNL     1      -3.183  10.716  -9.113  1.00  0.00     0.031 C 
ATOM     72  C   UNL     1      -5.293   9.414  -9.120  1.00  0.00     0.037 A 
BRANCH  59  73
ATOM     73  C   UNL     1      -7.507   3.740  -8.153  1.00  0.00     0.057 A 
ATOM     74  C   UNL     1      -7.981   3.260  -6.927  1.00  0.00     0.134 A 
ATOM     75  C   UNL     1      -8.277   3.460  -9.293  1.00  0.00     0.134 A 
ATOM     76  F   UNL     1      -7.296   3.490  -5.796  1.00  0.00    -0.206 F 
ATOM     77  C   UNL     1      -9.165   2.521  -6.841  1.00  0.00     0.040 A 
ATOM     78  C   UNL     1      -9.473   2.744  -9.217  1.00  0.00     0.040 A 
ATOM     79  F   UNL     1      -7.893   3.909 -10.498  1.00  0.00    -0.206 F 
ATOM     80  C   UNL     1      -9.918   2.268  -7.988  1.00  0.00     0.006 A 
ENDBRANCH  59  73
BRANCH  60  81
ATOM     81  C   UNL     1       0.682   9.294  -8.271  1.00  0.00     0.057 A 
ATOM     82  C   UNL     1       0.903  10.286  -7.311  1.00  0.00     0.134 A 
ATOM     83  C   UNL     1       1.668   9.124  -9.255  1.00  0.00     0.134 A 
ATOM     84  F   UNL     1      -0.019  10.534  -6.369  1.00  0.00    -0.206 F 
ATOM     85  C   UNL     1       2.060  11.069  -7.324  1.00  0.00     0.040 A 
ATOM     86  C   UNL     1       2.849   9.863  -9.251  1.00  0.00     0.040 A 
ATOM     87  F   UNL     1       1.513   8.206 -10.222  1.00  0.00    -0.206 F 
ATOM     88  C   UNL     1       3.044  10.846  -8.286  1.00  0.00     0.006 A 
ENDBRANCH  60  81
BRANCH  72  89
ATOM     89  C   UNL     1      -6.010  10.665  -9.537  1.00  0.00     0.057 A 
ATOM     90  C   UNL     1      -5.857  11.208 -10.820  1.00  0.00     0.134 A 
ATOM     91  C   UNL     1      -6.857  11.338  -8.649  1.00  0.00     0.134 A 
ATOM     92  F   UNL     1      -5.042  10.624 -11.712  1.00  0.00    -0.206 F 
ATOM     93  C   UNL     1      -6.500  12.389 -11.195  1.00  0.00     0.040 A 
ATOM     94  C   UNL     1      -7.527  12.505  -9.021  1.00  0.00     0.040 A 
ATOM     95  F   UNL     1      -7.050  10.873  -7.405  1.00  0.00    -0.206 F 
ATOM     96  C   UNL     1      -7.343  13.038 -10.295  1.00  0.00     0.006 A 
ENDBRANCH  72  89
ENDBRANCH  46  47
ENDBRANCH  39  41
ENDBRANCH  38  39
ENDBRANCH  37  38
ENDBRANCH   1  37
TORSDOF 17
