REMARK SMILES O=C(OCCOC(=O)[C@H](F)Sc1cc2ccccc2[nH]1)c1ccc(-c2c3nc(c(-c4c(F)cccc4F)c4ccc([nH]4)c(-c4c(F)cccc4F)c4nc(c(-c5c(F)cccc5F)c5ccc2[nH]5)C=C4)C=C3)cc1
REMARK SMILES IDX 4 1 3 2 2 3 1 4 21 5 22 6 74 7 23 8 73 9 24 10 25 11 26 12
REMARK SMILES IDX 67 13 27 14 72 15 66 16 68 17 28 18 71 19 65 20 64 21 29 23
REMARK SMILES IDX 55 24 38 25 54 26 39 27 42 28 53 29 69 30 40 31 41 32 52 34
REMARK SMILES IDX 70 35 43 36 30 37 31 38 36 39 32 40 33 41 35 42 37 43 34 44
REMARK SMILES IDX 56 45 57 46 62 47 58 48 59 49 61 50 63 51 60 52 44 53 45 54
REMARK SMILES IDX 50 55 46 56 47 57 49 58 51 59 48 60 5 61 6 62 7 63 8 64 9 65
REMARK SMILES IDX 10 66 11 67 12 68 13 69 20 70 14 71 19 72 15 74 18 75 16 76
REMARK SMILES IDX 17 77
REMARK H PARENT 68 22 42 33 20 73
REMARK Flexibility Score: inf
ROOT
ATOM      1  C   UNL     1       2.870  -4.789  -1.743  1.00  0.00     0.275 C 
ENDROOT
BRANCH   1   2
ATOM      2  O   UNL     1       2.649  -3.404  -2.073  1.00  0.00    -0.458 OA
BRANCH   2   3
ATOM      3  C   UNL     1       1.716  -2.531  -1.625  1.00  0.00     0.338 C 
ATOM      4  O   UNL     1       1.599  -1.448  -2.197  1.00  0.00    -0.246 OA
BRANCH   3   5
ATOM      5  C   UNL     1       0.939  -2.722  -0.357  1.00  0.00     0.060 A 
ATOM      6  C   UNL     1       0.612  -3.947   0.227  1.00  0.00     0.016 A 
ATOM      7  C   UNL     1       0.559  -1.547   0.326  1.00  0.00     0.016 A 
ATOM      8  C   UNL     1       0.024  -4.009   1.493  1.00  0.00     0.010 A 
ATOM      9  C   UNL     1      -0.024  -1.602   1.597  1.00  0.00     0.010 A 
ATOM     10  C   UNL     1      -0.288  -2.841   2.189  1.00  0.00    -0.014 A 
BRANCH  10  11
ATOM     11  C   UNL     1      -1.044  -2.942   3.455  1.00  0.00     0.031 A 
ATOM     12  C   UNL     1      -2.525  -2.740   3.405  1.00  0.00     0.074 A 
ATOM     13  C   UNL     1      -0.437  -3.292   4.604  1.00  0.00     0.049 A 
ATOM     14  N   UNL     1      -3.405  -2.870   4.360  1.00  0.00    -0.248 NA
ATOM     15  C   UNL     1      -3.096  -2.388   2.094  1.00  0.00     0.031 C 
ATOM     16  C   UNL     1       0.976  -3.626   4.735  1.00  0.00     0.029 A 
ATOM     17  N   UNL     1      -0.921  -3.423   5.880  1.00  0.00    -0.354 N 
ATOM     18  C   UNL     1      -4.636  -2.668   3.755  1.00  0.00     0.074 A 
ATOM     19  C   UNL     1      -4.389  -2.334   2.371  1.00  0.00     0.031 C 
ATOM     20  C   UNL     1       1.271  -3.846   6.027  1.00  0.00     0.029 A 
ATOM     21  C   UNL     1       0.052  -3.705   6.812  1.00  0.00     0.049 A 
ATOM     22  H   UNL     1      -1.874  -3.326   6.108  1.00  0.00     0.167 HD
ATOM     23  C   UNL     1      -5.864  -2.788   4.304  1.00  0.00     0.037 A 
ATOM     24  C   UNL     1      -0.041  -3.843   8.147  1.00  0.00     0.037 A 
ATOM     25  C   UNL     1      -6.089  -3.076   5.693  1.00  0.00     0.049 A 
ATOM     26  C   UNL     1      -1.411  -3.806   8.766  1.00  0.00     0.074 A 
ATOM     27  C   UNL     1      -7.289  -3.183   6.370  1.00  0.00     0.029 A 
ATOM     28  N   UNL     1      -5.079  -3.281   6.625  1.00  0.00    -0.354 N 
ATOM     29  N   UNL     1      -2.575  -3.658   8.178  1.00  0.00    -0.248 NA
ATOM     30  C   UNL     1      -1.490  -3.994  10.219  1.00  0.00     0.031 C 
ATOM     31  C   UNL     1      -7.003  -3.395   7.723  1.00  0.00     0.029 A 
ATOM     32  C   UNL     1      -5.628  -3.478   7.880  1.00  0.00     0.049 A 
ATOM     33  H   UNL     1      -4.116  -3.284   6.423  1.00  0.00     0.167 HD
ATOM     34  C   UNL     1      -3.526  -3.784   9.179  1.00  0.00     0.074 A 
ATOM     35  C   UNL     1      -2.801  -4.025  10.411  1.00  0.00     0.031 C 
ATOM     36  C   UNL     1      -4.877  -3.719   9.088  1.00  0.00     0.037 A 
BRANCH  23  37
ATOM     37  C   UNL     1      -7.032  -2.571   3.392  1.00  0.00     0.057 A 
ATOM     38  C   UNL     1      -7.368  -3.495   2.392  1.00  0.00     0.134 A 
ATOM     39  C   UNL     1      -7.805  -1.409   3.486  1.00  0.00     0.134 A 
ATOM     40  F   UNL     1      -6.646  -4.615   2.230  1.00  0.00    -0.206 F 
ATOM     41  C   UNL     1      -8.416  -3.258   1.502  1.00  0.00     0.040 A 
ATOM     42  C   UNL     1      -8.871  -1.172   2.617  1.00  0.00     0.040 A 
ATOM     43  F   UNL     1      -7.529  -0.480   4.413  1.00  0.00    -0.206 F 
ATOM     44  C   UNL     1      -9.173  -2.094   1.616  1.00  0.00     0.006 A 
ENDBRANCH  23  37
BRANCH  24  45
ATOM     45  C   UNL     1       1.174  -4.052   8.978  1.00  0.00     0.057 A 
ATOM     46  C   UNL     1       1.410  -5.259   9.648  1.00  0.00     0.134 A 
ATOM     47  C   UNL     1       2.113  -3.027   9.157  1.00  0.00     0.134 A 
ATOM     48  F   UNL     1       0.543  -6.275   9.531  1.00  0.00    -0.206 F 
ATOM     49  C   UNL     1       2.514  -5.429  10.488  1.00  0.00     0.040 A 
ATOM     50  C   UNL     1       3.233  -3.191   9.976  1.00  0.00     0.040 A 
ATOM     51  F   UNL     1       1.951  -1.845   8.544  1.00  0.00    -0.206 F 
ATOM     52  C   UNL     1       3.430  -4.392  10.653  1.00  0.00     0.006 A 
ENDBRANCH  24  45
BRANCH  36  53
ATOM     53  C   UNL     1      -5.653  -3.943  10.351  1.00  0.00     0.057 A 
ATOM     54  C   UNL     1      -5.675  -2.998  11.383  1.00  0.00     0.134 A 
ATOM     55  C   UNL     1      -6.423  -5.102  10.514  1.00  0.00     0.134 A 
ATOM     56  F   UNL     1      -4.947  -1.874  11.293  1.00  0.00    -0.206 F 
ATOM     57  C   UNL     1      -6.416  -3.209  12.546  1.00  0.00     0.040 A 
ATOM     58  C   UNL     1      -7.193  -5.309  11.657  1.00  0.00     0.040 A 
ATOM     59  F   UNL     1      -6.452  -6.042   9.556  1.00  0.00    -0.206 F 
ATOM     60  C   UNL     1      -7.185  -4.364  12.681  1.00  0.00     0.006 A 
ENDBRANCH  36  53
ENDBRANCH  10  11
ENDBRANCH   3   5
ENDBRANCH   2   3
ENDBRANCH   1   2
BRANCH   1  61
ATOM     61  C   UNL     1       3.768  -5.015  -0.522  1.00  0.00     0.274 C 
BRANCH  61  62
ATOM     62  O   UNL     1       3.552  -4.032   0.504  1.00  0.00    -0.459 OA
BRANCH  62  63
ATOM     63  C   UNL     1       4.436  -2.982   0.516  1.00  0.00     0.351 C 
ATOM     64  O   UNL     1       5.439  -2.930  -0.189  1.00  0.00    -0.248 OA
BRANCH  63  65
ATOM     65  C   UNL     1       3.954  -1.851   1.419  1.00  0.00     0.339 C 
ATOM     66  F   UNL     1       4.718  -0.722   1.308  1.00  0.00    -0.222 F 
BRANCH  65  67
ATOM     67  S   UNL     1       3.879  -2.333   3.167  1.00  0.00    -0.059 SA
BRANCH  67  68
ATOM     68  C   UNL     1       5.550  -2.604   3.446  1.00  0.00     0.077 A 
ATOM     69  C   UNL     1       6.284  -3.756   3.530  1.00  0.00     0.043 A 
ATOM     70  N   UNL     1       6.388  -1.532   3.474  1.00  0.00    -0.350 N 
ATOM     71  C   UNL     1       7.648  -3.367   3.423  1.00  0.00     0.001 A 
ATOM     72  C   UNL     1       7.685  -1.971   3.381  1.00  0.00     0.046 A 
ATOM     73  H   UNL     1       6.109  -0.591   3.550  1.00  0.00     0.167 HD
ATOM     74  C   UNL     1       8.854  -4.078   3.300  1.00  0.00     0.010 A 
ATOM     75  C   UNL     1       8.865  -1.243   3.224  1.00  0.00     0.027 A 
ATOM     76  C   UNL     1      10.045  -3.365   3.119  1.00  0.00     0.001 A 
ATOM     77  C   UNL     1      10.047  -1.971   3.083  1.00  0.00     0.002 A 
ENDBRANCH  67  68
ENDBRANCH  65  67
ENDBRANCH  63  65
ENDBRANCH  62  63
ENDBRANCH  61  62
ENDBRANCH   1  61
TORSDOF 13
