REMARK SMILES Cc1ccccc1NC(=O)CSc1nc(C(=O)OCCOC(=O)c2ccc(-c3c4nc(c(-c5c(F)cccc5F)c5ccc([nH]5)c(-c5c(F)cccc5F)c5nc(c(-c6c(F)cccc6F)c6ccc3[nH]6)C=C5)C=C4)cc2)c2ccccc2n1
REMARK SMILES IDX 19 1 18 2 16 3 17 4 15 5 13 6 14 7 84 8 83 9 78 10 82 11
REMARK SMILES IDX 79 12 81 13 80 14 12 15 11 16 9 17 8 18 10 20 7 21 1 22 2 23
REMARK SMILES IDX 3 24 4 25 6 26 5 27 20 28 21 29 22 30 23 31 24 32 25 33
REMARK SMILES IDX 77 34 26 35 76 36 27 37 28 38 29 39 70 40 30 41 75 42 69 43
REMARK SMILES IDX 71 44 31 45 74 46 68 47 67 48 32 50 58 51 41 52 57 53 42 54
REMARK SMILES IDX 45 55 56 56 72 57 43 58 44 59 55 61 73 62 46 63 33 64 34 65
REMARK SMILES IDX 39 66 35 67 36 68 38 69 40 70 37 71 59 72 60 73 65 74 61 75
REMARK SMILES IDX 62 76 64 77 66 78 63 79 47 80 48 81 53 82 49 83 50 84 52 85
REMARK SMILES IDX 54 86 51 87
REMARK H PARENT 8 19 71 49 45 60
REMARK Flexibility Score: inf
ROOT
ATOM      1  C   UNL     1      -3.113   7.963  -6.832  1.00  0.00     0.275 C 
ENDROOT
BRANCH   1   2
ATOM      2  O   UNL     1      -2.912   6.654  -6.276  1.00  0.00    -0.457 OA
BRANCH   2   3
ATOM      3  C   UNL     1      -1.596   6.345  -6.136  1.00  0.00     0.357 C 
ATOM      4  O   UNL     1      -0.671   7.072  -6.474  1.00  0.00    -0.244 OA
BRANCH   3   5
ATOM      5  C   UNL     1      -1.348   4.962  -5.655  1.00  0.00     0.160 A 
ATOM      6  C   UNL     1      -1.377   3.445  -3.959  1.00  0.00     0.189 A 
ATOM      7  N   UNL     1      -1.822   4.617  -4.430  1.00  0.00    -0.215 NA
ATOM      8  N   UNL     1      -0.560   2.615  -4.626  1.00  0.00    -0.222 NA
ATOM      9  C   UNL     1      -0.135   2.977  -5.844  1.00  0.00     0.076 A 
ATOM     10  C   UNL     1      -0.505   4.176  -6.442  1.00  0.00     0.034 A 
ATOM     11  C   UNL     1       0.715   2.136  -6.552  1.00  0.00     0.029 A 
ATOM     12  C   UNL     1      -0.021   4.512  -7.737  1.00  0.00     0.013 A 
ATOM     13  C   UNL     1       1.210   2.470  -7.819  1.00  0.00     0.002 A 
ATOM     14  C   UNL     1       0.842   3.665  -8.415  1.00  0.00     0.001 A 
BRANCH   6  15
ATOM     15  S   UNL     1      -2.100   2.776  -2.484  1.00  0.00    -0.076 SA
BRANCH  15  16
ATOM     16  C   UNL     1      -1.360   3.784  -1.170  1.00  0.00     0.178 C 
BRANCH  16  17
ATOM     17  C   UNL     1       0.097   3.510  -0.872  1.00  0.00     0.234 C 
ATOM     18  N   UNL     1       0.603   2.346  -0.376  1.00  0.00    -0.325 N 
ATOM     19  H   UNL     1       1.568   2.405  -0.186  1.00  0.00     0.169 HD
ATOM     20  O   UNL     1       0.917   4.423  -1.051  1.00  0.00    -0.274 OA
BRANCH  18  21
ATOM     21  C   UNL     1       0.068   1.079  -0.070  1.00  0.00     0.044 A 
ATOM     22  C   UNL     1       2.436   0.020  -0.137  1.00  0.00     0.046 C 
ATOM     23  C   UNL     1       0.933  -0.040  -0.026  1.00  0.00    -0.027 A 
ATOM     24  C   UNL     1       0.381  -1.334   0.073  1.00  0.00     0.005 A 
ATOM     25  C   UNL     1      -0.990  -1.524   0.204  1.00  0.00     0.000 A 
ATOM     26  C   UNL     1      -1.293   0.870   0.170  1.00  0.00     0.026 A 
ATOM     27  C   UNL     1      -1.823  -0.418   0.290  1.00  0.00     0.002 A 
ENDBRANCH  18  21
ENDBRANCH  16  17
ENDBRANCH  15  16
ENDBRANCH   6  15
ENDBRANCH   3   5
ENDBRANCH   2   3
ENDBRANCH   1   2
BRANCH   1  28
ATOM     28  C   UNL     1      -4.355   8.670  -6.280  1.00  0.00     0.275 C 
BRANCH  28  29
ATOM     29  O   UNL     1      -4.919   8.188  -5.026  1.00  0.00    -0.458 OA
BRANCH  29  30
ATOM     30  C   UNL     1      -4.294   7.851  -3.869  1.00  0.00     0.338 C 
ATOM     31  O   UNL     1      -4.861   7.216  -2.984  1.00  0.00    -0.246 OA
BRANCH  30  32
ATOM     32  C   UNL     1      -2.890   8.251  -3.698  1.00  0.00     0.060 A 
ATOM     33  C   UNL     1      -1.978   7.367  -3.100  1.00  0.00     0.016 A 
ATOM     34  C   UNL     1      -2.466   9.467  -4.207  1.00  0.00     0.016 A 
ATOM     35  C   UNL     1      -0.615   7.656  -3.107  1.00  0.00     0.010 A 
ATOM     36  C   UNL     1      -1.123   9.666  -4.391  1.00  0.00     0.010 A 
ATOM     37  C   UNL     1      -0.199   8.801  -3.784  1.00  0.00    -0.014 A 
BRANCH  37  38
ATOM     38  C   UNL     1       1.121   9.397  -3.638  1.00  0.00     0.031 A 
ATOM     39  C   UNL     1       2.317   8.874  -4.310  1.00  0.00     0.074 A 
ATOM     40  C   UNL     1       1.080  10.525  -2.894  1.00  0.00     0.049 A 
ATOM     41  N   UNL     1       3.511   8.975  -3.840  1.00  0.00    -0.248 NA
ATOM     42  C   UNL     1       2.277   8.168  -5.585  1.00  0.00     0.031 C 
ATOM     43  C   UNL     1       2.063  11.556  -2.637  1.00  0.00     0.029 A 
ATOM     44  N   UNL     1       0.010  10.869  -2.051  1.00  0.00    -0.354 N 
ATOM     45  C   UNL     1       4.389   8.666  -4.862  1.00  0.00     0.074 A 
ATOM     46  C   UNL     1       3.578   8.037  -5.873  1.00  0.00     0.031 C 
ATOM     47  C   UNL     1       1.706  12.202  -1.506  1.00  0.00     0.029 A 
ATOM     48  C   UNL     1       0.545  11.513  -0.944  1.00  0.00     0.049 A 
ATOM     49  H   UNL     1      -0.943  10.688  -2.216  1.00  0.00     0.167 HD
ATOM     50  C   UNL     1       5.657   9.174  -4.813  1.00  0.00     0.037 A 
ATOM     51  C   UNL     1       0.483  10.841   0.244  1.00  0.00     0.037 A 
ATOM     52  C   UNL     1       5.814   9.953  -3.584  1.00  0.00     0.049 A 
ATOM     53  C   UNL     1       1.867  10.427   0.682  1.00  0.00     0.074 A 
ATOM     54  C   UNL     1       5.631  11.306  -3.341  1.00  0.00     0.029 A 
ATOM     55  N   UNL     1       5.755   9.318  -2.348  1.00  0.00    -0.354 N 
ATOM     56  N   UNL     1       2.866  10.222  -0.135  1.00  0.00    -0.248 NA
ATOM     57  C   UNL     1       2.238  10.277   2.082  1.00  0.00     0.031 C 
ATOM     58  C   UNL     1       5.348  11.465  -1.961  1.00  0.00     0.029 A 
ATOM     59  C   UNL     1       5.384  10.216  -1.362  1.00  0.00     0.049 A 
ATOM     60  H   UNL     1       5.949   8.365  -2.196  1.00  0.00     0.167 HD
ATOM     61  C   UNL     1       3.998   9.976   0.590  1.00  0.00     0.074 A 
ATOM     62  C   UNL     1       3.552  10.020   1.973  1.00  0.00     0.031 C 
ATOM     63  C   UNL     1       5.224   9.781   0.017  1.00  0.00     0.037 A 
BRANCH  50  64
ATOM     64  C   UNL     1       6.602   9.287  -5.996  1.00  0.00     0.057 A 
ATOM     65  C   UNL     1       7.546  10.337  -6.062  1.00  0.00     0.134 A 
ATOM     66  C   UNL     1       6.621   8.434  -7.113  1.00  0.00     0.134 A 
ATOM     67  F   UNL     1       7.728  11.188  -5.044  1.00  0.00    -0.206 F 
ATOM     68  C   UNL     1       8.361  10.575  -7.178  1.00  0.00     0.040 A 
ATOM     69  C   UNL     1       7.410   8.679  -8.253  1.00  0.00     0.040 A 
ATOM     70  F   UNL     1       5.918   7.295  -7.138  1.00  0.00    -0.206 F 
ATOM     71  C   UNL     1       8.276   9.761  -8.294  1.00  0.00     0.006 A 
ENDBRANCH  50  64
BRANCH  51  72
ATOM     72  C   UNL     1      -0.774  10.029   0.423  1.00  0.00     0.057 A 
ATOM     73  C   UNL     1      -2.027  10.655   0.227  1.00  0.00     0.134 A 
ATOM     74  C   UNL     1      -0.796   8.633   0.501  1.00  0.00     0.134 A 
ATOM     75  F   UNL     1      -2.107  11.994   0.153  1.00  0.00    -0.206 F 
ATOM     76  C   UNL     1      -3.208   9.936   0.002  1.00  0.00     0.040 A 
ATOM     77  C   UNL     1      -1.981   7.901   0.305  1.00  0.00     0.040 A 
ATOM     78  F   UNL     1       0.332   7.940   0.700  1.00  0.00    -0.206 F 
ATOM     79  C   UNL     1      -3.182   8.549   0.017  1.00  0.00     0.006 A 
ENDBRANCH  51  72
BRANCH  63  80
ATOM     80  C   UNL     1       6.431   9.264   0.750  1.00  0.00     0.057 A 
ATOM     81  C   UNL     1       6.360   8.403   1.853  1.00  0.00     0.134 A 
ATOM     82  C   UNL     1       7.732   9.515   0.261  1.00  0.00     0.134 A 
ATOM     83  F   UNL     1       5.188   7.962   2.327  1.00  0.00    -0.206 F 
ATOM     84  C   UNL     1       7.503   7.910   2.489  1.00  0.00     0.040 A 
ATOM     85  C   UNL     1       8.876   8.968   0.844  1.00  0.00     0.040 A 
ATOM     86  F   UNL     1       7.951  10.281  -0.818  1.00  0.00    -0.206 F 
ATOM     87  C   UNL     1       8.765   8.184   1.980  1.00  0.00     0.006 A 
ENDBRANCH  63  80
ENDBRANCH  37  38
ENDBRANCH  30  32
ENDBRANCH  29  30
ENDBRANCH  28  29
ENDBRANCH   1  28
TORSDOF 15
