REMARK SMILES O=C(OCCOC(=O)[C@H]1CC=CC[C@@H]1C(=O)Nc1ccccc1C(=O)NCc1ccco1)c1ccc(-c2c3nc(c(-c4c(F)cccc4F)c4ccc([nH]4)c(-c4c(F)cccc4F)c4nc(c(-c5c(F)cccc5F)c5ccc2[nH]5)C=C4)C=C3)cc1
REMARK SMILES IDX 6 1 5 2 4 3 3 4 2 5 1 6 33 7 34 8 86 9 35 10 85 11 36 12
REMARK SMILES IDX 37 13 38 14 79 15 39 16 84 17 78 18 80 19 40 20 83 21 77 22
REMARK SMILES IDX 76 23 41 25 67 26 50 27 66 28 51 29 54 30 65 31 81 32 52 33
REMARK SMILES IDX 53 34 64 36 82 37 55 38 42 39 43 40 48 41 44 42 45 43 47 44
REMARK SMILES IDX 49 45 46 46 68 47 69 48 74 49 70 50 71 51 73 52 75 53 72 54
REMARK SMILES IDX 56 55 57 56 62 57 58 58 59 59 61 60 63 61 60 62 7 63 8 64
REMARK SMILES IDX 9 65 10 66 14 67 11 68 13 69 12 70 15 71 16 72 17 73 18 75
REMARK SMILES IDX 19 76 23 77 20 78 22 79 21 80 24 81 25 82 26 83 27 85 28 86
REMARK SMILES IDX 29 87 32 88 30 89 31 90
REMARK H PARENT 80 24 54 35 17 74 26 84
REMARK Flexibility Score: inf
ROOT
ATOM      1  O   UNL     1       4.069   1.329   1.109  1.00  0.00    -0.462 OA
ENDROOT
BRANCH   1   2
ATOM      2  C   UNL     1       4.292   2.007  -0.127  1.00  0.00     0.274 C 
BRANCH   2   3
ATOM      3  C   UNL     1       4.192   1.056  -1.316  1.00  0.00     0.275 C 
BRANCH   3   4
ATOM      4  O   UNL     1       3.023   0.212  -1.306  1.00  0.00    -0.458 OA
BRANCH   4   5
ATOM      5  C   UNL     1       2.779  -0.987  -0.727  1.00  0.00     0.338 C 
ATOM      6  O   UNL     1       1.715  -1.551  -0.983  1.00  0.00    -0.246 OA
BRANCH   5   7
ATOM      7  C   UNL     1       3.665  -1.641   0.293  1.00  0.00     0.060 A 
ATOM      8  C   UNL     1       5.044  -1.467   0.426  1.00  0.00     0.016 A 
ATOM      9  C   UNL     1       3.033  -2.518   1.199  1.00  0.00     0.016 A 
ATOM     10  C   UNL     1       5.760  -2.077   1.467  1.00  0.00     0.010 A 
ATOM     11  C   UNL     1       3.740  -3.122   2.248  1.00  0.00     0.010 A 
ATOM     12  C   UNL     1       5.115  -2.895   2.396  1.00  0.00    -0.014 A 
BRANCH  12  13
ATOM     13  C   UNL     1       5.893  -3.599   3.445  1.00  0.00     0.031 A 
ATOM     14  C   UNL     1       6.290  -5.014   3.207  1.00  0.00     0.074 A 
ATOM     15  C   UNL     1       6.308  -2.983   4.569  1.00  0.00     0.049 A 
ATOM     16  N   UNL     1       7.112  -5.742   3.912  1.00  0.00    -0.248 NA
ATOM     17  C   UNL     1       5.798  -5.657   1.980  1.00  0.00     0.031 C 
ATOM     18  C   UNL     1       6.206  -1.561   4.815  1.00  0.00     0.029 A 
ATOM     19  N   UNL     1       6.880  -3.449   5.724  1.00  0.00    -0.354 N 
ATOM     20  C   UNL     1       7.336  -6.874   3.153  1.00  0.00     0.074 A 
ATOM     21  C   UNL     1       6.470  -6.798   1.995  1.00  0.00     0.031 C 
ATOM     22  C   UNL     1       6.468  -1.281   6.098  1.00  0.00     0.029 A 
ATOM     23  C   UNL     1       6.928  -2.503   6.726  1.00  0.00     0.049 A 
ATOM     24  H   UNL     1       7.223  -4.366   5.827  1.00  0.00     0.167 HD
ATOM     25  C   UNL     1       8.249  -7.843   3.380  1.00  0.00     0.037 A 
ATOM     26  C   UNL     1       7.371  -2.578   7.992  1.00  0.00     0.037 A 
ATOM     27  C   UNL     1       9.039  -7.925   4.580  1.00  0.00     0.049 A 
ATOM     28  C   UNL     1       8.197  -3.776   8.329  1.00  0.00     0.074 A 
ATOM     29  C   UNL     1       9.940  -8.903   4.955  1.00  0.00     0.029 A 
ATOM     30  N   UNL     1       8.994  -7.001   5.619  1.00  0.00    -0.354 N 
ATOM     31  N   UNL     1       8.467  -4.812   7.572  1.00  0.00    -0.248 NA
ATOM     32  C   UNL     1       8.880  -3.771   9.624  1.00  0.00     0.031 C 
ATOM     33  C   UNL     1      10.391  -8.604   6.246  1.00  0.00     0.029 A 
ATOM     34  C   UNL     1       9.816  -7.411   6.656  1.00  0.00     0.049 A 
ATOM     35  H   UNL     1       8.456  -6.176   5.618  1.00  0.00     0.167 HD
ATOM     36  C   UNL     1       9.404  -5.552   8.266  1.00  0.00     0.074 A 
ATOM     37  C   UNL     1       9.655  -4.840   9.506  1.00  0.00     0.031 C 
ATOM     38  C   UNL     1      10.019  -6.702   7.898  1.00  0.00     0.037 A 
BRANCH  25  39
ATOM     39  C   UNL     1       8.404  -8.867   2.302  1.00  0.00     0.057 A 
ATOM     40  C   UNL     1       9.007  -8.550   1.075  1.00  0.00     0.134 A 
ATOM     41  C   UNL     1       7.907 -10.163   2.465  1.00  0.00     0.134 A 
ATOM     42  F   UNL     1       9.476  -7.313   0.846  1.00  0.00    -0.206 F 
ATOM     43  C   UNL     1       9.089  -9.482   0.040  1.00  0.00     0.040 A 
ATOM     44  C   UNL     1       8.001 -11.110   1.444  1.00  0.00     0.040 A 
ATOM     45  F   UNL     1       7.306 -10.523   3.608  1.00  0.00    -0.206 F 
ATOM     46  C   UNL     1       8.587 -10.768   0.225  1.00  0.00     0.006 A 
ENDBRANCH  25  39
BRANCH  26  47
ATOM     47  C   UNL     1       7.176  -1.451   8.941  1.00  0.00     0.057 A 
ATOM     48  C   UNL     1       8.228  -0.620   9.341  1.00  0.00     0.134 A 
ATOM     49  C   UNL     1       5.910  -1.183   9.481  1.00  0.00     0.134 A 
ATOM     50  F   UNL     1       9.463  -0.815   8.855  1.00  0.00    -0.206 F 
ATOM     51  C   UNL     1       8.042   0.404  10.274  1.00  0.00     0.040 A 
ATOM     52  C   UNL     1       5.706  -0.151  10.401  1.00  0.00     0.040 A 
ATOM     53  F   UNL     1       4.851  -1.927   9.129  1.00  0.00    -0.206 F 
ATOM     54  C   UNL     1       6.778   0.639  10.809  1.00  0.00     0.006 A 
ENDBRANCH  26  47
BRANCH  38  55
ATOM     55  C   UNL     1      11.006  -7.258   8.876  1.00  0.00     0.057 A 
ATOM     56  C   UNL     1      10.598  -7.782  10.110  1.00  0.00     0.134 A 
ATOM     57  C   UNL     1      12.375  -7.265   8.585  1.00  0.00     0.134 A 
ATOM     58  F   UNL     1       9.301  -7.782  10.453  1.00  0.00    -0.206 F 
ATOM     59  C   UNL     1      11.522  -8.258  11.037  1.00  0.00     0.040 A 
ATOM     60  C   UNL     1      13.305  -7.772   9.490  1.00  0.00     0.040 A 
ATOM     61  F   UNL     1      12.829  -6.780   7.419  1.00  0.00    -0.206 F 
ATOM     62  C   UNL     1      12.880  -8.260  10.725  1.00  0.00     0.006 A 
ENDBRANCH  38  55
ENDBRANCH  12  13
ENDBRANCH   5   7
ENDBRANCH   4   5
ENDBRANCH   3   4
ENDBRANCH   2   3
ENDBRANCH   1   2
BRANCH   1  63
ATOM     63  C   UNL     1       2.838   1.468   1.667  1.00  0.00     0.310 C 
ATOM     64  O   UNL     1       1.925   2.127   1.175  1.00  0.00    -0.252 OA
BRANCH  63  65
ATOM     65  C   UNL     1       2.693   0.637   2.927  1.00  0.00     0.116 C 
ATOM     66  C   UNL     1       4.021   0.396   3.636  1.00  0.00     0.043 C 
ATOM     67  C   UNL     1       1.690   1.274   3.890  1.00  0.00     0.097 C 
ATOM     68  C   UNL     1       4.450   1.471   4.591  1.00  0.00    -0.030 C 
ATOM     69  C   UNL     1       2.249   2.596   4.451  1.00  0.00     0.041 C 
ATOM     70  C   UNL     1       3.654   2.482   4.947  1.00  0.00    -0.030 C 
BRANCH  67  71
ATOM     71  C   UNL     1       1.310   0.280   4.997  1.00  0.00     0.228 C 
ATOM     72  O   UNL     1       1.815  -0.840   5.104  1.00  0.00    -0.274 OA
ATOM     73  N   UNL     1       0.359   0.615   5.918  1.00  0.00    -0.325 N 
ATOM     74  H   UNL     1       0.289   0.025   6.703  1.00  0.00     0.169 HD
BRANCH  73  75
ATOM     75  C   UNL     1      -0.526   1.696   5.877  1.00  0.00     0.054 A 
ATOM     76  C   UNL     1      -0.455   2.475   7.050  1.00  0.00     0.027 A 
ATOM     77  C   UNL     1      -1.216   2.157   4.741  1.00  0.00     0.063 A 
ATOM     78  C   UNL     1      -0.832   3.812   7.028  1.00  0.00     0.002 A 
ATOM     79  C   UNL     1      -1.558   3.529   4.747  1.00  0.00     0.016 A 
ATOM     80  C   UNL     1      -1.331   4.354   5.855  1.00  0.00     0.001 A 
BRANCH  77  81
ATOM     81  C   UNL     1      -1.668   1.417   3.494  1.00  0.00     0.253 C 
ATOM     82  O   UNL     1      -2.078   2.098   2.546  1.00  0.00    -0.269 OA
ATOM     83  N   UNL     1      -1.726   0.060   3.281  1.00  0.00    -0.345 N 
ATOM     84  H   UNL     1      -2.242  -0.184   2.478  1.00  0.00     0.164 HD
BRANCH  83  85
ATOM     85  C   UNL     1      -1.195  -1.083   3.982  1.00  0.00     0.191 C 
BRANCH  85  86
ATOM     86  C   UNL     1      -2.107  -2.241   4.062  1.00  0.00     0.122 A 
ATOM     87  C   UNL     1      -2.805  -3.028   3.171  1.00  0.00     0.047 A 
ATOM     88  O   UNL     1      -2.226  -2.760   5.322  1.00  0.00    -0.467 OA
ATOM     89  C   UNL     1      -3.373  -4.083   3.934  1.00  0.00     0.042 A 
ATOM     90  C   UNL     1      -2.984  -3.875   5.235  1.00  0.00     0.195 A 
ENDBRANCH  85  86
ENDBRANCH  83  85
ENDBRANCH  77  81
ENDBRANCH  73  75
ENDBRANCH  67  71
ENDBRANCH  63  65
ENDBRANCH   1  63
TORSDOF 16
