REMARK SMILES O=C(OCCOC(=O)[C@@H]1[C@@H](C(=O)Nc2nc(-c3ccc(F)cc3)cs2)[C@H]2C=C[C@@H]1O2)c1ccc(-c2c3nc(c(-c4c(F)cccc4F)c4ccc([nH]4)c(-c4c(F)cccc4F)c4nc(c(-c5c(F)cccc5F)c5ccc2[nH]5)C=C4)C=C3)cc1
REMARK SMILES IDX 5 1 4 2 3 3 2 4 1 5 31 6 32 7 84 8 33 9 83 10 34 11 35 12
REMARK SMILES IDX 36 13 77 14 37 15 82 16 76 17 78 18 38 19 81 20 75 21 74 22
REMARK SMILES IDX 39 24 65 25 48 26 64 27 49 28 52 29 63 30 79 31 50 32 51 33
REMARK SMILES IDX 62 35 80 36 53 37 40 38 41 39 46 40 42 41 43 42 45 43 47 44
REMARK SMILES IDX 44 45 66 46 67 47 72 48 68 49 69 50 71 51 73 52 70 53 54 54
REMARK SMILES IDX 55 55 60 56 56 57 57 58 59 59 61 60 58 61 6 62 7 63 8 64
REMARK SMILES IDX 9 65 10 66 29 67 26 68 28 69 30 70 27 71 11 72 12 73 13 74
REMARK SMILES IDX 14 76 15 77 25 78 16 79 24 80 17 81 18 82 23 83 19 84 22 85
REMARK SMILES IDX 20 86 21 87
REMARK H PARENT 78 23 52 34 13 75
REMARK Flexibility Score: inf
ROOT
ATOM      1  C   UNL     1       3.117  -2.019   2.010  1.00  0.00     0.274 C 
ENDROOT
BRANCH   1   2
ATOM      2  C   UNL     1       3.547  -0.681   2.613  1.00  0.00     0.275 C 
BRANCH   2   3
ATOM      3  O   UNL     1       2.805   0.445   2.142  1.00  0.00    -0.458 OA
BRANCH   3   4
ATOM      4  C   UNL     1       3.147   1.287   1.144  1.00  0.00     0.338 C 
ATOM      5  O   UNL     1       2.561   2.363   1.043  1.00  0.00    -0.246 OA
BRANCH   4   6
ATOM      6  C   UNL     1       4.043   0.863   0.025  1.00  0.00     0.060 A 
ATOM      7  C   UNL     1       5.187   0.072   0.021  1.00  0.00     0.016 A 
ATOM      8  C   UNL     1       3.716   1.398  -1.186  1.00  0.00     0.016 A 
ATOM      9  C   UNL     1       5.782  -0.471  -1.194  1.00  0.00     0.010 A 
ATOM     10  C   UNL     1       4.300   0.868  -2.341  1.00  0.00     0.010 A 
ATOM     11  C   UNL     1       5.259  -0.403  -2.597  1.00  0.00    -0.014 A 
BRANCH  11  12
ATOM     12  C   UNL     1       5.537  -1.533  -4.439  1.00  0.00     0.031 A 
ATOM     13  C   UNL     1       5.826  -0.993  -6.099  1.00  0.00     0.074 A 
ATOM     14  C   UNL     1       5.271  -2.874  -4.989  1.00  0.00     0.049 A 
ATOM     15  N   UNL     1       6.958  -1.055  -6.771  1.00  0.00    -0.248 NA
ATOM     16  C   UNL     1       4.767  -0.231  -6.833  1.00  0.00     0.031 C 
ATOM     17  C   UNL     1       4.462  -3.977  -4.412  1.00  0.00     0.029 A 
ATOM     18  N   UNL     1       5.729  -3.506  -6.175  1.00  0.00    -0.354 N 
ATOM     19  C   UNL     1       6.844  -0.052  -7.734  1.00  0.00     0.074 A 
ATOM     20  C   UNL     1       5.507   0.480  -7.682  1.00  0.00     0.031 C 
ATOM     21  C   UNL     1       4.542  -5.086  -5.153  1.00  0.00     0.029 A 
ATOM     22  C   UNL     1       5.394  -4.841  -6.300  1.00  0.00     0.049 A 
ATOM     23  H   UNL     1       6.249  -3.026  -6.860  1.00  0.00     0.167 HD
ATOM     24  C   UNL     1       7.798   0.383  -8.584  1.00  0.00     0.037 A 
ATOM     25  C   UNL     1       5.735  -5.804  -7.188  1.00  0.00     0.037 A 
ATOM     26  C   UNL     1       8.518  -0.550  -9.397  1.00  0.00     0.049 A 
ATOM     27  C   UNL     1       6.588  -5.533  -8.400  1.00  0.00     0.074 A 
ATOM     28  C   UNL     1       9.368  -0.330 -10.465  1.00  0.00     0.029 A 
ATOM     29  N   UNL     1       8.251  -1.903  -9.362  1.00  0.00    -0.354 N 
ATOM     30  N   UNL     1       7.167  -4.423  -8.783  1.00  0.00    -0.248 NA
ATOM     31  C   UNL     1       6.811  -6.665  -9.320  1.00  0.00     0.031 C 
ATOM     32  C   UNL     1       9.476  -1.541 -11.173  1.00  0.00     0.029 A 
ATOM     33  C   UNL     1       8.761  -2.510 -10.487  1.00  0.00     0.049 A 
ATOM     34  H   UNL     1       7.768  -2.366  -8.640  1.00  0.00     0.167 HD
ATOM     35  C   UNL     1       7.804  -4.719  -9.990  1.00  0.00     0.074 A 
ATOM     36  C   UNL     1       7.573  -6.119 -10.259  1.00  0.00     0.031 C 
ATOM     37  C   UNL     1       8.509  -3.889 -10.800  1.00  0.00     0.037 A 
BRANCH  24  38
ATOM     38  C   UNL     1       7.940   1.845  -8.840  1.00  0.00     0.057 A 
ATOM     39  C   UNL     1       7.406   2.496  -9.954  1.00  0.00     0.134 A 
ATOM     40  C   UNL     1       8.792   2.585  -8.005  1.00  0.00     0.134 A 
ATOM     41  F   UNL     1       6.591   1.845 -10.796  1.00  0.00    -0.206 F 
ATOM     42  C   UNL     1       7.721   3.830 -10.236  1.00  0.00     0.040 A 
ATOM     43  C   UNL     1       9.117   3.915  -8.277  1.00  0.00     0.040 A 
ATOM     44  F   UNL     1       9.357   2.011  -6.931  1.00  0.00    -0.206 F 
ATOM     45  C   UNL     1       8.585   4.540  -9.402  1.00  0.00     0.006 A 
ENDBRANCH  24  38
BRANCH  25  46
ATOM     46  C   UNL     1       5.306  -7.208  -6.909  1.00  0.00     0.057 A 
ATOM     47  C   UNL     1       3.976  -7.625  -7.038  1.00  0.00     0.134 A 
ATOM     48  C   UNL     1       6.235  -8.149  -6.446  1.00  0.00     0.134 A 
ATOM     49  F   UNL     1       3.038  -6.768  -7.468  1.00  0.00    -0.206 F 
ATOM     50  C   UNL     1       3.578  -8.915  -6.681  1.00  0.00     0.040 A 
ATOM     51  C   UNL     1       5.856  -9.451  -6.113  1.00  0.00     0.040 A 
ATOM     52  F   UNL     1       7.528  -7.815  -6.322  1.00  0.00    -0.206 F 
ATOM     53  C   UNL     1       4.520  -9.832  -6.217  1.00  0.00     0.006 A 
ENDBRANCH  25  46
BRANCH  37  54
ATOM     54  C   UNL     1       9.039  -4.417 -12.097  1.00  0.00     0.057 A 
ATOM     55  C   UNL     1      10.418  -4.528 -12.312  1.00  0.00     0.134 A 
ATOM     56  C   UNL     1       8.191  -4.702 -13.175  1.00  0.00     0.134 A 
ATOM     57  F   UNL     1      11.284  -4.256 -11.324  1.00  0.00    -0.206 F 
ATOM     58  C   UNL     1      10.936  -4.883 -13.557  1.00  0.00     0.040 A 
ATOM     59  C   UNL     1       8.697  -5.080 -14.420  1.00  0.00     0.040 A 
ATOM     60  F   UNL     1       6.859  -4.615 -13.036  1.00  0.00    -0.206 F 
ATOM     61  C   UNL     1      10.074  -5.159 -14.617  1.00  0.00     0.006 A 
ENDBRANCH  37  54
ENDBRANCH  11  12
ENDBRANCH   4   6
ENDBRANCH   3   4
ENDBRANCH   2   3
ENDBRANCH   1   2
BRANCH   1  62
ATOM     62  O   UNL     1       3.099  -2.076   0.570  1.00  0.00    -0.462 OA
BRANCH  62  63
ATOM     63  C   UNL     1       1.889  -1.838  -0.029  1.00  0.00     0.312 C 
ATOM     64  O   UNL     1       0.912  -1.415   0.571  1.00  0.00    -0.252 OA
BRANCH  63  65
ATOM     65  C   UNL     1       1.903  -2.260  -1.496  1.00  0.00     0.147 C 
ATOM     66  C   UNL     1       1.145  -1.279  -2.459  1.00  0.00     0.129 C 
ATOM     67  C   UNL     1       1.052  -3.540  -1.567  1.00  0.00     0.157 C 
ATOM     68  C   UNL     1      -0.040  -2.201  -2.869  1.00  0.00     0.155 C 
ATOM     69  C   UNL     1       1.132  -4.148  -2.935  1.00  0.00     0.004 C 
ATOM     70  O   UNL     1      -0.270  -2.962  -1.657  1.00  0.00    -0.365 OA
ATOM     71  C   UNL     1       0.460  -3.319  -3.744  1.00  0.00     0.004 C 
BRANCH  66  72
ATOM     72  C   UNL     1       1.491  -0.483  -3.762  1.00  0.00     0.233 C 
ATOM     73  O   UNL     1       0.527   0.024  -4.371  1.00  0.00    -0.274 OA
ATOM     74  N   UNL     1       2.680  -0.102  -4.294  1.00  0.00    -0.302 N 
ATOM     75  H   UNL     1       2.661   0.626  -4.957  1.00  0.00     0.172 HD
BRANCH  74  76
ATOM     76  C   UNL     1       3.897  -0.634  -3.995  1.00  0.00     0.189 A 
ATOM     77  N   UNL     1       4.245  -1.938  -3.034  1.00  0.00    -0.220 NA
ATOM     78  S   UNL     1       5.872   0.656  -4.345  1.00  0.00    -0.105 S 
ATOM     79  C   UNL     1       6.065  -2.306  -2.663  1.00  0.00     0.084 A 
ATOM     80  C   UNL     1       7.108  -1.029  -3.308  1.00  0.00     0.097 A 
BRANCH  79  81
ATOM     81  C   UNL     1       6.375  -3.508  -1.843  1.00  0.00     0.001 A 
ATOM     82  C   UNL     1       6.746  -4.720  -2.440  1.00  0.00     0.013 A 
ATOM     83  C   UNL     1       6.027  -3.545  -0.477  1.00  0.00     0.013 A 
ATOM     84  C   UNL     1       6.684  -5.926  -1.720  1.00  0.00     0.040 A 
ATOM     85  C   UNL     1       6.029  -4.733   0.261  1.00  0.00     0.040 A 
ATOM     86  C   UNL     1       6.327  -5.921  -0.378  1.00  0.00     0.123 A 
ATOM     87  F   UNL     1       6.236  -7.074   0.299  1.00  0.00    -0.207 F 
ENDBRANCH  79  81
ENDBRANCH  74  76
ENDBRANCH  66  72
ENDBRANCH  63  65
ENDBRANCH  62  63
ENDBRANCH   1  62
TORSDOF 14
