REMARK SMILES O=C(OCCOC(=O)[C@@]1([NH2+]C2CC2)CC[C@H](OC2CCC2)C1)c1ccc(-c2c3nc(c(-c4c(F)cccc4F)c4ccc([nH]4)c(-c4c(F)cccc4F)c4nc(c(-c5c(F)cccc5F)c5ccc2[nH]5)C=C4)C=C3)cc1
REMARK SMILES IDX 4 1 3 2 2 3 1 4 23 5 24 6 76 7 25 8 75 9 26 10 27 11 28 12
REMARK SMILES IDX 69 13 29 14 74 15 68 16 70 17 30 18 73 19 67 20 66 21 31 23
REMARK SMILES IDX 57 24 40 25 56 26 41 27 44 28 55 29 71 30 42 31 43 32 54 34
REMARK SMILES IDX 72 35 45 36 32 37 33 38 38 39 34 40 35 41 37 42 39 43 36 44
REMARK SMILES IDX 58 45 59 46 64 47 60 48 61 49 63 50 65 51 62 52 46 53 47 54
REMARK SMILES IDX 52 55 48 56 49 57 51 58 53 59 50 60 5 61 6 62 7 63 8 64 9 65
REMARK SMILES IDX 14 66 22 67 15 68 16 69 10 70 11 73 12 74 13 75 17 76 18 77
REMARK SMILES IDX 19 78 21 79 20 80
REMARK H PARENT 70 22 44 33 10 71 10 72
REMARK Flexibility Score: inf
ROOT
ATOM      1  C   UNL     1       4.575  -0.566   1.855  1.00  0.00     0.275 C 
ENDROOT
BRANCH   1   2
ATOM      2  O   UNL     1       4.562   0.808   1.411  1.00  0.00    -0.458 OA
BRANCH   2   3
ATOM      3  C   UNL     1       4.184   1.199   0.176  1.00  0.00     0.338 C 
ATOM      4  O   UNL     1       3.333   2.076   0.029  1.00  0.00    -0.246 OA
BRANCH   3   5
ATOM      5  C   UNL     1       4.878   0.622  -1.014  1.00  0.00     0.060 A 
ATOM      6  C   UNL     1       6.000  -0.213  -0.965  1.00  0.00     0.016 A 
ATOM      7  C   UNL     1       4.327   0.914  -2.266  1.00  0.00     0.016 A 
ATOM      8  C   UNL     1       6.451  -0.882  -2.115  1.00  0.00     0.010 A 
ATOM      9  C   UNL     1       4.748   0.220  -3.402  1.00  0.00     0.010 A 
ATOM     10  C   UNL     1       5.795  -0.717  -3.337  1.00  0.00    -0.014 A 
BRANCH  10  11
ATOM     11  C   UNL     1       6.208  -1.438  -4.577  1.00  0.00     0.031 A 
ATOM     12  C   UNL     1       6.625  -0.606  -5.762  1.00  0.00     0.074 A 
ATOM     13  C   UNL     1       6.128  -2.785  -4.686  1.00  0.00     0.049 A 
ATOM     14  N   UNL     1       6.906  -0.975  -6.984  1.00  0.00    -0.248 NA
ATOM     15  C   UNL     1       6.699   0.853  -5.548  1.00  0.00     0.031 C 
ATOM     16  C   UNL     1       5.716  -3.708  -3.624  1.00  0.00     0.029 A 
ATOM     17  N   UNL     1       6.350  -3.619  -5.760  1.00  0.00    -0.354 N 
ATOM     18  C   UNL     1       7.210   0.199  -7.660  1.00  0.00     0.074 A 
ATOM     19  C   UNL     1       6.916   1.298  -6.773  1.00  0.00     0.031 C 
ATOM     20  C   UNL     1       5.689  -4.965  -4.106  1.00  0.00     0.029 A 
ATOM     21  C   UNL     1       6.059  -4.948  -5.517  1.00  0.00     0.049 A 
ATOM     22  H   UNL     1       6.687  -3.296  -6.627  1.00  0.00     0.167 HD
ATOM     23  C   UNL     1       7.795   0.354  -8.869  1.00  0.00     0.037 A 
ATOM     24  C   UNL     1       6.072  -6.015  -6.347  1.00  0.00     0.037 A 
ATOM     25  C   UNL     1       8.155  -0.744  -9.714  1.00  0.00     0.049 A 
ATOM     26  C   UNL     1       6.534  -5.782  -7.778  1.00  0.00     0.074 A 
ATOM     27  C   UNL     1       8.876  -0.734 -10.891  1.00  0.00     0.029 A 
ATOM     28  N   UNL     1       7.811  -2.061  -9.454  1.00  0.00    -0.354 N 
ATOM     29  N   UNL     1       7.002  -4.685  -8.329  1.00  0.00    -0.248 NA
ATOM     30  C   UNL     1       6.494  -6.929  -8.700  1.00  0.00     0.031 C 
ATOM     31  C   UNL     1       8.945  -2.050 -11.360  1.00  0.00     0.029 A 
ATOM     32  C   UNL     1       8.283  -2.876 -10.463  1.00  0.00     0.049 A 
ATOM     33  H   UNL     1       7.306  -2.370  -8.667  1.00  0.00     0.167 HD
ATOM     34  C   UNL     1       7.430  -5.046  -9.604  1.00  0.00     0.074 A 
ATOM     35  C   UNL     1       7.114  -6.447  -9.768  1.00  0.00     0.031 C 
ATOM     36  C   UNL     1       8.054  -4.295 -10.544  1.00  0.00     0.037 A 
BRANCH  23  37
ATOM     37  C   UNL     1       8.155   1.753  -9.270  1.00  0.00     0.057 A 
ATOM     38  C   UNL     1       9.156   2.464  -8.588  1.00  0.00     0.134 A 
ATOM     39  C   UNL     1       7.477   2.416 -10.296  1.00  0.00     0.134 A 
ATOM     40  F   UNL     1       9.832   1.888  -7.582  1.00  0.00    -0.206 F 
ATOM     41  C   UNL     1       9.428   3.801  -8.874  1.00  0.00     0.040 A 
ATOM     42  C   UNL     1       7.762   3.747 -10.612  1.00  0.00     0.040 A 
ATOM     43  F   UNL     1       6.514   1.794 -10.992  1.00  0.00    -0.206 F 
ATOM     44  C   UNL     1       8.729   4.446  -9.890  1.00  0.00     0.006 A 
ENDBRANCH  23  37
BRANCH  24  45
ATOM     45  C   UNL     1       5.661  -7.394  -5.912  1.00  0.00     0.057 A 
ATOM     46  C   UNL     1       6.527  -8.488  -6.042  1.00  0.00     0.134 A 
ATOM     47  C   UNL     1       4.363  -7.694  -5.477  1.00  0.00     0.134 A 
ATOM     48  F   UNL     1       7.802  -8.297  -6.412  1.00  0.00    -0.206 F 
ATOM     49  C   UNL     1       6.093  -9.809  -5.870  1.00  0.00     0.040 A 
ATOM     50  C   UNL     1       3.910  -9.006  -5.300  1.00  0.00     0.040 A 
ATOM     51  F   UNL     1       3.496  -6.719  -5.192  1.00  0.00    -0.206 F 
ATOM     52  C   UNL     1       4.771 -10.072  -5.523  1.00  0.00     0.006 A 
ENDBRANCH  24  45
BRANCH  36  53
ATOM     53  C   UNL     1       8.595  -4.994 -11.755  1.00  0.00     0.057 A 
ATOM     54  C   UNL     1       7.779  -5.392 -12.818  1.00  0.00     0.134 A 
ATOM     55  C   UNL     1       9.980  -5.166 -11.896  1.00  0.00     0.134 A 
ATOM     56  F   UNL     1       6.446  -5.266 -12.735  1.00  0.00    -0.206 F 
ATOM     57  C   UNL     1       8.322  -5.938 -13.982  1.00  0.00     0.040 A 
ATOM     58  C   UNL     1      10.535  -5.685 -13.065  1.00  0.00     0.040 A 
ATOM     59  F   UNL     1      10.816  -4.792 -10.915  1.00  0.00    -0.206 F 
ATOM     60  C   UNL     1       9.704  -6.072 -14.113  1.00  0.00     0.006 A 
ENDBRANCH  36  53
ENDBRANCH  10  11
ENDBRANCH   3   5
ENDBRANCH   2   3
ENDBRANCH   1   2
BRANCH   1  61
ATOM     61  C   UNL     1       3.313  -1.403   1.607  1.00  0.00     0.274 C 
BRANCH  61  62
ATOM     62  O   UNL     1       2.959  -1.518   0.219  1.00  0.00    -0.457 OA
BRANCH  62  63
ATOM     63  C   UNL     1       1.836  -2.284  -0.020  1.00  0.00     0.368 C 
ATOM     64  O   UNL     1       1.223  -2.862   0.873  1.00  0.00    -0.245 OA
BRANCH  63  65
ATOM     65  C   UNL     1       1.487  -2.382  -1.531  1.00  0.00     0.197 C 
ATOM     66  C   UNL     1       2.541  -1.737  -2.412  1.00  0.00     0.084 C 
ATOM     67  C   UNL     1       1.626  -3.846  -2.046  1.00  0.00     0.113 C 
ATOM     68  C   UNL     1       2.343  -2.304  -3.788  1.00  0.00     0.039 C 
ATOM     69  C   UNL     1       1.953  -3.750  -3.565  1.00  0.00     0.125 C 
BRANCH  65  70
ATOM     70  N   UNL     1       0.096  -1.978  -1.811  1.00  0.00    -0.330 N 
ATOM     71  H   UNL     1      -0.483  -2.549  -1.196  1.00  0.00     0.347 HD
ATOM     72  H   UNL     1       0.072  -2.090  -2.825  1.00  0.00     0.347 HD
BRANCH  70  73
ATOM     73  C   UNL     1      -0.421  -0.621  -1.683  1.00  0.00     0.183 C 
ATOM     74  C   UNL     1       0.312   0.678  -1.573  1.00  0.00     0.071 C 
ATOM     75  C   UNL     1      -0.279   0.281  -2.890  1.00  0.00     0.071 C 
ENDBRANCH  70  73
ENDBRANCH  65  70
BRANCH  69  76
ATOM     76  O   UNL     1       0.827  -4.056  -4.387  1.00  0.00    -0.375 OA
BRANCH  76  77
ATOM     77  C   UNL     1       0.972  -4.155  -5.836  1.00  0.00     0.118 C 
ATOM     78  C   UNL     1       1.207  -2.878  -6.696  1.00  0.00     0.032 C 
ATOM     79  C   UNL     1       2.265  -4.711  -6.469  1.00  0.00     0.032 C 
ATOM     80  C   UNL     1       2.082  -3.728  -7.632  1.00  0.00     0.005 C 
ENDBRANCH  76  77
ENDBRANCH  69  76
ENDBRANCH  63  65
ENDBRANCH  62  63
ENDBRANCH  61  62
ENDBRANCH   1  61
TORSDOF 15
