REMARK SMILES [NH3+][C@@H]1CCCCC[C@H]1C(=O)N1[C@@H](C2CC2)SC[C@H]1C(=O)OCCOC(=O)c1ccc(-c2c3nc(c(-c4c(F)cccc4F)c4ccc([nH]4)c(-c4c(F)cccc4F)c4nc(c(-c5c(F)cccc5F)c5ccc2[nH]5)C=C4)C=C3)cc1
REMARK SMILES IDX 21 1 19 2 20 3 18 4 11 5 12 6 16 7 17 8 9 9 10 10 8 11 2 12
REMARK SMILES IDX 1 13 3 17 4 18 7 20 6 21 5 22 13 24 14 25 15 26 22 27 23 28
REMARK SMILES IDX 24 29 25 30 26 31 27 32 28 33 80 34 29 35 79 36 30 37 31 38
REMARK SMILES IDX 32 39 73 40 33 41 78 42 72 43 74 44 34 45 77 46 71 47 70 48
REMARK SMILES IDX 35 50 61 51 44 52 60 53 45 54 48 55 59 56 75 57 46 58 47 59
REMARK SMILES IDX 58 61 76 62 49 63 36 64 37 65 42 66 38 67 39 68 41 69 43 70
REMARK SMILES IDX 40 71 62 72 63 73 68 74 64 75 65 76 67 77 69 78 66 79 50 80
REMARK SMILES IDX 51 81 56 82 52 83 53 84 55 85 57 86 54 87
REMARK H PARENT 1 14 1 15 1 16 74 49 48 60
REMARK Flexibility Score: 90.00
ROOT
ATOM      1  O   UNL     1      -3.127   2.062  -2.534  1.00  0.00    -0.461 OA
ENDROOT
BRANCH   1   2
ATOM      2  C   UNL     1      -3.937   0.981  -2.662  1.00  0.00     0.329 C 
ATOM      3  O   UNL     1      -4.949   0.952  -3.360  1.00  0.00    -0.250 OA
BRANCH   2   4
ATOM      4  C   UNL     1      -3.520  -0.233  -1.821  1.00  0.00     0.206 C 
ATOM      5  N   UNL     1      -2.276  -0.233  -1.044  1.00  0.00    -0.315 N 
ATOM      6  C   UNL     1      -2.451   0.212   0.323  1.00  0.00     0.147 C 
ATOM      7  S   UNL     1      -4.051  -0.461   0.813  1.00  0.00    -0.134 SA
ATOM      8  C   UNL     1      -4.677  -0.582  -0.882  1.00  0.00     0.109 C 
BRANCH   5   9
ATOM      9  C   UNL     1      -1.105  -0.557  -1.689  1.00  0.00     0.233 C 
ATOM     10  O   UNL     1      -0.993  -0.264  -2.889  1.00  0.00    -0.274 OA
BRANCH   9  11
ATOM     11  C   UNL     1      -0.101  -1.595  -1.119  1.00  0.00     0.136 C 
BRANCH  11  12
ATOM     12  C   UNL     1       0.391  -1.467   0.330  1.00  0.00     0.193 C 
BRANCH  12  13
ATOM     13  N   UNL     1       0.985  -0.138   0.527  1.00  0.00    -0.354 N 
ATOM     14  H   UNL     1       1.312  -0.051   1.489  1.00  0.00     0.344 HD
ATOM     15  H   UNL     1       0.283   0.579   0.341  1.00  0.00     0.344 HD
ATOM     16  H   UNL     1       1.770  -0.018  -0.112  1.00  0.00     0.344 HD
ENDBRANCH  12  13
BRANCH  12  17
ATOM     17  C   UNL     1       1.418  -2.536   0.766  1.00  0.00     0.066 C 
BRANCH  17  18
ATOM     18  C   UNL     1       0.774  -3.902   1.011  1.00  0.00     0.006 CG0
ATOM     19  G   UNL     1       0.662  -4.794  -0.218  1.00  0.00     0.000 G0
ENDBRANCH  17  18
ENDBRANCH  12  17
ENDBRANCH  11  12
BRANCH  11  20
ATOM     20  C   UNL     1      -0.684  -2.990  -1.456  1.00  0.00     0.020 C 
BRANCH  20  21
ATOM     21  C   UNL     1       0.372  -4.092  -1.538  1.00  0.00     0.001 C 
BRANCH  21  22
ATOM     22  C   UNL     1       0.662  -4.794  -0.218  1.00  0.00     0.000 CG0
ATOM     23  G   UNL     1       0.774  -3.902   1.011  1.00  0.00     0.000 G0
ENDBRANCH  21  22
ENDBRANCH  20  21
ENDBRANCH  11  20
ENDBRANCH   9  11
ENDBRANCH   5   9
BRANCH   6  24
ATOM     24  C   UNL     1      -2.324   1.711   0.417  1.00  0.00     0.022 C 
ATOM     25  C   UNL     1      -3.461   2.712   0.324  1.00  0.00     0.007 C 
ATOM     26  C   UNL     1      -2.788   2.470   1.644  1.00  0.00     0.007 C 
ENDBRANCH   6  24
ENDBRANCH   2   4
ENDBRANCH   1   2
BRANCH   1  27
ATOM     27  C   UNL     1      -3.509   3.226  -3.297  1.00  0.00     0.274 C 
BRANCH  27  28
ATOM     28  C   UNL     1      -2.586   3.396  -4.495  1.00  0.00     0.275 C 
BRANCH  28  29
ATOM     29  O   UNL     1      -2.595   2.178  -5.251  1.00  0.00    -0.458 OA
BRANCH  29  30
ATOM     30  C   UNL     1      -1.376   1.678  -5.560  1.00  0.00     0.338 C 
ATOM     31  O   UNL     1      -0.292   2.214  -5.413  1.00  0.00    -0.246 OA
BRANCH  30  32
ATOM     32  C   UNL     1      -1.566   0.383  -6.234  1.00  0.00     0.060 A 
ATOM     33  C   UNL     1      -2.329  -0.629  -5.647  1.00  0.00     0.016 A 
ATOM     34  C   UNL     1      -0.933   0.169  -7.456  1.00  0.00     0.016 A 
ATOM     35  C   UNL     1      -2.422  -1.879  -6.253  1.00  0.00     0.010 A 
ATOM     36  C   UNL     1      -1.087  -1.057  -8.100  1.00  0.00     0.010 A 
ATOM     37  C   UNL     1      -1.815  -2.098  -7.495  1.00  0.00    -0.014 A 
BRANCH  37  38
ATOM     38  C   UNL     1      -1.903  -3.415  -8.170  1.00  0.00     0.031 A 
ATOM     39  C   UNL     1      -0.649  -4.201  -8.429  1.00  0.00     0.074 A 
ATOM     40  C   UNL     1      -3.093  -3.880  -8.594  1.00  0.00     0.049 A 
ATOM     41  N   UNL     1      -0.470  -5.247  -9.194  1.00  0.00    -0.248 NA
ATOM     42  C   UNL     1       0.569  -3.736  -7.746  1.00  0.00     0.031 C 
ATOM     43  C   UNL     1      -4.387  -3.233  -8.370  1.00  0.00     0.029 A 
ATOM     44  N   UNL     1      -3.402  -5.000  -9.324  1.00  0.00    -0.354 N 
ATOM     45  C   UNL     1       0.886  -5.536  -9.123  1.00  0.00     0.074 A 
ATOM     46  C   UNL     1       1.485  -4.553  -8.246  1.00  0.00     0.031 C 
ATOM     47  C   UNL     1      -5.350  -3.967  -8.949  1.00  0.00     0.029 A 
ATOM     48  C   UNL     1      -4.734  -5.092  -9.645  1.00  0.00     0.049 A 
ATOM     49  H   UNL     1      -2.734  -5.672  -9.592  1.00  0.00     0.167 HD
ATOM     50  C   UNL     1       1.567  -6.532  -9.739  1.00  0.00     0.037 A 
ATOM     51  C   UNL     1      -5.380  -5.956 -10.449  1.00  0.00     0.037 A 
ATOM     52  C   UNL     1       0.957  -7.525 -10.584  1.00  0.00     0.049 A 
ATOM     53  C   UNL     1      -4.597  -7.024 -11.157  1.00  0.00     0.074 A 
ATOM     54  C   UNL     1       1.554  -8.589 -11.236  1.00  0.00     0.029 A 
ATOM     55  N   UNL     1      -0.396  -7.578 -10.887  1.00  0.00    -0.354 N 
ATOM     56  N   UNL     1      -3.311  -7.276 -11.108  1.00  0.00    -0.248 NA
ATOM     57  C   UNL     1      -5.352  -7.918 -12.045  1.00  0.00     0.031 C 
ATOM     58  C   UNL     1       0.569  -9.266 -11.963  1.00  0.00     0.029 A 
ATOM     59  C   UNL     1      -0.649  -8.648 -11.729  1.00  0.00     0.049 A 
ATOM     60  H   UNL     1      -1.075  -6.948 -10.553  1.00  0.00     0.167 HD
ATOM     61  C   UNL     1      -3.106  -8.367 -11.940  1.00  0.00     0.074 A 
ATOM     62  C   UNL     1      -4.402  -8.739 -12.471  1.00  0.00     0.031 C 
ATOM     63  C   UNL     1      -1.948  -9.004 -12.241  1.00  0.00     0.037 A 
BRANCH  50  64
ATOM     64  C   UNL     1       3.054  -6.577  -9.545  1.00  0.00     0.057 A 
ATOM     65  C   UNL     1       3.634  -6.977  -8.335  1.00  0.00     0.134 A 
ATOM     66  C   UNL     1       3.917  -6.243 -10.596  1.00  0.00     0.134 A 
ATOM     67  F   UNL     1       2.863  -7.295  -7.284  1.00  0.00    -0.206 F 
ATOM     68  C   UNL     1       5.020  -7.024  -8.171  1.00  0.00     0.040 A 
ATOM     69  C   UNL     1       5.304  -6.309 -10.452  1.00  0.00     0.040 A 
ATOM     70  F   UNL     1       3.427  -5.856 -11.784  1.00  0.00    -0.206 F 
ATOM     71  C   UNL     1       5.859  -6.695  -9.234  1.00  0.00     0.006 A 
ENDBRANCH  50  64
BRANCH  51  72
ATOM     72  C   UNL     1      -6.844  -5.823 -10.653  1.00  0.00     0.057 A 
ATOM     73  C   UNL     1      -7.733  -6.769 -10.132  1.00  0.00     0.134 A 
ATOM     74  C   UNL     1      -7.388  -4.751 -11.371  1.00  0.00     0.134 A 
ATOM     75  F   UNL     1      -7.269  -7.830  -9.456  1.00  0.00    -0.206 F 
ATOM     76  C   UNL     1      -9.111  -6.660 -10.325  1.00  0.00     0.040 A 
ATOM     77  C   UNL     1      -8.765  -4.615 -11.549  1.00  0.00     0.040 A 
ATOM     78  F   UNL     1      -6.589  -3.810 -11.893  1.00  0.00    -0.206 F 
ATOM     79  C   UNL     1      -9.631  -5.576 -11.030  1.00  0.00     0.006 A 
ENDBRANCH  51  72
BRANCH  63  80
ATOM     80  C   UNL     1      -2.040 -10.189 -13.156  1.00  0.00     0.057 A 
ATOM     81  C   UNL     1      -2.260 -10.044 -14.531  1.00  0.00     0.134 A 
ATOM     82  C   UNL     1      -1.879 -11.487 -12.657  1.00  0.00     0.134 A 
ATOM     83  F   UNL     1      -2.438  -8.827 -15.067  1.00  0.00    -0.206 F 
ATOM     84  C   UNL     1      -2.335 -11.152 -15.376  1.00  0.00     0.040 A 
ATOM     85  C   UNL     1      -1.929 -12.601 -13.495  1.00  0.00     0.040 A 
ATOM     86  F   UNL     1      -1.659 -11.692 -11.349  1.00  0.00    -0.206 F 
ATOM     87  C   UNL     1      -2.163 -12.435 -14.859  1.00  0.00     0.006 A 
ENDBRANCH  63  80
ENDBRANCH  37  38
ENDBRANCH  30  32
ENDBRANCH  29  30
ENDBRANCH  28  29
ENDBRANCH  27  28
ENDBRANCH   1  27
TORSDOF 15
