REMARK SMILES C[NH2+][C@]1(C(=O)OCCOC(=O)c2ccc(-c3c4nc(c(-c5c(F)cccc5F)c5ccc([nH]5)c(-c5c(F)cccc5F)c5nc(c(-c6c(F)cccc6F)c6ccc3[nH]6)C=C5)C=C4)cc2)CCC[C@@H]1CCn1nc(C)c(Cl)c1C
REMARK SMILES IDX 7 1 6 2 4 3 5 4 3 5 66 6 69 7 67 8 68 9 2 10 1 11 70 14
REMARK SMILES IDX 71 15 72 16 73 17 78 18 74 19 76 20 79 21 75 22 77 23 8 24
REMARK SMILES IDX 9 25 10 26 11 27 12 28 13 29 65 30 14 31 64 32 15 33 16 34
REMARK SMILES IDX 17 35 58 36 18 37 63 38 57 39 59 40 19 41 62 42 56 43 55 44
REMARK SMILES IDX 20 46 46 47 29 48 45 49 30 50 33 51 44 52 60 53 31 54 32 55
REMARK SMILES IDX 43 57 61 58 34 59 21 60 22 61 27 62 23 63 24 64 26 65 28 66
REMARK SMILES IDX 25 67 47 68 48 69 53 70 49 71 50 72 52 73 54 74 51 75 35 76
REMARK SMILES IDX 36 77 41 78 37 79 38 80 40 81 42 82 39 83
REMARK H PARENT 2 12 2 13 59 45 33 56
REMARK Flexibility Score: inf
ROOT
ATOM      1  C   UNL     1       2.380  -0.731  -0.092  1.00  0.00     0.274 C 
ENDROOT
BRANCH   1   2
ATOM      2  O   UNL     1       0.950  -0.553  -0.078  1.00  0.00    -0.457 OA
BRANCH   2   3
ATOM      3  C   UNL     1       0.265  -1.395   0.745  1.00  0.00     0.368 C 
ATOM      4  O   UNL     1       0.805  -2.235   1.459  1.00  0.00    -0.245 OA
BRANCH   3   5
ATOM      5  C   UNL     1      -1.279  -1.203   0.673  1.00  0.00     0.197 C 
ATOM      6  C   UNL     1      -1.731  -0.088  -0.303  1.00  0.00     0.081 C 
ATOM      7  C   UNL     1      -1.862  -2.425  -0.096  1.00  0.00     0.064 C 
ATOM      8  C   UNL     1      -3.181  -0.444  -0.630  1.00  0.00     0.008 C 
ATOM      9  C   UNL     1      -3.248  -1.973  -0.578  1.00  0.00     0.011 C 
BRANCH   5  10
ATOM     10  N   UNL     1      -1.762  -0.820   2.016  1.00  0.00    -0.334 N 
ATOM     11  C   UNL     1      -2.719  -1.631   2.724  1.00  0.00     0.331 C 
ATOM     12  H   UNL     1      -0.937  -0.758   2.613  1.00  0.00     0.347 HD
ATOM     13  H   UNL     1      -2.289   0.032   1.828  1.00  0.00     0.347 HD
ENDBRANCH   5  10
BRANCH   7  14
ATOM     14  C   UNL     1      -1.837  -3.808   0.576  1.00  0.00     0.034 C 
BRANCH  14  15
ATOM     15  C   UNL     1      -1.833  -4.984  -0.412  1.00  0.00     0.145 C 
BRANCH  15  16
ATOM     16  N   UNL     1      -0.675  -5.022  -1.293  1.00  0.00    -0.268 N 
ATOM     17  N   UNL     1       0.477  -5.533  -0.813  1.00  0.00    -0.176 NA
ATOM     18  C   UNL     1      -0.574  -4.591  -2.596  1.00  0.00     0.054 A 
ATOM     19  C   UNL     1       1.354  -5.386  -1.815  1.00  0.00     0.078 A 
ATOM     20  C   UNL     1       0.746  -4.795  -2.943  1.00  0.00     0.084 A 
ATOM     21  C   UNL     1      -1.678  -3.996  -3.388  1.00  0.00     0.068 C 
ATOM     22  C   UNL     1       2.758  -5.832  -1.638  1.00  0.00     0.070 C 
ATOM     23  Cl  UNL     1       1.494  -4.412  -4.418  1.00  0.00    -0.080 Cl
ENDBRANCH  15  16
ENDBRANCH  14  15
ENDBRANCH   7  14
ENDBRANCH   3   5
ENDBRANCH   2   3
ENDBRANCH   1   2
BRANCH   1  24
ATOM     24  C   UNL     1       3.071   0.276   0.823  1.00  0.00     0.275 C 
BRANCH  24  25
ATOM     25  O   UNL     1       2.673   0.070   2.190  1.00  0.00    -0.458 OA
BRANCH  25  26
ATOM     26  C   UNL     1       1.960   1.072   2.751  1.00  0.00     0.338 C 
ATOM     27  O   UNL     1       1.676   2.151   2.260  1.00  0.00    -0.246 OA
BRANCH  26  28
ATOM     28  C   UNL     1       1.531   0.683   4.103  1.00  0.00     0.060 A 
ATOM     29  C   UNL     1       0.576  -0.317   4.253  1.00  0.00     0.016 A 
ATOM     30  C   UNL     1       1.952   1.419   5.210  1.00  0.00     0.016 A 
ATOM     31  C   UNL     1      -0.039  -0.523   5.484  1.00  0.00     0.010 A 
ATOM     32  C   UNL     1       1.403   1.145   6.468  1.00  0.00     0.010 A 
ATOM     33  C   UNL     1       0.371   0.200   6.610  1.00  0.00    -0.014 A 
BRANCH  33  34
ATOM     34  C   UNL     1      -0.324   0.010   7.911  1.00  0.00     0.031 A 
ATOM     35  C   UNL     1      -1.033   1.168   8.561  1.00  0.00     0.074 A 
ATOM     36  C   UNL     1      -0.363  -1.202   8.498  1.00  0.00     0.049 A 
ATOM     37  N   UNL     1      -1.537   1.260   9.765  1.00  0.00    -0.248 NA
ATOM     38  C   UNL     1      -1.187   2.388   7.752  1.00  0.00     0.031 C 
ATOM     39  C   UNL     1       0.221  -2.429   7.954  1.00  0.00     0.029 A 
ATOM     40  N   UNL     1      -0.934  -1.604   9.680  1.00  0.00    -0.354 N 
ATOM     41  C   UNL     1      -2.004   2.563   9.882  1.00  0.00     0.074 A 
ATOM     42  C   UNL     1      -1.740   3.222   8.621  1.00  0.00     0.031 C 
ATOM     43  C   UNL     1      -0.062  -3.453   8.775  1.00  0.00     0.029 A 
ATOM     44  C   UNL     1      -0.770  -2.942   9.943  1.00  0.00     0.049 A 
ATOM     45  H   UNL     1      -1.415  -0.991  10.282  1.00  0.00     0.167 HD
ATOM     46  C   UNL     1      -2.591   3.156  10.948  1.00  0.00     0.037 A 
ATOM     47  C   UNL     1      -1.115  -3.671  11.021  1.00  0.00     0.037 A 
ATOM     48  C   UNL     1      -2.913   2.482  12.178  1.00  0.00     0.049 A 
ATOM     49  C   UNL     1      -1.761  -2.992  12.192  1.00  0.00     0.074 A 
ATOM     50  C   UNL     1      -3.498   3.001  13.321  1.00  0.00     0.029 A 
ATOM     51  N   UNL     1      -2.702   1.133  12.413  1.00  0.00    -0.354 N 
ATOM     52  N   UNL     1      -2.104  -1.735  12.331  1.00  0.00    -0.248 NA
ATOM     53  C   UNL     1      -2.038  -3.827  13.370  1.00  0.00     0.031 C 
ATOM     54  C   UNL     1      -3.628   1.965  14.254  1.00  0.00     0.029 A 
ATOM     55  C   UNL     1      -3.146   0.799  13.682  1.00  0.00     0.049 A 
ATOM     56  H   UNL     1      -2.296   0.504  11.773  1.00  0.00     0.167 HD
ATOM     57  C   UNL     1      -2.629  -1.625  13.611  1.00  0.00     0.074 A 
ATOM     58  C   UNL     1      -2.586  -2.948  14.198  1.00  0.00     0.031 C 
ATOM     59  C   UNL     1      -3.092  -0.522  14.248  1.00  0.00     0.037 A 
BRANCH  46  60
ATOM     60  C   UNL     1      -2.886   4.621  10.844  1.00  0.00     0.057 A 
ATOM     61  C   UNL     1      -3.977   5.111  10.117  1.00  0.00     0.134 A 
ATOM     62  C   UNL     1      -2.075   5.552  11.504  1.00  0.00     0.134 A 
ATOM     63  F   UNL     1      -4.781   4.271   9.449  1.00  0.00    -0.206 F 
ATOM     64  C   UNL     1      -4.242   6.480  10.039  1.00  0.00     0.040 A 
ATOM     65  C   UNL     1      -2.339   6.921  11.448  1.00  0.00     0.040 A 
ATOM     66  F   UNL     1      -1.014   5.145  12.218  1.00  0.00    -0.206 F 
ATOM     67  C   UNL     1      -3.425   7.388  10.710  1.00  0.00     0.006 A 
ENDBRANCH  46  60
BRANCH  47  68
ATOM     68  C   UNL     1      -0.811  -5.122  11.056  1.00  0.00     0.057 A 
ATOM     69  C   UNL     1      -1.830  -6.074  10.953  1.00  0.00     0.134 A 
ATOM     70  C   UNL     1       0.503  -5.589  11.180  1.00  0.00     0.134 A 
ATOM     71  F   UNL     1      -3.110  -5.686  10.857  1.00  0.00    -0.206 F 
ATOM     72  C   UNL     1      -1.554  -7.442  10.973  1.00  0.00     0.040 A 
ATOM     73  C   UNL     1       0.796  -6.952  11.178  1.00  0.00     0.040 A 
ATOM     74  F   UNL     1       1.522  -4.723  11.283  1.00  0.00    -0.206 F 
ATOM     75  C   UNL     1      -0.236  -7.884  11.078  1.00  0.00     0.006 A 
ENDBRANCH  47  68
BRANCH  59  76
ATOM     76  C   UNL     1      -3.591  -0.709  15.646  1.00  0.00     0.057 A 
ATOM     77  C   UNL     1      -2.708  -0.824  16.726  1.00  0.00     0.134 A 
ATOM     78  C   UNL     1      -4.963  -0.748  15.917  1.00  0.00     0.134 A 
ATOM     79  F   UNL     1      -1.382  -0.806  16.524  1.00  0.00    -0.206 F 
ATOM     80  C   UNL     1      -3.174  -0.986  18.030  1.00  0.00     0.040 A 
ATOM     81  C   UNL     1      -5.442  -0.895  17.219  1.00  0.00     0.040 A 
ATOM     82  F   UNL     1      -5.858  -0.641  14.923  1.00  0.00    -0.206 F 
ATOM     83  C   UNL     1      -4.545  -1.018  18.280  1.00  0.00     0.006 A 
ENDBRANCH  59  76
ENDBRANCH  33  34
ENDBRANCH  26  28
ENDBRANCH  25  26
ENDBRANCH  24  25
ENDBRANCH   1  24
TORSDOF 15
