REMARK SMILES COc1cccc(-c2cc(C(=O)OCCOC(=O)c3ccc(-c4c5nc(c(-c6c(F)cccc6F)c6ccc([nH]6)c(-c6c(F)cccc6F)c6nc(c(-c7c(F)cccc7F)c7ccc4[nH]7)C=C6)C=C5)cc3)cs2)c1
REMARK SMILES IDX 14 1 13 2 11 3 12 4 10 5 8 6 9 7 74 8 73 9 7 10 3 11 4 12
REMARK SMILES IDX 75 13 5 14 6 15 2 16 1 17 15 18 16 19 17 20 18 21 19 22
REMARK SMILES IDX 20 23 72 24 21 25 71 26 22 27 23 28 24 29 65 30 25 31 70 32
REMARK SMILES IDX 64 33 66 34 26 35 69 36 63 37 62 38 27 40 53 41 36 42 52 43
REMARK SMILES IDX 37 44 40 45 51 46 67 47 38 48 39 49 50 51 68 52 41 53 28 54
REMARK SMILES IDX 29 55 34 56 30 57 31 58 33 59 35 60 32 61 54 62 55 63 60 64
REMARK SMILES IDX 56 65 57 66 59 67 61 68 58 69 42 70 43 71 48 72 44 73 45 74
REMARK SMILES IDX 47 75 49 76 46 77
REMARK H PARENT 66 39 40 50
REMARK Flexibility Score: inf
ROOT
ATOM      1  C   UNL     1       8.603  -1.493  -4.131  1.00  0.00     0.275 C 
ENDROOT
BRANCH   1   2
ATOM      2  O   UNL     1       7.329  -0.823  -4.076  1.00  0.00    -0.458 OA
BRANCH   2   3
ATOM      3  C   UNL     1       7.302   0.352  -3.382  1.00  0.00     0.339 C 
ATOM      4  O   UNL     1       8.250   0.813  -2.762  1.00  0.00    -0.246 OA
BRANCH   3   5
ATOM      5  C   UNL     1       6.023   1.050  -3.500  1.00  0.00     0.071 A 
ATOM      6  C   UNL     1       3.724   1.393  -3.762  1.00  0.00     0.035 A 
ATOM      7  C   UNL     1       4.757   0.481  -3.854  1.00  0.00     0.036 A 
ATOM      8  S   UNL     1       4.295   2.978  -3.490  1.00  0.00    -0.143 S 
ATOM      9  C   UNL     1       5.877   2.401  -3.224  1.00  0.00     0.081 A 
BRANCH   6  10
ATOM     10  C   UNL     1       2.295   1.133  -3.689  1.00  0.00    -0.005 A 
ATOM     11  C   UNL     1       0.473   0.233  -2.362  1.00  0.00     0.119 A 
ATOM     12  C   UNL     1      -0.425   0.628  -3.352  1.00  0.00     0.046 A 
ATOM     13  C   UNL     1       1.831   0.463  -2.548  1.00  0.00     0.056 A 
ATOM     14  C   UNL     1       0.028   1.296  -4.495  1.00  0.00     0.004 A 
ATOM     15  C   UNL     1       1.389   1.558  -4.662  1.00  0.00     0.010 A 
BRANCH  11  16
ATOM     16  O   UNL     1      -0.052  -0.398  -1.268  1.00  0.00    -0.497 OA
ATOM     17  C   UNL     1       0.628  -0.126  -0.043  1.00  0.00     0.278 C 
ENDBRANCH  11  16
ENDBRANCH   6  10
ENDBRANCH   3   5
ENDBRANCH   2   3
ENDBRANCH   1   2
BRANCH   1  18
ATOM     18  C   UNL     1       9.343  -1.183  -5.436  1.00  0.00     0.275 C 
BRANCH  18  19
ATOM     19  O   UNL     1       9.784   0.189  -5.473  1.00  0.00    -0.458 OA
BRANCH  19  20
ATOM     20  C   UNL     1       9.037   1.016  -6.241  1.00  0.00     0.338 C 
ATOM     21  O   UNL     1       8.063   0.724  -6.913  1.00  0.00    -0.246 OA
BRANCH  20  22
ATOM     22  C   UNL     1       9.477   2.406  -6.058  1.00  0.00     0.060 A 
ATOM     23  C   UNL     1       8.831   3.154  -5.080  1.00  0.00     0.016 A 
ATOM     24  C   UNL     1      10.378   3.022  -6.921  1.00  0.00     0.016 A 
ATOM     25  C   UNL     1       9.019   4.526  -4.987  1.00  0.00     0.010 A 
ATOM     26  C   UNL     1      10.628   4.396  -6.781  1.00  0.00     0.010 A 
ATOM     27  C   UNL     1       9.932   5.166  -5.828  1.00  0.00    -0.014 A 
BRANCH  27  28
ATOM     28  C   UNL     1      10.110   6.641  -5.724  1.00  0.00     0.031 A 
ATOM     29  C   UNL     1       9.790   7.525  -6.898  1.00  0.00     0.074 A 
ATOM     30  C   UNL     1      10.518   7.194  -4.564  1.00  0.00     0.049 A 
ATOM     31  N   UNL     1      10.007   8.807  -7.054  1.00  0.00    -0.248 NA
ATOM     32  C   UNL     1       9.146   6.882  -8.055  1.00  0.00     0.031 C 
ATOM     33  C   UNL     1      10.800   6.462  -3.327  1.00  0.00     0.029 A 
ATOM     34  N   UNL     1      10.761   8.505  -4.232  1.00  0.00    -0.354 N 
ATOM     35  C   UNL     1       9.572   9.113  -8.338  1.00  0.00     0.074 A 
ATOM     36  C   UNL     1       9.091   7.881  -8.924  1.00  0.00     0.031 C 
ATOM     37  C   UNL     1      11.150   7.331  -2.369  1.00  0.00     0.029 A 
ATOM     38  C   UNL     1      11.206   8.671  -2.942  1.00  0.00     0.049 A 
ATOM     39  H   UNL     1      10.628   9.253  -4.857  1.00  0.00     0.167 HD
ATOM     40  C   UNL     1       9.575  10.313  -8.967  1.00  0.00     0.037 A 
ATOM     41  C   UNL     1      11.656   9.767  -2.303  1.00  0.00     0.037 A 
ATOM     42  C   UNL     1      10.018  11.543  -8.362  1.00  0.00     0.049 A 
ATOM     43  C   UNL     1      11.714  11.072  -3.046  1.00  0.00     0.074 A 
ATOM     44  C   UNL     1      10.047  12.813  -8.912  1.00  0.00     0.029 A 
ATOM     45  N   UNL     1      10.505  11.658  -7.068  1.00  0.00    -0.354 N 
ATOM     46  N   UNL     1      11.335  11.343  -4.271  1.00  0.00    -0.248 NA
ATOM     47  C   UNL     1      12.277  12.220  -2.323  1.00  0.00     0.031 C 
ATOM     48  C   UNL     1      10.599  13.686  -7.970  1.00  0.00     0.029 A 
ATOM     49  C   UNL     1      10.861  12.972  -6.811  1.00  0.00     0.049 A 
ATOM     50  H   UNL     1      10.586  10.915  -6.427  1.00  0.00     0.167 HD
ATOM     51  C   UNL     1      11.594  12.694  -4.459  1.00  0.00     0.074 A 
ATOM     52  C   UNL     1      12.143  13.191  -3.214  1.00  0.00     0.031 C 
ATOM     53  C   UNL     1      11.400  13.453  -5.565  1.00  0.00     0.037 A 
BRANCH  40  54
ATOM     54  C   UNL     1       9.119  10.350 -10.399  1.00  0.00     0.057 A 
ATOM     55  C   UNL     1       7.778  10.177 -10.764  1.00  0.00     0.134 A 
ATOM     56  C   UNL     1      10.039  10.599 -11.427  1.00  0.00     0.134 A 
ATOM     57  F   UNL     1       6.847   9.923  -9.832  1.00  0.00    -0.206 F 
ATOM     58  C   UNL     1       7.373  10.225 -12.100  1.00  0.00     0.040 A 
ATOM     59  C   UNL     1       9.642  10.679 -12.762  1.00  0.00     0.040 A 
ATOM     60  F   UNL     1      11.339  10.782 -11.149  1.00  0.00    -0.206 F 
ATOM     61  C   UNL     1       8.305  10.484 -13.103  1.00  0.00     0.006 A 
ENDBRANCH  40  54
BRANCH  41  62
ATOM     62  C   UNL     1      12.139   9.668  -0.901  1.00  0.00     0.057 A 
ATOM     63  C   UNL     1      11.469  10.310   0.146  1.00  0.00     0.134 A 
ATOM     64  C   UNL     1      13.293   8.942  -0.576  1.00  0.00     0.134 A 
ATOM     65  F   UNL     1      10.373  11.042  -0.102  1.00  0.00    -0.206 F 
ATOM     66  C   UNL     1      11.935  10.248   1.461  1.00  0.00     0.040 A 
ATOM     67  C   UNL     1      13.752   8.844   0.738  1.00  0.00     0.040 A 
ATOM     68  F   UNL     1      13.983   8.302  -1.531  1.00  0.00    -0.206 F 
ATOM     69  C   UNL     1      13.077   9.506   1.760  1.00  0.00     0.006 A 
ENDBRANCH  41  62
BRANCH  53  70
ATOM     70  C   UNL     1      11.748  14.910  -5.464  1.00  0.00     0.057 A 
ATOM     71  C   UNL     1      13.076  15.352  -5.402  1.00  0.00     0.134 A 
ATOM     72  C   UNL     1      10.741  15.884  -5.458  1.00  0.00     0.134 A 
ATOM     73  F   UNL     1      14.087  14.470  -5.387  1.00  0.00    -0.206 F 
ATOM     74  C   UNL     1      13.388  16.710  -5.312  1.00  0.00     0.040 A 
ATOM     75  C   UNL     1      11.042  17.245  -5.399  1.00  0.00     0.040 A 
ATOM     76  F   UNL     1       9.449  15.529  -5.523  1.00  0.00    -0.206 F 
ATOM     77  C   UNL     1      12.369  17.661  -5.319  1.00  0.00     0.006 A 
ENDBRANCH  53  70
ENDBRANCH  27  28
ENDBRANCH  20  22
ENDBRANCH  19  20
ENDBRANCH  18  19
ENDBRANCH   1  18
TORSDOF 13
