REMARK SMILES CC[C@@](C)(NS(=O)(=O)c1ccc(F)c(F)c1)C(=O)OCCOC(=O)c1ccc(-c2c3nc(c(-c4c(F)cccc4F)c4ccc([nH]4)c(-c4c(F)cccc4F)c4nc(c(-c5c(F)cccc5F)c5ccc2[nH]5)C=C4)C=C3)cc1
REMARK SMILES IDX 20 1 19 2 17 3 18 4 3 5 4 6 2 7 1 8 5 9 6 11 7 12 8 13 9 14
REMARK SMILES IDX 10 15 16 16 11 17 14 18 12 19 15 20 13 21 21 22 22 23 23 24
REMARK SMILES IDX 24 25 25 26 26 27 78 28 27 29 77 30 28 31 29 32 30 33 71 34
REMARK SMILES IDX 31 35 76 36 70 37 72 38 32 39 75 40 69 41 68 42 33 44 59 45
REMARK SMILES IDX 42 46 58 47 43 48 46 49 57 50 73 51 44 52 45 53 56 55 74 56
REMARK SMILES IDX 47 57 34 58 35 59 40 60 36 61 37 62 39 63 41 64 38 65 60 66
REMARK SMILES IDX 61 67 66 68 62 69 63 70 65 71 67 72 64 73 48 74 49 75 54 76
REMARK SMILES IDX 50 77 51 78 53 79 55 80 52 81
REMARK H PARENT 5 10 72 43 46 54
REMARK Flexibility Score: inf
ROOT
ATOM      1  C   UNL     1       4.739   1.822  -1.407  1.00  0.00     0.274 C 
ENDROOT
BRANCH   1   2
ATOM      2  O   UNL     1       3.434   2.442  -1.502  1.00  0.00    -0.461 OA
BRANCH   2   3
ATOM      3  C   UNL     1       2.366   1.689  -1.123  1.00  0.00     0.327 C 
ATOM      4  O   UNL     1       2.483   0.507  -0.825  1.00  0.00    -0.250 OA
BRANCH   3   5
ATOM      5  C   UNL     1       1.022   2.484  -1.133  1.00  0.00     0.127 C 
ATOM      6  C   UNL     1       0.558   2.579  -2.583  1.00  0.00     0.042 C 
BRANCH   5   7
ATOM      7  C   UNL     1      -0.108   1.741  -0.322  1.00  0.00     0.032 C 
ATOM      8  C   UNL     1      -0.353   0.254  -0.590  1.00  0.00     0.006 C 
ENDBRANCH   5   7
BRANCH   5   9
ATOM      9  N   UNL     1       1.210   3.812  -0.411  1.00  0.00    -0.194 NA
ATOM     10  H   UNL     1       2.135   3.743   0.013  1.00  0.00     0.142 HD
BRANCH   9  11
ATOM     11  S   UNL     1       1.153   5.370  -1.051  1.00  0.00     0.241 S 
ATOM     12  O   UNL     1       0.794   5.343  -2.443  1.00  0.00    -0.207 OA
ATOM     13  O   UNL     1       0.380   6.123  -0.082  1.00  0.00    -0.207 OA
BRANCH  11  14
ATOM     14  C   UNL     1       2.803   6.038  -0.961  1.00  0.00     0.085 A 
ATOM     15  C   UNL     1       3.889   5.226  -0.663  1.00  0.00     0.025 A 
ATOM     16  C   UNL     1       3.018   7.395  -1.215  1.00  0.00     0.064 A 
ATOM     17  C   UNL     1       5.198   5.697  -0.772  1.00  0.00     0.044 A 
ATOM     18  C   UNL     1       4.328   7.880  -1.256  1.00  0.00     0.160 A 
ATOM     19  C   UNL     1       5.412   7.028  -1.077  1.00  0.00     0.158 A 
ATOM     20  F   UNL     1       4.542   9.183  -1.481  1.00  0.00    -0.204 F 
ATOM     21  F   UNL     1       6.669   7.480  -1.177  1.00  0.00    -0.204 F 
ENDBRANCH  11  14
ENDBRANCH   9  11
ENDBRANCH   5   9
ENDBRANCH   3   5
ENDBRANCH   2   3
ENDBRANCH   1   2
BRANCH   1  22
ATOM     22  C   UNL     1       5.410   2.014  -0.037  1.00  0.00     0.275 C 
BRANCH  22  23
ATOM     23  O   UNL     1       4.731   1.301   1.004  1.00  0.00    -0.458 OA
BRANCH  23  24
ATOM     24  C   UNL     1       4.036   2.046   1.892  1.00  0.00     0.338 C 
ATOM     25  O   UNL     1       3.887   3.255   1.924  1.00  0.00    -0.246 OA
BRANCH  24  26
ATOM     26  C   UNL     1       3.349   1.125   2.793  1.00  0.00     0.060 A 
ATOM     27  C   UNL     1       2.102   0.659   2.393  1.00  0.00     0.016 A 
ATOM     28  C   UNL     1       3.902   0.738   4.008  1.00  0.00     0.016 A 
ATOM     29  C   UNL     1       1.372  -0.186   3.204  1.00  0.00     0.010 A 
ATOM     30  C   UNL     1       3.199  -0.169   4.803  1.00  0.00     0.010 A 
ATOM     31  C   UNL     1       1.927  -0.626   4.407  1.00  0.00    -0.014 A 
BRANCH  31  32
ATOM     32  C   UNL     1       1.124  -1.519   5.267  1.00  0.00     0.031 A 
ATOM     33  C   UNL     1       0.616  -0.999   6.576  1.00  0.00     0.074 A 
ATOM     34  C   UNL     1       0.807  -2.753   4.832  1.00  0.00     0.049 A 
ATOM     35  N   UNL     1      -0.034  -1.625   7.520  1.00  0.00    -0.248 NA
ATOM     36  C   UNL     1       0.882   0.420   6.865  1.00  0.00     0.031 C 
ATOM     37  C   UNL     1       1.191  -3.318   3.535  1.00  0.00     0.029 A 
ATOM     38  N   UNL     1       0.073  -3.747   5.422  1.00  0.00    -0.354 N 
ATOM     39  C   UNL     1      -0.215  -0.691   8.531  1.00  0.00     0.074 A 
ATOM     40  C   UNL     1       0.408   0.539   8.095  1.00  0.00     0.031 C 
ATOM     41  C   UNL     1       0.663  -4.546   3.416  1.00  0.00     0.029 A 
ATOM     42  C   UNL     1      -0.031  -4.881   4.653  1.00  0.00     0.049 A 
ATOM     43  H   UNL     1      -0.341  -3.658   6.311  1.00  0.00     0.167 HD
ATOM     44  C   UNL     1      -0.847  -0.855   9.716  1.00  0.00     0.037 A 
ATOM     45  C   UNL     1      -0.599  -6.067   4.938  1.00  0.00     0.037 A 
ATOM     46  C   UNL     1      -1.479  -2.086  10.112  1.00  0.00     0.049 A 
ATOM     47  C   UNL     1      -1.245  -6.238   6.285  1.00  0.00     0.074 A 
ATOM     48  C   UNL     1      -2.140  -2.379  11.290  1.00  0.00     0.029 A 
ATOM     49  N   UNL     1      -1.529  -3.230   9.327  1.00  0.00    -0.354 N 
ATOM     50  N   UNL     1      -1.378  -5.365   7.256  1.00  0.00    -0.248 NA
ATOM     51  C   UNL     1      -1.815  -7.558   6.579  1.00  0.00     0.031 C 
ATOM     52  C   UNL     1      -2.543  -3.718  11.239  1.00  0.00     0.029 A 
ATOM     53  C   UNL     1      -2.196  -4.238  10.001  1.00  0.00     0.049 A 
ATOM     54  H   UNL     1      -1.147  -3.313   8.423  1.00  0.00     0.167 HD
ATOM     55  C   UNL     1      -2.079  -6.017   8.261  1.00  0.00     0.074 A 
ATOM     56  C   UNL     1      -2.353  -7.354   7.773  1.00  0.00     0.031 C 
ATOM     57  C   UNL     1      -2.466  -5.555   9.477  1.00  0.00     0.037 A 
BRANCH  44  58
ATOM     58  C   UNL     1      -0.823   0.302  10.674  1.00  0.00     0.057 A 
ATOM     59  C   UNL     1      -1.520   1.494  10.434  1.00  0.00     0.134 A 
ATOM     60  C   UNL     1      -0.065   0.227  11.850  1.00  0.00     0.134 A 
ATOM     61  F   UNL     1      -2.246   1.645   9.316  1.00  0.00    -0.206 F 
ATOM     62  C   UNL     1      -1.435   2.579  11.310  1.00  0.00     0.040 A 
ATOM     63  C   UNL     1       0.001   1.293  12.749  1.00  0.00     0.040 A 
ATOM     64  F   UNL     1       0.630  -0.883  12.143  1.00  0.00    -0.206 F 
ATOM     65  C   UNL     1      -0.677   2.478  12.474  1.00  0.00     0.006 A 
ENDBRANCH  44  58
BRANCH  45  66
ATOM     66  C   UNL     1      -0.564  -7.179   3.951  1.00  0.00     0.057 A 
ATOM     67  C   UNL     1      -1.738  -7.673   3.370  1.00  0.00     0.134 A 
ATOM     68  C   UNL     1       0.640  -7.790   3.579  1.00  0.00     0.134 A 
ATOM     69  F   UNL     1      -2.927  -7.144   3.695  1.00  0.00    -0.206 F 
ATOM     70  C   UNL     1      -1.719  -8.747   2.476  1.00  0.00     0.040 A 
ATOM     71  C   UNL     1       0.678  -8.843   2.663  1.00  0.00     0.040 A 
ATOM     72  F   UNL     1       1.804  -7.364   4.092  1.00  0.00    -0.206 F 
ATOM     73  C   UNL     1      -0.507  -9.332   2.117  1.00  0.00     0.006 A 
ENDBRANCH  45  66
BRANCH  57  74
ATOM     74  C   UNL     1      -3.286  -6.484  10.323  1.00  0.00     0.057 A 
ATOM     75  C   UNL     1      -2.746  -7.633  10.915  1.00  0.00     0.134 A 
ATOM     76  C   UNL     1      -4.639  -6.207  10.561  1.00  0.00     0.134 A 
ATOM     77  F   UNL     1      -1.460  -7.961  10.715  1.00  0.00    -0.206 F 
ATOM     78  C   UNL     1      -3.532  -8.493  11.681  1.00  0.00     0.040 A 
ATOM     79  C   UNL     1      -5.425  -7.041  11.355  1.00  0.00     0.040 A 
ATOM     80  F   UNL     1      -5.215  -5.116  10.034  1.00  0.00    -0.206 F 
ATOM     81  C   UNL     1      -4.874  -8.194  11.909  1.00  0.00     0.006 A 
ENDBRANCH  57  74
ENDBRANCH  31  32
ENDBRANCH  24  26
ENDBRANCH  23  24
ENDBRANCH  22  23
ENDBRANCH   1  22
TORSDOF 15
