REMARK SMILES Cc1nc2sc3c(c2c2nc(CCC(=O)OCCOC(=O)c4ccc(-c5c6nc(c(-c7c(F)cccc7F)c7ccc([nH]7)c(-c7c(F)cccc7F)c7nc(c(-c8c(F)cccc8F)c8ccc5[nH]8)C=C7)C=C6)cc4)nn12)[C@@H](C)CCC3
REMARK SMILES IDX 17 1 16 2 14 3 15 4 13 5 12 6 11 7 1 8 2 9 3 10 77 11 4 12
REMARK SMILES IDX 9 13 76 14 5 15 8 16 10 17 6 18 7 19 82 20 78 21 81 22 79 23
REMARK SMILES IDX 80 24 18 25 19 26 20 27 21 28 22 29 23 30 75 31 24 32 74 33
REMARK SMILES IDX 25 34 26 35 27 36 68 37 28 38 73 39 67 40 69 41 29 42 72 43
REMARK SMILES IDX 66 44 65 45 30 47 56 48 39 49 55 50 40 51 43 52 54 53 70 54
REMARK SMILES IDX 41 55 42 56 53 58 71 59 44 60 31 61 32 62 37 63 33 64 34 65
REMARK SMILES IDX 36 66 38 67 35 68 57 69 58 70 63 71 59 72 60 73 62 74 64 75
REMARK SMILES IDX 61 76 45 77 46 78 51 79 47 80 48 81 50 82 52 83 49 84
REMARK H PARENT 69 46 43 57
REMARK Flexibility Score: inf
ROOT
ATOM      1  C   UNL     1       1.517   7.807  -2.822  1.00  0.00     0.274 C 
ENDROOT
BRANCH   1   2
ATOM      2  O   UNL     1       1.896   6.422  -2.717  1.00  0.00    -0.462 OA
BRANCH   2   3
ATOM      3  C   UNL     1       3.173   6.111  -3.051  1.00  0.00     0.306 C 
ATOM      4  O   UNL     1       4.015   6.913  -3.441  1.00  0.00    -0.252 OA
BRANCH   3   5
ATOM      5  C   UNL     1       3.421   4.627  -2.966  1.00  0.00     0.131 C 
BRANCH   5   6
ATOM      6  C   UNL     1       3.709   4.121  -1.560  1.00  0.00     0.091 C 
BRANCH   6   7
ATOM      7  C   UNL     1       2.495   3.669  -0.822  1.00  0.00     0.152 A 
ATOM      8  C   UNL     1       0.824  -0.009   0.050  1.00  0.00     0.090 C 
ATOM      9  C   UNL     1       0.315   1.328   0.487  1.00  0.00     0.131 A 
ATOM     10  N   UNL     1      -0.778   1.467   1.194  1.00  0.00    -0.222 NA
ATOM     11  N   UNL     1       1.073   2.418   0.045  1.00  0.00    -0.199 N 
ATOM     12  C   UNL     1      -1.160   2.761   1.455  1.00  0.00     0.129 A 
ATOM     13  C   UNL     1       0.725   3.714   0.311  1.00  0.00     0.168 A 
ATOM     14  N   UNL     1       2.192   2.363  -0.708  1.00  0.00    -0.150 NA
ATOM     15  S   UNL     1      -2.583   3.110   2.334  1.00  0.00    -0.120 S 
ATOM     16  C   UNL     1      -0.533   3.936   1.061  1.00  0.00     0.060 A 
ATOM     17  N   UNL     1       1.613   4.529  -0.204  1.00  0.00    -0.211 NA
ATOM     18  C   UNL     1      -2.381   4.789   2.124  1.00  0.00     0.011 A 
ATOM     19  C   UNL     1      -1.254   5.119   1.391  1.00  0.00    -0.018 A 
ATOM     20  C   UNL     1      -3.377   5.773   2.651  1.00  0.00     0.047 C 
ATOM     21  C   UNL     1      -0.937   6.545   1.015  1.00  0.00     0.018 C 
ATOM     22  C   UNL     1      -2.709   7.143   2.809  1.00  0.00     0.006 C 
ATOM     23  C   UNL     1      -0.859   6.696  -0.504  1.00  0.00     0.013 C 
ATOM     24  C   UNL     1      -2.004   7.556   1.516  1.00  0.00     0.008 C 
ENDBRANCH   6   7
ENDBRANCH   5   6
ENDBRANCH   3   5
ENDBRANCH   2   3
ENDBRANCH   1   2
BRANCH   1  25
ATOM     25  C   UNL     1       1.698   8.556  -1.508  1.00  0.00     0.275 C 
BRANCH  25  26
ATOM     26  O   UNL     1       3.032   9.015  -1.319  1.00  0.00    -0.458 OA
BRANCH  26  27
ATOM     27  C   UNL     1       3.793   8.163  -0.599  1.00  0.00     0.338 C 
ATOM     28  O   UNL     1       3.597   6.989  -0.352  1.00  0.00    -0.246 OA
BRANCH  27  29
ATOM     29  C   UNL     1       4.854   8.921   0.039  1.00  0.00     0.060 A 
ATOM     30  C   UNL     1       6.122   8.351   0.136  1.00  0.00     0.016 A 
ATOM     31  C   UNL     1       4.520  10.132   0.657  1.00  0.00     0.016 A 
ATOM     32  C   UNL     1       7.083   9.023   0.865  1.00  0.00     0.010 A 
ATOM     33  C   UNL     1       5.478  10.798   1.386  1.00  0.00     0.010 A 
ATOM     34  C   UNL     1       6.751  10.236   1.488  1.00  0.00    -0.014 A 
BRANCH  34  35
ATOM     35  C   UNL     1       7.837  11.011   2.061  1.00  0.00     0.031 A 
ATOM     36  C   UNL     1       8.783  11.541   1.047  1.00  0.00     0.074 A 
ATOM     37  C   UNL     1       7.890  11.398   3.348  1.00  0.00     0.049 A 
ATOM     38  N   UNL     1      10.050  11.312   0.945  1.00  0.00    -0.248 NA
ATOM     39  C   UNL     1       8.228  12.357  -0.048  1.00  0.00     0.031 C 
ATOM     40  C   UNL     1       6.823  11.277   4.343  1.00  0.00     0.029 A 
ATOM     41  N   UNL     1       8.863  12.097   4.004  1.00  0.00    -0.354 N 
ATOM     42  C   UNL     1      10.490  12.125  -0.095  1.00  0.00     0.074 A 
ATOM     43  C   UNL     1       9.319  12.616  -0.770  1.00  0.00     0.031 C 
ATOM     44  C   UNL     1       7.114  12.071   5.395  1.00  0.00     0.029 A 
ATOM     45  C   UNL     1       8.443  12.633   5.210  1.00  0.00     0.049 A 
ATOM     46  H   UNL     1       9.776  12.209   3.653  1.00  0.00     0.167 HD
ATOM     47  C   UNL     1      11.773  12.569  -0.129  1.00  0.00     0.037 A 
ATOM     48  C   UNL     1       9.111  13.523   5.979  1.00  0.00     0.037 A 
ATOM     49  C   UNL     1      12.625  11.817   0.749  1.00  0.00     0.049 A 
ATOM     50  C   UNL     1      10.554  13.452   5.646  1.00  0.00     0.074 A 
ATOM     51  C   UNL     1      13.331  10.637   0.716  1.00  0.00     0.029 A 
ATOM     52  N   UNL     1      12.568  12.224   2.050  1.00  0.00    -0.354 N 
ATOM     53  N   UNL     1      11.310  12.412   5.870  1.00  0.00    -0.248 NA
ATOM     54  C   UNL     1      11.146  14.483   4.797  1.00  0.00     0.031 C 
ATOM     55  C   UNL     1      13.627  10.304   2.073  1.00  0.00     0.029 A 
ATOM     56  C   UNL     1      13.091  11.288   2.898  1.00  0.00     0.049 A 
ATOM     57  H   UNL     1      12.195  13.087   2.342  1.00  0.00     0.167 HD
ATOM     58  C   UNL     1      12.277  12.476   4.889  1.00  0.00     0.074 A 
ATOM     59  C   UNL     1      12.242  13.841   4.387  1.00  0.00     0.031 C 
ATOM     60  C   UNL     1      12.772  11.349   4.305  1.00  0.00     0.037 A 
BRANCH  47  61
ATOM     61  C   UNL     1      12.163  13.969  -0.542  1.00  0.00     0.057 A 
ATOM     62  C   UNL     1      13.525  14.275  -0.706  1.00  0.00     0.134 A 
ATOM     63  C   UNL     1      11.302  15.082  -0.456  1.00  0.00     0.134 A 
ATOM     64  F   UNL     1      14.447  13.302  -0.768  1.00  0.00    -0.206 F 
ATOM     65  C   UNL     1      13.999  15.593  -0.731  1.00  0.00     0.040 A 
ATOM     66  C   UNL     1      11.758  16.401  -0.533  1.00  0.00     0.040 A 
ATOM     67  F   UNL     1       9.997  14.958  -0.182  1.00  0.00    -0.206 F 
ATOM     68  C   UNL     1      13.115  16.661  -0.642  1.00  0.00     0.006 A 
ENDBRANCH  47  61
BRANCH  48  69
ATOM     69  C   UNL     1       8.555  14.587   6.844  1.00  0.00     0.057 A 
ATOM     70  C   UNL     1       9.353  15.219   7.809  1.00  0.00     0.134 A 
ATOM     71  C   UNL     1       7.315  15.193   6.575  1.00  0.00     0.134 A 
ATOM     72  F   UNL     1      10.568  14.738   8.109  1.00  0.00    -0.206 F 
ATOM     73  C   UNL     1       8.957  16.401   8.444  1.00  0.00     0.040 A 
ATOM     74  C   UNL     1       6.900  16.365   7.215  1.00  0.00     0.040 A 
ATOM     75  F   UNL     1       6.501  14.720   5.621  1.00  0.00    -0.206 F 
ATOM     76  C   UNL     1       7.730  16.983   8.141  1.00  0.00     0.006 A 
ENDBRANCH  48  69
BRANCH  60  77
ATOM     77  C   UNL     1      12.775  10.081   5.090  1.00  0.00     0.057 A 
ATOM     78  C   UNL     1      11.625   9.369   5.447  1.00  0.00     0.134 A 
ATOM     79  C   UNL     1      14.012   9.508   5.410  1.00  0.00     0.134 A 
ATOM     80  F   UNL     1      10.404   9.814   5.121  1.00  0.00    -0.206 F 
ATOM     81  C   UNL     1      11.708   8.143   6.116  1.00  0.00     0.040 A 
ATOM     82  C   UNL     1      14.108   8.273   6.050  1.00  0.00     0.040 A 
ATOM     83  F   UNL     1      15.153  10.127   5.064  1.00  0.00    -0.206 F 
ATOM     84  C   UNL     1      12.952   7.588   6.411  1.00  0.00     0.006 A 
ENDBRANCH  60  77
ENDBRANCH  34  35
ENDBRANCH  27  29
ENDBRANCH  26  27
ENDBRANCH  25  26
ENDBRANCH   1  25
TORSDOF 13
