REMARK SMILES CC(=O)O[C@H]1C[C@@H](C(=O)OCCOC(=O)c2ccc(-c3c4nc(c(-c5c(F)cccc5F)c5ccc([nH]5)c(-c5c(F)cccc5F)c5nc(c(-c6c(F)cccc6F)c6ccc3[nH]6)C=C5)C=C4)cc2)N(S(=O)(=O)c2ccc(F)cc2)C1
REMARK SMILES IDX 11 1 10 2 8 3 9 4 7 5 5 6 6 7 81 8 70 9 4 10 2 11 1 12 3 13
REMARK SMILES IDX 71 14 72 15 73 16 74 17 75 18 80 19 76 20 79 21 77 22 78 23
REMARK SMILES IDX 12 24 13 25 14 26 15 27 16 28 17 29 69 30 18 31 68 32 19 33
REMARK SMILES IDX 20 34 21 35 62 36 22 37 67 38 61 39 63 40 23 41 66 42 60 43
REMARK SMILES IDX 59 44 24 46 50 47 33 48 49 49 34 50 37 51 48 52 64 53 35 54
REMARK SMILES IDX 36 55 47 57 65 58 38 59 25 60 26 61 31 62 27 63 28 64 30 65
REMARK SMILES IDX 32 66 29 67 51 68 52 69 57 70 53 71 54 72 56 73 58 74 55 75
REMARK SMILES IDX 39 76 40 77 45 78 41 79 42 80 44 81 46 82 43 83
REMARK H PARENT 63 45 37 56
REMARK Flexibility Score: inf
ROOT
ATOM      1  C   UNL     1      -1.869  -5.776  -1.774  1.00  0.00     0.274 C 
ENDROOT
BRANCH   1   2
ATOM      2  O   UNL     1      -0.570  -5.200  -2.039  1.00  0.00    -0.461 OA
BRANCH   2   3
ATOM      3  C   UNL     1      -0.499  -4.467  -3.190  1.00  0.00     0.324 C 
ATOM      4  O   UNL     1      -1.494  -4.126  -3.808  1.00  0.00    -0.250 OA
BRANCH   3   5
ATOM      5  C   UNL     1       0.928  -4.084  -3.542  1.00  0.00     0.187 C 
ATOM      6  C   UNL     1       0.833  -1.799  -4.285  1.00  0.00     0.194 C 
ATOM      7  C   UNL     1       1.115  -2.660  -3.041  1.00  0.00     0.079 C 
ATOM      8  C   UNL     1       1.794  -2.544  -5.213  1.00  0.00     0.148 C 
ATOM      9  N   UNL     1       1.479  -4.002  -4.941  1.00  0.00    -0.180 NA
BRANCH   6  10
ATOM     10  O   UNL     1      -0.450  -1.842  -5.075  1.00  0.00    -0.461 OA
BRANCH  10  11
ATOM     11  C   UNL     1      -1.622  -1.864  -5.699  1.00  0.00     0.302 C 
ATOM     12  C   UNL     1      -2.915  -1.776  -4.952  1.00  0.00     0.139 C 
ATOM     13  O   UNL     1      -1.652  -1.781  -6.929  1.00  0.00    -0.253 OA
ENDBRANCH  10  11
ENDBRANCH   6  10
BRANCH   9  14
ATOM     14  S   UNL     1       0.717  -4.748  -6.264  1.00  0.00     0.243 S 
ATOM     15  O   UNL     1      -0.639  -4.289  -6.397  1.00  0.00    -0.207 OA
ATOM     16  O   UNL     1       1.643  -4.648  -7.373  1.00  0.00    -0.207 OA
BRANCH  14  17
ATOM     17  C   UNL     1       0.591  -6.449  -5.820  1.00  0.00     0.082 A 
ATOM     18  C   UNL     1       1.550  -7.350  -6.273  1.00  0.00     0.025 A 
ATOM     19  C   UNL     1      -0.570  -6.899  -5.177  1.00  0.00     0.025 A 
ATOM     20  C   UNL     1       1.369  -8.707  -6.017  1.00  0.00     0.040 A 
ATOM     21  C   UNL     1      -0.718  -8.244  -4.872  1.00  0.00     0.040 A 
ATOM     22  C   UNL     1       0.254  -9.137  -5.299  1.00  0.00     0.123 A 
ATOM     23  F   UNL     1       0.098 -10.440  -5.043  1.00  0.00    -0.207 F 
ENDBRANCH  14  17
ENDBRANCH   9  14
ENDBRANCH   3   5
ENDBRANCH   2   3
ENDBRANCH   1   2
BRANCH   1  24
ATOM     24  C   UNL     1      -2.797  -4.930  -0.884  1.00  0.00     0.275 C 
BRANCH  24  25
ATOM     25  O   UNL     1      -3.074  -3.604  -1.395  1.00  0.00    -0.458 OA
BRANCH  25  26
ATOM     26  C   UNL     1      -2.558  -2.568  -0.681  1.00  0.00     0.338 C 
ATOM     27  O   UNL     1      -1.845  -2.662   0.306  1.00  0.00    -0.246 OA
BRANCH  26  28
ATOM     28  C   UNL     1      -2.695  -1.284  -1.419  1.00  0.00     0.060 A 
ATOM     29  C   UNL     1      -1.583  -0.948  -2.169  1.00  0.00     0.016 A 
ATOM     30  C   UNL     1      -3.740  -0.380  -1.403  1.00  0.00     0.016 A 
ATOM     31  C   UNL     1      -1.429   0.225  -2.892  1.00  0.00     0.010 A 
ATOM     32  C   UNL     1      -3.651   0.783  -2.222  1.00  0.00     0.010 A 
ATOM     33  C   UNL     1      -2.499   1.081  -3.004  1.00  0.00    -0.014 A 
BRANCH  33  34
ATOM     34  C   UNL     1      -2.322   2.333  -3.800  1.00  0.00     0.031 A 
ATOM     35  C   UNL     1      -2.219   3.594  -3.022  1.00  0.00     0.074 A 
ATOM     36  C   UNL     1      -2.066   2.412  -5.129  1.00  0.00     0.049 A 
ATOM     37  N   UNL     1      -2.245   4.826  -3.437  1.00  0.00    -0.248 NA
ATOM     38  C   UNL     1      -1.995   3.427  -1.578  1.00  0.00     0.031 C 
ATOM     39  C   UNL     1      -1.675   1.314  -5.991  1.00  0.00     0.029 A 
ATOM     40  N   UNL     1      -2.105   3.470  -6.011  1.00  0.00    -0.354 N 
ATOM     41  C   UNL     1      -2.048   5.587  -2.303  1.00  0.00     0.074 A 
ATOM     42  C   UNL     1      -1.971   4.684  -1.176  1.00  0.00     0.031 C 
ATOM     43  C   UNL     1      -1.701   1.676  -7.282  1.00  0.00     0.029 A 
ATOM     44  C   UNL     1      -2.051   3.081  -7.341  1.00  0.00     0.049 A 
ATOM     45  H   UNL     1      -2.165   4.410  -5.726  1.00  0.00     0.167 HD
ATOM     46  C   UNL     1      -1.914   6.926  -2.219  1.00  0.00     0.037 A 
ATOM     47  C   UNL     1      -2.259   3.777  -8.476  1.00  0.00     0.037 A 
ATOM     48  C   UNL     1      -2.000   7.807  -3.346  1.00  0.00     0.049 A 
ATOM     49  C   UNL     1      -2.421   5.262  -8.343  1.00  0.00     0.074 A 
ATOM     50  C   UNL     1      -1.999   9.187  -3.358  1.00  0.00     0.029 A 
ATOM     51  N   UNL     1      -2.113   7.388  -4.666  1.00  0.00    -0.354 N 
ATOM     52  N   UNL     1      -2.350   5.992  -7.257  1.00  0.00    -0.248 NA
ATOM     53  C   UNL     1      -2.630   6.031  -9.576  1.00  0.00     0.031 C 
ATOM     54  C   UNL     1      -2.189   9.605  -4.679  1.00  0.00     0.029 A 
ATOM     55  C   UNL     1      -2.229   8.487  -5.499  1.00  0.00     0.049 A 
ATOM     56  H   UNL     1      -2.111   6.450  -4.964  1.00  0.00     0.167 HD
ATOM     57  C   UNL     1      -2.427   7.308  -7.679  1.00  0.00     0.074 A 
ATOM     58  C   UNL     1      -2.566   7.275  -9.122  1.00  0.00     0.031 C 
ATOM     59  C   UNL     1      -2.361   8.438  -6.935  1.00  0.00     0.037 A 
BRANCH  46  60
ATOM     60  C   UNL     1      -1.780   7.466  -0.833  1.00  0.00     0.057 A 
ATOM     61  C   UNL     1      -0.631   7.253  -0.058  1.00  0.00     0.134 A 
ATOM     62  C   UNL     1      -2.883   8.067  -0.219  1.00  0.00     0.134 A 
ATOM     63  F   UNL     1       0.435   6.624  -0.577  1.00  0.00    -0.206 F 
ATOM     64  C   UNL     1      -0.607   7.572   1.299  1.00  0.00     0.040 A 
ATOM     65  C   UNL     1      -2.857   8.421   1.128  1.00  0.00     0.040 A 
ATOM     66  F   UNL     1      -4.018   8.270  -0.904  1.00  0.00    -0.206 F 
ATOM     67  C   UNL     1      -1.723   8.158   1.894  1.00  0.00     0.006 A 
ENDBRANCH  46  60
BRANCH  47  68
ATOM     68  C   UNL     1      -2.326   3.122  -9.816  1.00  0.00     0.057 A 
ATOM     69  C   UNL     1      -1.374   3.376 -10.812  1.00  0.00     0.134 A 
ATOM     70  C   UNL     1      -3.415   2.314 -10.174  1.00  0.00     0.134 A 
ATOM     71  F   UNL     1      -0.322   4.166 -10.552  1.00  0.00    -0.206 F 
ATOM     72  C   UNL     1      -1.520   2.889 -12.116  1.00  0.00     0.040 A 
ATOM     73  C   UNL     1      -3.562   1.802 -11.468  1.00  0.00     0.040 A 
ATOM     74  F   UNL     1      -4.379   2.043  -9.282  1.00  0.00    -0.206 F 
ATOM     75  C   UNL     1      -2.619   2.101 -12.448  1.00  0.00     0.006 A 
ENDBRANCH  47  68
BRANCH  59  76
ATOM     76  C   UNL     1      -2.392   9.742  -7.669  1.00  0.00     0.057 A 
ATOM     77  C   UNL     1      -3.548  10.210  -8.305  1.00  0.00     0.134 A 
ATOM     78  C   UNL     1      -1.264  10.573  -7.674  1.00  0.00     0.134 A 
ATOM     79  F   UNL     1      -4.656   9.455  -8.348  1.00  0.00    -0.206 F 
ATOM     80  C   UNL     1      -3.576  11.455  -8.932  1.00  0.00     0.040 A 
ATOM     81  C   UNL     1      -1.292  11.835  -8.265  1.00  0.00     0.040 A 
ATOM     82  F   UNL     1      -0.127  10.184  -7.077  1.00  0.00    -0.206 F 
ATOM     83  C   UNL     1      -2.450  12.276  -8.901  1.00  0.00     0.006 A 
ENDBRANCH  59  76
ENDBRANCH  33  34
ENDBRANCH  26  28
ENDBRANCH  25  26
ENDBRANCH  24  25
ENDBRANCH   1  24
TORSDOF 15
