REMARK SMILES Cc1ccc(C(N)=O)c(NCc2ccc(C(=O)OCCOC(=O)c3ccc(-c4c5nc(c(-c6c(F)cccc6F)c6ccc([nH]6)c(-c6c(F)cccc6F)c6nc(c(-c7c(F)cccc7F)c7ccc4[nH]7)C=C6)C=C5)cc3)o2)n1
REMARK SMILES IDX 19 1 18 2 16 3 17 4 15 5 12 6 13 7 78 8 14 9 11 10 10 11
REMARK SMILES IDX 9 13 1 14 2 15 3 16 79 17 4 18 5 19 6 20 7 21 8 22 20 25
REMARK SMILES IDX 21 26 22 27 23 28 24 29 25 30 77 31 26 32 76 33 27 34 28 35
REMARK SMILES IDX 29 36 70 37 30 38 75 39 69 40 71 41 31 42 74 43 68 44 67 45
REMARK SMILES IDX 32 47 58 48 41 49 57 50 42 51 45 52 56 53 72 54 43 55 44 56
REMARK SMILES IDX 55 58 73 59 46 60 33 61 34 62 39 63 35 64 36 65 38 66 40 67
REMARK SMILES IDX 37 68 59 69 60 70 65 71 61 72 62 73 64 74 66 75 63 76 47 77
REMARK SMILES IDX 48 78 53 79 49 80 50 81 52 82 54 83 51 84
REMARK H PARENT 10 12 7 23 7 24 71 46 45 57
REMARK Flexibility Score: inf
ROOT
ATOM      1  C   UNL     1      -0.964   9.140  -4.763  1.00  0.00     0.275 C 
ENDROOT
BRANCH   1   2
ATOM      2  O   UNL     1      -1.053   7.732  -4.479  1.00  0.00    -0.456 OA
BRANCH   2   3
ATOM      3  C   UNL     1      -0.279   7.288  -3.445  1.00  0.00     0.374 C 
ATOM      4  O   UNL     1       0.544   7.977  -2.853  1.00  0.00    -0.242 OA
BRANCH   3   5
ATOM      5  C   UNL     1      -0.648   5.938  -3.088  1.00  0.00     0.211 A 
ATOM      6  C   UNL     1      -0.831   4.269  -1.649  1.00  0.00     0.124 A 
ATOM      7  C   UNL     1      -1.515   3.882  -2.782  1.00  0.00     0.048 A 
ATOM      8  O   UNL     1      -0.252   5.484  -1.857  1.00  0.00    -0.452 OA
ATOM      9  C   UNL     1      -1.412   4.960  -3.700  1.00  0.00     0.058 A 
BRANCH   6  10
ATOM     10  C   UNL     1      -0.645   3.695  -0.283  1.00  0.00     0.190 C 
BRANCH  10  11
ATOM     11  N   UNL     1      -1.512   2.567   0.029  1.00  0.00    -0.362 N 
ATOM     12  H   UNL     1      -2.452   2.719   0.279  1.00  0.00     0.162 HD
BRANCH  11  13
ATOM     13  C   UNL     1      -1.005   1.274  -0.027  1.00  0.00     0.139 A 
ATOM     14  C   UNL     1       2.393  -0.146  -0.131  1.00  0.00     0.067 C 
ATOM     15  C   UNL     1       0.896  -0.094  -0.100  1.00  0.00     0.040 A 
ATOM     16  C   UNL     1       0.137  -1.248  -0.019  1.00  0.00     0.024 A 
ATOM     17  N   UNL     1       0.340   1.140  -0.118  1.00  0.00    -0.236 NA
ATOM     18  C   UNL     1      -1.247  -1.123   0.038  1.00  0.00     0.019 A 
ATOM     19  C   UNL     1      -1.838   0.148   0.028  1.00  0.00     0.081 A 
BRANCH  19  20
ATOM     20  C   UNL     1      -3.325   0.199   0.074  1.00  0.00     0.252 C 
ATOM     21  N   UNL     1      -3.945   1.336  -0.360  1.00  0.00    -0.365 N 
ATOM     22  O   UNL     1      -3.987  -0.759   0.456  1.00  0.00    -0.269 OA
ATOM     23  H   UNL     1      -3.409   2.103  -0.666  1.00  0.00     0.159 HD
ATOM     24  H   UNL     1      -4.928   1.388  -0.366  1.00  0.00     0.159 HD
ENDBRANCH  19  20
ENDBRANCH  11  13
ENDBRANCH  10  11
ENDBRANCH   6  10
ENDBRANCH   3   5
ENDBRANCH   2   3
ENDBRANCH   1   2
BRANCH   1  25
ATOM     25  C   UNL     1      -2.087   9.928  -4.076  1.00  0.00     0.275 C 
BRANCH  25  26
ATOM     26  O   UNL     1      -1.906  10.002  -2.648  1.00  0.00    -0.458 OA
BRANCH  26  27
ATOM     27  C   UNL     1      -2.535   9.039  -1.932  1.00  0.00     0.338 C 
ATOM     28  O   UNL     1      -3.242   8.146  -2.369  1.00  0.00    -0.246 OA
BRANCH  27  29
ATOM     29  C   UNL     1      -2.138   9.121  -0.514  1.00  0.00     0.060 A 
ATOM     30  C   UNL     1      -1.632   7.965   0.084  1.00  0.00     0.016 A 
ATOM     31  C   UNL     1      -2.312  10.284   0.240  1.00  0.00     0.016 A 
ATOM     32  C   UNL     1      -1.285   7.961   1.431  1.00  0.00     0.010 A 
ATOM     33  C   UNL     1      -1.976  10.277   1.601  1.00  0.00     0.010 A 
ATOM     34  C   UNL     1      -1.466   9.114   2.204  1.00  0.00    -0.014 A 
BRANCH  34  35
ATOM     35  C   UNL     1      -1.161   9.068   3.653  1.00  0.00     0.031 A 
ATOM     36  C   UNL     1      -2.273   8.913   4.649  1.00  0.00     0.074 A 
ATOM     37  C   UNL     1       0.117   9.112   4.071  1.00  0.00     0.049 A 
ATOM     38  N   UNL     1      -2.212   8.859   5.955  1.00  0.00    -0.248 NA
ATOM     39  C   UNL     1      -3.634   8.799   4.103  1.00  0.00     0.031 C 
ATOM     40  C   UNL     1       1.286   9.216   3.199  1.00  0.00     0.029 A 
ATOM     41  N   UNL     1       0.644   9.069   5.337  1.00  0.00    -0.354 N 
ATOM     42  C   UNL     1      -3.522   8.713   6.389  1.00  0.00     0.074 A 
ATOM     43  C   UNL     1      -4.360   8.704   5.208  1.00  0.00     0.031 C 
ATOM     44  C   UNL     1       2.396   9.226   3.956  1.00  0.00     0.029 A 
ATOM     45  C   UNL     1       2.014   9.162   5.365  1.00  0.00     0.049 A 
ATOM     46  H   UNL     1       0.093   8.980   6.148  1.00  0.00     0.167 HD
ATOM     47  C   UNL     1      -3.984   8.592   7.656  1.00  0.00     0.037 A 
ATOM     48  C   UNL     1       2.862   9.206   6.409  1.00  0.00     0.037 A 
ATOM     49  C   UNL     1      -3.153   8.594   8.831  1.00  0.00     0.049 A 
ATOM     50  C   UNL     1       2.318   9.128   7.809  1.00  0.00     0.074 A 
ATOM     51  C   UNL     1      -3.532   8.467  10.157  1.00  0.00     0.029 A 
ATOM     52  N   UNL     1      -1.774   8.732   8.821  1.00  0.00    -0.354 N 
ATOM     53  N   UNL     1       1.077   8.987   8.206  1.00  0.00    -0.248 NA
ATOM     54  C   UNL     1       3.294   9.220   8.905  1.00  0.00     0.031 C 
ATOM     55  C   UNL     1      -2.384   8.563  10.952  1.00  0.00     0.029 A 
ATOM     56  C   UNL     1      -1.287   8.713  10.118  1.00  0.00     0.049 A 
ATOM     57  H   UNL     1      -1.221   8.829   8.012  1.00  0.00     0.167 HD
ATOM     58  C   UNL     1       1.123   8.956   9.593  1.00  0.00     0.074 A 
ATOM     59  C   UNL     1       2.516   9.080   9.970  1.00  0.00     0.031 C 
ATOM     60  C   UNL     1       0.102   8.837  10.476  1.00  0.00     0.037 A 
BRANCH  47  61
ATOM     61  C   UNL     1      -5.467   8.470   7.838  1.00  0.00     0.057 A 
ATOM     62  C   UNL     1      -6.150   7.282   7.553  1.00  0.00     0.134 A 
ATOM     63  C   UNL     1      -6.214   9.546   8.332  1.00  0.00     0.134 A 
ATOM     64  F   UNL     1      -5.492   6.221   7.062  1.00  0.00    -0.206 F 
ATOM     65  C   UNL     1      -7.529   7.173   7.737  1.00  0.00     0.040 A 
ATOM     66  C   UNL     1      -7.591   9.444   8.539  1.00  0.00     0.040 A 
ATOM     67  F   UNL     1      -5.618  10.711   8.627  1.00  0.00    -0.206 F 
ATOM     68  C   UNL     1      -8.252   8.255   8.237  1.00  0.00     0.006 A 
ENDBRANCH  47  61
BRANCH  48  69
ATOM     69  C   UNL     1       4.319   9.346   6.172  1.00  0.00     0.057 A 
ATOM     70  C   UNL     1       5.198   8.285   6.411  1.00  0.00     0.134 A 
ATOM     71  C   UNL     1       4.866  10.549   5.709  1.00  0.00     0.134 A 
ATOM     72  F   UNL     1       4.734   7.117   6.879  1.00  0.00    -0.206 F 
ATOM     73  C   UNL     1       6.573   8.416   6.208  1.00  0.00     0.040 A 
ATOM     74  C   UNL     1       6.235  10.688   5.481  1.00  0.00     0.040 A 
ATOM     75  F   UNL     1       4.074  11.603   5.465  1.00  0.00    -0.206 F 
ATOM     76  C   UNL     1       7.094   9.620   5.736  1.00  0.00     0.006 A 
ENDBRANCH  48  69
BRANCH  60  77
ATOM     77  C   UNL     1       0.457   8.815  11.932  1.00  0.00     0.057 A 
ATOM     78  C   UNL     1       0.817   9.981  12.618  1.00  0.00     0.134 A 
ATOM     79  C   UNL     1       0.404   7.622  12.663  1.00  0.00     0.134 A 
ATOM     80  F   UNL     1       0.899  11.153  11.970  1.00  0.00    -0.206 F 
ATOM     81  C   UNL     1       1.129   9.959  13.978  1.00  0.00     0.040 A 
ATOM     82  C   UNL     1       0.695   7.590  14.027  1.00  0.00     0.040 A 
ATOM     83  F   UNL     1       0.060   6.471  12.065  1.00  0.00    -0.206 F 
ATOM     84  C   UNL     1       1.063   8.760  14.688  1.00  0.00     0.006 A 
ENDBRANCH  60  77
ENDBRANCH  34  35
ENDBRANCH  27  29
ENDBRANCH  26  27
ENDBRANCH  25  26
ENDBRANCH   1  25
TORSDOF 15
