REMARK SMILES O=C(OCCOC(=O)c1ccccc1-c1ccc(/C=C2\C(=O)N(c3cccc(Br)c3)C(=O)N=C2O)o1)c1ccc(-c2c3nc(c(-c4c(F)cccc4F)c4ccc([nH]4)c(-c4c(F)cccc4F)c4nc(c(-c5c(F)cccc5F)c5ccc2[nH]5)C=C4)C=C3)cc1
REMARK SMILES IDX 5 1 4 2 3 3 2 4 1 5 37 6 38 7 90 8 39 9 89 10 40 11 41 12
REMARK SMILES IDX 42 13 83 14 43 15 88 16 82 17 84 18 44 19 87 20 81 21 80 22
REMARK SMILES IDX 45 24 71 25 54 26 70 27 55 28 58 29 69 30 85 31 56 32 57 33
REMARK SMILES IDX 68 35 86 36 59 37 46 38 47 39 52 40 48 41 49 42 51 43 53 44
REMARK SMILES IDX 50 45 72 46 73 47 78 48 74 49 75 50 77 51 79 52 76 53 60 54
REMARK SMILES IDX 61 55 66 56 62 57 63 58 65 59 67 60 64 61 6 62 7 63 8 64
REMARK SMILES IDX 9 65 10 66 14 67 11 68 13 69 12 70 15 71 16 72 36 73 17 74
REMARK SMILES IDX 18 75 19 76 20 77 21 78 34 79 22 80 23 81 33 82 31 83 32 84
REMARK SMILES IDX 35 85 24 87 25 88 30 89 26 90 28 91 27 92 29 93
REMARK H PARENT 84 23 58 34 35 86
REMARK Flexibility Score: inf
ROOT
ATOM      1  C   UNL     1       4.118  -0.314   1.929  1.00  0.00     0.275 C 
ENDROOT
BRANCH   1   2
ATOM      2  C   UNL     1       4.247   0.967   1.100  1.00  0.00     0.275 C 
BRANCH   2   3
ATOM      3  O   UNL     1       3.062   1.286   0.338  1.00  0.00    -0.458 OA
BRANCH   3   4
ATOM      4  C   UNL     1       2.721   1.038  -0.952  1.00  0.00     0.338 C 
ATOM      5  O   UNL     1       1.778   1.668  -1.432  1.00  0.00    -0.246 OA
BRANCH   4   6
ATOM      6  C   UNL     1       3.316  -0.047  -1.803  1.00  0.00     0.060 A 
ATOM      7  C   UNL     1       4.486  -0.732  -1.532  1.00  0.00     0.016 A 
ATOM      8  C   UNL     1       2.600  -0.458  -2.948  1.00  0.00     0.016 A 
ATOM      9  C   UNL     1       4.843  -1.860  -2.273  1.00  0.00     0.010 A 
ATOM     10  C   UNL     1       2.978  -1.592  -3.703  1.00  0.00     0.010 A 
ATOM     11  C   UNL     1       4.086  -2.353  -3.332  1.00  0.00    -0.014 A 
BRANCH  11  12
ATOM     12  C   UNL     1       4.531  -3.527  -4.122  1.00  0.00     0.031 A 
ATOM     13  C   UNL     1       5.419  -3.277  -5.252  1.00  0.00     0.074 A 
ATOM     14  C   UNL     1       4.608  -4.828  -3.794  1.00  0.00     0.049 A 
ATOM     15  N   UNL     1       5.689  -4.125  -6.651  1.00  0.00    -0.248 NA
ATOM     16  C   UNL     1       6.620  -1.658  -5.227  1.00  0.00     0.031 C 
ATOM     17  C   UNL     1       4.351  -5.314  -2.474  1.00  0.00     0.029 A 
ATOM     18  N   UNL     1       5.029  -5.953  -4.472  1.00  0.00    -0.354 N 
ATOM     19  C   UNL     1       7.026  -3.256  -7.611  1.00  0.00     0.074 A 
ATOM     20  C   UNL     1       7.527  -1.740  -6.541  1.00  0.00     0.031 C 
ATOM     21  C   UNL     1       4.525  -6.638  -2.411  1.00  0.00     0.029 A 
ATOM     22  C   UNL     1       4.913  -7.106  -3.733  1.00  0.00     0.049 A 
ATOM     23  H   UNL     1       5.378  -5.932  -5.392  1.00  0.00     0.167 HD
ATOM     24  C   UNL     1       7.565  -3.570  -8.819  1.00  0.00     0.037 A 
ATOM     25  C   UNL     1       5.090  -8.399  -4.059  1.00  0.00     0.037 A 
ATOM     26  C   UNL     1       7.663  -4.928  -9.305  1.00  0.00     0.049 A 
ATOM     27  C   UNL     1       5.727  -8.741  -5.384  1.00  0.00     0.074 A 
ATOM     28  C   UNL     1       8.693  -5.438 -10.073  1.00  0.00     0.029 A 
ATOM     29  N   UNL     1       6.886  -6.027  -8.914  1.00  0.00    -0.354 N 
ATOM     30  N   UNL     1       6.114  -7.957  -6.368  1.00  0.00    -0.248 NA
ATOM     31  C   UNL     1       6.014 -10.161  -5.605  1.00  0.00     0.031 C 
ATOM     32  C   UNL     1       8.705  -6.825  -9.887  1.00  0.00     0.029 A 
ATOM     33  C   UNL     1       7.657  -7.181  -9.044  1.00  0.00     0.049 A 
ATOM     34  H   UNL     1       5.954  -5.990  -8.600  1.00  0.00     0.167 HD
ATOM     35  C   UNL     1       6.737  -8.777  -7.304  1.00  0.00     0.074 A 
ATOM     36  C   UNL     1       6.653 -10.127  -6.764  1.00  0.00     0.031 C 
ATOM     37  C   UNL     1       7.388  -8.483  -8.464  1.00  0.00     0.037 A 
BRANCH  24  38
ATOM     38  C   UNL     1       8.270  -2.468  -9.533  1.00  0.00     0.057 A 
ATOM     39  C   UNL     1       9.406  -1.809  -9.055  1.00  0.00     0.134 A 
ATOM     40  C   UNL     1       7.767  -2.054 -10.775  1.00  0.00     0.134 A 
ATOM     41  F   UNL     1       9.985  -2.188  -7.906  1.00  0.00    -0.206 F 
ATOM     42  C   UNL     1       9.957  -0.717  -9.729  1.00  0.00     0.040 A 
ATOM     43  C   UNL     1       8.340  -0.999 -11.485  1.00  0.00     0.040 A 
ATOM     44  F   UNL     1       6.708  -2.673 -11.319  1.00  0.00    -0.206 F 
ATOM     45  C   UNL     1       9.424  -0.310 -10.950  1.00  0.00     0.006 A 
ENDBRANCH  24  38
BRANCH  25  46
ATOM     46  C   UNL     1       4.596  -9.447  -3.109  1.00  0.00     0.057 A 
ATOM     47  C   UNL     1       5.435 -10.344  -2.438  1.00  0.00     0.134 A 
ATOM     48  C   UNL     1       3.218  -9.559  -2.847  1.00  0.00     0.134 A 
ATOM     49  F   UNL     1       6.763 -10.293  -2.618  1.00  0.00    -0.206 F 
ATOM     50  C   UNL     1       4.926 -11.335  -1.587  1.00  0.00     0.040 A 
ATOM     51  C   UNL     1       2.700 -10.522  -1.977  1.00  0.00     0.040 A 
ATOM     52  F   UNL     1       2.349  -8.717  -3.425  1.00  0.00    -0.206 F 
ATOM     53  C   UNL     1       3.554 -11.426  -1.355  1.00  0.00     0.006 A 
ENDBRANCH  25  46
BRANCH  37  54
ATOM     54  C   UNL     1       8.036  -9.656  -9.142  1.00  0.00     0.057 A 
ATOM     55  C   UNL     1       7.283 -10.543  -9.914  1.00  0.00     0.134 A 
ATOM     56  C   UNL     1       9.413  -9.896  -9.023  1.00  0.00     0.134 A 
ATOM     57  F   UNL     1       5.953 -10.399 -10.007  1.00  0.00    -0.206 F 
ATOM     58  C   UNL     1       7.881 -11.622 -10.564  1.00  0.00     0.040 A 
ATOM     59  C   UNL     1      10.028 -10.949  -9.697  1.00  0.00     0.040 A 
ATOM     60  F   UNL     1      10.182  -9.099  -8.264  1.00  0.00    -0.206 F 
ATOM     61  C   UNL     1       9.259 -11.815 -10.472  1.00  0.00     0.006 A 
ENDBRANCH  37  54
ENDBRANCH  11  12
ENDBRANCH   4   6
ENDBRANCH   3   4
ENDBRANCH   2   3
ENDBRANCH   1   2
BRANCH   1  62
ATOM     62  O   UNL     1       3.660  -1.415   1.141  1.00  0.00    -0.458 OA
BRANCH  62  63
ATOM     63  C   UNL     1       2.334  -1.673   1.217  1.00  0.00     0.338 C 
ATOM     64  O   UNL     1       1.510  -1.094   1.904  1.00  0.00    -0.246 OA
BRANCH  63  65
ATOM     65  C   UNL     1       1.974  -2.714   0.243  1.00  0.00     0.071 A 
ATOM     66  C   UNL     1       0.963  -2.376  -0.680  1.00  0.00     0.016 A 
ATOM     67  C   UNL     1       2.575  -3.981   0.234  1.00  0.00     0.032 A 
ATOM     68  C   UNL     1       0.562  -3.290  -1.649  1.00  0.00     0.001 A 
ATOM     69  C   UNL     1       2.025  -4.933  -0.641  1.00  0.00     0.013 A 
ATOM     70  C   UNL     1       1.079  -4.578  -1.617  1.00  0.00     0.001 A 
BRANCH  67  71
ATOM     71  C   UNL     1       3.743  -4.311   1.066  1.00  0.00     0.135 A 
ATOM     72  C   UNL     1       3.930  -4.402   2.421  1.00  0.00     0.051 A 
ATOM     73  O   UNL     1       4.959  -4.483   0.436  1.00  0.00    -0.457 OA
ATOM     74  C   UNL     1       5.311  -4.638   2.616  1.00  0.00     0.051 A 
ATOM     75  C   UNL     1       5.952  -4.690   1.376  1.00  0.00     0.128 A 
BRANCH  75  76
ATOM     76  C   UNL     1       7.357  -4.955   1.197  1.00  0.00     0.066 C 
ATOM     77  C   UNL     1       8.196  -4.842   0.142  1.00  0.00     0.106 C 
ATOM     78  C   UNL     1       7.905  -4.391  -1.240  1.00  0.00     0.272 C 
ATOM     79  C   UNL     1       9.601  -5.218   0.340  1.00  0.00     0.228 C 
ATOM     80  O   UNL     1       6.780  -4.014  -1.518  1.00  0.00    -0.268 OA
ATOM     81  N   UNL     1       8.954  -4.470  -2.156  1.00  0.00    -0.226 N 
ATOM     82  N   UNL     1      10.544  -5.196  -0.513  1.00  0.00    -0.156 NA
ATOM     83  C   UNL     1      10.274  -4.809  -1.797  1.00  0.00     0.358 C 
ATOM     84  O   UNL     1      11.208  -4.768  -2.594  1.00  0.00    -0.245 OA
BRANCH  79  85
ATOM     85  O   UNL     1       9.949  -5.632   1.565  1.00  0.00    -0.493 OA
ATOM     86  H   UNL     1       9.306  -5.675   2.245  1.00  0.00     0.295 HD
ENDBRANCH  79  85
BRANCH  81  87
ATOM     87  C   UNL     1       8.641  -4.438  -3.573  1.00  0.00     0.055 A 
ATOM     88  C   UNL     1       9.096  -5.561  -4.275  1.00  0.00     0.027 A 
ATOM     89  C   UNL     1       7.770  -3.462  -4.211  1.00  0.00     0.042 A 
ATOM     90  C   UNL     1       8.626  -5.823  -5.521  1.00  0.00     0.003 A 
ATOM     91  C   UNL     1       7.234  -3.554  -5.657  1.00  0.00     0.020 A 
ATOM     92  C   UNL     1       7.726  -4.930  -6.094  1.00  0.00     0.016 A 
ATOM     93  Br  UNL     1       5.314  -2.053  -6.968  1.00  0.00    -0.051 Br
ENDBRANCH  81  87
ENDBRANCH  75  76
ENDBRANCH  67  71
ENDBRANCH  63  65
ENDBRANCH  62  63
ENDBRANCH   1  62
TORSDOF 15
