REMARK SMILES O=C(/C=C/N[C@@H](Cc1c[nH]c2ccccc12)C(=O)OCCOC(=O)c1ccc(-c2c3nc(c(-c4c(F)cccc4F)c4ccc([nH]4)c(-c4c(F)cccc4F)c4nc(c(-c5c(F)cccc5F)c5ccc2[nH]5)C=C4)C=C3)cc1)c1ccccc1
REMARK SMILES IDX 20 1 19 2 17 3 18 4 6 5 5 6 4 8 3 9 2 10 1 11 79 12 80 13
REMARK SMILES IDX 84 14 81 15 83 16 82 17 7 18 8 19 9 20 16 21 10 22 11 23
REMARK SMILES IDX 15 24 12 26 14 27 13 28 21 29 22 30 23 31 24 32 25 33 26 34
REMARK SMILES IDX 78 35 27 36 77 37 28 38 29 39 30 40 71 41 31 42 76 43 70 44
REMARK SMILES IDX 72 45 32 46 75 47 69 48 68 49 33 51 59 52 42 53 58 54 43 55
REMARK SMILES IDX 46 56 57 57 73 58 44 59 45 60 56 62 74 63 47 64 34 65 35 66
REMARK SMILES IDX 40 67 36 68 37 69 39 70 41 71 38 72 60 73 61 74 66 75 62 76
REMARK SMILES IDX 63 77 65 78 67 79 64 80 48 81 49 82 54 83 50 84 51 85 53 86
REMARK SMILES IDX 55 87 52 88
REMARK H PARENT 5 7 10 25 72 50 46 61
REMARK Flexibility Score: inf
ROOT
ATOM      1  C   UNL     1       7.551  -2.707  -4.737  1.00  0.00     0.274 C 
ENDROOT
BRANCH   1   2
ATOM      2  O   UNL     1       6.804  -2.706  -3.505  1.00  0.00    -0.461 OA
BRANCH   2   3
ATOM      3  C   UNL     1       7.470  -2.550  -2.337  1.00  0.00     0.329 C 
ATOM      4  O   UNL     1       8.671  -2.304  -2.254  1.00  0.00    -0.250 OA
BRANCH   3   5
ATOM      5  C   UNL     1       6.588  -2.776  -1.099  1.00  0.00     0.194 C 
BRANCH   5   6
ATOM      6  N   UNL     1       5.189  -2.342  -1.196  1.00  0.00    -0.378 N 
ATOM      7  H   UNL     1       4.622  -2.882  -1.793  1.00  0.00     0.160 HD
BRANCH   6   8
ATOM      8  C   UNL     1       4.554  -1.292  -0.577  1.00  0.00     0.082 C 
ATOM      9  C   UNL     1       3.250  -1.019  -0.725  1.00  0.00     0.070 C 
BRANCH   9  10
ATOM     10  C   UNL     1       2.451   0.042  -0.056  1.00  0.00     0.187 C 
ATOM     11  O   UNL     1       1.226   0.014  -0.136  1.00  0.00    -0.289 OA
BRANCH  10  12
ATOM     12  C   UNL     1       3.100   1.089   0.756  1.00  0.00     0.022 A 
ATOM     13  C   UNL     1       4.170   1.841   0.266  1.00  0.00     0.012 A 
ATOM     14  C   UNL     1       2.583   1.351   2.030  1.00  0.00     0.012 A 
ATOM     15  C   UNL     1       4.763   2.807   1.080  1.00  0.00     0.001 A 
ATOM     16  C   UNL     1       3.173   2.326   2.834  1.00  0.00     0.001 A 
ATOM     17  C   UNL     1       4.269   3.045   2.362  1.00  0.00     0.000 A 
ENDBRANCH  10  12
ENDBRANCH   9  10
ENDBRANCH   6   8
ENDBRANCH   5   6
BRANCH   5  18
ATOM     18  C   UNL     1       6.663  -4.238  -0.665  1.00  0.00     0.074 C 
BRANCH  18  19
ATOM     19  C   UNL     1       6.296  -5.361  -1.615  1.00  0.00    -0.020 A 
ATOM     20  C   UNL     1       6.791  -6.639  -1.396  1.00  0.00     0.087 A 
ATOM     21  C   UNL     1       5.457  -5.459  -2.796  1.00  0.00     0.003 A 
ATOM     22  N   UNL     1       6.326  -7.475  -2.364  1.00  0.00    -0.361 N 
ATOM     23  C   UNL     1       5.529  -6.786  -3.241  1.00  0.00     0.046 A 
ATOM     24  C   UNL     1       4.649  -4.593  -3.577  1.00  0.00     0.010 A 
ATOM     25  H   UNL     1       6.532  -8.435  -2.425  1.00  0.00     0.166 HD
ATOM     26  C   UNL     1       4.876  -7.258  -4.390  1.00  0.00     0.026 A 
ATOM     27  C   UNL     1       3.990  -5.043  -4.728  1.00  0.00     0.001 A 
ATOM     28  C   UNL     1       4.108  -6.362  -5.131  1.00  0.00     0.002 A 
ENDBRANCH  18  19
ENDBRANCH   5  18
ENDBRANCH   3   5
ENDBRANCH   2   3
ENDBRANCH   1   2
BRANCH   1  29
ATOM     29  C   UNL     1       6.996  -1.636  -5.675  1.00  0.00     0.275 C 
BRANCH  29  30
ATOM     30  O   UNL     1       7.302  -0.337  -5.142  1.00  0.00    -0.458 OA
BRANCH  30  31
ATOM     31  C   UNL     1       6.361   0.158  -4.306  1.00  0.00     0.338 C 
ATOM     32  O   UNL     1       5.233  -0.256  -4.112  1.00  0.00    -0.246 OA
BRANCH  31  33
ATOM     33  C   UNL     1       6.977   1.219  -3.501  1.00  0.00     0.060 A 
ATOM     34  C   UNL     1       7.085   1.010  -2.125  1.00  0.00     0.016 A 
ATOM     35  C   UNL     1       7.376   2.425  -4.075  1.00  0.00     0.016 A 
ATOM     36  C   UNL     1       7.541   2.030  -1.302  1.00  0.00     0.010 A 
ATOM     37  C   UNL     1       7.837   3.451  -3.247  1.00  0.00     0.010 A 
ATOM     38  C   UNL     1       7.880   3.271  -1.853  1.00  0.00    -0.014 A 
BRANCH  38  39
ATOM     39  C   UNL     1       8.142   4.413  -0.948  1.00  0.00     0.031 A 
ATOM     40  C   UNL     1       7.089   5.474  -0.785  1.00  0.00     0.074 A 
ATOM     41  C   UNL     1       9.272   4.458  -0.222  1.00  0.00     0.049 A 
ATOM     42  N   UNL     1       7.105   6.550  -0.040  1.00  0.00    -0.248 NA
ATOM     43  C   UNL     1       5.841   5.287  -1.544  1.00  0.00     0.031 C 
ATOM     44  C   UNL     1      10.337   3.455  -0.254  1.00  0.00     0.029 A 
ATOM     45  N   UNL     1       9.708   5.383   0.691  1.00  0.00    -0.354 N 
ATOM     46  C   UNL     1       5.881   7.172  -0.251  1.00  0.00     0.074 A 
ATOM     47  C   UNL     1       5.150   6.363  -1.201  1.00  0.00     0.031 C 
ATOM     48  C   UNL     1      11.304   3.819   0.604  1.00  0.00     0.029 A 
ATOM     49  C   UNL     1      10.944   5.096   1.214  1.00  0.00     0.049 A 
ATOM     50  H   UNL     1       9.184   6.177   0.946  1.00  0.00     0.167 HD
ATOM     51  C   UNL     1       5.406   8.313   0.303  1.00  0.00     0.037 A 
ATOM     52  C   UNL     1      11.705   5.798   2.074  1.00  0.00     0.037 A 
ATOM     53  C   UNL     1       6.137   9.118   1.245  1.00  0.00     0.049 A 
ATOM     54  C   UNL     1      11.186   7.102   2.616  1.00  0.00     0.074 A 
ATOM     55  C   UNL     1       5.752  10.300   1.853  1.00  0.00     0.029 A 
ATOM     56  N   UNL     1       7.409   8.822   1.712  1.00  0.00    -0.354 N 
ATOM     57  N   UNL     1      10.032   7.686   2.402  1.00  0.00    -0.248 NA
ATOM     58  C   UNL     1      12.077   7.843   3.519  1.00  0.00     0.031 C 
ATOM     59  C   UNL     1       6.808  10.740   2.659  1.00  0.00     0.029 A 
ATOM     60  C   UNL     1       7.832   9.808   2.588  1.00  0.00     0.049 A 
ATOM     61  H   UNL     1       7.933   8.029   1.459  1.00  0.00     0.167 HD
ATOM     62  C   UNL     1      10.050   8.852   3.157  1.00  0.00     0.074 A 
ATOM     63  C   UNL     1      11.322   8.880   3.850  1.00  0.00     0.031 C 
ATOM     64  C   UNL     1       9.102   9.815   3.267  1.00  0.00     0.037 A 
BRANCH  51  65
ATOM     65  C   UNL     1       4.045   8.770  -0.131  1.00  0.00     0.057 A 
ATOM     66  C   UNL     1       2.878   8.122   0.291  1.00  0.00     0.134 A 
ATOM     67  C   UNL     1       3.902   9.876  -0.978  1.00  0.00     0.134 A 
ATOM     68  F   UNL     1       2.949   7.046   1.090  1.00  0.00    -0.206 F 
ATOM     69  C   UNL     1       1.616   8.544  -0.133  1.00  0.00     0.040 A 
ATOM     70  C   UNL     1       2.646  10.321  -1.390  1.00  0.00     0.040 A 
ATOM     71  F   UNL     1       4.981  10.540  -1.419  1.00  0.00    -0.206 F 
ATOM     72  C   UNL     1       1.498   9.650  -0.973  1.00  0.00     0.006 A 
ENDBRANCH  51  65
BRANCH  52  73
ATOM     73  C   UNL     1      13.047   5.297   2.460  1.00  0.00     0.057 A 
ATOM     74  C   UNL     1      13.312   4.857   3.762  1.00  0.00     0.134 A 
ATOM     75  C   UNL     1      14.104   5.266   1.542  1.00  0.00     0.134 A 
ATOM     76  F   UNL     1      12.347   4.886   4.693  1.00  0.00    -0.206 F 
ATOM     77  C   UNL     1      14.582   4.420   4.142  1.00  0.00     0.040 A 
ATOM     78  C   UNL     1      15.372   4.808   1.900  1.00  0.00     0.040 A 
ATOM     79  F   UNL     1      13.915   5.674   0.278  1.00  0.00    -0.206 F 
ATOM     80  C   UNL     1      15.616   4.390   3.207  1.00  0.00     0.006 A 
ENDBRANCH  52  73
BRANCH  64  81
ATOM     81  C   UNL     1       9.401  10.960   4.189  1.00  0.00     0.057 A 
ATOM     82  C   UNL     1      10.339  11.947   3.862  1.00  0.00     0.134 A 
ATOM     83  C   UNL     1       8.729  11.084   5.412  1.00  0.00     0.134 A 
ATOM     84  F   UNL     1      11.026  11.877   2.711  1.00  0.00    -0.206 F 
ATOM     85  C   UNL     1      10.621  13.001   4.732  1.00  0.00     0.040 A 
ATOM     86  C   UNL     1       8.984  12.147   6.279  1.00  0.00     0.040 A 
ATOM     87  F   UNL     1       7.812  10.177   5.781  1.00  0.00    -0.206 F 
ATOM     88  C   UNL     1       9.938  13.105   5.943  1.00  0.00     0.006 A 
ENDBRANCH  64  81
ENDBRANCH  38  39
ENDBRANCH  31  33
ENDBRANCH  30  31
ENDBRANCH  29  30
ENDBRANCH   1  29
TORSDOF 17
