REMARK SMILES C[C@H](NC(=O)c1cccc(NC(=O)c2ccccc2C(=O)OCCOC(=O)c2ccc(-c3c4nc(c(-c5c(F)cccc5F)c5ccc([nH]5)c(-c5c(F)cccc5F)c5nc(c(-c6c(F)cccc6F)c6ccc3[nH]6)C=C5)C=C4)cc2)c1)c1ccccc1
REMARK SMILES IDX 22 1 20 2 21 3 19 4 14 5 15 6 16 7 18 8 17 9 12 10 11 11
REMARK SMILES IDX 13 13 10 14 6 15 7 16 82 17 8 18 9 19 4 20 3 21 5 23 2 24
REMARK SMILES IDX 1 25 83 26 84 27 88 28 85 29 87 30 86 31 23 32 24 33 25 34
REMARK SMILES IDX 26 35 27 36 28 37 29 38 81 39 30 40 80 41 31 42 32 43 33 44
REMARK SMILES IDX 74 45 34 46 79 47 73 48 75 49 35 50 78 51 72 52 71 53 36 55
REMARK SMILES IDX 62 56 45 57 61 58 46 59 49 60 60 61 76 62 47 63 48 64 59 66
REMARK SMILES IDX 77 67 50 68 37 69 38 70 43 71 39 72 40 73 42 74 44 75 41 76
REMARK SMILES IDX 63 77 64 78 69 79 65 80 66 81 68 82 70 83 67 84 51 85 52 86
REMARK SMILES IDX 57 87 53 88 54 89 56 90 58 91 55 92
REMARK H PARENT 11 12 3 22 75 54 49 65
REMARK Flexibility Score: inf
ROOT
ATOM      1  O   UNL     1       3.458  -0.639   5.679  1.00  0.00    -0.458 OA
ENDROOT
BRANCH   1   2
ATOM      2  C   UNL     1       4.256   0.349   5.206  1.00  0.00     0.339 C 
ATOM      3  O   UNL     1       3.907   1.317   4.556  1.00  0.00    -0.246 OA
BRANCH   2   4
ATOM      4  C   UNL     1       5.670   0.132   5.529  1.00  0.00     0.072 A 
ATOM      5  C   UNL     1       6.395  -0.913   4.956  1.00  0.00     0.054 A 
ATOM      6  C   UNL     1       7.767  -1.023   5.239  1.00  0.00     0.015 A 
ATOM      7  C   UNL     1       8.420  -0.049   6.003  1.00  0.00     0.001 A 
ATOM      8  C   UNL     1       6.330   1.105   6.298  1.00  0.00     0.016 A 
ATOM      9  C   UNL     1       7.703   1.024   6.521  1.00  0.00     0.001 A 
BRANCH   5  10
ATOM     10  C   UNL     1       5.782  -1.975   4.132  1.00  0.00     0.256 C 
ATOM     11  N   UNL     1       5.059  -1.756   2.977  1.00  0.00    -0.322 N 
ATOM     12  H   UNL     1       4.602  -2.565   2.652  1.00  0.00     0.170 HD
ATOM     13  O   UNL     1       5.909  -3.132   4.535  1.00  0.00    -0.269 OA
BRANCH  11  14
ATOM     14  C   UNL     1       4.828  -0.631   2.158  1.00  0.00     0.042 A 
ATOM     15  C   UNL     1       3.365   0.421   0.502  1.00  0.00     0.041 A 
ATOM     16  C   UNL     1       4.072   1.619   0.666  1.00  0.00     0.014 A 
ATOM     17  C   UNL     1       3.771  -0.713   1.223  1.00  0.00     0.040 A 
ATOM     18  C   UNL     1       5.176   1.678   1.515  1.00  0.00     0.003 A 
ATOM     19  C   UNL     1       5.568   0.549   2.238  1.00  0.00     0.026 A 
BRANCH  15  20
ATOM     20  C   UNL     1       2.270   0.429  -0.507  1.00  0.00     0.251 C 
ATOM     21  N   UNL     1       0.987  -0.004  -0.267  1.00  0.00    -0.346 N 
ATOM     22  H   UNL     1       0.373   0.141  -1.023  1.00  0.00     0.164 HD
ATOM     23  O   UNL     1       2.519   0.917  -1.611  1.00  0.00    -0.269 OA
BRANCH  21  24
ATOM     24  C   UNL     1       0.356  -0.635   0.882  1.00  0.00     0.109 C 
ATOM     25  C   UNL     1       0.679   0.060   2.190  1.00  0.00     0.036 C 
BRANCH  24  26
ATOM     26  C   UNL     1      -1.164  -0.679   0.788  1.00  0.00    -0.026 A 
ATOM     27  C   UNL     1      -1.923   0.505   0.783  1.00  0.00     0.006 A 
ATOM     28  C   UNL     1      -1.834  -1.905   0.925  1.00  0.00     0.006 A 
ATOM     29  C   UNL     1      -3.305   0.465   0.982  1.00  0.00     0.000 A 
ATOM     30  C   UNL     1      -3.218  -1.942   1.114  1.00  0.00     0.000 A 
ATOM     31  C   UNL     1      -3.949  -0.757   1.161  1.00  0.00     0.000 A 
ENDBRANCH  24  26
ENDBRANCH  21  24
ENDBRANCH  15  20
ENDBRANCH  11  14
ENDBRANCH   5  10
ENDBRANCH   2   4
ENDBRANCH   1   2
BRANCH   1  32
ATOM     32  C   UNL     1       2.123  -0.581   5.153  1.00  0.00     0.275 C 
BRANCH  32  33
ATOM     33  C   UNL     1       1.073   0.041   6.069  1.00  0.00     0.275 C 
BRANCH  33  34
ATOM     34  O   UNL     1       1.274   1.459   6.204  1.00  0.00    -0.458 OA
BRANCH  34  35
ATOM     35  C   UNL     1       2.109   1.787   7.207  1.00  0.00     0.338 C 
ATOM     36  O   UNL     1       2.631   1.033   8.017  1.00  0.00    -0.246 OA
BRANCH  35  37
ATOM     37  C   UNL     1       2.427   3.215   7.194  1.00  0.00     0.060 A 
ATOM     38  C   UNL     1       3.630   3.600   6.611  1.00  0.00     0.016 A 
ATOM     39  C   UNL     1       1.722   4.095   8.007  1.00  0.00     0.016 A 
ATOM     40  C   UNL     1       4.229   4.792   6.964  1.00  0.00     0.010 A 
ATOM     41  C   UNL     1       2.271   5.349   8.274  1.00  0.00     0.010 A 
ATOM     42  C   UNL     1       3.557   5.678   7.803  1.00  0.00    -0.014 A 
BRANCH  42  43
ATOM     43  C   UNL     1       4.242   6.909   8.249  1.00  0.00     0.031 A 
ATOM     44  C   UNL     1       4.480   7.124   9.715  1.00  0.00     0.074 A 
ATOM     45  C   UNL     1       4.667   7.804   7.338  1.00  0.00     0.049 A 
ATOM     46  N   UNL     1       4.836   8.213  10.341  1.00  0.00    -0.248 NA
ATOM     47  C   UNL     1       4.269   5.964  10.599  1.00  0.00     0.031 C 
ATOM     48  C   UNL     1       4.566   7.651   5.883  1.00  0.00     0.029 A 
ATOM     49  N   UNL     1       5.262   9.027   7.500  1.00  0.00    -0.354 N 
ATOM     50  C   UNL     1       4.823   7.891  11.693  1.00  0.00     0.074 A 
ATOM     51  C   UNL     1       4.430   6.504  11.799  1.00  0.00     0.031 C 
ATOM     52  C   UNL     1       5.085   8.734   5.288  1.00  0.00     0.029 A 
ATOM     53  C   UNL     1       5.453   9.697   6.316  1.00  0.00     0.049 A 
ATOM     54  H   UNL     1       5.525   9.390   8.377  1.00  0.00     0.167 HD
ATOM     55  C   UNL     1       5.104   8.697  12.742  1.00  0.00     0.037 A 
ATOM     56  C   UNL     1       5.812  10.972   6.089  1.00  0.00     0.037 A 
ATOM     57  C   UNL     1       5.541  10.061  12.596  1.00  0.00     0.049 A 
ATOM     58  C   UNL     1       6.070  11.858   7.272  1.00  0.00     0.074 A 
ATOM     59  C   UNL     1       5.877  10.970  13.583  1.00  0.00     0.029 A 
ATOM     60  N   UNL     1       5.712  10.707  11.379  1.00  0.00    -0.354 N 
ATOM     61  N   UNL     1       6.008  11.569   8.550  1.00  0.00    -0.248 NA
ATOM     62  C   UNL     1       6.433  13.250   6.985  1.00  0.00     0.031 C 
ATOM     63  C   UNL     1       6.202  12.181  12.964  1.00  0.00     0.029 A 
ATOM     64  C   UNL     1       6.129  12.009  11.590  1.00  0.00     0.049 A 
ATOM     65  H   UNL     1       5.560  10.298  10.496  1.00  0.00     0.167 HD
ATOM     66  C   UNL     1       6.349  12.734   9.220  1.00  0.00     0.074 A 
ATOM     67  C   UNL     1       6.634  13.728   8.204  1.00  0.00     0.031 C 
ATOM     68  C   UNL     1       6.418  12.968  10.554  1.00  0.00     0.037 A 
BRANCH  55  69
ATOM     69  C   UNL     1       4.904   8.152  14.126  1.00  0.00     0.057 A 
ATOM     70  C   UNL     1       5.746   7.182  14.683  1.00  0.00     0.134 A 
ATOM     71  C   UNL     1       3.871   8.648  14.934  1.00  0.00     0.134 A 
ATOM     72  F   UNL     1       6.744   6.651  13.960  1.00  0.00    -0.206 F 
ATOM     73  C   UNL     1       5.560   6.716  15.987  1.00  0.00     0.040 A 
ATOM     74  C   UNL     1       3.692   8.210  16.247  1.00  0.00     0.040 A 
ATOM     75  F   UNL     1       3.026   9.579  14.464  1.00  0.00    -0.206 F 
ATOM     76  C   UNL     1       4.537   7.238  16.776  1.00  0.00     0.006 A 
ENDBRANCH  55  69
BRANCH  56  77
ATOM     77  C   UNL     1       5.876  11.493   4.700  1.00  0.00     0.057 A 
ATOM     78  C   UNL     1       7.089  11.894   4.130  1.00  0.00     0.134 A 
ATOM     79  C   UNL     1       4.725  11.608   3.908  1.00  0.00     0.134 A 
ATOM     80  F   UNL     1       8.224  11.823   4.841  1.00  0.00    -0.206 F 
ATOM     81  C   UNL     1       7.153  12.410   2.835  1.00  0.00     0.040 A 
ATOM     82  C   UNL     1       4.779  12.089   2.600  1.00  0.00     0.040 A 
ATOM     83  F   UNL     1       3.530  11.232   4.389  1.00  0.00    -0.206 F 
ATOM     84  C   UNL     1       5.995  12.503   2.064  1.00  0.00     0.006 A 
ENDBRANCH  56  77
BRANCH  68  85
ATOM     85  C   UNL     1       6.871  14.332  10.978  1.00  0.00     0.057 A 
ATOM     86  C   UNL     1       6.059  15.463  10.832  1.00  0.00     0.134 A 
ATOM     87  C   UNL     1       8.129  14.506  11.568  1.00  0.00     0.134 A 
ATOM     88  F   UNL     1       4.850  15.363  10.259  1.00  0.00    -0.206 F 
ATOM     89  C   UNL     1       6.494  16.726  11.234  1.00  0.00     0.040 A 
ATOM     90  C   UNL     1       8.562  15.757  12.004  1.00  0.00     0.040 A 
ATOM     91  F   UNL     1       8.951  13.459  11.745  1.00  0.00    -0.206 F 
ATOM     92  C   UNL     1       7.746  16.873  11.829  1.00  0.00     0.006 A 
ENDBRANCH  68  85
ENDBRANCH  42  43
ENDBRANCH  35  37
ENDBRANCH  34  35
ENDBRANCH  33  34
ENDBRANCH  32  33
ENDBRANCH   1  32
TORSDOF 16
