REMARK SMILES O=C(OCCOC(=O)c1cc(=O)[nH]c2c(Br)cccc12)c1ccc(-c2c3nc(c(-c4c(F)cccc4F)c4ccc([nH]4)c(-c4c(F)cccc4F)c4nc(c(-c5c(F)cccc5F)c5ccc2[nH]5)C=C4)C=C3)cc1
REMARK SMILES IDX 4 1 3 2 2 3 1 4 21 5 22 6 74 7 23 8 73 9 24 10 25 11 26 12
REMARK SMILES IDX 67 13 27 14 72 15 66 16 68 17 28 18 71 19 65 20 64 21 29 23
REMARK SMILES IDX 55 24 38 25 54 26 39 27 42 28 53 29 69 30 40 31 41 32 52 34
REMARK SMILES IDX 70 35 43 36 30 37 31 38 36 39 32 40 33 41 35 42 37 43 34 44
REMARK SMILES IDX 56 45 57 46 62 47 58 48 59 49 61 50 63 51 60 52 44 53 45 54
REMARK SMILES IDX 50 55 46 56 47 57 49 58 51 59 48 60 5 61 6 62 7 63 8 64 9 65
REMARK SMILES IDX 10 66 20 67 11 68 14 69 19 70 12 71 13 72 15 73 18 74 16 76
REMARK SMILES IDX 17 77
REMARK H PARENT 68 22 42 33 13 75
REMARK Flexibility Score: inf
ROOT
ATOM      1  C   UNL     1       4.340  -1.310   0.238  1.00  0.00     0.275 C 
ENDROOT
BRANCH   1   2
ATOM      2  O   UNL     1       3.472  -0.389   0.918  1.00  0.00    -0.458 OA
BRANCH   2   3
ATOM      3  C   UNL     1       3.572   0.964   0.936  1.00  0.00     0.338 C 
ATOM      4  O   UNL     1       3.085   1.599   1.868  1.00  0.00    -0.246 OA
BRANCH   3   5
ATOM      5  C   UNL     1       4.017   1.715  -0.275  1.00  0.00     0.060 A 
ATOM      6  C   UNL     1       3.230   2.817  -0.631  1.00  0.00     0.016 A 
ATOM      7  C   UNL     1       5.134   1.425  -1.061  1.00  0.00     0.016 A 
ATOM      8  C   UNL     1       3.456   3.506  -1.824  1.00  0.00     0.010 A 
ATOM      9  C   UNL     1       5.383   2.136  -2.243  1.00  0.00     0.010 A 
ATOM     10  C   UNL     1       4.529   3.162  -2.654  1.00  0.00    -0.014 A 
BRANCH  10  11
ATOM     11  C   UNL     1       4.845   3.986  -3.846  1.00  0.00     0.031 A 
ATOM     12  C   UNL     1       4.777   3.442  -5.248  1.00  0.00     0.074 A 
ATOM     13  C   UNL     1       5.233   5.258  -3.640  1.00  0.00     0.049 A 
ATOM     14  N   UNL     1       4.904   4.088  -6.381  1.00  0.00    -0.248 NA
ATOM     15  C   UNL     1       4.508   2.008  -5.409  1.00  0.00     0.031 C 
ATOM     16  C   UNL     1       5.364   5.902  -2.329  1.00  0.00     0.029 A 
ATOM     17  N   UNL     1       5.628   6.225  -4.526  1.00  0.00    -0.354 N 
ATOM     18  C   UNL     1       4.612   3.165  -7.380  1.00  0.00     0.074 A 
ATOM     19  C   UNL     1       4.385   1.897  -6.727  1.00  0.00     0.031 C 
ATOM     20  C   UNL     1       5.844   7.141  -2.495  1.00  0.00     0.029 A 
ATOM     21  C   UNL     1       6.108   7.353  -3.911  1.00  0.00     0.049 A 
ATOM     22  H   UNL     1       5.573   6.120  -5.503  1.00  0.00     0.167 HD
ATOM     23  C   UNL     1       4.536   3.365  -8.717  1.00  0.00     0.037 A 
ATOM     24  C   UNL     1       6.756   8.412  -4.425  1.00  0.00     0.037 A 
ATOM     25  C   UNL     1       4.967   4.572  -9.371  1.00  0.00     0.049 A 
ATOM     26  C   UNL     1       6.960   8.485  -5.909  1.00  0.00     0.074 A 
ATOM     27  C   UNL     1       4.995   4.862 -10.724  1.00  0.00     0.029 A 
ATOM     28  N   UNL     1       5.534   5.652  -8.716  1.00  0.00    -0.354 N 
ATOM     29  N   UNL     1       6.523   7.673  -6.841  1.00  0.00    -0.248 NA
ATOM     30  C   UNL     1       7.748   9.615  -6.413  1.00  0.00     0.031 C 
ATOM     31  C   UNL     1       5.688   6.067 -10.891  1.00  0.00     0.029 A 
ATOM     32  C   UNL     1       6.014   6.563  -9.639  1.00  0.00     0.049 A 
ATOM     33  H   UNL     1       5.588   5.756  -7.738  1.00  0.00     0.167 HD
ATOM     34  C   UNL     1       6.946   8.218  -8.046  1.00  0.00     0.074 A 
ATOM     35  C   UNL     1       7.677   9.426  -7.723  1.00  0.00     0.031 C 
ATOM     36  C   UNL     1       6.737   7.763  -9.305  1.00  0.00     0.037 A 
BRANCH  23  37
ATOM     37  C   UNL     1       4.024   2.248  -9.576  1.00  0.00     0.057 A 
ATOM     38  C   UNL     1       4.894   1.476 -10.355  1.00  0.00     0.134 A 
ATOM     39  C   UNL     1       2.650   2.011  -9.711  1.00  0.00     0.134 A 
ATOM     40  F   UNL     1       6.220   1.667 -10.284  1.00  0.00    -0.206 F 
ATOM     41  C   UNL     1       4.416   0.511 -11.245  1.00  0.00     0.040 A 
ATOM     42  C   UNL     1       2.161   1.037 -10.586  1.00  0.00     0.040 A 
ATOM     43  F   UNL     1       1.761   2.739  -9.019  1.00  0.00    -0.206 F 
ATOM     44  C   UNL     1       3.045   0.289 -11.362  1.00  0.00     0.006 A 
ENDBRANCH  23  37
BRANCH  24  45
ATOM     45  C   UNL     1       7.330   9.435  -3.517  1.00  0.00     0.057 A 
ATOM     46  C   UNL     1       8.372   9.111  -2.636  1.00  0.00     0.134 A 
ATOM     47  C   UNL     1       6.873  10.755  -3.518  1.00  0.00     0.134 A 
ATOM     48  F   UNL     1       8.851   7.858  -2.582  1.00  0.00    -0.206 F 
ATOM     49  C   UNL     1       8.934  10.061  -1.785  1.00  0.00     0.040 A 
ATOM     50  C   UNL     1       7.449  11.724  -2.695  1.00  0.00     0.040 A 
ATOM     51  F   UNL     1       5.889  11.129  -4.349  1.00  0.00    -0.206 F 
ATOM     52  C   UNL     1       8.480  11.376  -1.823  1.00  0.00     0.006 A 
ENDBRANCH  24  45
BRANCH  36  53
ATOM     53  C   UNL     1       7.267   8.598 -10.430  1.00  0.00     0.057 A 
ATOM     54  C   UNL     1       6.387   9.293 -11.269  1.00  0.00     0.134 A 
ATOM     55  C   UNL     1       8.636   8.687 -10.707  1.00  0.00     0.134 A 
ATOM     56  F   UNL     1       5.062   9.243 -11.060  1.00  0.00    -0.206 F 
ATOM     57  C   UNL     1       6.850  10.040 -12.351  1.00  0.00     0.040 A 
ATOM     58  C   UNL     1       9.113   9.456 -11.768  1.00  0.00     0.040 A 
ATOM     59  F   UNL     1       9.530   8.059  -9.928  1.00  0.00    -0.206 F 
ATOM     60  C   UNL     1       8.218  10.128 -12.599  1.00  0.00     0.006 A 
ENDBRANCH  36  53
ENDBRANCH  10  11
ENDBRANCH   3   5
ENDBRANCH   2   3
ENDBRANCH   1   2
BRANCH   1  61
ATOM     61  C   UNL     1       3.801  -1.812  -1.103  1.00  0.00     0.275 C 
BRANCH  61  62
ATOM     62  O   UNL     1       3.182  -0.790  -1.900  1.00  0.00    -0.458 OA
BRANCH  62  63
ATOM     63  C   UNL     1       1.826  -0.703  -1.790  1.00  0.00     0.339 C 
ATOM     64  O   UNL     1       1.115  -1.409  -1.092  1.00  0.00    -0.246 OA
BRANCH  63  65
ATOM     65  C   UNL     1       1.322   0.431  -2.600  1.00  0.00     0.074 A 
ATOM     66  C   UNL     1       1.629   0.420  -3.906  1.00  0.00     0.088 A 
ATOM     67  C   UNL     1       0.546   1.551  -2.034  1.00  0.00     0.014 A 
ATOM     68  C   UNL     1       1.235   1.534  -4.790  1.00  0.00     0.249 A 
ATOM     69  C   UNL     1       0.341   2.690  -2.836  1.00  0.00     0.063 A 
ATOM     70  C   UNL     1       0.099   1.572  -0.706  1.00  0.00     0.011 A 
ATOM     71  O   UNL     1       1.412   1.449  -5.998  1.00  0.00    -0.270 OA
ATOM     72  N   UNL     1       0.716   2.641  -4.189  1.00  0.00    -0.321 N 
ATOM     73  C   UNL     1      -0.225   3.850  -2.288  1.00  0.00     0.042 A 
ATOM     74  C   UNL     1      -0.490   2.722  -0.172  1.00  0.00     0.002 A 
ATOM     75  H   UNL     1       0.598   3.453  -4.733  1.00  0.00     0.170 HD
ATOM     76  Br  UNL     1      -0.398   5.445  -3.303  1.00  0.00    -0.049 Br
ATOM     77  C   UNL     1      -0.633   3.867  -0.955  1.00  0.00     0.018 A 
ENDBRANCH  63  65
ENDBRANCH  62  63
ENDBRANCH  61  62
ENDBRANCH   1  61
TORSDOF 11
