REMARK SMILES O=C(OCCOC(=O)c1ccc([C@@H]2CC(O)=Nc3c2ncn3-c2cccc(Cl)c2)cc1)c1ccc(-c2c3nc(c(-c4c(F)cccc4F)c4ccc([nH]4)c(-c4c(F)cccc4F)c4nc(c(-c5c(F)cccc5F)c5ccc2[nH]5)C=C4)C=C3)cc1
REMARK SMILES IDX 4 1 3 2 2 3 1 4 32 5 33 6 85 7 34 8 84 9 35 10 36 11 37 12
REMARK SMILES IDX 78 13 38 14 83 15 77 16 79 17 39 18 82 19 76 20 75 21 40 23
REMARK SMILES IDX 66 24 49 25 65 26 50 27 53 28 64 29 80 30 51 31 52 32 63 34
REMARK SMILES IDX 81 35 54 36 41 37 42 38 47 39 43 40 44 41 46 42 48 43 45 44
REMARK SMILES IDX 67 45 68 46 73 47 69 48 70 49 72 50 74 51 71 52 55 53 56 54
REMARK SMILES IDX 61 55 57 56 58 57 60 58 62 59 59 60 5 61 6 62 7 63 8 64 9 65
REMARK SMILES IDX 10 66 31 67 11 68 30 69 12 70 13 71 14 72 19 73 15 74 18 75
REMARK SMILES IDX 20 76 17 77 22 78 21 79 16 80 23 82 24 83 29 84 25 85 27 86
REMARK SMILES IDX 26 87 28 88
REMARK H PARENT 79 22 53 33 16 81
REMARK Flexibility Score: inf
ROOT
ATOM      1  C   UNL     1       4.747  -1.031   0.703  1.00  0.00     0.275 C 
ENDROOT
BRANCH   1   2
ATOM      2  O   UNL     1       3.620  -0.652   1.520  1.00  0.00    -0.458 OA
BRANCH   2   3
ATOM      3  C   UNL     1       2.478  -0.265   0.912  1.00  0.00     0.338 C 
ATOM      4  O   UNL     1       1.602  -1.018   0.523  1.00  0.00    -0.246 OA
BRANCH   3   5
ATOM      5  C   UNL     1       2.322   1.204   0.967  1.00  0.00     0.060 A 
ATOM      6  C   UNL     1       3.422   2.067   0.905  1.00  0.00     0.016 A 
ATOM      7  C   UNL     1       1.026   1.722   1.063  1.00  0.00     0.016 A 
ATOM      8  C   UNL     1       3.237   3.437   1.016  1.00  0.00     0.010 A 
ATOM      9  C   UNL     1       0.840   3.096   1.155  1.00  0.00     0.010 A 
ATOM     10  C   UNL     1       1.948   3.951   1.177  1.00  0.00    -0.014 A 
BRANCH  10  11
ATOM     11  C   UNL     1       1.802   5.396   1.349  1.00  0.00     0.031 A 
ATOM     12  C   UNL     1       2.225   6.284   0.219  1.00  0.00     0.074 A 
ATOM     13  C   UNL     1       1.153   5.935   2.400  1.00  0.00     0.049 A 
ATOM     14  N   UNL     1       3.010   7.317   0.243  1.00  0.00    -0.248 NA
ATOM     15  C   UNL     1       1.691   5.975  -1.114  1.00  0.00     0.031 C 
ATOM     16  C   UNL     1       0.384   5.257   3.447  1.00  0.00     0.029 A 
ATOM     17  N   UNL     1       0.947   7.253   2.669  1.00  0.00    -0.354 N 
ATOM     18  C   UNL     1       2.975   7.870  -1.040  1.00  0.00     0.074 A 
ATOM     19  C   UNL     1       2.187   6.973  -1.845  1.00  0.00     0.031 C 
ATOM     20  C   UNL     1      -0.392   6.164   4.080  1.00  0.00     0.029 A 
ATOM     21  C   UNL     1      -0.062   7.490   3.585  1.00  0.00     0.049 A 
ATOM     22  H   UNL     1       1.469   7.974   2.249  1.00  0.00     0.167 HD
ATOM     23  C   UNL     1       3.498   9.092  -1.345  1.00  0.00     0.037 A 
ATOM     24  C   UNL     1      -0.636   8.684   3.857  1.00  0.00     0.037 A 
ATOM     25  C   UNL     1       4.437   9.544  -0.358  1.00  0.00     0.049 A 
ATOM     26  C   UNL     1       0.277   9.753   3.385  1.00  0.00     0.074 A 
ATOM     27  C   UNL     1       5.636   9.064   0.134  1.00  0.00     0.029 A 
ATOM     28  N   UNL     1       4.066  10.535   0.515  1.00  0.00    -0.354 N 
ATOM     29  N   UNL     1       1.424  10.037   3.934  1.00  0.00    -0.248 NA
ATOM     30  C   UNL     1       0.090  10.252   2.030  1.00  0.00     0.031 C 
ATOM     31  C   UNL     1       5.623   9.400   1.520  1.00  0.00     0.029 A 
ATOM     32  C   UNL     1       4.429  10.081   1.757  1.00  0.00     0.049 A 
ATOM     33  H   UNL     1       3.632  11.391   0.296  1.00  0.00     0.167 HD
ATOM     34  C   UNL     1       2.247  10.388   2.875  1.00  0.00     0.074 A 
ATOM     35  C   UNL     1       1.347  10.596   1.744  1.00  0.00     0.031 C 
ATOM     36  C   UNL     1       3.601  10.213   2.929  1.00  0.00     0.037 A 
BRANCH  23  37
ATOM     37  C   UNL     1       2.988  10.006  -2.430  1.00  0.00     0.057 A 
ATOM     38  C   UNL     1       3.748  11.124  -2.827  1.00  0.00     0.134 A 
ATOM     39  C   UNL     1       1.660   9.987  -2.900  1.00  0.00     0.134 A 
ATOM     40  F   UNL     1       5.020  11.271  -2.426  1.00  0.00    -0.206 F 
ATOM     41  C   UNL     1       3.209  12.170  -3.588  1.00  0.00     0.040 A 
ATOM     42  C   UNL     1       1.127  11.003  -3.701  1.00  0.00     0.040 A 
ATOM     43  F   UNL     1       0.791   9.038  -2.527  1.00  0.00    -0.206 F 
ATOM     44  C   UNL     1       1.893  12.113  -4.024  1.00  0.00     0.006 A 
ENDBRANCH  23  37
BRANCH  24  45
ATOM     45  C   UNL     1      -2.038   8.947   4.239  1.00  0.00     0.057 A 
ATOM     46  C   UNL     1      -2.411  10.146   4.856  1.00  0.00     0.134 A 
ATOM     47  C   UNL     1      -3.088   8.131   3.780  1.00  0.00     0.134 A 
ATOM     48  F   UNL     1      -1.479  11.012   5.280  1.00  0.00    -0.206 F 
ATOM     49  C   UNL     1      -3.753  10.518   5.004  1.00  0.00     0.040 A 
ATOM     50  C   UNL     1      -4.431   8.484   3.931  1.00  0.00     0.040 A 
ATOM     51  F   UNL     1      -2.843   7.005   3.095  1.00  0.00    -0.206 F 
ATOM     52  C   UNL     1      -4.768   9.688   4.535  1.00  0.00     0.006 A 
ENDBRANCH  24  45
BRANCH  36  53
ATOM     53  C   UNL     1       4.220   9.821   4.240  1.00  0.00     0.057 A 
ATOM     54  C   UNL     1       3.928   8.619   4.902  1.00  0.00     0.134 A 
ATOM     55  C   UNL     1       5.269  10.588   4.758  1.00  0.00     0.134 A 
ATOM     56  F   UNL     1       3.022   7.762   4.417  1.00  0.00    -0.206 F 
ATOM     57  C   UNL     1       4.614   8.224   6.054  1.00  0.00     0.040 A 
ATOM     58  C   UNL     1       5.985  10.189   5.890  1.00  0.00     0.040 A 
ATOM     59  F   UNL     1       5.652  11.717   4.140  1.00  0.00    -0.206 F 
ATOM     60  C   UNL     1       5.651   9.008   6.548  1.00  0.00     0.006 A 
ENDBRANCH  36  53
ENDBRANCH  10  11
ENDBRANCH   3   5
ENDBRANCH   2   3
ENDBRANCH   1   2
BRANCH   1  61
ATOM     61  C   UNL     1       4.453  -1.523  -0.714  1.00  0.00     0.275 C 
BRANCH  61  62
ATOM     62  O   UNL     1       3.919  -0.450  -1.509  1.00  0.00    -0.458 OA
BRANCH  62  63
ATOM     63  C   UNL     1       2.914  -0.805  -2.354  1.00  0.00     0.338 C 
ATOM     64  O   UNL     1       2.459  -1.907  -2.560  1.00  0.00    -0.246 OA
BRANCH  63  65
ATOM     65  C   UNL     1       2.459   0.414  -3.039  1.00  0.00     0.060 A 
ATOM     66  C   UNL     1       1.319   1.084  -2.596  1.00  0.00     0.016 A 
ATOM     67  C   UNL     1       3.170   0.865  -4.148  1.00  0.00     0.016 A 
ATOM     68  C   UNL     1       0.920   2.259  -3.240  1.00  0.00     0.005 A 
ATOM     69  C   UNL     1       2.748   2.019  -4.808  1.00  0.00     0.005 A 
ATOM     70  C   UNL     1       1.640   2.754  -4.343  1.00  0.00    -0.038 A 
BRANCH  70  71
ATOM     71  C   UNL     1       1.170   4.035  -5.021  1.00  0.00     0.081 C 
ATOM     72  C   UNL     1       0.371   3.739  -6.307  1.00  0.00     0.111 C 
ATOM     73  C   UNL     1       2.372   4.864  -5.300  1.00  0.00     0.093 A 
ATOM     74  C   UNL     1       0.939   4.342  -7.581  1.00  0.00     0.188 C 
ATOM     75  C   UNL     1       2.650   5.337  -6.563  1.00  0.00     0.164 A 
ATOM     76  N   UNL     1       3.358   5.183  -4.410  1.00  0.00    -0.238 NA
ATOM     77  N   UNL     1       1.971   5.113  -7.713  1.00  0.00    -0.198 NA
ATOM     78  N   UNL     1       3.881   5.961  -6.454  1.00  0.00    -0.283 N 
ATOM     79  C   UNL     1       4.268   5.799  -5.137  1.00  0.00     0.206 A 
BRANCH  74  80
ATOM     80  O   UNL     1       0.242   4.020  -8.690  1.00  0.00    -0.496 OA
ATOM     81  H   UNL     1      -0.509   3.464  -8.626  1.00  0.00     0.294 HD
ENDBRANCH  74  80
BRANCH  78  82
ATOM     82  C   UNL     1       4.619   6.617  -7.469  1.00  0.00     0.050 A 
ATOM     83  C   UNL     1       6.019   6.551  -7.472  1.00  0.00     0.027 A 
ATOM     84  C   UNL     1       3.947   7.340  -8.463  1.00  0.00     0.047 A 
ATOM     85  C   UNL     1       6.740   7.183  -8.488  1.00  0.00     0.004 A 
ATOM     86  C   UNL     1       4.681   8.005  -9.443  1.00  0.00     0.043 A 
ATOM     87  C   UNL     1       6.072   7.919  -9.468  1.00  0.00     0.020 A 
ATOM     88  Cl  UNL     1       3.865   8.961 -10.619  1.00  0.00    -0.084 Cl
ENDBRANCH  78  82
ENDBRANCH  70  71
ENDBRANCH  63  65
ENDBRANCH  62  63
ENDBRANCH  61  62
ENDBRANCH   1  61
TORSDOF 14
