REMARK SMILES CC[C@@H](C)N(C)c1ccc(/C=C/C(=O)OCCOC(=O)c2ccc(-c3c4nc(c(-c5c(F)cccc5F)c5ccc([nH]5)c(-c5c(F)cccc5F)c5nc(c(-c6c(F)cccc6F)c6ccc3[nH]6)C=C5)C=C4)cc2)cc1F
REMARK SMILES IDX 16 1 15 2 13 3 14 4 12 5 11 6 10 7 7 8 8 9 76 10 9 11 75 12
REMARK SMILES IDX 77 13 5 14 6 15 3 16 4 17 2 18 1 19 17 20 18 21 19 22 20 23
REMARK SMILES IDX 21 24 22 25 74 26 23 27 73 28 24 29 25 30 26 31 67 32 27 33
REMARK SMILES IDX 72 34 66 35 68 36 28 37 71 38 65 39 64 40 29 42 55 43 38 44
REMARK SMILES IDX 54 45 39 46 42 47 53 48 69 49 40 50 41 51 52 53 70 54 43 55
REMARK SMILES IDX 30 56 31 57 36 58 32 59 33 60 35 61 37 62 34 63 56 64 57 65
REMARK SMILES IDX 62 66 58 67 59 68 61 69 63 70 60 71 44 72 45 73 50 74 46 75
REMARK SMILES IDX 47 76 49 77 51 78 48 79
REMARK H PARENT 68 41 42 52
REMARK Flexibility Score: inf
ROOT
ATOM      1  C   UNL     1      -9.255  -0.102   5.366  1.00  0.00     0.275 C 
ENDROOT
BRANCH   1   2
ATOM      2  O   UNL     1      -7.875  -0.013   4.967  1.00  0.00    -0.459 OA
BRANCH   2   3
ATOM      3  C   UNL     1      -7.236   1.134   5.295  1.00  0.00     0.330 C 
ATOM      4  O   UNL     1      -7.737   2.118   5.820  1.00  0.00    -0.247 OA
BRANCH   3   5
ATOM      5  C   UNL     1      -5.791   1.088   4.989  1.00  0.00     0.094 C 
ATOM      6  C   UNL     1      -5.117  -0.007   4.605  1.00  0.00     0.016 C 
BRANCH   6   7
ATOM      7  C   UNL     1      -3.665  -0.022   4.367  1.00  0.00    -0.022 A 
ATOM      8  C   UNL     1      -0.853  -0.109   3.853  1.00  0.00     0.073 A 
ATOM      9  C   UNL     1      -1.389   0.696   4.869  1.00  0.00     0.029 A 
ATOM     10  C   UNL     1      -1.767  -0.909   3.146  1.00  0.00     0.147 A 
ATOM     11  C   UNL     1      -2.768   0.738   5.127  1.00  0.00     0.010 A 
ATOM     12  C   UNL     1      -3.143  -0.870   3.390  1.00  0.00     0.049 A 
ATOM     13  F   UNL     1      -1.335  -1.783   2.224  1.00  0.00    -0.205 F 
BRANCH   8  14
ATOM     14  N   UNL     1       0.515  -0.102   3.571  1.00  0.00    -0.370 N 
ATOM     15  C   UNL     1       1.433  -0.172   4.704  1.00  0.00     0.144 C 
BRANCH  14  16
ATOM     16  C   UNL     1       1.020   0.554   2.339  1.00  0.00     0.078 C 
ATOM     17  C   UNL     1       0.543   2.007   2.243  1.00  0.00     0.031 C 
BRANCH  16  18
ATOM     18  C   UNL     1       0.704  -0.262   1.076  1.00  0.00     0.021 C 
ATOM     19  C   UNL     1       1.520   0.161  -0.139  1.00  0.00     0.006 C 
ENDBRANCH  16  18
ENDBRANCH  14  16
ENDBRANCH   8  14
ENDBRANCH   6   7
ENDBRANCH   3   5
ENDBRANCH   2   3
ENDBRANCH   1   2
BRANCH   1  20
ATOM     20  C   UNL     1      -9.415  -0.955   6.628  1.00  0.00     0.275 C 
BRANCH  20  21
ATOM     21  O   UNL     1      -8.802  -0.336   7.775  1.00  0.00    -0.458 OA
BRANCH  21  22
ATOM     22  C   UNL     1      -7.508  -0.679   7.981  1.00  0.00     0.338 C 
ATOM     23  O   UNL     1      -6.845  -1.469   7.329  1.00  0.00    -0.246 OA
BRANCH  22  24
ATOM     24  C   UNL     1      -6.929   0.125   9.073  1.00  0.00     0.060 A 
ATOM     25  C   UNL     1      -5.661   0.679   8.869  1.00  0.00     0.016 A 
ATOM     26  C   UNL     1      -7.570   0.262  10.308  1.00  0.00     0.016 A 
ATOM     27  C   UNL     1      -5.016   1.347   9.907  1.00  0.00     0.010 A 
ATOM     28  C   UNL     1      -6.920   0.931  11.352  1.00  0.00     0.010 A 
ATOM     29  C   UNL     1      -5.630   1.455  11.164  1.00  0.00    -0.014 A 
BRANCH  29  30
ATOM     30  C   UNL     1      -4.868   2.045  12.291  1.00  0.00     0.031 A 
ATOM     31  C   UNL     1      -4.212   1.145  13.300  1.00  0.00     0.074 A 
ATOM     32  C   UNL     1      -4.701   3.377  12.370  1.00  0.00     0.049 A 
ATOM     33  N   UNL     1      -3.461   1.460  14.325  1.00  0.00    -0.248 NA
ATOM     34  C   UNL     1      -4.425  -0.300  13.129  1.00  0.00     0.031 C 
ATOM     35  C   UNL     1      -5.253   4.351  11.430  1.00  0.00     0.029 A 
ATOM     36  N   UNL     1      -4.002   4.136  13.273  1.00  0.00    -0.354 N 
ATOM     37  C   UNL     1      -3.105   0.256  14.916  1.00  0.00     0.074 A 
ATOM     38  C   UNL     1      -3.752  -0.795  14.159  1.00  0.00     0.031 C 
ATOM     39  C   UNL     1      -4.851   5.580  11.791  1.00  0.00     0.029 A 
ATOM     40  C   UNL     1      -4.037   5.481  13.002  1.00  0.00     0.049 A 
ATOM     41  H   UNL     1      -3.521   3.753  14.042  1.00  0.00     0.167 HD
ATOM     42  C   UNL     1      -2.299   0.042  15.984  1.00  0.00     0.037 A 
ATOM     43  C   UNL     1      -3.475   6.517  13.654  1.00  0.00     0.037 A 
ATOM     44  C   UNL     1      -1.661   1.084  16.744  1.00  0.00     0.049 A 
ATOM     45  C   UNL     1      -2.639   6.262  14.877  1.00  0.00     0.074 A 
ATOM     46  C   UNL     1      -0.840   0.964  17.852  1.00  0.00     0.029 A 
ATOM     47  N   UNL     1      -1.772   2.440  16.474  1.00  0.00    -0.354 N 
ATOM     48  N   UNL     1      -2.316   5.119  15.431  1.00  0.00    -0.248 NA
ATOM     49  C   UNL     1      -2.091   7.440  15.565  1.00  0.00     0.031 C 
ATOM     50  C   UNL     1      -0.482   2.249  18.274  1.00  0.00     0.029 A 
ATOM     51  C   UNL     1      -1.046   3.168  17.402  1.00  0.00     0.049 A 
ATOM     52  H   UNL     1      -2.290   2.828  15.732  1.00  0.00     0.167 HD
ATOM     53  C   UNL     1      -1.513   5.436  16.519  1.00  0.00     0.074 A 
ATOM     54  C   UNL     1      -1.390   6.880  16.542  1.00  0.00     0.031 C 
ATOM     55  C   UNL     1      -0.930   4.604  17.416  1.00  0.00     0.037 A 
BRANCH  42  56
ATOM     56  C   UNL     1      -2.074  -1.381  16.399  1.00  0.00     0.057 A 
ATOM     57  C   UNL     1      -2.651  -1.886  17.571  1.00  0.00     0.134 A 
ATOM     58  C   UNL     1      -1.258  -2.243  15.655  1.00  0.00     0.134 A 
ATOM     59  F   UNL     1      -3.439  -1.111  18.331  1.00  0.00    -0.206 F 
ATOM     60  C   UNL     1      -2.424  -3.198  17.988  1.00  0.00     0.040 A 
ATOM     61  C   UNL     1      -1.041  -3.564  16.050  1.00  0.00     0.040 A 
ATOM     62  F   UNL     1      -0.687  -1.823  14.516  1.00  0.00    -0.206 F 
ATOM     63  C   UNL     1      -1.620  -4.043  17.224  1.00  0.00     0.006 A 
ENDBRANCH  42  56
BRANCH  43  64
ATOM     64  C   UNL     1      -3.668   7.893  13.137  1.00  0.00     0.057 A 
ATOM     65  C   UNL     1      -4.904   8.542  13.234  1.00  0.00     0.134 A 
ATOM     66  C   UNL     1      -2.625   8.577  12.502  1.00  0.00     0.134 A 
ATOM     67  F   UNL     1      -5.941   7.936  13.832  1.00  0.00    -0.206 F 
ATOM     68  C   UNL     1      -5.104   9.815  12.699  1.00  0.00     0.040 A 
ATOM     69  C   UNL     1      -2.806   9.858  11.980  1.00  0.00     0.040 A 
ATOM     70  F   UNL     1      -1.413   8.013  12.398  1.00  0.00    -0.206 F 
ATOM     71  C   UNL     1      -4.052  10.477  12.070  1.00  0.00     0.006 A 
ENDBRANCH  43  64
BRANCH  55  72
ATOM     72  C   UNL     1      -0.087   5.224  18.491  1.00  0.00     0.057 A 
ATOM     73  C   UNL     1       1.308   5.099  18.465  1.00  0.00     0.134 A 
ATOM     74  C   UNL     1      -0.659   5.886  19.584  1.00  0.00     0.134 A 
ATOM     75  F   UNL     1       1.916   4.467  17.450  1.00  0.00    -0.206 F 
ATOM     76  C   UNL     1       2.104   5.603  19.494  1.00  0.00     0.040 A 
ATOM     77  C   UNL     1       0.129   6.413  20.609  1.00  0.00     0.040 A 
ATOM     78  F   UNL     1      -1.988   6.048  19.662  1.00  0.00    -0.206 F 
ATOM     79  C   UNL     1       1.515   6.264  20.570  1.00  0.00     0.006 A 
ENDBRANCH  55  72
ENDBRANCH  29  30
ENDBRANCH  22  24
ENDBRANCH  21  22
ENDBRANCH  20  21
ENDBRANCH   1  20
TORSDOF 15
