REMARK SMILES C[N@H+]1CCO[C@H](Cn2cc(C(=O)OCCOC(=O)c3ccc(-c4c5nc(c(-c6c(F)cccc6F)c6ccc([nH]6)c(-c6c(F)cccc6F)c6nc(c(-c7c(F)cccc7F)c7ccc4[nH]7)C=C6)C=C5)cc3)ccc2=O)C1
REMARK SMILES IDX 14 1 13 2 11 3 12 4 10 5 8 6 9 7 75 8 74 9 76 10 73 11 7 12
REMARK SMILES IDX 6 13 1 14 2 15 3 16 77 17 4 19 5 20 15 21 16 22 17 23 18 24
REMARK SMILES IDX 19 25 20 26 72 27 21 28 71 29 22 30 23 31 24 32 65 33 25 34
REMARK SMILES IDX 70 35 64 36 66 37 26 38 69 39 63 40 62 41 27 43 53 44 36 45
REMARK SMILES IDX 52 46 37 47 40 48 51 49 67 50 38 51 39 52 50 54 68 55 41 56
REMARK SMILES IDX 28 57 29 58 34 59 30 60 31 61 33 62 35 63 32 64 54 65 55 66
REMARK SMILES IDX 60 67 56 68 57 69 59 70 61 71 58 72 42 73 43 74 48 75 44 76
REMARK SMILES IDX 45 77 47 78 49 79 46 80
REMARK H PARENT 2 18 66 42 40 53
REMARK Flexibility Score: inf
ROOT
ATOM      1  C   UNL     1       5.196  -3.046   4.793  1.00  0.00     0.275 C 
ENDROOT
BRANCH   1   2
ATOM      2  O   UNL     1       4.058  -3.695   4.186  1.00  0.00    -0.458 OA
BRANCH   2   3
ATOM      3  C   UNL     1       4.339  -4.576   3.191  1.00  0.00     0.339 C 
ATOM      4  O   UNL     1       5.456  -4.880   2.799  1.00  0.00    -0.246 OA
BRANCH   3   5
ATOM      5  C   UNL     1       3.102  -5.161   2.611  1.00  0.00     0.076 A 
ATOM      6  N   UNL     1       1.050  -4.781   1.461  1.00  0.00    -0.312 N 
ATOM      7  C   UNL     1       2.129  -4.330   2.214  1.00  0.00     0.105 A 
ATOM      8  C   UNL     1       0.860  -6.134   1.171  1.00  0.00     0.250 A 
ATOM      9  C   UNL     1       1.923  -7.052   1.648  1.00  0.00     0.072 A 
ATOM     10  O   UNL     1      -0.093  -6.602   0.555  1.00  0.00    -0.269 OA
ATOM     11  C   UNL     1       2.987  -6.569   2.299  1.00  0.00     0.023 A 
BRANCH   6  12
ATOM     12  C   UNL     1       0.128  -3.811   0.857  1.00  0.00     0.163 C 
BRANCH  12  13
ATOM     13  C   UNL     1       0.839  -2.663   0.113  1.00  0.00     0.193 C 
ATOM     14  C   UNL     1       0.979   0.390  -0.343  1.00  0.00     0.332 C 
ATOM     15  N   UNL     1       0.454  -0.603  -1.278  1.00  0.00    -0.333 N 
ATOM     16  C   UNL     1       1.510  -1.125  -2.175  1.00  0.00     0.290 C 
ATOM     17  C   UNL     1      -0.182  -1.741  -0.578  1.00  0.00     0.296 C 
ATOM     18  H   UNL     1      -0.251  -0.118  -1.834  1.00  0.00     0.348 HD
ATOM     19  C   UNL     1       2.468  -2.135  -1.514  1.00  0.00     0.222 C 
ATOM     20  O   UNL     1       1.754  -3.194  -0.865  1.00  0.00    -0.365 OA
ENDBRANCH  12  13
ENDBRANCH   6  12
ENDBRANCH   3   5
ENDBRANCH   2   3
ENDBRANCH   1   2
BRANCH   1  21
ATOM     21  C   UNL     1       5.555  -3.677   6.137  1.00  0.00     0.275 C 
BRANCH  21  22
ATOM     22  O   UNL     1       6.060  -5.010   5.944  1.00  0.00    -0.458 OA
BRANCH  22  23
ATOM     23  C   UNL     1       5.238  -6.007   6.337  1.00  0.00     0.338 C 
ATOM     24  O   UNL     1       4.149  -5.909   6.880  1.00  0.00    -0.246 OA
BRANCH  23  25
ATOM     25  C   UNL     1       5.805  -7.298   5.926  1.00  0.00     0.060 A 
ATOM     26  C   UNL     1       6.321  -8.193   6.856  1.00  0.00     0.016 A 
ATOM     27  C   UNL     1       5.675  -7.674   4.594  1.00  0.00     0.016 A 
ATOM     28  C   UNL     1       6.716  -9.467   6.426  1.00  0.00     0.010 A 
ATOM     29  C   UNL     1       5.955  -8.974   4.190  1.00  0.00     0.010 A 
ATOM     30  C   UNL     1       6.505  -9.884   5.095  1.00  0.00    -0.014 A 
BRANCH  30  31
ATOM     31  C   UNL     1       6.832 -11.266   4.649  1.00  0.00     0.031 A 
ATOM     32  C   UNL     1       7.785 -11.514   3.505  1.00  0.00     0.074 A 
ATOM     33  C   UNL     1       6.213 -12.312   5.234  1.00  0.00     0.049 A 
ATOM     34  N   UNL     1       8.192 -12.653   3.000  1.00  0.00    -0.248 NA
ATOM     35  C   UNL     1       8.317 -10.334   2.805  1.00  0.00     0.031 C 
ATOM     36  C   UNL     1       5.175 -12.218   6.263  1.00  0.00     0.029 A 
ATOM     37  N   UNL     1       6.377 -13.663   5.053  1.00  0.00    -0.354 N 
ATOM     38  C   UNL     1       8.996 -12.325   1.915  1.00  0.00     0.074 A 
ATOM     39  C   UNL     1       8.968 -10.885   1.792  1.00  0.00     0.031 C 
ATOM     40  C   UNL     1       4.848 -13.453   6.673  1.00  0.00     0.029 A 
ATOM     41  C   UNL     1       5.631 -14.426   5.919  1.00  0.00     0.049 A 
ATOM     42  H   UNL     1       6.971 -14.048   4.369  1.00  0.00     0.167 HD
ATOM     43  C   UNL     1       9.727 -13.140   1.115  1.00  0.00     0.037 A 
ATOM     44  C   UNL     1       5.602 -15.758   6.103  1.00  0.00     0.037 A 
ATOM     45  C   UNL     1       9.808 -14.567   1.275  1.00  0.00     0.049 A 
ATOM     46  C   UNL     1       6.491 -16.636   5.271  1.00  0.00     0.074 A 
ATOM     47  C   UNL     1      10.598 -15.471   0.586  1.00  0.00     0.029 A 
ATOM     48  N   UNL     1       9.078 -15.297   2.199  1.00  0.00    -0.354 N 
ATOM     49  N   UNL     1       7.328 -16.301   4.320  1.00  0.00    -0.248 NA
ATOM     50  C   UNL     1       6.438 -18.079   5.546  1.00  0.00     0.031 C 
ATOM     51  C   UNL     1      10.331 -16.753   1.082  1.00  0.00     0.029 A 
ATOM     52  C   UNL     1       9.394 -16.641   2.097  1.00  0.00     0.049 A 
ATOM     53  H   UNL     1       8.429 -14.916   2.834  1.00  0.00     0.167 HD
ATOM     54  C   UNL     1       7.913 -17.486   3.895  1.00  0.00     0.074 A 
ATOM     55  C   UNL     1       7.351 -18.546   4.707  1.00  0.00     0.031 C 
ATOM     56  C   UNL     1       8.829 -17.680   2.916  1.00  0.00     0.037 A 
BRANCH  43  57
ATOM     57  C   UNL     1      10.526 -12.496   0.018  1.00  0.00     0.057 A 
ATOM     58  C   UNL     1      10.178 -12.673  -1.326  1.00  0.00     0.134 A 
ATOM     59  C   UNL     1      11.655 -11.712   0.295  1.00  0.00     0.134 A 
ATOM     60  F   UNL     1       9.116 -13.420  -1.664  1.00  0.00    -0.206 F 
ATOM     61  C   UNL     1      10.919 -12.087  -2.355  1.00  0.00     0.040 A 
ATOM     62  C   UNL     1      12.386 -11.098  -0.723  1.00  0.00     0.040 A 
ATOM     63  F   UNL     1      12.037 -11.494   1.562  1.00  0.00    -0.206 F 
ATOM     64  C   UNL     1      12.021 -11.289  -2.054  1.00  0.00     0.006 A 
ENDBRANCH  43  57
BRANCH  44  65
ATOM     65  C   UNL     1       4.755 -16.340   7.173  1.00  0.00     0.057 A 
ATOM     66  C   UNL     1       3.364 -16.417   7.052  1.00  0.00     0.134 A 
ATOM     67  C   UNL     1       5.333 -16.840   8.347  1.00  0.00     0.134 A 
ATOM     68  F   UNL     1       2.753 -15.946   5.955  1.00  0.00    -0.206 F 
ATOM     69  C   UNL     1       2.575 -16.971   8.061  1.00  0.00     0.040 A 
ATOM     70  C   UNL     1       4.559 -17.415   9.355  1.00  0.00     0.040 A 
ATOM     71  F   UNL     1       6.663 -16.806   8.511  1.00  0.00    -0.206 F 
ATOM     72  C   UNL     1       3.174 -17.478   9.214  1.00  0.00     0.006 A 
ENDBRANCH  44  65
BRANCH  56  73
ATOM     73  C   UNL     1       9.289 -19.087   2.688  1.00  0.00     0.057 A 
ATOM     74  C   UNL     1      10.563 -19.497   3.097  1.00  0.00     0.134 A 
ATOM     75  C   UNL     1       8.475 -20.031   2.049  1.00  0.00     0.134 A 
ATOM     76  F   UNL     1      11.392 -18.638   3.710  1.00  0.00    -0.206 F 
ATOM     77  C   UNL     1      11.012 -20.800   2.880  1.00  0.00     0.040 A 
ATOM     78  C   UNL     1       8.905 -21.343   1.846  1.00  0.00     0.040 A 
ATOM     79  F   UNL     1       7.238 -19.701   1.649  1.00  0.00    -0.206 F 
ATOM     80  C   UNL     1      10.179 -21.729   2.258  1.00  0.00     0.006 A 
ENDBRANCH  56  73
ENDBRANCH  30  31
ENDBRANCH  23  25
ENDBRANCH  22  23
ENDBRANCH  21  22
ENDBRANCH   1  21
TORSDOF 13
