REMARK SMILES COc1ccc(NC(=O)[C@@H]2[C@@H](C(=O)OCCOC(=O)c3ccc(-c4c5nc(c(-c6c(F)cccc6F)c6ccc([nH]6)c(-c6c(F)cccc6F)c6nc(c(-c7c(F)cccc7F)c7ccc4[nH]7)C=C6)C=C5)cc3)[C@H]3C=C[C@@H]2C3)cc1O
REMARK SMILES IDX 15 1 14 2 12 3 13 4 11 5 10 6 77 7 74 8 76 9 78 10 75 11
REMARK SMILES IDX 8 12 7 13 9 15 6 16 3 17 4 18 80 19 5 20 79 21 2 22 1 23
REMARK SMILES IDX 81 24 16 26 17 27 18 28 19 29 20 30 21 31 73 32 22 33 72 34
REMARK SMILES IDX 23 35 24 36 25 37 66 38 26 39 71 40 65 41 67 42 27 43 70 44
REMARK SMILES IDX 64 45 63 46 28 48 54 49 37 50 53 51 38 52 41 53 52 54 68 55
REMARK SMILES IDX 39 56 40 57 51 59 69 60 42 61 29 62 30 63 35 64 31 65 32 66
REMARK SMILES IDX 34 67 36 68 33 69 55 70 56 71 61 72 57 73 58 74 60 75 62 76
REMARK SMILES IDX 59 77 43 78 44 79 49 80 45 81 46 82 48 83 50 84 47 85
REMARK H PARENT 7 14 81 25 67 47 41 58
REMARK Flexibility Score: inf
ROOT
ATOM      1  C   UNL     1       0.502   4.637  -1.483  1.00  0.00     0.274 C 
ENDROOT
BRANCH   1   2
ATOM      2  O   UNL     1      -0.865   4.602  -1.954  1.00  0.00    -0.462 OA
BRANCH   2   3
ATOM      3  C   UNL     1      -1.815   4.439  -0.990  1.00  0.00     0.310 C 
ATOM      4  O   UNL     1      -1.571   4.485   0.211  1.00  0.00    -0.252 OA
BRANCH   3   5
ATOM      5  C   UNL     1      -3.203   4.119  -1.544  1.00  0.00     0.119 C 
ATOM      6  C   UNL     1      -3.403   4.218  -3.096  1.00  0.00     0.100 C 
ATOM      7  C   UNL     1      -4.521   5.319  -3.180  1.00  0.00     0.025 C 
ATOM      8  C   UNL     1      -4.256   5.111  -0.975  1.00  0.00     0.027 C 
ATOM      9  C   UNL     1      -3.996   6.637  -2.667  1.00  0.00    -0.027 C 
ATOM     10  C   UNL     1      -5.398   4.943  -1.973  1.00  0.00     0.017 C 
ATOM     11  C   UNL     1      -3.872   6.522  -1.337  1.00  0.00    -0.027 C 
BRANCH   6  12
ATOM     12  C   UNL     1      -3.957   2.978  -3.825  1.00  0.00     0.228 C 
ATOM     13  N   UNL     1      -3.639   1.685  -3.568  1.00  0.00    -0.326 N 
ATOM     14  H   UNL     1      -4.223   1.054  -4.047  1.00  0.00     0.169 HD
ATOM     15  O   UNL     1      -4.797   3.124  -4.726  1.00  0.00    -0.274 OA
BRANCH  13  16
ATOM     16  C   UNL     1      -2.683   1.033  -2.787  1.00  0.00     0.045 A 
ATOM     17  C   UNL     1      -0.937  -0.324  -1.049  1.00  0.00     0.160 A 
ATOM     18  C   UNL     1      -0.600   0.930  -1.546  1.00  0.00     0.052 A 
ATOM     19  C   UNL     1      -2.122  -0.916  -1.485  1.00  0.00     0.159 A 
ATOM     20  C   UNL     1      -1.458   1.586  -2.441  1.00  0.00     0.030 A 
ATOM     21  C   UNL     1      -2.983  -0.262  -2.359  1.00  0.00     0.076 A 
BRANCH  17  22
ATOM     22  O   UNL     1      -0.215  -1.049  -0.139  1.00  0.00    -0.493 OA
ATOM     23  C   UNL     1       1.176  -0.754  -0.075  1.00  0.00     0.278 C 
ENDBRANCH  17  22
BRANCH  19  24
ATOM     24  O   UNL     1      -2.466  -2.167  -1.052  1.00  0.00    -0.504 OA
ATOM     25  H   UNL     1      -1.904  -2.630  -0.462  1.00  0.00     0.293 HD
ENDBRANCH  19  24
ENDBRANCH  13  16
ENDBRANCH   6  12
ENDBRANCH   3   5
ENDBRANCH   2   3
ENDBRANCH   1   2
BRANCH   1  26
ATOM     26  C   UNL     1       1.443   4.995  -2.638  1.00  0.00     0.275 C 
BRANCH  26  27
ATOM     27  O   UNL     1       1.428   6.425  -2.762  1.00  0.00    -0.458 OA
BRANCH  27  28
ATOM     28  C   UNL     1       0.709   6.923  -3.790  1.00  0.00     0.338 C 
ATOM     29  O   UNL     1       0.415   6.386  -4.840  1.00  0.00    -0.246 OA
BRANCH  28  30
ATOM     30  C   UNL     1       0.127   8.178  -3.300  1.00  0.00     0.060 A 
ATOM     31  C   UNL     1      -0.831   8.075  -2.292  1.00  0.00     0.016 A 
ATOM     32  C   UNL     1       0.446   9.413  -3.854  1.00  0.00     0.016 A 
ATOM     33  C   UNL     1      -1.527   9.197  -1.877  1.00  0.00     0.010 A 
ATOM     34  C   UNL     1      -0.213  10.555  -3.380  1.00  0.00     0.010 A 
ATOM     35  C   UNL     1      -1.232  10.451  -2.412  1.00  0.00    -0.014 A 
BRANCH  35  36
ATOM     36  C   UNL     1      -2.085  11.615  -2.058  1.00  0.00     0.031 A 
ATOM     37  C   UNL     1      -2.810  12.335  -3.157  1.00  0.00     0.074 A 
ATOM     38  C   UNL     1      -2.293  11.987  -0.779  1.00  0.00     0.049 A 
ATOM     39  N   UNL     1      -3.338  13.530  -3.156  1.00  0.00    -0.248 NA
ATOM     40  C   UNL     1      -2.942  11.617  -4.436  1.00  0.00     0.031 C 
ATOM     41  C   UNL     1      -1.778  11.304   0.409  1.00  0.00     0.029 A 
ATOM     42  N   UNL     1      -3.019  13.034  -0.267  1.00  0.00    -0.354 N 
ATOM     43  C   UNL     1      -3.766  13.748  -4.459  1.00  0.00     0.074 A 
ATOM     44  C   UNL     1      -3.477  12.548  -5.213  1.00  0.00     0.031 C 
ATOM     45  C   UNL     1      -2.242  11.918   1.508  1.00  0.00     0.029 A 
ATOM     46  C   UNL     1      -2.983  13.108   1.105  1.00  0.00     0.049 A 
ATOM     47  H   UNL     1      -3.517  13.671  -0.828  1.00  0.00     0.167 HD
ATOM     48  C   UNL     1      -4.326  14.867  -4.973  1.00  0.00     0.037 A 
ATOM     49  C   UNL     1      -3.435  14.063   1.939  1.00  0.00     0.037 A 
ATOM     50  C   UNL     1      -4.691  16.012  -4.183  1.00  0.00     0.049 A 
ATOM     51  C   UNL     1      -4.044  15.306   1.353  1.00  0.00     0.074 A 
ATOM     52  C   UNL     1      -5.223  17.220  -4.597  1.00  0.00     0.029 A 
ATOM     53  N   UNL     1      -4.600  16.065  -2.800  1.00  0.00    -0.354 N 
ATOM     54  N   UNL     1      -4.270  15.601   0.095  1.00  0.00    -0.248 NA
ATOM     55  C   UNL     1      -4.415  16.369   2.297  1.00  0.00     0.031 C 
ATOM     56  C   UNL     1      -5.445  18.008  -3.462  1.00  0.00     0.029 A 
ATOM     57  C   UNL     1      -5.078  17.279  -2.342  1.00  0.00     0.049 A 
ATOM     58  H   UNL     1      -4.248  15.345  -2.229  1.00  0.00     0.167 HD
ATOM     59  C   UNL     1      -4.799  16.884   0.095  1.00  0.00     0.074 A 
ATOM     60  C   UNL     1      -4.890  17.299   1.480  1.00  0.00     0.031 C 
ATOM     61  C   UNL     1      -5.159  17.660  -0.957  1.00  0.00     0.037 A 
BRANCH  48  62
ATOM     62  C   UNL     1      -4.510  14.927  -6.458  1.00  0.00     0.057 A 
ATOM     63  C   UNL     1      -5.523  14.226  -7.121  1.00  0.00     0.134 A 
ATOM     64  C   UNL     1      -3.653  15.718  -7.236  1.00  0.00     0.134 A 
ATOM     65  F   UNL     1      -6.359  13.431  -6.437  1.00  0.00    -0.206 F 
ATOM     66  C   UNL     1      -5.668  14.297  -8.508  1.00  0.00     0.040 A 
ATOM     67  C   UNL     1      -3.802  15.815  -8.620  1.00  0.00     0.040 A 
ATOM     68  F   UNL     1      -2.659  16.411  -6.662  1.00  0.00    -0.206 F 
ATOM     69  C   UNL     1      -4.811  15.099  -9.260  1.00  0.00     0.006 A 
ENDBRANCH  48  62
BRANCH  49  70
ATOM     70  C   UNL     1      -3.242  13.927   3.405  1.00  0.00     0.057 A 
ATOM     71  C   UNL     1      -4.331  13.757   4.267  1.00  0.00     0.134 A 
ATOM     72  C   UNL     1      -1.965  13.967   3.981  1.00  0.00     0.134 A 
ATOM     73  F   UNL     1      -5.580  13.740   3.781  1.00  0.00    -0.206 F 
ATOM     74  C   UNL     1      -4.158  13.633   5.648  1.00  0.00     0.040 A 
ATOM     75  C   UNL     1      -1.776  13.817   5.355  1.00  0.00     0.040 A 
ATOM     76  F   UNL     1      -0.880  14.134   3.212  1.00  0.00    -0.206 F 
ATOM     77  C   UNL     1      -2.876  13.654   6.194  1.00  0.00     0.006 A 
ENDBRANCH  49  70
BRANCH  61  78
ATOM     78  C   UNL     1      -5.697  19.019  -0.639  1.00  0.00     0.057 A 
ATOM     79  C   UNL     1      -4.852  20.073  -0.271  1.00  0.00     0.134 A 
ATOM     80  C   UNL     1      -7.068  19.284  -0.734  1.00  0.00     0.134 A 
ATOM     81  F   UNL     1      -3.530  19.874  -0.152  1.00  0.00    -0.206 F 
ATOM     82  C   UNL     1      -5.356  21.343   0.009  1.00  0.00     0.040 A 
ATOM     83  C   UNL     1      -7.582  20.554  -0.473  1.00  0.00     0.040 A 
ATOM     84  F   UNL     1      -7.926  18.315  -1.087  1.00  0.00    -0.206 F 
ATOM     85  C   UNL     1      -6.724  21.587  -0.096  1.00  0.00     0.006 A 
ENDBRANCH  61  78
ENDBRANCH  35  36
ENDBRANCH  28  30
ENDBRANCH  27  28
ENDBRANCH  26  27
ENDBRANCH   1  26
TORSDOF 15
