REMARK SMILES CCCCCNC(=O)Oc1cccc(-c2ccc([C@@H](C)C(=O)OCCOC(=O)c3ccc(-c4c5nc(c(-c6c(F)cccc6F)c6ccc([nH]6)c(-c6c(F)cccc6F)c6nc(c(-c7c(F)cccc7F)c7ccc4[nH]7)C=C6)C=C5)cc3)cc2F)c1
REMARK SMILES IDX 19 1 20 2 18 3 15 4 16 5 84 6 17 7 83 8 85 9 14 10 10 11
REMARK SMILES IDX 11 12 86 13 12 14 13 15 9 16 7 17 6 18 8 20 5 21 4 22 3 23
REMARK SMILES IDX 2 24 1 25 21 26 22 27 23 28 24 29 25 30 26 31 27 32 28 33
REMARK SMILES IDX 29 34 30 35 82 36 31 37 81 38 32 39 33 40 34 41 75 42 35 43
REMARK SMILES IDX 80 44 74 45 76 46 36 47 79 48 73 49 72 50 37 52 63 53 46 54
REMARK SMILES IDX 62 55 47 56 50 57 61 58 77 59 48 60 49 61 60 63 78 64 51 65
REMARK SMILES IDX 38 66 39 67 44 68 40 69 41 70 43 71 45 72 42 73 64 74 65 75
REMARK SMILES IDX 70 76 66 77 67 78 69 79 71 80 68 81 52 82 53 83 58 84 54 85
REMARK SMILES IDX 55 86 57 87 59 88 56 89
REMARK H PARENT 6 19 76 51 50 62
REMARK Flexibility Score: inf
ROOT
ATOM      1  C   UNL     1      -3.119   5.821  12.869  1.00  0.00     0.126 C 
ATOM      2  C   UNL     1      -3.932   7.007  13.385  1.00  0.00     0.025 C 
ENDROOT
BRANCH   1   3
ATOM      3  C   UNL     1      -3.328   5.571  11.383  1.00  0.00    -0.031 A 
ATOM      4  C   UNL     1      -3.671   5.153   8.582  1.00  0.00     0.018 A 
ATOM      5  C   UNL     1      -4.765   5.136   9.464  1.00  0.00     0.012 A 
ATOM      6  C   UNL     1      -2.404   5.358   9.141  1.00  0.00     0.131 A 
ATOM      7  C   UNL     1      -4.599   5.347  10.839  1.00  0.00     0.005 A 
ATOM      8  C   UNL     1      -2.229   5.568  10.511  1.00  0.00     0.044 A 
ATOM      9  F   UNL     1      -1.314   5.399   8.358  1.00  0.00    -0.206 F 
BRANCH   4  10
ATOM     10  C   UNL     1      -3.872   5.003   7.130  1.00  0.00    -0.012 A 
ATOM     11  C   UNL     1      -3.325   4.000   4.988  1.00  0.00     0.133 A 
ATOM     12  C   UNL     1      -4.267   4.797   4.341  1.00  0.00     0.047 A 
ATOM     13  C   UNL     1      -3.113   4.101   6.365  1.00  0.00     0.056 A 
ATOM     14  C   UNL     1      -5.027   5.692   5.083  1.00  0.00     0.004 A 
ATOM     15  C   UNL     1      -4.830   5.793   6.463  1.00  0.00     0.009 A 
BRANCH  11  16
ATOM     16  O   UNL     1      -2.522   3.194   4.163  1.00  0.00    -0.410 OA
BRANCH  16  17
ATOM     17  C   UNL     1      -2.380   1.847   4.463  1.00  0.00     0.412 C 
ATOM     18  N   UNL     1      -1.595   1.181   3.560  1.00  0.00    -0.321 N 
ATOM     19  H   UNL     1      -1.431   0.227   3.737  1.00  0.00     0.167 HD
ATOM     20  O   UNL     1      -2.892   1.258   5.406  1.00  0.00    -0.224 OA
BRANCH  18  21
ATOM     21  C   UNL     1      -0.982   1.736   2.370  1.00  0.00     0.119 C 
BRANCH  21  22
ATOM     22  C   UNL     1       0.543   1.649   2.411  1.00  0.00     0.021 C 
BRANCH  22  23
ATOM     23  C   UNL     1       1.112   0.225   2.413  1.00  0.00     0.002 C 
BRANCH  23  24
ATOM     24  C   UNL     1       0.703  -0.656   1.228  1.00  0.00    -0.003 C 
ATOM     25  C   UNL     1       1.117  -0.093  -0.122  1.00  0.00     0.004 C 
ENDBRANCH  23  24
ENDBRANCH  22  23
ENDBRANCH  21  22
ENDBRANCH  18  21
ENDBRANCH  16  17
ENDBRANCH  11  16
ENDBRANCH   4  10
ENDBRANCH   1   3
BRANCH   1  26
ATOM     26  C   UNL     1      -3.318   4.617  13.782  1.00  0.00     0.313 C 
ATOM     27  O   UNL     1      -2.706   4.494  14.839  1.00  0.00    -0.252 OA
BRANCH  26  28
ATOM     28  O   UNL     1      -4.253   3.740  13.333  1.00  0.00    -0.462 OA
BRANCH  28  29
ATOM     29  C   UNL     1      -4.452   2.543  14.109  1.00  0.00     0.274 C 
BRANCH  29  30
ATOM     30  C   UNL     1      -3.720   1.350  13.490  1.00  0.00     0.275 C 
BRANCH  30  31
ATOM     31  O   UNL     1      -2.293   1.483  13.627  1.00  0.00    -0.458 OA
BRANCH  31  32
ATOM     32  C   UNL     1      -1.662   2.011  12.553  1.00  0.00     0.338 C 
ATOM     33  O   UNL     1      -2.155   2.338  11.488  1.00  0.00    -0.246 OA
BRANCH  32  34
ATOM     34  C   UNL     1      -0.256   2.270  12.888  1.00  0.00     0.060 A 
ATOM     35  C   UNL     1       0.166   3.599  12.964  1.00  0.00     0.016 A 
ATOM     36  C   UNL     1       0.656   1.225  13.035  1.00  0.00     0.016 A 
ATOM     37  C   UNL     1       1.509   3.896  13.175  1.00  0.00     0.010 A 
ATOM     38  C   UNL     1       2.004   1.523  13.257  1.00  0.00     0.010 A 
ATOM     39  C   UNL     1       2.440   2.859  13.314  1.00  0.00    -0.014 A 
BRANCH  39  40
ATOM     40  C   UNL     1       3.877   3.182  13.475  1.00  0.00     0.031 A 
ATOM     41  C   UNL     1       4.821   2.977  12.327  1.00  0.00     0.074 A 
ATOM     42  C   UNL     1       4.324   3.682  14.641  1.00  0.00     0.049 A 
ATOM     43  N   UNL     1       6.122   3.113  12.293  1.00  0.00    -0.248 NA
ATOM     44  C   UNL     1       4.223   2.566  11.047  1.00  0.00     0.031 C 
ATOM     45  C   UNL     1       3.494   3.970  15.811  1.00  0.00     0.029 A 
ATOM     46  N   UNL     1       5.591   4.032  15.034  1.00  0.00    -0.354 N 
ATOM     47  C   UNL     1       6.501   2.789  10.997  1.00  0.00     0.074 A 
ATOM     48  C   UNL     1       5.295   2.435  10.278  1.00  0.00     0.031 C 
ATOM     49  C   UNL     1       4.274   4.450  16.793  1.00  0.00     0.029 A 
ATOM     50  C   UNL     1       5.661   4.461  16.336  1.00  0.00     0.049 A 
ATOM     51  H   UNL     1       6.374   3.981  14.439  1.00  0.00     0.167 HD
ATOM     52  C   UNL     1       7.743   2.791  10.457  1.00  0.00     0.037 A 
ATOM     53  C   UNL     1       6.729   4.796  17.085  1.00  0.00     0.037 A 
ATOM     54  C   UNL     1       8.939   3.156  11.170  1.00  0.00     0.049 A 
ATOM     55  C   UNL     1       8.102   4.736  16.476  1.00  0.00     0.074 A 
ATOM     56  C   UNL     1      10.244   3.183  10.711  1.00  0.00     0.029 A 
ATOM     57  N   UNL     1       8.972   3.566  12.494  1.00  0.00    -0.354 N 
ATOM     58  N   UNL     1       8.452   4.408  15.256  1.00  0.00    -0.248 NA
ATOM     59  C   UNL     1       9.231   5.086  17.351  1.00  0.00     0.031 C 
ATOM     60  C   UNL     1      11.072   3.580  11.766  1.00  0.00     0.029 A 
ATOM     61  C   UNL     1      10.277   3.836  12.872  1.00  0.00     0.049 A 
ATOM     62  H   UNL     1       8.185   3.651  13.079  1.00  0.00     0.167 HD
ATOM     63  C   UNL     1       9.834   4.530  15.210  1.00  0.00     0.074 A 
ATOM     64  C   UNL     1      10.259   4.978  16.521  1.00  0.00     0.031 C 
ATOM     65  C   UNL     1      10.677   4.290  14.178  1.00  0.00     0.037 A 
BRANCH  52  66
ATOM     66  C   UNL     1       7.875   2.365   9.026  1.00  0.00     0.057 A 
ATOM     67  C   UNL     1       7.495   3.201   7.970  1.00  0.00     0.134 A 
ATOM     68  C   UNL     1       8.430   1.121   8.701  1.00  0.00     0.134 A 
ATOM     69  F   UNL     1       6.945   4.399   8.216  1.00  0.00    -0.206 F 
ATOM     70  C   UNL     1       7.651   2.809   6.638  1.00  0.00     0.040 A 
ATOM     71  C   UNL     1       8.609   0.726   7.374  1.00  0.00     0.040 A 
ATOM     72  F   UNL     1       8.818   0.275   9.667  1.00  0.00    -0.206 F 
ATOM     73  C   UNL     1       8.216   1.571   6.338  1.00  0.00     0.006 A 
ENDBRANCH  52  66
BRANCH  53  74
ATOM     74  C   UNL     1       6.548   5.189  18.504  1.00  0.00     0.057 A 
ATOM     75  C   UNL     1       6.769   6.505  18.926  1.00  0.00     0.134 A 
ATOM     76  C   UNL     1       6.172   4.253  19.474  1.00  0.00     0.134 A 
ATOM     77  F   UNL     1       7.155   7.441  18.047  1.00  0.00    -0.206 F 
ATOM     78  C   UNL     1       6.638   6.872  20.267  1.00  0.00     0.040 A 
ATOM     79  C   UNL     1       6.014   4.611  20.813  1.00  0.00     0.040 A 
ATOM     80  F   UNL     1       5.947   2.976  19.132  1.00  0.00    -0.206 F 
ATOM     81  C   UNL     1       6.255   5.924  21.214  1.00  0.00     0.006 A 
ENDBRANCH  53  74
BRANCH  65  82
ATOM     82  C   UNL     1      12.136   4.539  14.416  1.00  0.00     0.057 A 
ATOM     83  C   UNL     1      12.918   3.658  15.173  1.00  0.00     0.134 A 
ATOM     84  C   UNL     1      12.770   5.654  13.855  1.00  0.00     0.134 A 
ATOM     85  F   UNL     1      12.365   2.580  15.748  1.00  0.00    -0.206 F 
ATOM     86  C   UNL     1      14.279   3.889  15.380  1.00  0.00     0.040 A 
ATOM     87  C   UNL     1      14.134   5.883  14.037  1.00  0.00     0.040 A 
ATOM     88  F   UNL     1      12.077   6.531  13.114  1.00  0.00    -0.206 F 
ATOM     89  C   UNL     1      14.892   5.001  14.805  1.00  0.00     0.006 A 
ENDBRANCH  65  82
ENDBRANCH  39  40
ENDBRANCH  32  34
ENDBRANCH  31  32
ENDBRANCH  30  31
ENDBRANCH  29  30
ENDBRANCH  28  29
ENDBRANCH  26  28
ENDBRANCH   1  26
TORSDOF 19
