REMARK SMILES O=C(OCCOC(=O)c1ccccc1Nc1nc(Cl)nc(Nc2ccc(N3CCOCC3=O)cc2)n1)c1ccc(-c2c3nc(c(-c4c(F)cccc4F)c4ccc([nH]4)c(-c4c(F)cccc4F)c4nc(c(-c5c(F)cccc5F)c5ccc2[nH]5)C=C4)C=C3)cc1
REMARK SMILES IDX 6 1 5 2 4 3 3 4 2 5 1 6 37 7 38 8 90 9 39 10 89 11 40 12
REMARK SMILES IDX 41 13 42 14 83 15 43 16 88 17 82 18 84 19 44 20 87 21 81 22
REMARK SMILES IDX 80 23 45 25 71 26 54 27 70 28 55 29 58 30 69 31 85 32 56 33
REMARK SMILES IDX 57 34 68 36 86 37 59 38 46 39 47 40 52 41 48 42 49 43 51 44
REMARK SMILES IDX 53 45 50 46 72 47 73 48 78 49 74 50 75 51 77 52 79 53 76 54
REMARK SMILES IDX 60 55 61 56 66 57 62 58 63 59 65 60 67 61 64 62 7 63 8 64
REMARK SMILES IDX 9 65 10 66 14 67 11 68 13 69 12 70 15 71 16 73 17 74 36 75
REMARK SMILES IDX 18 76 21 77 19 78 20 79 22 80 23 82 24 83 35 84 25 85 34 86
REMARK SMILES IDX 26 87 27 88 28 89 32 90 29 91 31 92 33 93 30 94
REMARK H PARENT 84 24 58 35 15 72 22 81
REMARK Flexibility Score: inf
ROOT
ATOM      1  O   UNL     1       3.746   2.040  -1.037  1.00  0.00    -0.458 OA
ENDROOT
BRANCH   1   2
ATOM      2  C   UNL     1       4.182   1.099  -2.033  1.00  0.00     0.275 C 
BRANCH   2   3
ATOM      3  C   UNL     1       4.225  -0.339  -1.507  1.00  0.00     0.275 C 
BRANCH   3   4
ATOM      4  O   UNL     1       3.025  -0.726  -0.815  1.00  0.00    -0.458 OA
BRANCH   4   5
ATOM      5  C   UNL     1       2.711  -0.712   0.500  1.00  0.00     0.338 C 
ATOM      6  O   UNL     1       1.702  -1.324   0.854  1.00  0.00    -0.246 OA
BRANCH   5   7
ATOM      7  C   UNL     1       3.442   0.063   1.563  1.00  0.00     0.060 A 
ATOM      8  C   UNL     1       4.719   0.618   1.467  1.00  0.00     0.016 A 
ATOM      9  C   UNL     1       2.753   0.241   2.784  1.00  0.00     0.016 A 
ATOM     10  C   UNL     1       5.295   1.302   2.545  1.00  0.00     0.010 A 
ATOM     11  C   UNL     1       3.317   0.935   3.862  1.00  0.00     0.010 A 
ATOM     12  C   UNL     1       4.610   1.445   3.754  1.00  0.00    -0.014 A 
BRANCH  12  13
ATOM     13  C   UNL     1       5.335   2.010   4.912  1.00  0.00     0.031 A 
ATOM     14  C   UNL     1       6.025   1.088   5.862  1.00  0.00     0.074 A 
ATOM     15  C   UNL     1       5.414   3.337   5.102  1.00  0.00     0.049 A 
ATOM     16  N   UNL     1       6.853   1.373   6.831  1.00  0.00    -0.248 NA
ATOM     17  C   UNL     1       5.700  -0.339   5.734  1.00  0.00     0.031 C 
ATOM     18  C   UNL     1       4.652   4.324   4.354  1.00  0.00     0.029 A 
ATOM     19  N   UNL     1       6.177   4.083   5.967  1.00  0.00    -0.354 N 
ATOM     20  C   UNL     1       7.098   0.172   7.474  1.00  0.00     0.074 A 
ATOM     21  C   UNL     1       6.351  -0.849   6.768  1.00  0.00     0.031 C 
ATOM     22  C   UNL     1       5.040   5.548   4.744  1.00  0.00     0.029 A 
ATOM     23  C   UNL     1       6.124   5.432   5.700  1.00  0.00     0.049 A 
ATOM     24  H   UNL     1       6.706   3.694   6.700  1.00  0.00     0.167 HD
ATOM     25  C   UNL     1       7.849  -0.047   8.579  1.00  0.00     0.037 A 
ATOM     26  C   UNL     1       6.909   6.438   6.127  1.00  0.00     0.037 A 
ATOM     27  C   UNL     1       8.570   0.983   9.280  1.00  0.00     0.049 A 
ATOM     28  C   UNL     1       7.931   6.136   7.180  1.00  0.00     0.074 A 
ATOM     29  C   UNL     1       9.348   0.876  10.419  1.00  0.00     0.029 A 
ATOM     30  N   UNL     1       8.595   2.318   8.904  1.00  0.00    -0.354 N 
ATOM     31  N   UNL     1       8.204   4.990   7.751  1.00  0.00    -0.248 NA
ATOM     32  C   UNL     1       8.723   7.269   7.677  1.00  0.00     0.031 C 
ATOM     33  C   UNL     1       9.823   2.153  10.746  1.00  0.00     0.029 A 
ATOM     34  C   UNL     1       9.376   3.046   9.787  1.00  0.00     0.049 A 
ATOM     35  H   UNL     1       8.127   2.694   8.124  1.00  0.00     0.167 HD
ATOM     36  C   UNL     1       9.150   5.273   8.720  1.00  0.00     0.074 A 
ATOM     37  C   UNL     1       9.477   6.680   8.593  1.00  0.00     0.031 C 
ATOM     38  C   UNL     1       9.660   4.452   9.668  1.00  0.00     0.037 A 
BRANCH  25  39
ATOM     39  C   UNL     1       7.839  -1.442   9.123  1.00  0.00     0.057 A 
ATOM     40  C   UNL     1       8.475  -2.503   8.465  1.00  0.00     0.134 A 
ATOM     41  C   UNL     1       7.122  -1.738  10.289  1.00  0.00     0.134 A 
ATOM     42  F   UNL     1       9.150  -2.290   7.325  1.00  0.00    -0.206 F 
ATOM     43  C   UNL     1       8.366  -3.816   8.928  1.00  0.00     0.040 A 
ATOM     44  C   UNL     1       7.028  -3.042  10.775  1.00  0.00     0.040 A 
ATOM     45  F   UNL     1       6.483  -0.769  10.960  1.00  0.00    -0.206 F 
ATOM     46  C   UNL     1       7.641  -4.087  10.087  1.00  0.00     0.006 A 
ENDBRANCH  25  39
BRANCH  26  47
ATOM     47  C   UNL     1       6.856   7.796   5.528  1.00  0.00     0.057 A 
ATOM     48  C   UNL     1       7.894   8.232   4.689  1.00  0.00     0.134 A 
ATOM     49  C   UNL     1       5.842   8.710   5.820  1.00  0.00     0.134 A 
ATOM     50  F   UNL     1       8.918   7.413   4.405  1.00  0.00    -0.206 F 
ATOM     51  C   UNL     1       7.930   9.528   4.172  1.00  0.00     0.040 A 
ATOM     52  C   UNL     1       5.861  10.010   5.301  1.00  0.00     0.040 A 
ATOM     53  F   UNL     1       4.810   8.351   6.596  1.00  0.00    -0.206 F 
ATOM     54  C   UNL     1       6.906  10.420   4.473  1.00  0.00     0.006 A 
ENDBRANCH  26  47
BRANCH  38  55
ATOM     55  C   UNL     1      10.569   5.089  10.670  1.00  0.00     0.057 A 
ATOM     56  C   UNL     1      10.072   5.956  11.653  1.00  0.00     0.134 A 
ATOM     57  C   UNL     1      11.945   4.843  10.651  1.00  0.00     0.134 A 
ATOM     58  F   UNL     1       8.763   6.245  11.707  1.00  0.00    -0.206 F 
ATOM     59  C   UNL     1      10.919   6.578  12.569  1.00  0.00     0.040 A 
ATOM     60  C   UNL     1      12.799   5.442  11.577  1.00  0.00     0.040 A 
ATOM     61  F   UNL     1      12.479   4.025   9.732  1.00  0.00    -0.206 F 
ATOM     62  C   UNL     1      12.287   6.318  12.534  1.00  0.00     0.006 A 
ENDBRANCH  38  55
ENDBRANCH  12  13
ENDBRANCH   5   7
ENDBRANCH   4   5
ENDBRANCH   3   4
ENDBRANCH   2   3
ENDBRANCH   1   2
BRANCH   1  63
ATOM     63  C   UNL     1       2.418   2.333  -1.086  1.00  0.00     0.340 C 
ATOM     64  O   UNL     1       1.627   1.968  -1.931  1.00  0.00    -0.246 OA
BRANCH  63  65
ATOM     65  C   UNL     1       2.006   3.044   0.141  1.00  0.00     0.083 A 
ATOM     66  C   UNL     1       0.912   2.456   0.817  1.00  0.00     0.018 A 
ATOM     67  C   UNL     1       2.602   4.232   0.604  1.00  0.00     0.055 A 
ATOM     68  C   UNL     1       0.409   3.013   1.988  1.00  0.00     0.001 A 
ATOM     69  C   UNL     1       2.019   4.785   1.767  1.00  0.00     0.027 A 
ATOM     70  C   UNL     1       0.964   4.185   2.462  1.00  0.00     0.002 A 
BRANCH  67  71
ATOM     71  N   UNL     1       3.711   4.842  -0.034  1.00  0.00    -0.323 N 
ATOM     72  H   UNL     1       3.976   4.431  -0.888  1.00  0.00     0.170 HD
BRANCH  71  73
ATOM     73  C   UNL     1       4.490   5.941   0.362  1.00  0.00     0.233 A 
ATOM     74  N   UNL     1       4.330   6.394   1.589  1.00  0.00    -0.182 NA
ATOM     75  N   UNL     1       5.260   6.563  -0.536  1.00  0.00    -0.176 NA
ATOM     76  C   UNL     1       4.982   7.492   1.882  1.00  0.00     0.228 A 
ATOM     77  C   UNL     1       5.919   7.646  -0.097  1.00  0.00     0.233 A 
ATOM     78  Cl  UNL     1       4.112   8.555   2.912  1.00  0.00    -0.041 Cl
ATOM     79  N   UNL     1       5.865   8.096   1.143  1.00  0.00    -0.182 NA
BRANCH  77  80
ATOM     80  N   UNL     1       6.522   8.523  -1.011  1.00  0.00    -0.324 N 
ATOM     81  H   UNL     1       6.535   8.286  -1.966  1.00  0.00     0.170 HD
BRANCH  80  82
ATOM     82  C   UNL     1       7.112   9.736  -0.596  1.00  0.00     0.041 A 
ATOM     83  C   UNL     1       6.391  10.936  -0.552  1.00  0.00     0.028 A 
ATOM     84  C   UNL     1       8.377   9.709  -0.008  1.00  0.00     0.028 A 
ATOM     85  C   UNL     1       6.942  12.089   0.040  1.00  0.00     0.028 A 
ATOM     86  C   UNL     1       8.942  10.864   0.540  1.00  0.00     0.028 A 
ATOM     87  C   UNL     1       8.243  12.076   0.562  1.00  0.00     0.044 A 
BRANCH  87  88
ATOM     88  N   UNL     1       8.857  13.254   1.102  1.00  0.00    -0.308 N 
ATOM     89  C   UNL     1       8.076  14.098   2.017  1.00  0.00     0.154 C 
ATOM     90  C   UNL     1      10.236  13.473   0.946  1.00  0.00     0.253 C 
ATOM     91  C   UNL     1       8.696  15.473   2.254  1.00  0.00     0.183 C 
ATOM     92  C   UNL     1      10.802  14.728   1.628  1.00  0.00     0.260 C 
ATOM     93  O   UNL     1      10.980  12.795   0.234  1.00  0.00    -0.272 OA
ATOM     94  O   UNL     1      10.047  15.314   2.674  1.00  0.00    -0.370 OA
ENDBRANCH  87  88
ENDBRANCH  80  82
ENDBRANCH  77  80
ENDBRANCH  71  73
ENDBRANCH  67  71
ENDBRANCH  63  65
ENDBRANCH   1  63
TORSDOF 16
