REMARK SMILES CC(C)[C@@H](NC(N)=O)C(=O)N[C@H](C(=O)OCCOC(=O)c1ccc(-c2c3nc(c(-c4c(F)cccc4F)c4ccc([nH]4)c(-c4c(F)cccc4F)c4nc(c(-c5c(F)cccc5F)c5ccc2[nH]5)C=C4)C=C3)cc1)[C@@H](C)O
REMARK SMILES IDX 16 1 15 2 13 3 14 4 12 5 11 6 9 7 10 8 4 10 2 11 1 12 3 13
REMARK SMILES IDX 5 14 6 15 7 17 8 18 75 21 76 22 77 23 17 25 18 26 19 27
REMARK SMILES IDX 20 28 21 29 22 30 74 31 23 32 73 33 24 34 25 35 26 36 67 37
REMARK SMILES IDX 27 38 72 39 66 40 68 41 28 42 71 43 65 44 64 45 29 47 55 48
REMARK SMILES IDX 38 49 54 50 39 51 42 52 53 53 69 54 40 55 41 56 52 58 70 59
REMARK SMILES IDX 43 60 30 61 31 62 36 63 32 64 33 65 35 66 37 67 34 68 56 69
REMARK SMILES IDX 57 70 62 71 58 72 59 73 61 74 63 75 60 76 44 77 45 78 50 79
REMARK SMILES IDX 46 80 47 81 49 82 51 83 48 84
REMARK H PARENT 11 9 5 16 7 19 7 20 77 24 68 46 42 57
REMARK Flexibility Score: inf
ROOT
ATOM      1  C   UNL     1      -2.026  -3.645   1.969  1.00  0.00     0.274 C 
ENDROOT
BRANCH   1   2
ATOM      2  O   UNL     1      -1.142  -3.525   0.824  1.00  0.00    -0.460 OA
BRANCH   2   3
ATOM      3  C   UNL     1      -1.479  -4.178  -0.335  1.00  0.00     0.331 C 
ATOM      4  O   UNL     1      -2.531  -4.784  -0.502  1.00  0.00    -0.250 OA
BRANCH   3   5
ATOM      5  C   UNL     1      -0.347  -4.059  -1.377  1.00  0.00     0.221 C 
BRANCH   5   6
ATOM      6  N   UNL     1       0.957  -4.599  -0.936  1.00  0.00    -0.339 N 
ATOM      7  C   UNL     1       1.386  -5.829  -0.528  1.00  0.00     0.243 C 
ATOM      8  O   UNL     1       2.616  -5.974  -0.478  1.00  0.00    -0.273 OA
ATOM      9  H   UNL     1       1.673  -3.923  -0.936  1.00  0.00     0.164 HD
BRANCH   7  10
ATOM     10  C   UNL     1       0.465  -6.884   0.147  1.00  0.00     0.175 C 
BRANCH  10  11
ATOM     11  C   UNL     1       0.071  -6.432   1.574  1.00  0.00     0.015 C 
ATOM     12  C   UNL     1      -0.637  -7.504   2.404  1.00  0.00     0.010 C 
ATOM     13  C   UNL     1       1.194  -5.795   2.397  1.00  0.00     0.010 C 
ENDBRANCH  10  11
BRANCH  10  14
ATOM     14  N   UNL     1      -0.731  -7.146  -0.651  1.00  0.00    -0.326 N 
ATOM     15  C   UNL     1      -0.665  -7.826  -1.826  1.00  0.00     0.312 C 
ATOM     16  H   UNL     1      -1.604  -6.822  -0.331  1.00  0.00     0.166 HD
ATOM     17  N   UNL     1      -1.872  -7.952  -2.427  1.00  0.00    -0.352 N 
ATOM     18  O   UNL     1       0.359  -8.232  -2.350  1.00  0.00    -0.249 OA
ATOM     19  H   UNL     1      -2.682  -7.615  -1.980  1.00  0.00     0.161 HD
ATOM     20  H   UNL     1      -1.940  -8.380  -3.311  1.00  0.00     0.161 HD
ENDBRANCH  10  14
ENDBRANCH   7  10
ENDBRANCH   5   6
BRANCH   5  21
ATOM     21  C   UNL     1      -0.675  -4.486  -2.830  1.00  0.00     0.145 C 
ATOM     22  C   UNL     1      -1.948  -3.906  -3.436  1.00  0.00     0.041 C 
BRANCH  21  23
ATOM     23  O   UNL     1       0.411  -4.085  -3.693  1.00  0.00    -0.391 OA
ATOM     24  H   UNL     1       0.478  -3.117  -3.699  1.00  0.00     0.211 HD
ENDBRANCH  21  23
ENDBRANCH   5  21
ENDBRANCH   3   5
ENDBRANCH   2   3
ENDBRANCH   1   2
BRANCH   1  25
ATOM     25  C   UNL     1      -2.165  -2.313   2.703  1.00  0.00     0.275 C 
BRANCH  25  26
ATOM     26  O   UNL     1      -2.965  -1.434   1.911  1.00  0.00    -0.458 OA
BRANCH  26  27
ATOM     27  C   UNL     1      -2.276  -0.822   0.919  1.00  0.00     0.338 C 
ATOM     28  O   UNL     1      -1.076  -0.683   0.817  1.00  0.00    -0.246 OA
BRANCH  27  29
ATOM     29  C   UNL     1      -3.220  -0.609  -0.186  1.00  0.00     0.060 A 
ATOM     30  C   UNL     1      -2.784  -0.956  -1.468  1.00  0.00     0.016 A 
ATOM     31  C   UNL     1      -4.503  -0.106   0.032  1.00  0.00     0.016 A 
ATOM     32  C   UNL     1      -3.625  -0.777  -2.554  1.00  0.00     0.010 A 
ATOM     33  C   UNL     1      -5.340   0.094  -1.059  1.00  0.00     0.010 A 
ATOM     34  C   UNL     1      -4.887  -0.216  -2.352  1.00  0.00    -0.014 A 
BRANCH  34  35
ATOM     35  C   UNL     1      -5.637   0.283  -3.513  1.00  0.00     0.031 A 
ATOM     36  C   UNL     1      -5.476   1.730  -3.859  1.00  0.00     0.074 A 
ATOM     37  C   UNL     1      -6.427  -0.534  -4.223  1.00  0.00     0.049 A 
ATOM     38  N   UNL     1      -6.150   2.460  -4.703  1.00  0.00    -0.248 NA
ATOM     39  C   UNL     1      -4.411   2.455  -3.143  1.00  0.00     0.031 C 
ATOM     40  C   UNL     1      -6.566  -1.974  -4.011  1.00  0.00     0.029 A 
ATOM     41  N   UNL     1      -7.284  -0.255  -5.252  1.00  0.00    -0.354 N 
ATOM     42  C   UNL     1      -5.614   3.736  -4.597  1.00  0.00     0.074 A 
ATOM     43  C   UNL     1      -4.564   3.684  -3.606  1.00  0.00     0.031 C 
ATOM     44  C   UNL     1      -7.490  -2.448  -4.863  1.00  0.00     0.029 A 
ATOM     45  C   UNL     1      -8.040  -1.334  -5.633  1.00  0.00     0.049 A 
ATOM     46  H   UNL     1      -7.351   0.631  -5.677  1.00  0.00     0.167 HD
ATOM     47  C   UNL     1      -5.984   4.852  -5.263  1.00  0.00     0.037 A 
ATOM     48  C   UNL     1      -9.094  -1.389  -6.468  1.00  0.00     0.037 A 
ATOM     49  C   UNL     1      -7.043   4.871  -6.234  1.00  0.00     0.049 A 
ATOM     50  C   UNL     1      -9.551  -0.117  -7.133  1.00  0.00     0.074 A 
ATOM     51  C   UNL     1      -7.515   5.936  -6.976  1.00  0.00     0.029 A 
ATOM     52  N   UNL     1      -7.803   3.763  -6.585  1.00  0.00    -0.354 N 
ATOM     53  N   UNL     1      -9.058   1.095  -7.025  1.00  0.00    -0.248 NA
ATOM     54  C   UNL     1     -10.712  -0.215  -8.026  1.00  0.00     0.031 C 
ATOM     55  C   UNL     1      -8.602   5.484  -7.731  1.00  0.00     0.029 A 
ATOM     56  C   UNL     1      -8.763   4.124  -7.511  1.00  0.00     0.049 A 
ATOM     57  H   UNL     1      -7.677   2.854  -6.226  1.00  0.00     0.167 HD
ATOM     58  C   UNL     1      -9.828   1.898  -7.858  1.00  0.00     0.074 A 
ATOM     59  C   UNL     1     -10.818   1.031  -8.466  1.00  0.00     0.031 C 
ATOM     60  C   UNL     1      -9.726   3.228  -8.104  1.00  0.00     0.037 A 
BRANCH  47  61
ATOM     61  C   UNL     1      -5.287   6.130  -4.904  1.00  0.00     0.057 A 
ATOM     62  C   UNL     1      -3.942   6.365  -5.216  1.00  0.00     0.134 A 
ATOM     63  C   UNL     1      -5.974   7.136  -4.213  1.00  0.00     0.134 A 
ATOM     64  F   UNL     1      -3.217   5.431  -5.851  1.00  0.00    -0.206 F 
ATOM     65  C   UNL     1      -3.297   7.542  -4.828  1.00  0.00     0.040 A 
ATOM     66  C   UNL     1      -5.350   8.329  -3.846  1.00  0.00     0.040 A 
ATOM     67  F   UNL     1      -7.263   6.973  -3.875  1.00  0.00    -0.206 F 
ATOM     68  C   UNL     1      -4.005   8.530  -4.146  1.00  0.00     0.006 A 
ENDBRANCH  47  61
BRANCH  48  69
ATOM     69  C   UNL     1      -9.807  -2.674  -6.678  1.00  0.00     0.057 A 
ATOM     70  C   UNL     1      -9.765  -3.335  -7.910  1.00  0.00     0.134 A 
ATOM     71  C   UNL     1     -10.541  -3.277  -5.648  1.00  0.00     0.134 A 
ATOM     72  F   UNL     1      -9.095  -2.799  -8.941  1.00  0.00    -0.206 F 
ATOM     73  C   UNL     1     -10.436  -4.542  -8.115  1.00  0.00     0.040 A 
ATOM     74  C   UNL     1     -11.194  -4.497  -5.831  1.00  0.00     0.040 A 
ATOM     75  F   UNL     1     -10.617  -2.697  -4.441  1.00  0.00    -0.206 F 
ATOM     76  C   UNL     1     -11.147  -5.130  -7.070  1.00  0.00     0.006 A 
ENDBRANCH  48  69
BRANCH  60  77
ATOM     77  C   UNL     1     -10.675   3.818  -9.105  1.00  0.00     0.057 A 
ATOM     78  C   UNL     1     -12.028   4.023  -8.814  1.00  0.00     0.134 A 
ATOM     79  C   UNL     1     -10.203   4.260 -10.348  1.00  0.00     0.134 A 
ATOM     80  F   UNL     1     -12.543   3.613  -7.645  1.00  0.00    -0.206 F 
ATOM     81  C   UNL     1     -12.883   4.637  -9.731  1.00  0.00     0.040 A 
ATOM     82  C   UNL     1     -11.040   4.901 -11.260  1.00  0.00     0.040 A 
ATOM     83  F   UNL     1      -8.912   4.104 -10.681  1.00  0.00    -0.206 F 
ATOM     84  C   UNL     1     -12.386   5.088 -10.953  1.00  0.00     0.006 A 
ENDBRANCH  60  77
ENDBRANCH  34  35
ENDBRANCH  27  29
ENDBRANCH  26  27
ENDBRANCH  25  26
ENDBRANCH   1  25
TORSDOF 17
