REMARK SMILES C/C(=C(/F)C(=O)OCCOC(=O)c1ccc(-c2c3nc(c(-c4c(F)cccc4F)c4ccc([nH]4)c(-c4c(F)cccc4F)c4nc(c(-c5c(F)cccc5F)c5ccc2[nH]5)C=C4)C=C3)cc1)c1cccc(-n2cnnn2)c1
REMARK SMILES IDX 8 1 7 2 5 3 6 4 3 5 1 6 2 7 4 8 67 9 68 10 77 11 69 12 71 13
REMARK SMILES IDX 70 14 72 15 73 16 76 17 74 18 75 19 9 20 10 21 11 22 12 23
REMARK SMILES IDX 13 24 14 25 66 26 15 27 65 28 16 29 17 30 18 31 59 32 19 33
REMARK SMILES IDX 64 34 58 35 60 36 20 37 63 38 57 39 56 40 21 42 47 43 30 44
REMARK SMILES IDX 46 45 31 46 34 47 45 48 61 49 32 50 33 51 44 53 62 54 35 55
REMARK SMILES IDX 22 56 23 57 28 58 24 59 25 60 27 61 29 62 26 63 48 64 49 65
REMARK SMILES IDX 54 66 50 67 51 68 53 69 55 70 52 71 36 72 37 73 42 74 38 75
REMARK SMILES IDX 39 76 41 77 43 78 40 79
REMARK H PARENT 60 41 34 52
REMARK Flexibility Score: inf
ROOT
ATOM      1  C   UNL     1      -1.683   2.639   3.270  1.00  0.00     0.275 C 
ENDROOT
BRANCH   1   2
ATOM      2  O   UNL     1      -1.159   1.304   3.440  1.00  0.00    -0.457 OA
BRANCH   2   3
ATOM      3  C   UNL     1      -1.212   0.508   2.342  1.00  0.00     0.367 C 
ATOM      4  O   UNL     1      -1.688   0.820   1.260  1.00  0.00    -0.243 OA
BRANCH   3   5
ATOM      5  C   UNL     1      -0.582  -0.808   2.626  1.00  0.00     0.211 C 
ATOM      6  C   UNL     1       0.642  -0.944   0.412  1.00  0.00     0.048 C 
ATOM      7  C   UNL     1       0.216  -1.461   1.760  1.00  0.00    -0.000 C 
ATOM      8  F   UNL     1      -0.873  -1.329   3.838  1.00  0.00    -0.199 F 
BRANCH   7   9
ATOM      9  C   UNL     1       0.734  -2.825   2.003  1.00  0.00    -0.017 A 
ATOM     10  C   UNL     1      -0.158  -3.901   2.068  1.00  0.00     0.008 A 
ATOM     11  C   UNL     1       2.112  -3.076   1.882  1.00  0.00     0.037 A 
ATOM     12  C   UNL     1       0.312  -5.209   1.946  1.00  0.00     0.003 A 
ATOM     13  C   UNL     1       2.581  -4.387   1.721  1.00  0.00     0.069 A 
ATOM     14  C   UNL     1       1.673  -5.453   1.747  1.00  0.00     0.028 A 
BRANCH  13  15
ATOM     15  N   UNL     1       3.949  -4.635   1.453  1.00  0.00    -0.201 N 
ATOM     16  C   UNL     1       5.011  -3.765   1.448  1.00  0.00     0.252 A 
ATOM     17  N   UNL     1       4.413  -5.855   1.099  1.00  0.00    -0.040 NA
ATOM     18  N   UNL     1       6.096  -4.403   1.075  1.00  0.00    -0.117 NA
ATOM     19  N   UNL     1       5.706  -5.697   0.851  1.00  0.00    -0.024 NA
ENDBRANCH  13  15
ENDBRANCH   7   9
ENDBRANCH   3   5
ENDBRANCH   2   3
ENDBRANCH   1   2
BRANCH   1  20
ATOM     20  C   UNL     1      -0.542   3.649   3.143  1.00  0.00     0.275 C 
BRANCH  20  21
ATOM     21  O   UNL     1       0.156   3.431   1.903  1.00  0.00    -0.458 OA
BRANCH  21  22
ATOM     22  C   UNL     1       1.510   3.466   1.960  1.00  0.00     0.338 C 
ATOM     23  O   UNL     1       2.192   3.705   2.942  1.00  0.00    -0.246 OA
BRANCH  22  24
ATOM     24  C   UNL     1       2.095   3.118   0.642  1.00  0.00     0.060 A 
ATOM     25  C   UNL     1       1.433   2.259  -0.228  1.00  0.00     0.016 A 
ATOM     26  C   UNL     1       3.383   3.549   0.317  1.00  0.00     0.016 A 
ATOM     27  C   UNL     1       2.109   1.711  -1.324  1.00  0.00     0.010 A 
ATOM     28  C   UNL     1       4.002   3.104  -0.863  1.00  0.00     0.010 A 
ATOM     29  C   UNL     1       3.401   2.129  -1.680  1.00  0.00    -0.014 A 
BRANCH  29  30
ATOM     30  C   UNL     1       4.132   1.531  -2.851  1.00  0.00     0.031 A 
ATOM     31  C   UNL     1       5.574   1.083  -2.717  1.00  0.00     0.074 A 
ATOM     32  C   UNL     1       3.534   1.353  -4.051  1.00  0.00     0.049 A 
ATOM     33  N   UNL     1       6.454   0.820  -3.654  1.00  0.00    -0.248 NA
ATOM     34  C   UNL     1       6.103   0.931  -1.352  1.00  0.00     0.031 C 
ATOM     35  C   UNL     1       2.143   1.671  -4.371  1.00  0.00     0.029 A 
ATOM     36  N   UNL     1       4.025   0.839  -5.231  1.00  0.00    -0.354 N 
ATOM     37  C   UNL     1       7.656   0.575  -2.997  1.00  0.00     0.074 A 
ATOM     38  C   UNL     1       7.388   0.694  -1.580  1.00  0.00     0.031 C 
ATOM     39  C   UNL     1       1.869   1.269  -5.620  1.00  0.00     0.029 A 
ATOM     40  C   UNL     1       3.098   0.800  -6.246  1.00  0.00     0.049 A 
ATOM     41  H   UNL     1       4.954   0.528  -5.338  1.00  0.00     0.167 HD
ATOM     42  C   UNL     1       8.872   0.289  -3.526  1.00  0.00     0.037 A 
ATOM     43  C   UNL     1       3.216   0.494  -7.553  1.00  0.00     0.037 A 
ATOM     44  C   UNL     1       9.122   0.058  -4.926  1.00  0.00     0.049 A 
ATOM     45  C   UNL     1       4.566   0.176  -8.122  1.00  0.00     0.074 A 
ATOM     46  C   UNL     1      10.320  -0.254  -5.550  1.00  0.00     0.029 A 
ATOM     47  N   UNL     1       8.152   0.070  -5.915  1.00  0.00    -0.354 N 
ATOM     48  N   UNL     1       5.720   0.092  -7.509  1.00  0.00    -0.248 NA
ATOM     49  C   UNL     1       4.638  -0.042  -9.575  1.00  0.00     0.031 C 
ATOM     50  C   UNL     1      10.077  -0.408  -6.919  1.00  0.00     0.029 A 
ATOM     51  C   UNL     1       8.723  -0.227  -7.142  1.00  0.00     0.049 A 
ATOM     52  H   UNL     1       7.197   0.261  -5.767  1.00  0.00     0.167 HD
ATOM     53  C   UNL     1       6.655  -0.178  -8.498  1.00  0.00     0.074 A 
ATOM     54  C   UNL     1       5.932  -0.274  -9.748  1.00  0.00     0.031 C 
ATOM     55  C   UNL     1       7.998  -0.316  -8.381  1.00  0.00     0.037 A 
BRANCH  42  56
ATOM     56  C   UNL     1      10.050   0.244  -2.594  1.00  0.00     0.057 A 
ATOM     57  C   UNL     1      10.277  -0.823  -1.718  1.00  0.00     0.134 A 
ATOM     58  C   UNL     1      11.008   1.268  -2.627  1.00  0.00     0.134 A 
ATOM     59  F   UNL     1       9.394  -1.828  -1.629  1.00  0.00    -0.206 F 
ATOM     60  C   UNL     1      11.406  -0.863  -0.896  1.00  0.00     0.040 A 
ATOM     61  C   UNL     1      12.152   1.227  -1.828  1.00  0.00     0.040 A 
ATOM     62  F   UNL     1      10.857   2.315  -3.452  1.00  0.00    -0.206 F 
ATOM     63  C   UNL     1      12.352   0.160  -0.956  1.00  0.00     0.006 A 
ENDBRANCH  42  56
BRANCH  43  64
ATOM     64  C   UNL     1       2.021   0.559  -8.434  1.00  0.00     0.057 A 
ATOM     65  C   UNL     1       1.458  -0.601  -8.976  1.00  0.00     0.134 A 
ATOM     66  C   UNL     1       1.402   1.780  -8.735  1.00  0.00     0.134 A 
ATOM     67  F   UNL     1       2.024  -1.795  -8.751  1.00  0.00    -0.206 F 
ATOM     68  C   UNL     1       0.316  -0.551  -9.779  1.00  0.00     0.040 A 
ATOM     69  C   UNL     1       0.244   1.841  -9.509  1.00  0.00     0.040 A 
ATOM     70  F   UNL     1       1.896   2.928  -8.249  1.00  0.00    -0.206 F 
ATOM     71  C   UNL     1      -0.301   0.672 -10.036  1.00  0.00     0.006 A 
ENDBRANCH  43  64
BRANCH  55  72
ATOM     72  C   UNL     1       8.764  -0.601  -9.636  1.00  0.00     0.057 A 
ATOM     73  C   UNL     1       9.026   0.401 -10.578  1.00  0.00     0.134 A 
ATOM     74  C   UNL     1       9.257  -1.885  -9.898  1.00  0.00     0.134 A 
ATOM     75  F   UNL     1       8.567   1.648 -10.390  1.00  0.00    -0.206 F 
ATOM     76  C   UNL     1       9.736   0.131 -11.749  1.00  0.00     0.040 A 
ATOM     77  C   UNL     1       9.984  -2.163 -11.056  1.00  0.00     0.040 A 
ATOM     78  F   UNL     1       9.042  -2.887  -9.032  1.00  0.00    -0.206 F 
ATOM     79  C   UNL     1      10.221  -1.154 -11.988  1.00  0.00     0.006 A 
ENDBRANCH  55  72
ENDBRANCH  29  30
ENDBRANCH  22  24
ENDBRANCH  21  22
ENDBRANCH  20  21
ENDBRANCH   1  20
TORSDOF 13
