REMARK SMILES O=C(CSc1nnc(Cc2ccncc2)n1-c1ccccc1Cl)OCCOC(=O)c1ccc(-c2c3nc(c(-c4c(F)cccc4F)c4ccc([nH]4)c(-c4c(F)cccc4F)c4nc(c(-c5c(F)cccc5F)c5ccc2[nH]5)C=C4)C=C3)cc1
REMARK SMILES IDX 25 1 24 2 2 3 1 4 3 5 4 6 5 7 6 8 16 9 7 10 8 11 17 12 18 13
REMARK SMILES IDX 22 14 19 15 21 16 23 17 20 18 9 19 10 20 11 21 15 22 12 23
REMARK SMILES IDX 14 24 13 25 26 26 27 27 28 28 29 29 30 30 31 31 83 32 32 33
REMARK SMILES IDX 82 34 33 35 34 36 35 37 76 38 36 39 81 40 75 41 77 42 37 43
REMARK SMILES IDX 80 44 74 45 73 46 38 48 64 49 47 50 63 51 48 52 51 53 62 54
REMARK SMILES IDX 78 55 49 56 50 57 61 59 79 60 52 61 39 62 40 63 45 64 41 65
REMARK SMILES IDX 42 66 44 67 46 68 43 69 65 70 66 71 71 72 67 73 68 74 70 75
REMARK SMILES IDX 72 76 69 77 53 78 54 79 59 80 55 81 56 82 58 83 60 84 57 85
REMARK H PARENT 77 47 51 58
REMARK Flexibility Score: inf
ROOT
ATOM      1  C   UNL     1       4.816  -0.696  -1.325  1.00  0.00     0.274 C 
ENDROOT
BRANCH   1   2
ATOM      2  O   UNL     1       3.453  -1.070  -1.028  1.00  0.00    -0.461 OA
BRANCH   2   3
ATOM      3  C   UNL     1       2.782  -0.519   0.009  1.00  0.00     0.316 C 
ATOM      4  O   UNL     1       1.680  -0.006  -0.170  1.00  0.00    -0.251 OA
BRANCH   3   5
ATOM      5  C   UNL     1       3.424  -0.470   1.372  1.00  0.00     0.200 C 
BRANCH   5   6
ATOM      6  S   UNL     1       4.067  -2.003   2.000  1.00  0.00    -0.074 SA
BRANCH   6   7
ATOM      7  C   UNL     1       2.782  -3.085   2.401  1.00  0.00     0.196 A 
ATOM      8  N   UNL     1       3.040  -4.372   2.501  1.00  0.00    -0.123 NA
ATOM      9  N   UNL     1       1.479  -2.852   2.804  1.00  0.00    -0.272 N 
ATOM     10  N   UNL     1       1.932  -5.005   2.978  1.00  0.00    -0.134 NA
ATOM     11  C   UNL     1       0.988  -4.103   3.145  1.00  0.00     0.142 A 
BRANCH   9  12
ATOM     12  C   UNL     1       0.780  -1.646   2.982  1.00  0.00     0.068 A 
ATOM     13  C   UNL     1       0.852  -1.007   4.227  1.00  0.00     0.028 A 
ATOM     14  C   UNL     1      -0.082  -1.173   1.985  1.00  0.00     0.065 A 
ATOM     15  C   UNL     1       0.104   0.152   4.445  1.00  0.00     0.002 A 
ATOM     16  C   UNL     1      -0.777   0.019   2.194  1.00  0.00     0.023 A 
ATOM     17  Cl  UNL     1      -0.361  -2.037   0.515  1.00  0.00    -0.082 Cl
ATOM     18  C   UNL     1      -0.685   0.680   3.421  1.00  0.00     0.002 A 
ENDBRANCH   9  12
BRANCH  11  19
ATOM     19  C   UNL     1      -0.399  -4.395   3.614  1.00  0.00     0.113 C 
BRANCH  19  20
ATOM     20  C   UNL     1      -1.241  -5.027   2.532  1.00  0.00    -0.037 A 
ATOM     21  C   UNL     1      -0.893  -6.274   2.001  1.00  0.00     0.024 A 
ATOM     22  C   UNL     1      -2.360  -4.374   2.009  1.00  0.00     0.024 A 
ATOM     23  C   UNL     1      -1.658  -6.800   0.973  1.00  0.00     0.111 A 
ATOM     24  C   UNL     1      -3.059  -4.980   0.976  1.00  0.00     0.111 A 
ATOM     25  N   UNL     1      -2.738  -6.182   0.451  1.00  0.00    -0.265 NA
ENDBRANCH  19  20
ENDBRANCH  11  19
ENDBRANCH   6   7
ENDBRANCH   5   6
ENDBRANCH   3   5
ENDBRANCH   2   3
ENDBRANCH   1   2
BRANCH   1  26
ATOM     26  C   UNL     1       4.921   0.738  -1.839  1.00  0.00     0.275 C 
BRANCH  26  27
ATOM     27  O   UNL     1       4.703   1.595  -0.725  1.00  0.00    -0.458 OA
BRANCH  27  28
ATOM     28  C   UNL     1       3.550   2.297  -0.693  1.00  0.00     0.338 C 
ATOM     29  O   UNL     1       2.716   2.400  -1.567  1.00  0.00    -0.246 OA
BRANCH  28  30
ATOM     30  C   UNL     1       3.508   2.977   0.614  1.00  0.00     0.060 A 
ATOM     31  C   UNL     1       2.377   3.741   0.906  1.00  0.00     0.016 A 
ATOM     32  C   UNL     1       4.683   3.059   1.381  1.00  0.00     0.016 A 
ATOM     33  C   UNL     1       2.531   4.817   1.750  1.00  0.00     0.010 A 
ATOM     34  C   UNL     1       4.839   4.128   2.216  1.00  0.00     0.010 A 
ATOM     35  C   UNL     1       3.806   5.059   2.262  1.00  0.00    -0.014 A 
BRANCH  35  36
ATOM     36  C   UNL     1       4.138   6.402   2.681  1.00  0.00     0.031 A 
ATOM     37  C   UNL     1       3.785   6.714   4.079  1.00  0.00     0.074 A 
ATOM     38  C   UNL     1       4.877   7.170   1.851  1.00  0.00     0.049 A 
ATOM     39  N   UNL     1       3.022   7.656   4.521  1.00  0.00    -0.248 NA
ATOM     40  C   UNL     1       4.235   5.765   5.113  1.00  0.00     0.031 C 
ATOM     41  C   UNL     1       5.492   6.785   0.569  1.00  0.00     0.029 A 
ATOM     42  N   UNL     1       5.350   8.428   2.041  1.00  0.00    -0.354 N 
ATOM     43  C   UNL     1       3.074   7.547   5.906  1.00  0.00     0.074 A 
ATOM     44  C   UNL     1       3.663   6.270   6.203  1.00  0.00     0.031 C 
ATOM     45  C   UNL     1       6.431   7.695   0.230  1.00  0.00     0.029 A 
ATOM     46  C   UNL     1       6.396   8.777   1.194  1.00  0.00     0.049 A 
ATOM     47  H   UNL     1       4.985   9.040   2.720  1.00  0.00     0.167 HD
ATOM     48  C   UNL     1       2.894   8.629   6.706  1.00  0.00     0.037 A 
ATOM     49  C   UNL     1       7.232   9.829   1.373  1.00  0.00     0.037 A 
ATOM     50  C   UNL     1       2.193   9.685   6.027  1.00  0.00     0.049 A 
ATOM     51  C   UNL     1       6.570  10.753   2.332  1.00  0.00     0.074 A 
ATOM     52  C   UNL     1       0.951   9.788   5.430  1.00  0.00     0.029 A 
ATOM     53  N   UNL     1       2.921  10.749   5.554  1.00  0.00    -0.354 N 
ATOM     54  N   UNL     1       5.477  11.416   2.062  1.00  0.00    -0.248 NA
ATOM     55  C   UNL     1       6.846  10.558   3.749  1.00  0.00     0.031 C 
ATOM     56  C   UNL     1       1.159  10.605   4.281  1.00  0.00     0.029 A 
ATOM     57  C   UNL     1       2.499  10.992   4.271  1.00  0.00     0.049 A 
ATOM     58  H   UNL     1       3.617  11.244   6.045  1.00  0.00     0.167 HD
ATOM     59  C   UNL     1       4.730  11.371   3.233  1.00  0.00     0.074 A 
ATOM     60  C   UNL     1       5.654  10.885   4.256  1.00  0.00     0.031 C 
ATOM     61  C   UNL     1       3.367  11.448   3.209  1.00  0.00     0.037 A 
BRANCH  48  62
ATOM     62  C   UNL     1       3.689   8.847   7.965  1.00  0.00     0.057 A 
ATOM     63  C   UNL     1       3.303   9.858   8.857  1.00  0.00     0.134 A 
ATOM     64  C   UNL     1       4.968   8.294   8.197  1.00  0.00     0.134 A 
ATOM     65  F   UNL     1       2.121  10.478   8.721  1.00  0.00    -0.206 F 
ATOM     66  C   UNL     1       4.149  10.321   9.871  1.00  0.00     0.040 A 
ATOM     67  C   UNL     1       5.796   8.708   9.240  1.00  0.00     0.040 A 
ATOM     68  F   UNL     1       5.526   7.399   7.372  1.00  0.00    -0.206 F 
ATOM     69  C   UNL     1       5.401   9.747  10.064  1.00  0.00     0.006 A 
ENDBRANCH  48  62
BRANCH  49  70
ATOM     70  C   UNL     1       8.686   9.869   1.083  1.00  0.00     0.057 A 
ATOM     71  C   UNL     1       9.381  11.082   0.998  1.00  0.00     0.134 A 
ATOM     72  C   UNL     1       9.480   8.707   1.128  1.00  0.00     0.134 A 
ATOM     73  F   UNL     1       8.717  12.247   1.002  1.00  0.00    -0.206 F 
ATOM     74  C   UNL     1      10.783  11.137   0.963  1.00  0.00     0.040 A 
ATOM     75  C   UNL     1      10.877   8.747   1.084  1.00  0.00     0.040 A 
ATOM     76  F   UNL     1       8.932   7.496   1.301  1.00  0.00    -0.206 F 
ATOM     77  C   UNL     1      11.535   9.967   1.012  1.00  0.00     0.006 A 
ENDBRANCH  49  70
BRANCH  61  78
ATOM     78  C   UNL     1       2.706  11.774   1.896  1.00  0.00     0.057 A 
ATOM     79  C   UNL     1       2.726  10.914   0.787  1.00  0.00     0.134 A 
ATOM     80  C   UNL     1       1.881  12.898   1.806  1.00  0.00     0.134 A 
ATOM     81  F   UNL     1       3.401   9.760   0.821  1.00  0.00    -0.206 F 
ATOM     82  C   UNL     1       1.991  11.181  -0.373  1.00  0.00     0.040 A 
ATOM     83  C   UNL     1       1.117  13.161   0.666  1.00  0.00     0.040 A 
ATOM     84  F   UNL     1       1.760  13.731   2.852  1.00  0.00    -0.206 F 
ATOM     85  C   UNL     1       1.177  12.306  -0.432  1.00  0.00     0.006 A 
ENDBRANCH  61  78
ENDBRANCH  35  36
ENDBRANCH  28  30
ENDBRANCH  27  28
ENDBRANCH  26  27
ENDBRANCH   1  26
TORSDOF 16
