REMARK SMILES C[C@H]([NH2+][C@@H]1CCOC2(CCC2)C1)C(=O)OCCOC(=O)c1ccc(-c2c3nc(c(-c4c(F)cccc4F)c4ccc([nH]4)c(-c4c(F)cccc4F)c4nc(c(-c5c(F)cccc5F)c5ccc2[nH]5)C=C4)C=C3)cc1
REMARK SMILES IDX 16 1 15 2 13 3 14 4 2 5 1 6 3 7 4 10 5 11 12 12 6 13 8 14
REMARK SMILES IDX 7 15 9 16 11 17 10 18 17 19 18 20 19 21 20 22 21 23 22 24
REMARK SMILES IDX 74 25 23 26 73 27 24 28 25 29 26 30 67 31 27 32 72 33 66 34
REMARK SMILES IDX 68 35 28 36 71 37 65 38 64 39 29 41 55 42 38 43 54 44 39 45
REMARK SMILES IDX 42 46 53 47 69 48 40 49 41 50 52 52 70 53 43 54 30 55 31 56
REMARK SMILES IDX 36 57 32 58 33 59 35 60 37 61 34 62 56 63 57 64 62 65 58 66
REMARK SMILES IDX 59 67 61 68 63 69 60 70 44 71 45 72 50 73 46 74 47 75 49 76
REMARK SMILES IDX 51 77 48 78
REMARK H PARENT 3 8 3 9 68 40 42 51
REMARK Flexibility Score: inf
ROOT
ATOM      1  C   UNL     1      -3.160   0.698   0.865  1.00  0.00     0.274 C 
ENDROOT
BRANCH   1   2
ATOM      2  O   UNL     1      -1.731   0.854   0.872  1.00  0.00    -0.458 OA
BRANCH   2   3
ATOM      3  C   UNL     1      -1.078   0.346   1.958  1.00  0.00     0.364 C 
ATOM      4  O   UNL     1      -1.618  -0.250   2.883  1.00  0.00    -0.245 OA
BRANCH   3   5
ATOM      5  C   UNL     1       0.422   0.677   1.941  1.00  0.00     0.290 C 
ATOM      6  C   UNL     1       0.540   2.061   2.577  1.00  0.00     0.088 C 
BRANCH   5   7
ATOM      7  N   UNL     1       0.983   0.686   0.578  1.00  0.00    -0.332 N 
ATOM      8  H   UNL     1       1.151   1.662   0.332  1.00  0.00     0.347 HD
ATOM      9  H   UNL     1       0.286   0.186   0.026  1.00  0.00     0.347 HD
BRANCH   7  10
ATOM     10  C   UNL     1       2.233  -0.046   0.307  1.00  0.00     0.188 C 
ATOM     11  C   UNL     1       3.281  -0.196   1.417  1.00  0.00     0.093 C 
ATOM     12  C   UNL     1       2.947   0.618  -0.885  1.00  0.00     0.100 C 
ATOM     13  C   UNL     1       3.949   1.114   1.799  1.00  0.00     0.167 C 
ATOM     14  C   UNL     1       3.461   2.001  -0.477  1.00  0.00     0.074 C 
ATOM     15  O   UNL     1       4.333   1.907   0.683  1.00  0.00    -0.375 OA
ATOM     16  C   UNL     1       4.145   2.790  -1.640  1.00  0.00     0.036 C 
ATOM     17  C   UNL     1       2.373   3.122  -0.503  1.00  0.00     0.036 C 
ATOM     18  C   UNL     1       3.397   4.048  -1.165  1.00  0.00     0.006 C 
ENDBRANCH   7  10
ENDBRANCH   5   7
ENDBRANCH   3   5
ENDBRANCH   2   3
ENDBRANCH   1   2
BRANCH   1  19
ATOM     19  C   UNL     1      -3.608  -0.489   0.007  1.00  0.00     0.275 C 
BRANCH  19  20
ATOM     20  O   UNL     1      -3.117  -1.743   0.514  1.00  0.00    -0.458 OA
BRANCH  20  21
ATOM     21  C   UNL     1      -1.892  -2.095   0.054  1.00  0.00     0.338 C 
ATOM     22  O   UNL     1      -1.213  -1.496  -0.765  1.00  0.00    -0.246 OA
BRANCH  21  23
ATOM     23  C   UNL     1      -1.373  -3.243   0.819  1.00  0.00     0.060 A 
ATOM     24  C   UNL     1      -0.089  -3.121   1.355  1.00  0.00     0.016 A 
ATOM     25  C   UNL     1      -2.088  -4.433   0.964  1.00  0.00     0.016 A 
ATOM     26  C   UNL     1       0.499  -4.188   2.023  1.00  0.00     0.010 A 
ATOM     27  C   UNL     1      -1.496  -5.510   1.638  1.00  0.00     0.010 A 
ATOM     28  C   UNL     1      -0.195  -5.396   2.159  1.00  0.00    -0.014 A 
BRANCH  28  29
ATOM     29  C   UNL     1       0.485  -6.541   2.807  1.00  0.00     0.031 A 
ATOM     30  C   UNL     1       1.048  -7.651   1.967  1.00  0.00     0.074 A 
ATOM     31  C   UNL     1       0.657  -6.548   4.141  1.00  0.00     0.049 A 
ATOM     32  N   UNL     1       1.679  -8.734   2.343  1.00  0.00    -0.248 NA
ATOM     33  C   UNL     1       0.884  -7.523   0.510  1.00  0.00     0.031 C 
ATOM     34  C   UNL     1       0.190  -5.508   5.058  1.00  0.00     0.029 A 
ATOM     35  N   UNL     1       1.279  -7.460   4.956  1.00  0.00    -0.354 N 
ATOM     36  C   UNL     1       1.986  -9.418   1.174  1.00  0.00     0.074 A 
ATOM     37  C   UNL     1       1.449  -8.641   0.076  1.00  0.00     0.031 C 
ATOM     38  C   UNL     1       0.544  -5.839   6.311  1.00  0.00     0.029 A 
ATOM     39  C   UNL     1       1.232  -7.127   6.287  1.00  0.00     0.049 A 
ATOM     40  H   UNL     1       1.716  -8.274   4.619  1.00  0.00     0.167 HD
ATOM     41  C   UNL     1       2.662 -10.582   1.030  1.00  0.00     0.037 A 
ATOM     42  C   UNL     1       1.679  -7.796   7.367  1.00  0.00     0.037 A 
ATOM     43  C   UNL     1       3.197 -11.354   2.121  1.00  0.00     0.049 A 
ATOM     44  C   UNL     1       2.379  -9.114   7.180  1.00  0.00     0.074 A 
ATOM     45  C   UNL     1       3.888 -12.553   2.073  1.00  0.00     0.029 A 
ATOM     46  N   UNL     1       3.102 -11.002   3.459  1.00  0.00    -0.354 N 
ATOM     47  N   UNL     1       2.660  -9.752   6.070  1.00  0.00    -0.248 NA
ATOM     48  C   UNL     1       2.826  -9.804   8.399  1.00  0.00     0.031 C 
ATOM     49  C   UNL     1       4.183 -12.943   3.385  1.00  0.00     0.029 A 
ATOM     50  C   UNL     1       3.710 -11.966   4.246  1.00  0.00     0.049 A 
ATOM     51  H   UNL     1       2.667 -10.187   3.799  1.00  0.00     0.167 HD
ATOM     52  C   UNL     1       3.327 -10.908   6.454  1.00  0.00     0.074 A 
ATOM     53  C   UNL     1       3.432 -10.870   7.897  1.00  0.00     0.031 C 
ATOM     54  C   UNL     1       3.804 -11.914   5.682  1.00  0.00     0.037 A 
BRANCH  41  55
ATOM     55  C   UNL     1       2.850 -11.104  -0.363  1.00  0.00     0.057 A 
ATOM     56  C   UNL     1       3.771 -10.527  -1.246  1.00  0.00     0.134 A 
ATOM     57  C   UNL     1       2.136 -12.223  -0.810  1.00  0.00     0.134 A 
ATOM     58  F   UNL     1       4.475  -9.444  -0.883  1.00  0.00    -0.206 F 
ATOM     59  C   UNL     1       3.968 -11.039  -2.530  1.00  0.00     0.040 A 
ATOM     60  C   UNL     1       2.339 -12.756  -2.084  1.00  0.00     0.040 A 
ATOM     61  F   UNL     1       1.241 -12.823  -0.012  1.00  0.00    -0.206 F 
ATOM     62  C   UNL     1       3.256 -12.162  -2.949  1.00  0.00     0.006 A 
ENDBRANCH  41  55
BRANCH  42  63
ATOM     63  C   UNL     1       1.457  -7.247   8.728  1.00  0.00     0.057 A 
ATOM     64  C   UNL     1       2.523  -6.790   9.511  1.00  0.00     0.134 A 
ATOM     65  C   UNL     1       0.175  -7.200   9.289  1.00  0.00     0.134 A 
ATOM     66  F   UNL     1       3.777  -6.834   9.038  1.00  0.00    -0.206 F 
ATOM     67  C   UNL     1       2.325  -6.326  10.813  1.00  0.00     0.040 A 
ATOM     68  C   UNL     1      -0.040  -6.714  10.579  1.00  0.00     0.040 A 
ATOM     69  F   UNL     1      -0.887  -7.624   8.589  1.00  0.00    -0.206 F 
ATOM     70  C   UNL     1       1.039  -6.284  11.348  1.00  0.00     0.006 A 
ENDBRANCH  42  63
BRANCH  54  71
ATOM     71  C   UNL     1       4.498 -13.041   6.388  1.00  0.00     0.057 A 
ATOM     72  C   UNL     1       3.789 -13.985   7.142  1.00  0.00     0.134 A 
ATOM     73  C   UNL     1       5.888 -13.191   6.304  1.00  0.00     0.134 A 
ATOM     74  F   UNL     1       2.457 -13.889   7.273  1.00  0.00    -0.206 F 
ATOM     75  C   UNL     1       4.441 -15.021   7.813  1.00  0.00     0.040 A 
ATOM     76  C   UNL     1       6.548 -14.237   6.950  1.00  0.00     0.040 A 
ATOM     77  F   UNL     1       6.625 -12.326   5.591  1.00  0.00    -0.206 F 
ATOM     78  C   UNL     1       5.825 -15.151   7.714  1.00  0.00     0.006 A 
ENDBRANCH  54  71
ENDBRANCH  28  29
ENDBRANCH  21  23
ENDBRANCH  20  21
ENDBRANCH  19  20
ENDBRANCH   1  19
TORSDOF 13
