REMARK SMILES O=C(OCCOC(=O)[C@@H]1CN(c2nc(-c3ccccc3)no2)CC[NH2+]1)c1ccc(-c2c3nc(c(-c4c(F)cccc4F)c4ccc([nH]4)c(-c4c(F)cccc4F)c4nc(c(-c5c(F)cccc5F)c5ccc2[nH]5)C=C4)C=C3)cc1
REMARK SMILES IDX 4 1 3 2 2 3 1 4 26 5 27 6 79 7 28 8 78 9 29 10 30 11 31 12
REMARK SMILES IDX 72 13 32 14 77 15 71 16 73 17 33 18 76 19 70 20 69 21 34 23
REMARK SMILES IDX 60 24 43 25 59 26 44 27 47 28 58 29 74 30 45 31 46 32 57 34
REMARK SMILES IDX 75 35 48 36 35 37 36 38 41 39 37 40 38 41 40 42 42 43 39 44
REMARK SMILES IDX 61 45 62 46 67 47 63 48 64 49 66 50 68 51 65 52 49 53 50 54
REMARK SMILES IDX 55 55 51 56 52 57 54 58 56 59 53 60 5 61 6 62 7 63 8 64 9 65
REMARK SMILES IDX 10 66 25 67 11 68 24 69 23 72 12 73 13 74 22 75 14 76 21 77
REMARK SMILES IDX 15 78 16 79 20 80 17 81 19 82 18 83
REMARK H PARENT 73 22 47 33 25 70 25 71
REMARK Flexibility Score: inf
ROOT
ATOM      1  C   UNL     1       4.242  -1.412  -0.847  1.00  0.00     0.275 C 
ENDROOT
BRANCH   1   2
ATOM      2  O   UNL     1       3.128  -1.223   0.044  1.00  0.00    -0.458 OA
BRANCH   2   3
ATOM      3  C   UNL     1       2.923  -0.282   0.997  1.00  0.00     0.338 C 
ATOM      4  O   UNL     1       1.962  -0.415   1.754  1.00  0.00    -0.246 OA
BRANCH   3   5
ATOM      5  C   UNL     1       3.709   0.989   1.101  1.00  0.00     0.060 A 
ATOM      6  C   UNL     1       5.038   1.171   0.708  1.00  0.00     0.016 A 
ATOM      7  C   UNL     1       3.024   2.099   1.633  1.00  0.00     0.016 A 
ATOM      8  C   UNL     1       5.638   2.433   0.742  1.00  0.00     0.010 A 
ATOM      9  C   UNL     1       3.621   3.361   1.678  1.00  0.00     0.010 A 
ATOM     10  C   UNL     1       4.933   3.535   1.219  1.00  0.00    -0.014 A 
BRANCH  10  11
ATOM     11  C   UNL     1       5.627   4.826   1.408  1.00  0.00     0.031 A 
ATOM     12  C   UNL     1       6.068   5.181   2.792  1.00  0.00     0.074 A 
ATOM     13  C   UNL     1       5.891   5.646   0.374  1.00  0.00     0.049 A 
ATOM     14  N   UNL     1       6.726   6.231   3.203  1.00  0.00    -0.248 NA
ATOM     15  C   UNL     1       5.768   4.199   3.848  1.00  0.00     0.031 C 
ATOM     16  C   UNL     1       5.624   5.352  -1.030  1.00  0.00     0.029 A 
ATOM     17  N   UNL     1       6.410   6.915   0.350  1.00  0.00    -0.354 N 
ATOM     18  C   UNL     1       6.979   6.000   4.546  1.00  0.00     0.074 A 
ATOM     19  C   UNL     1       6.315   4.769   4.907  1.00  0.00     0.031 C 
ATOM     20  C   UNL     1       5.859   6.452  -1.767  1.00  0.00     0.029 A 
ATOM     21  C   UNL     1       6.342   7.508  -0.888  1.00  0.00     0.049 A 
ATOM     22  H   UNL     1       6.794   7.357   1.141  1.00  0.00     0.167 HD
ATOM     23  C   UNL     1       7.749   6.726   5.387  1.00  0.00     0.037 A 
ATOM     24  C   UNL     1       6.636   8.767  -1.261  1.00  0.00     0.037 A 
ATOM     25  C   UNL     1       8.356   7.976   5.023  1.00  0.00     0.049 A 
ATOM     26  C   UNL     1       7.295   9.666  -0.254  1.00  0.00     0.074 A 
ATOM     27  C   UNL     1       9.147   8.811   5.787  1.00  0.00     0.029 A 
ATOM     28  N   UNL     1       8.204   8.585   3.783  1.00  0.00    -0.354 N 
ATOM     29  N   UNL     1       7.598   9.414   0.997  1.00  0.00    -0.248 NA
ATOM     30  C   UNL     1       7.711  10.994  -0.720  1.00  0.00     0.031 C 
ATOM     31  C   UNL     1       9.423   9.955   5.029  1.00  0.00     0.029 A 
ATOM     32  C   UNL     1       8.852   9.807   3.773  1.00  0.00     0.049 A 
ATOM     33  H   UNL     1       7.708   8.203   3.023  1.00  0.00     0.167 HD
ATOM     34  C   UNL     1       8.310  10.515   1.447  1.00  0.00     0.074 A 
ATOM     35  C   UNL     1       8.365  11.451   0.340  1.00  0.00     0.031 C 
ATOM     36  C   UNL     1       8.896  10.717   2.654  1.00  0.00     0.037 A 
BRANCH  23  37
ATOM     37  C   UNL     1       7.933   6.167   6.765  1.00  0.00     0.057 A 
ATOM     38  C   UNL     1       8.669   4.993   6.989  1.00  0.00     0.134 A 
ATOM     39  C   UNL     1       7.303   6.756   7.866  1.00  0.00     0.134 A 
ATOM     40  F   UNL     1       9.273   4.364   5.970  1.00  0.00    -0.206 F 
ATOM     41  C   UNL     1       8.731   4.400   8.251  1.00  0.00     0.040 A 
ATOM     42  C   UNL     1       7.381   6.186   9.138  1.00  0.00     0.040 A 
ATOM     43  F   UNL     1       6.579   7.875   7.719  1.00  0.00    -0.206 F 
ATOM     44  C   UNL     1       8.084   4.997   9.330  1.00  0.00     0.006 A 
ENDBRANCH  23  37
BRANCH  24  45
ATOM     45  C   UNL     1       6.364   9.222  -2.648  1.00  0.00     0.057 A 
ATOM     46  C   UNL     1       7.396   9.410  -3.572  1.00  0.00     0.134 A 
ATOM     47  C   UNL     1       5.057   9.484  -3.081  1.00  0.00     0.134 A 
ATOM     48  F   UNL     1       8.669   9.187  -3.215  1.00  0.00    -0.206 F 
ATOM     49  C   UNL     1       7.144   9.859  -4.871  1.00  0.00     0.040 A 
ATOM     50  C   UNL     1       4.789   9.921  -4.381  1.00  0.00     0.040 A 
ATOM     51  F   UNL     1       4.020   9.314  -2.247  1.00  0.00    -0.206 F 
ATOM     52  C   UNL     1       5.836  10.114  -5.279  1.00  0.00     0.006 A 
ENDBRANCH  24  45
BRANCH  36  53
ATOM     53  C   UNL     1       9.697  11.973   2.819  1.00  0.00     0.057 A 
ATOM     54  C   UNL     1       9.095  13.232   2.925  1.00  0.00     0.134 A 
ATOM     55  C   UNL     1      11.093  11.909   2.923  1.00  0.00     0.134 A 
ATOM     56  F   UNL     1       7.763  13.361   2.817  1.00  0.00    -0.206 F 
ATOM     57  C   UNL     1       9.855  14.387   3.111  1.00  0.00     0.040 A 
ATOM     58  C   UNL     1      11.861  13.052   3.139  1.00  0.00     0.040 A 
ATOM     59  F   UNL     1      11.729  10.731   2.835  1.00  0.00    -0.206 F 
ATOM     60  C   UNL     1      11.241  14.296   3.228  1.00  0.00     0.006 A 
ENDBRANCH  36  53
ENDBRANCH  10  11
ENDBRANCH   3   5
ENDBRANCH   2   3
ENDBRANCH   1   2
BRANCH   1  61
ATOM     61  C   UNL     1       4.179  -0.573  -2.126  1.00  0.00     0.274 C 
BRANCH  61  62
ATOM     62  O   UNL     1       3.675   0.749  -1.886  1.00  0.00    -0.458 OA
BRANCH  62  63
ATOM     63  C   UNL     1       2.381   0.988  -2.256  1.00  0.00     0.366 C 
ATOM     64  O   UNL     1       1.692   0.194  -2.888  1.00  0.00    -0.245 OA
BRANCH  63  65
ATOM     65  C   UNL     1       1.871   2.339  -1.726  1.00  0.00     0.313 C 
ATOM     66  C   UNL     1       0.530   2.686  -2.416  1.00  0.00     0.199 C 
ATOM     67  N   UNL     1       2.908   3.409  -1.883  1.00  0.00    -0.332 N 
ATOM     68  N   UNL     1       0.094   4.054  -2.123  1.00  0.00    -0.312 N 
ATOM     69  C   UNL     1       2.339   4.694  -1.423  1.00  0.00     0.283 C 
ATOM     70  H   UNL     1       3.177   3.484  -2.864  1.00  0.00     0.347 HD
ATOM     71  H   UNL     1       3.733   3.177  -1.330  1.00  0.00     0.347 HD
ATOM     72  C   UNL     1       1.099   5.107  -2.229  1.00  0.00     0.183 C 
BRANCH  68  73
ATOM     73  C   UNL     1      -1.002   4.298  -1.377  1.00  0.00     0.324 A 
ATOM     74  N   UNL     1      -1.585   3.575  -0.452  1.00  0.00    -0.171 NA
ATOM     75  O   UNL     1      -1.619   5.504  -1.577  1.00  0.00    -0.315 OA
ATOM     76  C   UNL     1      -2.594   4.409  -0.025  1.00  0.00     0.204 A 
ATOM     77  N   UNL     1      -2.680   5.570  -0.688  1.00  0.00    -0.055 NA
BRANCH  76  78
ATOM     78  C   UNL     1      -3.473   4.107   1.083  1.00  0.00     0.023 A 
ATOM     79  C   UNL     1      -4.721   3.522   0.845  1.00  0.00     0.012 A 
ATOM     80  C   UNL     1      -3.123   4.498   2.381  1.00  0.00     0.012 A 
ATOM     81  C   UNL     1      -5.621   3.346   1.898  1.00  0.00     0.001 A 
ATOM     82  C   UNL     1      -4.025   4.322   3.432  1.00  0.00     0.001 A 
ATOM     83  C   UNL     1      -5.275   3.752   3.188  1.00  0.00     0.000 A 
ENDBRANCH  76  78
ENDBRANCH  68  73
ENDBRANCH  63  65
ENDBRANCH  62  63
ENDBRANCH  61  62
ENDBRANCH   1  61
TORSDOF 13
