REMARK SMILES CC1(C)CC2=NC(=O)[C@H](C(=O)OCCOC(=O)c3ccc(-c4c5nc(c(-c6c(F)cccc6F)c6ccc([nH]6)c(-c6c(F)cccc6F)c6nc(c(-c7c(F)cccc7F)c7ccc4[nH]7)C=C6)C=C5)cc3)C=C2CS1
REMARK SMILES IDX 14 1 13 2 12 3 10 4 11 5 9 6 1 7 2 8 3 9 4 10 75 11 5 12
REMARK SMILES IDX 74 13 6 14 73 15 7 16 72 17 8 18 15 19 16 20 17 21 18 22
REMARK SMILES IDX 19 23 71 24 20 25 70 26 21 27 22 28 23 29 64 30 24 31 69 32
REMARK SMILES IDX 63 33 65 34 25 35 68 36 62 37 61 38 26 40 52 41 35 42 51 43
REMARK SMILES IDX 36 44 39 45 50 46 66 47 37 48 38 49 49 51 67 52 40 53 27 54
REMARK SMILES IDX 28 55 33 56 29 57 30 58 32 59 34 60 31 61 53 62 54 63 59 64
REMARK SMILES IDX 55 65 56 66 58 67 60 68 57 69 41 70 42 71 47 72 43 73 44 74
REMARK SMILES IDX 46 75 48 76 45 77
REMARK H PARENT 65 39 39 50
REMARK Flexibility Score: inf
ROOT
ATOM      1  C   UNL     1      -3.329   8.002  -0.524  1.00  0.00     0.275 C 
ENDROOT
BRANCH   1   2
ATOM      2  C   UNL     1      -2.034   8.809  -0.617  1.00  0.00     0.274 C 
BRANCH   2   3
ATOM      3  O   UNL     1      -0.978   8.054  -1.247  1.00  0.00    -0.461 OA
BRANCH   3   4
ATOM      4  C   UNL     1      -0.087   7.450  -0.404  1.00  0.00     0.322 C 
ATOM      5  O   UNL     1      -0.163   7.495   0.816  1.00  0.00    -0.251 OA
BRANCH   4   6
ATOM      6  C   UNL     1       0.977   6.700  -1.188  1.00  0.00     0.213 C 
ATOM      7  C   UNL     1       1.662   0.037  -0.819  1.00  0.00     0.023 C 
ATOM      8  C   UNL     1       0.949   1.385  -1.027  1.00  0.00     0.016 C 
ATOM      9  C   UNL     1      -0.466   1.249  -0.458  1.00  0.00     0.023 C 
ATOM     10  C   UNL     1       1.747   2.494  -0.338  1.00  0.00     0.074 C 
ATOM     11  S   UNL     1       0.901   1.722  -2.822  1.00  0.00    -0.150 SA
ATOM     12  C   UNL     1       1.490   3.953  -0.723  1.00  0.00     0.049 C 
ATOM     13  C   UNL     1       0.001   3.283  -2.783  1.00  0.00     0.107 C 
ATOM     14  N   UNL     1       2.116   4.819   0.011  1.00  0.00    -0.217 NA
ATOM     15  C   UNL     1       0.615   4.301  -1.875  1.00  0.00    -0.019 C 
ATOM     16  C   UNL     1       2.059   6.168  -0.263  1.00  0.00     0.264 C 
ATOM     17  C   UNL     1       0.384   5.615  -2.044  1.00  0.00     0.004 C 
ATOM     18  O   UNL     1       2.866   6.950   0.238  1.00  0.00    -0.271 OA
ENDBRANCH   4   6
ENDBRANCH   3   4
ENDBRANCH   2   3
ENDBRANCH   1   2
BRANCH   1  19
ATOM     19  O   UNL     1      -3.207   6.922   0.421  1.00  0.00    -0.458 OA
BRANCH  19  20
ATOM     20  C   UNL     1      -3.034   5.694  -0.114  1.00  0.00     0.338 C 
ATOM     21  O   UNL     1      -2.990   5.391  -1.294  1.00  0.00    -0.246 OA
BRANCH  20  22
ATOM     22  C   UNL     1      -2.785   4.719   0.956  1.00  0.00     0.060 A 
ATOM     23  C   UNL     1      -1.464   4.467   1.312  1.00  0.00     0.016 A 
ATOM     24  C   UNL     1      -3.820   3.951   1.492  1.00  0.00     0.016 A 
ATOM     25  C   UNL     1      -1.161   3.398   2.148  1.00  0.00     0.010 A 
ATOM     26  C   UNL     1      -3.515   2.905   2.376  1.00  0.00     0.010 A 
ATOM     27  C   UNL     1      -2.179   2.588   2.675  1.00  0.00    -0.014 A 
BRANCH  27  28
ATOM     28  C   UNL     1      -1.801   1.394   3.483  1.00  0.00     0.031 A 
ATOM     29  C   UNL     1      -2.076  -0.002   2.980  1.00  0.00     0.074 A 
ATOM     30  C   UNL     1      -1.100   1.557   4.622  1.00  0.00     0.049 A 
ATOM     31  N   UNL     1      -1.723  -1.150   3.504  1.00  0.00    -0.248 NA
ATOM     32  C   UNL     1      -2.816  -0.130   1.715  1.00  0.00     0.031 C 
ATOM     33  C   UNL     1      -0.721   2.846   5.204  1.00  0.00     0.029 A 
ATOM     34  N   UNL     1      -0.559   0.632   5.482  1.00  0.00    -0.354 N 
ATOM     35  C   UNL     1      -2.172  -2.128   2.626  1.00  0.00     0.074 A 
ATOM     36  C   UNL     1      -2.853  -1.445   1.548  1.00  0.00     0.031 C 
ATOM     37  C   UNL     1       0.019   2.631   6.303  1.00  0.00     0.029 A 
ATOM     38  C   UNL     1       0.115   1.194   6.538  1.00  0.00     0.049 A 
ATOM     39  H   UNL     1      -0.647  -0.340   5.353  1.00  0.00     0.167 HD
ATOM     40  C   UNL     1      -2.019  -3.471   2.696  1.00  0.00     0.037 A 
ATOM     41  C   UNL     1       0.721   0.624   7.596  1.00  0.00     0.037 A 
ATOM     42  C   UNL     1      -1.369  -4.171   3.771  1.00  0.00     0.049 A 
ATOM     43  C   UNL     1       0.730  -0.870   7.731  1.00  0.00     0.074 A 
ATOM     44  C   UNL     1      -1.169  -5.534   3.918  1.00  0.00     0.029 A 
ATOM     45  N   UNL     1      -0.830  -3.565   4.893  1.00  0.00    -0.354 N 
ATOM     46  N   UNL     1       0.305  -1.776   6.886  1.00  0.00    -0.248 NA
ATOM     47  C   UNL     1       1.280  -1.419   8.979  1.00  0.00     0.031 C 
ATOM     48  C   UNL     1      -0.551  -5.755   5.154  1.00  0.00     0.029 A 
ATOM     49  C   UNL     1      -0.339  -4.527   5.759  1.00  0.00     0.049 A 
ATOM     50  H   UNL     1      -0.800  -2.594   5.051  1.00  0.00     0.167 HD
ATOM     51  C   UNL     1       0.534  -3.001   7.498  1.00  0.00     0.074 A 
ATOM     52  C   UNL     1       1.156  -2.724   8.777  1.00  0.00     0.031 C 
ATOM     53  C   UNL     1       0.250  -4.244   7.041  1.00  0.00     0.037 A 
BRANCH  40  54
ATOM     54  C   UNL     1      -2.584  -4.286   1.574  1.00  0.00     0.057 A 
ATOM     55  C   UNL     1      -1.900  -4.430   0.361  1.00  0.00     0.134 A 
ATOM     56  C   UNL     1      -3.795  -4.972   1.725  1.00  0.00     0.134 A 
ATOM     57  F   UNL     1      -0.742  -3.786   0.154  1.00  0.00    -0.206 F 
ATOM     58  C   UNL     1      -2.404  -5.229  -0.667  1.00  0.00     0.040 A 
ATOM     59  C   UNL     1      -4.304  -5.781   0.709  1.00  0.00     0.040 A 
ATOM     60  F   UNL     1      -4.496  -4.871   2.864  1.00  0.00    -0.206 F 
ATOM     61  C   UNL     1      -3.607  -5.912  -0.491  1.00  0.00     0.006 A 
ENDBRANCH  40  54
BRANCH  41  62
ATOM     62  C   UNL     1       1.319   1.480   8.649  1.00  0.00     0.057 A 
ATOM     63  C   UNL     1       2.703   1.553   8.832  1.00  0.00     0.134 A 
ATOM     64  C   UNL     1       0.510   2.246   9.499  1.00  0.00     0.134 A 
ATOM     65  F   UNL     1       3.525   0.821   8.067  1.00  0.00    -0.206 F 
ATOM     66  C   UNL     1       3.263   2.357   9.826  1.00  0.00     0.040 A 
ATOM     67  C   UNL     1       1.058   3.070  10.481  1.00  0.00     0.040 A 
ATOM     68  F   UNL     1      -0.825   2.212   9.375  1.00  0.00    -0.206 F 
ATOM     69  C   UNL     1       2.439   3.124  10.649  1.00  0.00     0.006 A 
ENDBRANCH  41  62
BRANCH  53  70
ATOM     70  C   UNL     1       0.589  -5.393   7.938  1.00  0.00     0.057 A 
ATOM     71  C   UNL     1      -0.202  -5.702   9.052  1.00  0.00     0.134 A 
ATOM     72  C   UNL     1       1.696  -6.210   7.680  1.00  0.00     0.134 A 
ATOM     73  F   UNL     1      -1.267  -4.947   9.359  1.00  0.00    -0.206 F 
ATOM     74  C   UNL     1       0.108  -6.775   9.889  1.00  0.00     0.040 A 
ATOM     75  C   UNL     1       2.005  -7.296   8.499  1.00  0.00     0.040 A 
ATOM     76  F   UNL     1       2.490  -5.968   6.625  1.00  0.00    -0.206 F 
ATOM     77  C   UNL     1       1.212  -7.578   9.610  1.00  0.00     0.006 A 
ENDBRANCH  53  70
ENDBRANCH  27  28
ENDBRANCH  20  22
ENDBRANCH  19  20
ENDBRANCH   1  19
TORSDOF 11
