REMARK SMILES C#CCN(CC(=O)OCCOC(=O)c1ccc(-c2c3nc(c(-c4c(F)cccc4F)c4ccc([nH]4)c(-c4c(F)cccc4F)c4nc(c(-c5c(F)cccc5F)c5ccc2[nH]5)C=C4)C=C3)cc1)S(=O)(=O)c1c(C)cc(C)cc1C
REMARK SMILES IDX 9 1 8 2 6 3 7 4 5 5 4 6 3 7 2 8 1 9 68 10 69 11 70 12 71 13
REMARK SMILES IDX 72 14 78 15 73 16 74 17 77 18 79 19 75 20 76 21 10 22 11 23
REMARK SMILES IDX 12 24 13 25 14 26 15 27 67 28 16 29 66 30 17 31 18 32 19 33
REMARK SMILES IDX 60 34 20 35 65 36 59 37 61 38 21 39 64 40 58 41 57 42 22 44
REMARK SMILES IDX 48 45 31 46 47 47 32 48 35 49 46 50 62 51 33 52 34 53 45 55
REMARK SMILES IDX 63 56 36 57 23 58 24 59 29 60 25 61 26 62 28 63 30 64 27 65
REMARK SMILES IDX 49 66 50 67 55 68 51 69 52 70 54 71 56 72 53 73 37 74 38 75
REMARK SMILES IDX 43 76 39 77 40 78 42 79 44 80 41 81
REMARK H PARENT 61 43 35 54
REMARK Flexibility Score: inf
ROOT
ATOM      1  C   UNL     1      -5.106   2.799   0.427  1.00  0.00     0.274 C 
ENDROOT
BRANCH   1   2
ATOM      2  O   UNL     1      -4.228   1.789  -0.116  1.00  0.00    -0.461 OA
BRANCH   2   3
ATOM      3  C   UNL     1      -4.789   0.825  -0.882  1.00  0.00     0.321 C 
ATOM      4  O   UNL     1      -6.002   0.703  -1.040  1.00  0.00    -0.251 OA
BRANCH   3   5
ATOM      5  C   UNL     1      -3.817  -0.118  -1.553  1.00  0.00     0.226 C 
BRANCH   5   6
ATOM      6  N   UNL     1      -2.355  -0.099  -1.438  1.00  0.00    -0.175 NA
BRANCH   6   7
ATOM      7  C   UNL     1      -1.881   0.070  -0.043  1.00  0.00     0.192 C 
BRANCH   7   8
ATOM      8  C   UNL     1      -0.361   0.070  -0.043  1.00  0.00    -0.090 C 
ATOM      9  C   UNL     1       0.943   0.070  -0.043  1.00  0.00     0.005 C 
ENDBRANCH   7   8
ENDBRANCH   6   7
BRANCH   6  10
ATOM     10  S   UNL     1      -1.343   0.501  -2.693  1.00  0.00     0.245 S 
ATOM     11  O   UNL     1      -1.224   1.929  -2.489  1.00  0.00    -0.207 OA
ATOM     12  O   UNL     1      -0.136  -0.298  -2.744  1.00  0.00    -0.207 OA
BRANCH  10  13
ATOM     13  C   UNL     1      -2.111   0.135  -4.272  1.00  0.00     0.088 A 
ATOM     14  C   UNL     1      -2.258   1.129  -5.268  1.00  0.00    -0.031 A 
ATOM     15  C   UNL     1      -2.377  -1.228  -4.589  1.00  0.00    -0.031 A 
ATOM     16  C   UNL     1      -1.863   2.579  -5.147  1.00  0.00     0.046 C 
ATOM     17  C   UNL     1      -2.685   0.732  -6.549  1.00  0.00     0.008 A 
ATOM     18  C   UNL     1      -2.853  -1.557  -5.872  1.00  0.00     0.008 A 
ATOM     19  C   UNL     1      -2.038  -2.407  -3.709  1.00  0.00     0.046 C 
ATOM     20  C   UNL     1      -3.000  -0.589  -6.859  1.00  0.00    -0.051 A 
ATOM     21  C   UNL     1      -3.490  -0.947  -8.230  1.00  0.00     0.044 C 
ENDBRANCH  10  13
ENDBRANCH   6  10
ENDBRANCH   5   6
ENDBRANCH   3   5
ENDBRANCH   2   3
ENDBRANCH   1   2
BRANCH   1  22
ATOM     22  C   UNL     1      -5.026   4.112  -0.366  1.00  0.00     0.275 C 
BRANCH  22  23
ATOM     23  O   UNL     1      -5.646   4.003  -1.666  1.00  0.00    -0.458 OA
BRANCH  23  24
ATOM     24  C   UNL     1      -4.822   3.488  -2.596  1.00  0.00     0.338 C 
ATOM     25  O   UNL     1      -3.663   3.136  -2.412  1.00  0.00    -0.246 OA
BRANCH  24  26
ATOM     26  C   UNL     1      -5.465   3.213  -3.876  1.00  0.00     0.060 A 
ATOM     27  C   UNL     1      -5.600   1.872  -4.237  1.00  0.00     0.016 A 
ATOM     28  C   UNL     1      -5.702   4.225  -4.803  1.00  0.00     0.016 A 
ATOM     29  C   UNL     1      -5.910   1.527  -5.538  1.00  0.00     0.010 A 
ATOM     30  C   UNL     1      -6.083   3.877  -6.104  1.00  0.00     0.010 A 
ATOM     31  C   UNL     1      -6.169   2.527  -6.481  1.00  0.00    -0.014 A 
BRANCH  31  32
ATOM     32  C   UNL     1      -6.613   2.108  -7.825  1.00  0.00     0.031 A 
ATOM     33  C   UNL     1      -5.717   2.223  -9.019  1.00  0.00     0.074 A 
ATOM     34  C   UNL     1      -7.818   1.518  -7.926  1.00  0.00     0.049 A 
ATOM     35  N   UNL     1      -5.904   1.759 -10.227  1.00  0.00    -0.248 NA
ATOM     36  C   UNL     1      -4.426   2.899  -8.831  1.00  0.00     0.031 C 
ATOM     37  C   UNL     1      -8.742   1.294  -6.809  1.00  0.00     0.029 A 
ATOM     38  N   UNL     1      -8.472   1.000  -9.009  1.00  0.00    -0.354 N 
ATOM     39  C   UNL     1      -4.724   2.003 -10.914  1.00  0.00     0.074 A 
ATOM     40  C   UNL     1      -3.842   2.704 -10.007  1.00  0.00     0.031 C 
ATOM     41  C   UNL     1      -9.850   0.701  -7.271  1.00  0.00     0.029 A 
ATOM     42  C   UNL     1      -9.739   0.564  -8.717  1.00  0.00     0.049 A 
ATOM     43  H   UNL     1      -8.074   0.946  -9.908  1.00  0.00     0.167 HD
ATOM     44  C   UNL     1      -4.410   1.657 -12.184  1.00  0.00     0.037 A 
ATOM     45  C   UNL     1     -10.726   0.160  -9.534  1.00  0.00     0.037 A 
ATOM     46  C   UNL     1      -5.348   1.089 -13.115  1.00  0.00     0.049 A 
ATOM     47  C   UNL     1     -10.453   0.094 -11.004  1.00  0.00     0.074 A 
ATOM     48  C   UNL     1      -5.156   0.741 -14.440  1.00  0.00     0.029 A 
ATOM     49  N   UNL     1      -6.683   0.847 -12.826  1.00  0.00    -0.354 N 
ATOM     50  N   UNL     1      -9.317   0.267 -11.635  1.00  0.00    -0.248 NA
ATOM     51  C   UNL     1     -11.595  -0.200 -11.877  1.00  0.00     0.031 C 
ATOM     52  C   UNL     1      -6.395   0.360 -14.972  1.00  0.00     0.029 A 
ATOM     53  C   UNL     1      -7.347   0.430 -13.967  1.00  0.00     0.049 A 
ATOM     54  H   UNL     1      -7.098   0.956 -11.940  1.00  0.00     0.167 HD
ATOM     55  C   UNL     1      -9.601   0.096 -12.981  1.00  0.00     0.074 A 
ATOM     56  C   UNL     1     -11.018  -0.202 -13.072  1.00  0.00     0.031 C 
ATOM     57  C   UNL     1      -8.762   0.172 -14.042  1.00  0.00     0.037 A 
BRANCH  44  58
ATOM     58  C   UNL     1      -3.010   1.913 -12.644  1.00  0.00     0.057 A 
ATOM     59  C   UNL     1      -1.971   1.030 -12.322  1.00  0.00     0.134 A 
ATOM     60  C   UNL     1      -2.701   3.016 -13.447  1.00  0.00     0.134 A 
ATOM     61  F   UNL     1      -2.204  -0.041 -11.549  1.00  0.00    -0.206 F 
ATOM     62  C   UNL     1      -0.670   1.237 -12.785  1.00  0.00     0.040 A 
ATOM     63  C   UNL     1      -1.405   3.229 -13.921  1.00  0.00     0.040 A 
ATOM     64  F   UNL     1      -3.652   3.899 -13.783  1.00  0.00    -0.206 F 
ATOM     65  C   UNL     1      -0.385   2.338 -13.592  1.00  0.00     0.006 A 
ENDBRANCH  44  58
BRANCH  45  66
ATOM     66  C   UNL     1     -12.068  -0.105  -8.968  1.00  0.00     0.057 A 
ATOM     67  C   UNL     1     -12.596  -1.395  -8.905  1.00  0.00     0.134 A 
ATOM     68  C   UNL     1     -12.832   0.938  -8.423  1.00  0.00     0.134 A 
ATOM     69  F   UNL     1     -11.919  -2.429  -9.425  1.00  0.00    -0.206 F 
ATOM     70  C   UNL     1     -13.835  -1.643  -8.311  1.00  0.00     0.040 A 
ATOM     71  C   UNL     1     -14.059   0.702  -7.805  1.00  0.00     0.040 A 
ATOM     72  F   UNL     1     -12.375   2.199  -8.453  1.00  0.00    -0.206 F 
ATOM     73  C   UNL     1     -14.564  -0.595  -7.749  1.00  0.00     0.006 A 
ENDBRANCH  45  66
BRANCH  57  74
ATOM     74  C   UNL     1      -9.366  -0.062 -15.390  1.00  0.00     0.057 A 
ATOM     75  C   UNL     1     -10.146   0.917 -16.019  1.00  0.00     0.134 A 
ATOM     76  C   UNL     1      -9.159  -1.268 -16.070  1.00  0.00     0.134 A 
ATOM     77  F   UNL     1     -10.395   2.084 -15.406  1.00  0.00    -0.206 F 
ATOM     78  C   UNL     1     -10.714   0.696 -17.273  1.00  0.00     0.040 A 
ATOM     79  C   UNL     1      -9.704  -1.492 -17.333  1.00  0.00     0.040 A 
ATOM     80  F   UNL     1      -8.418  -2.241 -15.519  1.00  0.00    -0.206 F 
ATOM     81  C   UNL     1     -10.489  -0.510 -17.936  1.00  0.00     0.006 A 
ENDBRANCH  57  74
ENDBRANCH  31  32
ENDBRANCH  24  26
ENDBRANCH  23  24
ENDBRANCH  22  23
ENDBRANCH   1  22
TORSDOF 16
