REMARK SMILES O=C(CC[C@@H]1CN(c2ccncc2)CC[C@@H]1[NH+]1CCOCC1)OCCOC(=O)c1ccc(-c2c3nc(c(-c4c(F)cccc4F)c4ccc([nH]4)c(-c4c(F)cccc4F)c4nc(c(-c5c(F)cccc5F)c5ccc2[nH]5)C=C4)C=C3)cc1
REMARK SMILES IDX 24 1 23 2 2 3 1 4 3 5 4 6 5 7 6 8 16 9 7 10 15 11 14 12
REMARK SMILES IDX 17 13 18 14 22 15 19 17 21 18 20 19 8 20 9 21 13 22 10 23
REMARK SMILES IDX 12 24 11 25 25 26 26 27 27 28 28 29 29 30 30 31 82 32 31 33
REMARK SMILES IDX 81 34 32 35 33 36 34 37 75 38 35 39 80 40 74 41 76 42 36 43
REMARK SMILES IDX 79 44 73 45 72 46 37 48 63 49 46 50 62 51 47 52 50 53 61 54
REMARK SMILES IDX 77 55 48 56 49 57 60 59 78 60 51 61 38 62 39 63 44 64 40 65
REMARK SMILES IDX 41 66 43 67 45 68 42 69 64 70 65 71 70 72 66 73 67 74 69 75
REMARK SMILES IDX 71 76 68 77 52 78 53 79 58 80 54 81 55 82 57 83 59 84 56 85
REMARK H PARENT 17 16 76 47 50 58
REMARK Flexibility Score: inf
ROOT
ATOM      1  C   UNL     1       2.303  -0.728  -1.007  1.00  0.00     0.274 C 
ENDROOT
BRANCH   1   2
ATOM      2  O   UNL     1       3.080  -1.942  -0.986  1.00  0.00    -0.462 OA
BRANCH   2   3
ATOM      3  C   UNL     1       4.436  -1.952  -1.029  1.00  0.00     0.305 C 
ATOM      4  O   UNL     1       5.032  -2.769  -1.727  1.00  0.00    -0.252 OA
BRANCH   3   5
ATOM      5  C   UNL     1       5.193  -1.027  -0.093  1.00  0.00     0.123 C 
BRANCH   5   6
ATOM      6  C   UNL     1       6.168  -0.100  -0.827  1.00  0.00     0.023 C 
BRANCH   6   7
ATOM      7  C   UNL     1       5.429   1.050  -1.528  1.00  0.00     0.067 C 
ATOM      8  C   UNL     1       6.184   1.617  -2.726  1.00  0.00     0.126 C 
ATOM      9  C   UNL     1       4.850   2.149  -0.565  1.00  0.00     0.190 C 
ATOM     10  N   UNL     1       5.289   2.554  -3.394  1.00  0.00    -0.371 N 
ATOM     11  C   UNL     1       4.062   3.184  -1.388  1.00  0.00     0.087 C 
ATOM     12  C   UNL     1       4.780   3.686  -2.638  1.00  0.00     0.122 C 
BRANCH   9  13
ATOM     13  N   UNL     1       5.765   2.641   0.481  1.00  0.00    -0.328 N 
ATOM     14  C   UNL     1       5.105   3.116   1.720  1.00  0.00     0.291 C 
ATOM     15  C   UNL     1       6.862   3.550   0.130  1.00  0.00     0.291 C 
ATOM     16  H   UNL     1       6.232   1.750   0.646  1.00  0.00     0.348 HD
ATOM     17  C   UNL     1       4.836   4.631   1.794  1.00  0.00     0.221 C 
ATOM     18  C   UNL     1       6.533   5.050   0.230  1.00  0.00     0.221 C 
ATOM     19  O   UNL     1       6.018   5.387   1.520  1.00  0.00    -0.370 OA
ENDBRANCH   9  13
BRANCH  10  20
ATOM     20  C   UNL     1       5.019   2.443  -4.740  1.00  0.00     0.040 A 
ATOM     21  C   UNL     1       5.335   3.474  -5.622  1.00  0.00     0.046 A 
ATOM     22  C   UNL     1       4.392   1.310  -5.262  1.00  0.00     0.046 A 
ATOM     23  C   UNL     1       5.021   3.335  -6.964  1.00  0.00     0.113 A 
ATOM     24  C   UNL     1       4.095   1.269  -6.616  1.00  0.00     0.113 A 
ATOM     25  N   UNL     1       4.397   2.257  -7.482  1.00  0.00    -0.265 NA
ENDBRANCH  10  20
ENDBRANCH   6   7
ENDBRANCH   5   6
ENDBRANCH   3   5
ENDBRANCH   2   3
ENDBRANCH   1   2
BRANCH   1  26
ATOM     26  C   UNL     1       1.423  -0.548   0.227  1.00  0.00     0.275 C 
BRANCH  26  27
ATOM     27  O   UNL     1       2.216  -0.640   1.416  1.00  0.00    -0.458 OA
BRANCH  27  28
ATOM     28  C   UNL     1       2.329  -1.906   1.896  1.00  0.00     0.338 C 
ATOM     29  O   UNL     1       1.701  -2.883   1.541  1.00  0.00    -0.246 OA
BRANCH  28  30
ATOM     30  C   UNL     1       3.475  -1.969   2.823  1.00  0.00     0.060 A 
ATOM     31  C   UNL     1       4.284  -3.112   2.779  1.00  0.00     0.016 A 
ATOM     32  C   UNL     1       3.749  -0.935   3.722  1.00  0.00     0.016 A 
ATOM     33  C   UNL     1       5.338  -3.253   3.679  1.00  0.00     0.010 A 
ATOM     34  C   UNL     1       4.798  -1.080   4.627  1.00  0.00     0.010 A 
ATOM     35  C   UNL     1       5.567  -2.256   4.635  1.00  0.00    -0.014 A 
BRANCH  35  36
ATOM     36  C   UNL     1       6.464  -2.518   5.780  1.00  0.00     0.031 A 
ATOM     37  C   UNL     1       5.852  -3.018   7.057  1.00  0.00     0.074 A 
ATOM     38  C   UNL     1       7.781  -2.273   5.704  1.00  0.00     0.049 A 
ATOM     39  N   UNL     1       6.408  -3.219   8.222  1.00  0.00    -0.248 NA
ATOM     40  C   UNL     1       4.411  -3.317   7.013  1.00  0.00     0.031 C 
ATOM     41  C   UNL     1       8.487  -1.802   4.515  1.00  0.00     0.029 A 
ATOM     42  N   UNL     1       8.753  -2.362   6.667  1.00  0.00    -0.354 N 
ATOM     43  C   UNL     1       5.385  -3.657   9.052  1.00  0.00     0.074 A 
ATOM     44  C   UNL     1       4.170  -3.666   8.266  1.00  0.00     0.031 C 
ATOM     45  C   UNL     1       9.780  -1.612   4.829  1.00  0.00     0.029 A 
ATOM     46  C   UNL     1       9.981  -1.922   6.244  1.00  0.00     0.049 A 
ATOM     47  H   UNL     1       8.585  -2.708   7.573  1.00  0.00     0.167 HD
ATOM     48  C   UNL     1       5.452  -4.021  10.354  1.00  0.00     0.037 A 
ATOM     49  C   UNL     1      11.127  -1.761   6.933  1.00  0.00     0.037 A 
ATOM     50  C   UNL     1       6.658  -4.000  11.134  1.00  0.00     0.049 A 
ATOM     51  C   UNL     1      11.172  -2.123   8.393  1.00  0.00     0.074 A 
ATOM     52  C   UNL     1       6.841  -4.382  12.451  1.00  0.00     0.029 A 
ATOM     53  N   UNL     1       7.887  -3.558  10.669  1.00  0.00    -0.354 N 
ATOM     54  N   UNL     1      10.213  -2.582   9.161  1.00  0.00    -0.248 NA
ATOM     55  C   UNL     1      12.458  -1.946   9.083  1.00  0.00     0.031 C 
ATOM     56  C   UNL     1       8.172  -4.124  12.797  1.00  0.00     0.029 A 
ATOM     57  C   UNL     1       8.828  -3.628  11.681  1.00  0.00     0.049 A 
ATOM     58  H   UNL     1       8.064  -3.240   9.754  1.00  0.00     0.167 HD
ATOM     59  C   UNL     1      10.784  -2.776  10.413  1.00  0.00     0.074 A 
ATOM     60  C   UNL     1      12.175  -2.384  10.302  1.00  0.00     0.031 C 
ATOM     61  C   UNL     1      10.210  -3.241  11.550  1.00  0.00     0.037 A 
BRANCH  48  62
ATOM     62  C   UNL     1       4.169  -4.434  11.010  1.00  0.00     0.057 A 
ATOM     63  C   UNL     1       3.534  -5.644  10.701  1.00  0.00     0.134 A 
ATOM     64  C   UNL     1       3.551  -3.599  11.950  1.00  0.00     0.134 A 
ATOM     65  F   UNL     1       4.065  -6.478   9.794  1.00  0.00    -0.206 F 
ATOM     66  C   UNL     1       2.313  -5.994  11.279  1.00  0.00     0.040 A 
ATOM     67  C   UNL     1       2.343  -3.950  12.553  1.00  0.00     0.040 A 
ATOM     68  F   UNL     1       4.106  -2.426  12.289  1.00  0.00    -0.206 F 
ATOM     69  C   UNL     1       1.716  -5.147  12.210  1.00  0.00     0.006 A 
ENDBRANCH  48  62
BRANCH  49  70
ATOM     70  C   UNL     1      12.322  -1.217   6.245  1.00  0.00     0.057 A 
ATOM     71  C   UNL     1      13.414  -2.033   5.935  1.00  0.00     0.134 A 
ATOM     72  C   UNL     1      12.392   0.130   5.868  1.00  0.00     0.134 A 
ATOM     73  F   UNL     1      13.412  -3.326   6.290  1.00  0.00    -0.206 F 
ATOM     74  C   UNL     1      14.539  -1.529   5.279  1.00  0.00     0.040 A 
ATOM     75  C   UNL     1      13.501   0.643   5.194  1.00  0.00     0.040 A 
ATOM     76  F   UNL     1      11.375   0.962   6.136  1.00  0.00    -0.206 F 
ATOM     77  C   UNL     1      14.581  -0.188   4.901  1.00  0.00     0.006 A 
ENDBRANCH  49  70
BRANCH  61  78
ATOM     78  C   UNL     1      11.085  -3.391  12.759  1.00  0.00     0.057 A 
ATOM     79  C   UNL     1      11.497  -2.287  13.515  1.00  0.00     0.134 A 
ATOM     80  C   UNL     1      11.454  -4.663  13.216  1.00  0.00     0.134 A 
ATOM     81  F   UNL     1      11.185  -1.041  13.125  1.00  0.00    -0.206 F 
ATOM     82  C   UNL     1      12.253  -2.443  14.678  1.00  0.00     0.040 A 
ATOM     83  C   UNL     1      12.189  -4.833  14.389  1.00  0.00     0.040 A 
ATOM     84  F   UNL     1      11.082  -5.762  12.542  1.00  0.00    -0.206 F 
ATOM     85  C   UNL     1      12.593  -3.720  15.123  1.00  0.00     0.006 A 
ENDBRANCH  61  78
ENDBRANCH  35  36
ENDBRANCH  28  30
ENDBRANCH  27  28
ENDBRANCH  26  27
ENDBRANCH   1  26
TORSDOF 15
