REMARK SMILES CC(C)C[C@H](C(=O)OCCOC(=O)c1ccc(-c2c3nc(c(-c4c(F)cccc4F)c4ccc([nH]4)c(-c4c(F)cccc4F)c4nc(c(-c5c(F)cccc5F)c5ccc2[nH]5)C=C4)C=C3)cc1)[C@@H]1CCO[C@]2(CCOC2)C1
REMARK SMILES IDX 9 1 8 2 6 3 7 4 5 5 4 6 2 7 1 8 3 9 68 10 69 11 77 12 70 13
REMARK SMILES IDX 72 14 71 15 73 16 76 17 74 18 75 19 10 20 11 21 12 22 13 23
REMARK SMILES IDX 14 24 15 25 67 26 16 27 66 28 17 29 18 30 19 31 60 32 20 33
REMARK SMILES IDX 65 34 59 35 61 36 21 37 64 38 58 39 57 40 22 42 48 43 31 44
REMARK SMILES IDX 47 45 32 46 35 47 46 48 62 49 33 50 34 51 45 53 63 54 36 55
REMARK SMILES IDX 23 56 24 57 29 58 25 59 26 60 28 61 30 62 27 63 49 64 50 65
REMARK SMILES IDX 55 66 51 67 52 68 54 69 56 70 53 71 37 72 38 73 43 74 39 75
REMARK SMILES IDX 40 76 42 77 44 78 41 79
REMARK H PARENT 61 41 35 52
REMARK Flexibility Score: inf
ROOT
ATOM      1  C   UNL     1       0.209  -2.740  -1.741  1.00  0.00     0.274 C 
ENDROOT
BRANCH   1   2
ATOM      2  O   UNL     1      -0.438  -1.583  -2.302  1.00  0.00    -0.462 OA
BRANCH   2   3
ATOM      3  C   UNL     1      -1.379  -0.988  -1.527  1.00  0.00     0.309 C 
ATOM      4  O   UNL     1      -1.871  -1.510  -0.531  1.00  0.00    -0.252 OA
BRANCH   3   5
ATOM      5  C   UNL     1      -1.675   0.473  -1.936  1.00  0.00     0.103 C 
BRANCH   5   6
ATOM      6  C   UNL     1      -1.010   0.862  -3.287  1.00  0.00     0.018 C 
BRANCH   6   7
ATOM      7  C   UNL     1      -0.503   2.317  -3.396  1.00  0.00    -0.017 C 
ATOM      8  C   UNL     1       0.741   2.584  -2.543  1.00  0.00     0.007 C 
ATOM      9  C   UNL     1      -0.205   2.662  -4.856  1.00  0.00     0.007 C 
ENDBRANCH   6   7
ENDBRANCH   5   6
BRANCH   5  10
ATOM     10  C   UNL     1      -3.223   0.709  -1.756  1.00  0.00     0.008 C 
ATOM     11  C   UNL     1      -4.057   1.121  -2.969  1.00  0.00     0.033 C 
ATOM     12  C   UNL     1      -3.590   1.601  -0.542  1.00  0.00     0.042 C 
ATOM     13  C   UNL     1      -4.109   2.619  -3.195  1.00  0.00     0.161 C 
ATOM     14  C   UNL     1      -3.743   3.106  -0.849  1.00  0.00     0.094 C 
ATOM     15  O   UNL     1      -4.514   3.323  -2.030  1.00  0.00    -0.372 OA
ATOM     16  C   UNL     1      -2.414   3.856  -0.827  1.00  0.00     0.066 C 
ATOM     17  C   UNL     1      -4.469   3.821   0.298  1.00  0.00     0.195 C 
ATOM     18  C   UNL     1      -2.292   4.446   0.571  1.00  0.00     0.163 C 
ATOM     19  O   UNL     1      -3.474   4.091   1.287  1.00  0.00    -0.378 OA
ENDBRANCH   5  10
ENDBRANCH   3   5
ENDBRANCH   2   3
ENDBRANCH   1   2
BRANCH   1  20
ATOM     20  C   UNL     1       1.482  -2.291  -1.024  1.00  0.00     0.275 C 
BRANCH  20  21
ATOM     21  O   UNL     1       1.133  -1.429   0.078  1.00  0.00    -0.458 OA
BRANCH  21  22
ATOM     22  C   UNL     1       1.748  -0.228   0.120  1.00  0.00     0.338 C 
ATOM     23  O   UNL     1       2.617   0.183  -0.642  1.00  0.00    -0.246 OA
BRANCH  22  24
ATOM     24  C   UNL     1       1.248   0.570   1.257  1.00  0.00     0.060 A 
ATOM     25  C   UNL     1      -0.116   0.661   1.545  1.00  0.00     0.016 A 
ATOM     26  C   UNL     1       2.164   1.311   2.007  1.00  0.00     0.016 A 
ATOM     27  C   UNL     1      -0.569   1.533   2.538  1.00  0.00     0.010 A 
ATOM     28  C   UNL     1       1.715   2.114   3.060  1.00  0.00     0.010 A 
ATOM     29  C   UNL     1       0.342   2.251   3.325  1.00  0.00    -0.014 A 
BRANCH  29  30
ATOM     30  C   UNL     1      -0.118   3.136   4.432  1.00  0.00     0.031 A 
ATOM     31  C   UNL     1       0.238   4.599   4.435  1.00  0.00     0.074 A 
ATOM     32  C   UNL     1      -0.813   2.623   5.467  1.00  0.00     0.049 A 
ATOM     33  N   UNL     1       0.135   5.476   5.402  1.00  0.00    -0.248 NA
ATOM     34  C   UNL     1       0.802   5.143   3.190  1.00  0.00     0.031 C 
ATOM     35  C   UNL     1      -1.255   1.233   5.590  1.00  0.00     0.029 A 
ATOM     36  N   UNL     1      -1.255   3.214   6.625  1.00  0.00    -0.354 N 
ATOM     37  C   UNL     1       0.659   6.660   4.899  1.00  0.00     0.074 A 
ATOM     38  C   UNL     1       1.085   6.389   3.542  1.00  0.00     0.031 C 
ATOM     39  C   UNL     1      -1.917   1.082   6.746  1.00  0.00     0.029 A 
ATOM     40  C   UNL     1      -1.879   2.341   7.482  1.00  0.00     0.049 A 
ATOM     41  H   UNL     1      -1.137   4.172   6.822  1.00  0.00     0.167 HD
ATOM     42  C   UNL     1       0.776   7.862   5.513  1.00  0.00     0.037 A 
ATOM     43  C   UNL     1      -2.331   2.513   8.739  1.00  0.00     0.037 A 
ATOM     44  C   UNL     1       0.314   8.145   6.848  1.00  0.00     0.049 A 
ATOM     45  C   UNL     1      -2.162   3.844   9.411  1.00  0.00     0.074 A 
ATOM     46  C   UNL     1       0.374   9.338   7.548  1.00  0.00     0.029 A 
ATOM     47  N   UNL     1      -0.305   7.226   7.681  1.00  0.00    -0.354 N 
ATOM     48  N   UNL     1      -1.620   4.942   8.943  1.00  0.00    -0.248 NA
ATOM     49  C   UNL     1      -2.651   3.955  10.793  1.00  0.00     0.031 C 
ATOM     50  C   UNL     1      -0.182   9.134   8.815  1.00  0.00     0.029 A 
ATOM     51  C   UNL     1      -0.621   7.822   8.891  1.00  0.00     0.049 A 
ATOM     52  H   UNL     1      -0.493   6.288   7.447  1.00  0.00     0.167 HD
ATOM     53  C   UNL     1      -1.712   5.875   9.966  1.00  0.00     0.074 A 
ATOM     54  C   UNL     1      -2.376   5.221  11.075  1.00  0.00     0.031 C 
ATOM     55  C   UNL     1      -1.279   7.159   9.986  1.00  0.00     0.037 A 
BRANCH  42  56
ATOM     56  C   UNL     1       1.455   8.965   4.756  1.00  0.00     0.057 A 
ATOM     57  C   UNL     1       0.826   9.640   3.703  1.00  0.00     0.134 A 
ATOM     58  C   UNL     1       2.740   9.388   5.120  1.00  0.00     0.134 A 
ATOM     59  F   UNL     1      -0.399   9.274   3.296  1.00  0.00    -0.206 F 
ATOM     60  C   UNL     1       1.457  10.687   3.029  1.00  0.00     0.040 A 
ATOM     61  C   UNL     1       3.373  10.447   4.468  1.00  0.00     0.040 A 
ATOM     62  F   UNL     1       3.396   8.787   6.124  1.00  0.00    -0.206 F 
ATOM     63  C   UNL     1       2.732  11.098   3.416  1.00  0.00     0.006 A 
ENDBRANCH  42  56
BRANCH  43  64
ATOM     64  C   UNL     1      -2.951   1.374   9.457  1.00  0.00     0.057 A 
ATOM     65  C   UNL     1      -4.326   1.344   9.712  1.00  0.00     0.134 A 
ATOM     66  C   UNL     1      -2.189   0.282   9.891  1.00  0.00     0.134 A 
ATOM     67  F   UNL     1      -5.103   2.373   9.343  1.00  0.00    -0.206 F 
ATOM     68  C   UNL     1      -4.922   0.271  10.376  1.00  0.00     0.040 A 
ATOM     69  C   UNL     1      -2.774  -0.808  10.534  1.00  0.00     0.040 A 
ATOM     70  F   UNL     1      -0.865   0.252   9.675  1.00  0.00    -0.206 F 
ATOM     71  C   UNL     1      -4.146  -0.814  10.781  1.00  0.00     0.006 A 
ENDBRANCH  43  64
BRANCH  55  72
ATOM     72  C   UNL     1      -1.533   7.943  11.237  1.00  0.00     0.057 A 
ATOM     73  C   UNL     1      -0.773   7.744  12.396  1.00  0.00     0.134 A 
ATOM     74  C   UNL     1      -2.533   8.923  11.275  1.00  0.00     0.134 A 
ATOM     75  F   UNL     1       0.189   6.810  12.426  1.00  0.00    -0.206 F 
ATOM     76  C   UNL     1      -1.012   8.480  13.558  1.00  0.00     0.040 A 
ATOM     77  C   UNL     1      -2.768   9.678  12.425  1.00  0.00     0.040 A 
ATOM     78  F   UNL     1      -3.291   9.165  10.196  1.00  0.00    -0.206 F 
ATOM     79  C   UNL     1      -2.010   9.454  13.572  1.00  0.00     0.006 A 
ENDBRANCH  55  72
ENDBRANCH  29  30
ENDBRANCH  22  24
ENDBRANCH  21  22
ENDBRANCH  20  21
ENDBRANCH   1  20
TORSDOF 14
