REMARK SMILES NS(=O)(=O)c1ccc(-n2nc(NC(=O)NCCCC(=O)OCCOC(=O)c3ccc(-c4c5nc(c(-c6c(F)cccc6F)c6ccc([nH]6)c(-c6c(F)cccc6F)c6nc(c(-c7c(F)cccc7F)c7ccc4[nH]7)C=C6)C=C5)cc3)cc2-c2ccccc2)cc1
REMARK SMILES IDX 19 1 20 2 18 3 17 4 16 5 15 6 12 7 13 8 14 10 11 12 9 13
REMARK SMILES IDX 10 14 82 15 81 16 8 17 5 18 6 19 90 20 7 21 89 22 2 23 3 24
REMARK SMILES IDX 4 25 1 26 83 29 84 30 88 31 85 32 87 33 86 34 21 35 22 36
REMARK SMILES IDX 23 37 24 38 25 39 26 40 27 41 28 42 80 43 29 44 79 45 30 46
REMARK SMILES IDX 31 47 32 48 73 49 33 50 78 51 72 52 74 53 34 54 77 55 71 56
REMARK SMILES IDX 70 57 35 59 61 60 44 61 60 62 45 63 48 64 59 65 75 66 46 67
REMARK SMILES IDX 47 68 58 70 76 71 49 72 36 73 37 74 42 75 38 76 39 77 41 78
REMARK SMILES IDX 43 79 40 80 62 81 63 82 68 83 64 84 65 85 67 86 69 87 66 88
REMARK SMILES IDX 50 89 51 90 56 91 52 92 53 93 55 94 57 95 54 96
REMARK H PARENT 12 9 15 11 1 27 1 28 74 58 48 69
REMARK Flexibility Score: inf
ROOT
ATOM      1  C   UNL     1       7.033  -5.979   1.368  1.00  0.00     0.305 C 
ATOM      2  O   UNL     1       7.241  -5.275   2.349  1.00  0.00    -0.252 OA
ENDROOT
BRANCH   1   3
ATOM      3  C   UNL     1       6.658  -7.439   1.460  1.00  0.00     0.124 C 
BRANCH   3   4
ATOM      4  C   UNL     1       5.243  -7.805   1.028  1.00  0.00     0.033 C 
BRANCH   4   5
ATOM      5  C   UNL     1       4.921  -7.690  -0.464  1.00  0.00     0.118 C 
BRANCH   5   6
ATOM      6  N   UNL     1       5.723  -8.556  -1.314  1.00  0.00    -0.338 N 
ATOM      7  N   UNL     1       4.150  -9.416  -2.884  1.00  0.00    -0.291 N 
ATOM      8  C   UNL     1       5.393  -9.355  -2.353  1.00  0.00     0.320 C 
ATOM      9  H   UNL     1       3.901 -10.286  -3.271  1.00  0.00     0.173 HD
ATOM     10  O   UNL     1       6.253 -10.143  -2.761  1.00  0.00    -0.248 OA
ATOM     11  H   UNL     1       6.682  -8.561  -1.091  1.00  0.00     0.165 HD
BRANCH   7  12
ATOM     12  C   UNL     1       3.185  -8.443  -2.962  1.00  0.00     0.157 A 
ATOM     13  N   UNL     1       2.235  -6.588  -2.627  1.00  0.00    -0.231 N 
ATOM     14  N   UNL     1       3.438  -7.144  -2.864  1.00  0.00    -0.149 NA
ATOM     15  C   UNL     1       1.193  -7.425  -3.024  1.00  0.00     0.076 A 
ATOM     16  C   UNL     1       1.812  -8.652  -3.227  1.00  0.00     0.078 A 
BRANCH  13  17
ATOM     17  C   UNL     1       2.190  -5.303  -2.040  1.00  0.00     0.065 A 
ATOM     18  C   UNL     1       1.958  -2.673  -1.218  1.00  0.00     0.082 A 
ATOM     19  C   UNL     1       1.048  -3.630  -0.747  1.00  0.00     0.024 A 
ATOM     20  C   UNL     1       3.038  -3.045  -2.013  1.00  0.00     0.024 A 
ATOM     21  C   UNL     1       1.170  -4.956  -1.150  1.00  0.00     0.030 A 
ATOM     22  C   UNL     1       3.165  -4.370  -2.412  1.00  0.00     0.030 A 
BRANCH  18  23
ATOM     23  S   UNL     1       1.637  -0.964  -0.941  1.00  0.00     0.238 S 
ATOM     24  O   UNL     1       2.154  -0.580   0.334  1.00  0.00    -0.207 OA
ATOM     25  O   UNL     1       0.279  -0.697  -1.390  1.00  0.00    -0.207 OA
BRANCH  23  26
ATOM     26  N   UNL     1       2.591  -0.125  -2.034  1.00  0.00    -0.225 NA
ATOM     27  H   UNL     1       2.443   0.877  -1.916  1.00  0.00     0.137 HD
ATOM     28  H   UNL     1       2.339  -0.397  -2.984  1.00  0.00     0.137 HD
ENDBRANCH  23  26
ENDBRANCH  18  23
ENDBRANCH  13  17
BRANCH  15  29
ATOM     29  C   UNL     1      -0.216  -7.021  -3.162  1.00  0.00     0.000 A 
ATOM     30  C   UNL     1      -0.561  -5.747  -3.650  1.00  0.00     0.010 A 
ATOM     31  C   UNL     1      -1.251  -7.879  -2.773  1.00  0.00     0.010 A 
ATOM     32  C   UNL     1      -1.887  -5.310  -3.659  1.00  0.00     0.001 A 
ATOM     33  C   UNL     1      -2.584  -7.452  -2.811  1.00  0.00     0.001 A 
ATOM     34  C   UNL     1      -2.899  -6.162  -3.234  1.00  0.00     0.000 A 
ENDBRANCH  15  29
ENDBRANCH   7  12
ENDBRANCH   5   6
ENDBRANCH   4   5
ENDBRANCH   3   4
ENDBRANCH   1   3
BRANCH   1  35
ATOM     35  O   UNL     1       7.176  -5.579   0.076  1.00  0.00    -0.462 OA
BRANCH  35  36
ATOM     36  C   UNL     1       7.582  -4.212  -0.122  1.00  0.00     0.274 C 
BRANCH  36  37
ATOM     37  C   UNL     1       6.401  -3.254  -0.237  1.00  0.00     0.275 C 
BRANCH  37  38
ATOM     38  O   UNL     1       5.713  -3.054   1.002  1.00  0.00    -0.458 OA
BRANCH  38  39
ATOM     39  C   UNL     1       4.695  -3.915   1.232  1.00  0.00     0.338 C 
ATOM     40  O   UNL     1       4.447  -4.929   0.603  1.00  0.00    -0.246 OA
BRANCH  39  41
ATOM     41  C   UNL     1       3.760  -3.397   2.235  1.00  0.00     0.060 A 
ATOM     42  C   UNL     1       2.672  -4.211   2.595  1.00  0.00     0.016 A 
ATOM     43  C   UNL     1       3.812  -2.054   2.599  1.00  0.00     0.016 A 
ATOM     44  C   UNL     1       1.567  -3.646   3.212  1.00  0.00     0.010 A 
ATOM     45  C   UNL     1       2.698  -1.487   3.178  1.00  0.00     0.010 A 
ATOM     46  C   UNL     1       1.568  -2.273   3.442  1.00  0.00    -0.014 A 
BRANCH  46  47
ATOM     47  C   UNL     1       0.396  -1.601   3.981  1.00  0.00     0.031 A 
ATOM     48  C   UNL     1       0.353  -1.445   5.438  1.00  0.00     0.074 A 
ATOM     49  C   UNL     1      -0.469  -0.940   3.189  1.00  0.00     0.049 A 
ATOM     50  N   UNL     1      -0.605  -1.855   6.199  1.00  0.00    -0.248 NA
ATOM     51  C   UNL     1       1.492  -0.862   6.156  1.00  0.00     0.031 C 
ATOM     52  C   UNL     1      -0.457  -0.938   1.740  1.00  0.00     0.029 A 
ATOM     53  N   UNL     1      -1.441  -0.027   3.484  1.00  0.00    -0.354 N 
ATOM     54  C   UNL     1      -0.308  -1.363   7.456  1.00  0.00     0.074 A 
ATOM     55  C   UNL     1       1.069  -0.947   7.417  1.00  0.00     0.031 C 
ATOM     56  C   UNL     1      -1.155   0.111   1.270  1.00  0.00     0.029 A 
ATOM     57  C   UNL     1      -1.787   0.764   2.393  1.00  0.00     0.049 A 
ATOM     58  H   UNL     1      -1.853   0.061   4.374  1.00  0.00     0.167 HD
ATOM     59  C   UNL     1      -1.311  -1.061   8.320  1.00  0.00     0.037 A 
ATOM     60  C   UNL     1      -2.547   1.882   2.356  1.00  0.00     0.037 A 
ATOM     61  C   UNL     1      -2.557  -1.681   7.927  1.00  0.00     0.049 A 
ATOM     62  C   UNL     1      -3.489   1.783   3.489  1.00  0.00     0.074 A 
ATOM     63  C   UNL     1      -2.954  -2.976   7.652  1.00  0.00     0.029 A 
ATOM     64  N   UNL     1      -3.546  -0.870   7.427  1.00  0.00    -0.354 N 
ATOM     65  N   UNL     1      -4.431   0.881   3.555  1.00  0.00    -0.248 NA
ATOM     66  C   UNL     1      -3.118   2.388   4.759  1.00  0.00     0.031 C 
ATOM     67  C   UNL     1      -3.950  -2.865   6.639  1.00  0.00     0.029 A 
ATOM     68  C   UNL     1      -4.138  -1.509   6.369  1.00  0.00     0.049 A 
ATOM     69  H   UNL     1      -3.788   0.020   7.771  1.00  0.00     0.167 HD
ATOM     70  C   UNL     1      -4.409   0.467   4.877  1.00  0.00     0.074 A 
ATOM     71  C   UNL     1      -3.714   1.531   5.594  1.00  0.00     0.031 C 
ATOM     72  C   UNL     1      -4.673  -0.832   5.207  1.00  0.00     0.037 A 
BRANCH  59  73
ATOM     73  C   UNL     1      -1.251   0.093   9.285  1.00  0.00     0.057 A 
ATOM     74  C   UNL     1      -2.241   0.199  10.275  1.00  0.00     0.134 A 
ATOM     75  C   UNL     1      -0.440   1.235   9.120  1.00  0.00     0.134 A 
ATOM     76  F   UNL     1      -3.095  -0.810  10.503  1.00  0.00    -0.206 F 
ATOM     77  C   UNL     1      -2.447   1.375  11.003  1.00  0.00     0.040 A 
ATOM     78  C   UNL     1      -0.596   2.392   9.886  1.00  0.00     0.040 A 
ATOM     79  F   UNL     1       0.475   1.339   8.148  1.00  0.00    -0.206 F 
ATOM     80  C   UNL     1      -1.624   2.477  10.810  1.00  0.00     0.006 A 
ENDBRANCH  59  73
BRANCH  60  81
ATOM     81  C   UNL     1      -2.399   3.043   1.450  1.00  0.00     0.057 A 
ATOM     82  C   UNL     1      -3.426   3.971   1.248  1.00  0.00     0.134 A 
ATOM     83  C   UNL     1      -1.143   3.392   0.909  1.00  0.00     0.134 A 
ATOM     84  F   UNL     1      -4.644   3.762   1.766  1.00  0.00    -0.206 F 
ATOM     85  C   UNL     1      -3.219   5.172   0.550  1.00  0.00     0.040 A 
ATOM     86  C   UNL     1      -0.926   4.580   0.203  1.00  0.00     0.040 A 
ATOM     87  F   UNL     1      -0.061   2.627   1.114  1.00  0.00    -0.206 F 
ATOM     88  C   UNL     1      -1.966   5.481   0.028  1.00  0.00     0.006 A 
ENDBRANCH  60  81
BRANCH  72  89
ATOM     89  C   UNL     1      -5.320  -1.706   4.166  1.00  0.00     0.057 A 
ATOM     90  C   UNL     1      -4.662  -2.169   3.017  1.00  0.00     0.134 A 
ATOM     91  C   UNL     1      -6.585  -2.243   4.424  1.00  0.00     0.134 A 
ATOM     92  F   UNL     1      -3.413  -1.790   2.734  1.00  0.00    -0.206 F 
ATOM     93  C   UNL     1      -5.243  -3.102   2.153  1.00  0.00     0.040 A 
ATOM     94  C   UNL     1      -7.167  -3.197   3.583  1.00  0.00     0.040 A 
ATOM     95  F   UNL     1      -7.254  -1.892   5.534  1.00  0.00    -0.206 F 
ATOM     96  C   UNL     1      -6.498  -3.627   2.440  1.00  0.00     0.006 A 
ENDBRANCH  72  89
ENDBRANCH  46  47
ENDBRANCH  39  41
ENDBRANCH  38  39
ENDBRANCH  37  38
ENDBRANCH  36  37
ENDBRANCH  35  36
ENDBRANCH   1  35
TORSDOF 19
