REMARK SMILES Cn1ncc(C(=O)OCCOC(=O)c2ccc(-c3c4nc(c(-c5c(F)cccc5F)c5ccc([nH]5)c(-c5c(F)cccc5F)c5nc(c(-c6c(F)cccc6F)c6ccc3[nH]6)C=C5)C=C4)cc2)c1C(=O)N1CCN(S(C)(=O)=O)CC1
REMARK SMILES IDX 9 1 8 2 6 3 7 4 5 5 1 6 2 7 3 8 68 9 4 10 69 11 70 12 71 13
REMARK SMILES IDX 72 14 80 15 73 16 79 17 74 18 75 19 76 20 77 21 78 22 10 23
REMARK SMILES IDX 11 24 12 25 13 26 14 27 15 28 67 29 16 30 66 31 17 32 18 33
REMARK SMILES IDX 19 34 60 35 20 36 65 37 59 38 61 39 21 40 64 41 58 42 57 43
REMARK SMILES IDX 22 45 48 46 31 47 47 48 32 49 35 50 46 51 62 52 33 53 34 54
REMARK SMILES IDX 45 56 63 57 36 58 23 59 24 60 29 61 25 62 26 63 28 64 30 65
REMARK SMILES IDX 27 66 49 67 50 68 55 69 51 70 52 71 54 72 56 73 53 74 37 75
REMARK SMILES IDX 38 76 43 77 39 78 40 79 42 80 44 81 41 82
REMARK H PARENT 61 44 35 55
REMARK Flexibility Score: inf
ROOT
ATOM      1  C   UNL     1       3.699  -3.400  -0.130  1.00  0.00     0.275 C 
ENDROOT
BRANCH   1   2
ATOM      2  O   UNL     1       2.512  -2.584  -0.183  1.00  0.00    -0.458 OA
BRANCH   2   3
ATOM      3  C   UNL     1       2.431  -1.579   0.733  1.00  0.00     0.342 C 
ATOM      4  O   UNL     1       3.323  -1.286   1.521  1.00  0.00    -0.246 OA
BRANCH   3   5
ATOM      5  C   UNL     1       1.240  -0.754   0.602  1.00  0.00     0.111 A 
ATOM      6  C   UNL     1      -2.202   0.346   0.425  1.00  0.00     0.174 C 
ATOM      7  N   UNL     1      -0.784   0.078   0.425  1.00  0.00    -0.262 N 
ATOM      8  N   UNL     1       0.004   1.157   0.581  1.00  0.00    -0.180 NA
ATOM      9  C   UNL     1      -0.096  -1.122   0.418  1.00  0.00     0.140 A 
ATOM     10  C   UNL     1       1.208   0.643   0.781  1.00  0.00     0.151 A 
BRANCH   9  11
ATOM     11  C   UNL     1      -0.605  -2.482   0.449  1.00  0.00     0.273 C 
ATOM     12  O   UNL     1       0.113  -3.446   0.714  1.00  0.00    -0.267 OA
ATOM     13  N   UNL     1      -1.977  -2.669   0.386  1.00  0.00    -0.335 N 
ATOM     14  C   UNL     1      -2.524  -3.652   1.316  1.00  0.00     0.136 C 
ATOM     15  C   UNL     1      -2.711  -2.554  -0.877  1.00  0.00     0.136 C 
ATOM     16  C   UNL     1      -3.989  -3.356   1.620  1.00  0.00     0.123 C 
ATOM     17  C   UNL     1      -4.218  -2.323  -0.652  1.00  0.00     0.123 C 
ATOM     18  N   UNL     1      -4.781  -3.246   0.369  1.00  0.00    -0.199 NA
BRANCH  18  19
ATOM     19  S   UNL     1      -5.782  -4.508  -0.096  1.00  0.00     0.211 S 
ATOM     20  C   UNL     1      -4.656  -5.643  -0.878  1.00  0.00     0.176 C 
ATOM     21  O   UNL     1      -6.290  -5.143   1.099  1.00  0.00    -0.213 OA
ATOM     22  O   UNL     1      -6.673  -4.004  -1.119  1.00  0.00    -0.213 OA
ENDBRANCH  18  19
ENDBRANCH   9  11
ENDBRANCH   3   5
ENDBRANCH   2   3
ENDBRANCH   1   2
BRANCH   1  23
ATOM     23  C   UNL     1       4.578  -3.162  -1.356  1.00  0.00     0.275 C 
BRANCH  23  24
ATOM     24  O   UNL     1       5.040  -1.798  -1.373  1.00  0.00    -0.458 OA
BRANCH  24  25
ATOM     25  C   UNL     1       4.478  -1.006  -2.315  1.00  0.00     0.338 C 
ATOM     26  O   UNL     1       3.692  -1.323  -3.190  1.00  0.00    -0.246 OA
BRANCH  25  27
ATOM     27  C   UNL     1       4.869   0.388  -2.066  1.00  0.00     0.060 A 
ATOM     28  C   UNL     1       4.189   1.079  -1.070  1.00  0.00     0.016 A 
ATOM     29  C   UNL     1       5.775   1.052  -2.885  1.00  0.00     0.016 A 
ATOM     30  C   UNL     1       4.343   2.453  -0.926  1.00  0.00     0.010 A 
ATOM     31  C   UNL     1       5.997   2.422  -2.685  1.00  0.00     0.010 A 
ATOM     32  C   UNL     1       5.260   3.144  -1.725  1.00  0.00    -0.014 A 
BRANCH  32  33
ATOM     33  C   UNL     1       5.399   4.621  -1.590  1.00  0.00     0.031 A 
ATOM     34  C   UNL     1       5.108   5.514  -2.766  1.00  0.00     0.074 A 
ATOM     35  C   UNL     1       5.756   5.173  -0.412  1.00  0.00     0.049 A 
ATOM     36  N   UNL     1       5.339   6.794  -2.914  1.00  0.00    -0.248 NA
ATOM     37  C   UNL     1       4.483   4.879  -3.937  1.00  0.00     0.031 C 
ATOM     38  C   UNL     1       6.005   4.439   0.831  1.00  0.00     0.029 A 
ATOM     39  N   UNL     1       5.970   6.486  -0.067  1.00  0.00    -0.354 N 
ATOM     40  C   UNL     1       4.941   7.104  -4.208  1.00  0.00     0.074 A 
ATOM     41  C   UNL     1       4.458   5.878  -4.807  1.00  0.00     0.031 C 
ATOM     42  C   UNL     1       6.307   5.311   1.804  1.00  0.00     0.029 A 
ATOM     43  C   UNL     1       6.363   6.654   1.239  1.00  0.00     0.049 A 
ATOM     44  H   UNL     1       5.851   7.234  -0.696  1.00  0.00     0.167 HD
ATOM     45  C   UNL     1       4.977   8.303  -4.839  1.00  0.00     0.037 A 
ATOM     46  C   UNL     1       6.771   7.755   1.898  1.00  0.00     0.037 A 
ATOM     47  C   UNL     1       5.405   9.532  -4.222  1.00  0.00     0.049 A 
ATOM     48  C   UNL     1       6.851   9.063   1.163  1.00  0.00     0.074 A 
ATOM     49  C   UNL     1       5.464  10.800  -4.774  1.00  0.00     0.029 A 
ATOM     50  N   UNL     1       5.832   9.648  -2.908  1.00  0.00    -0.354 N 
ATOM     51  N   UNL     1       6.529   9.334  -0.079  1.00  0.00    -0.248 NA
ATOM     52  C   UNL     1       7.372  10.214   1.914  1.00  0.00     0.031 C 
ATOM     53  C   UNL     1       5.963  11.677  -3.806  1.00  0.00     0.029 A 
ATOM     54  C   UNL     1       6.173  10.964  -2.637  1.00  0.00     0.049 A 
ATOM     55  H   UNL     1       5.886   8.906  -2.263  1.00  0.00     0.167 HD
ATOM     56  C   UNL     1       6.795  10.686  -0.254  1.00  0.00     0.074 A 
ATOM     57  C   UNL     1       7.285  11.184   1.015  1.00  0.00     0.031 C 
ATOM     58  C   UNL     1       6.654  11.444  -1.367  1.00  0.00     0.037 A 
BRANCH  45  59
ATOM     59  C   UNL     1       4.576   8.339  -6.285  1.00  0.00     0.057 A 
ATOM     60  C   UNL     1       3.243   8.211  -6.696  1.00  0.00     0.134 A 
ATOM     61  C   UNL     1       5.541   8.540  -7.281  1.00  0.00     0.134 A 
ATOM     62  F   UNL     1       2.271   8.002  -5.795  1.00  0.00    -0.206 F 
ATOM     63  C   UNL     1       2.888   8.261  -8.046  1.00  0.00     0.040 A 
ATOM     64  C   UNL     1       5.196   8.617  -8.631  1.00  0.00     0.040 A 
ATOM     65  F   UNL     1       6.836   8.676  -6.956  1.00  0.00    -0.206 F 
ATOM     66  C   UNL     1       3.865   8.471  -9.017  1.00  0.00     0.006 A 
ENDBRANCH  45  59
BRANCH  46  67
ATOM     67  C   UNL     1       7.189   7.659   3.320  1.00  0.00     0.057 A 
ATOM     68  C   UNL     1       6.446   8.267   4.338  1.00  0.00     0.134 A 
ATOM     69  C   UNL     1       8.348   6.966   3.695  1.00  0.00     0.134 A 
ATOM     70  F   UNL     1       5.342   8.967   4.041  1.00  0.00    -0.206 F 
ATOM     71  C   UNL     1       6.844   8.199   5.674  1.00  0.00     0.040 A 
ATOM     72  C   UNL     1       8.742   6.865   5.029  1.00  0.00     0.040 A 
ATOM     73  F   UNL     1       9.107   6.363   2.767  1.00  0.00    -0.206 F 
ATOM     74  C   UNL     1       7.992   7.489   6.023  1.00  0.00     0.006 A 
ENDBRANCH  46  67
BRANCH  58  75
ATOM     75  C   UNL     1       7.004  12.898  -1.252  1.00  0.00     0.057 A 
ATOM     76  C   UNL     1       8.333  13.332  -1.172  1.00  0.00     0.134 A 
ATOM     77  C   UNL     1       6.002  13.876  -1.251  1.00  0.00     0.134 A 
ATOM     78  F   UNL     1       9.339  12.444  -1.154  1.00  0.00    -0.206 F 
ATOM     79  C   UNL     1       8.652  14.687  -1.073  1.00  0.00     0.040 A 
ATOM     80  C   UNL     1       6.309  15.235  -1.177  1.00  0.00     0.040 A 
ATOM     81  F   UNL     1       4.709  13.526  -1.332  1.00  0.00    -0.206 F 
ATOM     82  C   UNL     1       7.638  15.643  -1.082  1.00  0.00     0.006 A 
ENDBRANCH  58  75
ENDBRANCH  32  33
ENDBRANCH  25  27
ENDBRANCH  24  25
ENDBRANCH  23  24
ENDBRANCH   1  23
TORSDOF 13
