REMARK SMILES Cc1cc([N+](=O)[O-])ccc1NC(=O)[C@@H]1[C@@H](C(=O)OCCOC(=O)c2ccc(-c3c4nc(c(-c5c(F)cccc5F)c5ccc([nH]5)c(-c5c(F)cccc5F)c5nc(c(-c6c(F)cccc6F)c6ccc3[nH]6)C=C5)C=C4)cc2)[C@H]2C=C[C@@H]1C2
REMARK SMILES IDX 19 1 18 2 16 3 17 4 15 5 14 6 81 7 78 8 80 9 82 10 79 11
REMARK SMILES IDX 12 12 11 13 13 15 10 16 1 17 2 18 3 19 4 20 9 21 8 22 5 23
REMARK SMILES IDX 6 24 7 25 20 26 21 27 22 28 23 29 24 30 25 31 77 32 26 33
REMARK SMILES IDX 76 34 27 35 28 36 29 37 70 38 30 39 75 40 69 41 71 42 31 43
REMARK SMILES IDX 74 44 68 45 67 46 32 48 58 49 41 50 57 51 42 52 45 53 56 54
REMARK SMILES IDX 72 55 43 56 44 57 55 59 73 60 46 61 33 62 34 63 39 64 35 65
REMARK SMILES IDX 36 66 38 67 40 68 37 69 59 70 60 71 65 72 61 73 62 74 64 75
REMARK SMILES IDX 66 76 63 77 47 78 48 79 53 80 49 81 50 82 52 83 54 84 51 85
REMARK H PARENT 11 14 71 47 45 58
REMARK Flexibility Score: inf
ROOT
ATOM      1  C   UNL     1      -2.892   7.763  -1.269  1.00  0.00     0.274 C 
ENDROOT
BRANCH   1   2
ATOM      2  O   UNL     1      -1.882   6.917  -0.670  1.00  0.00    -0.462 OA
BRANCH   2   3
ATOM      3  C   UNL     1      -2.384   6.249   0.420  1.00  0.00     0.310 C 
ATOM      4  O   UNL     1      -3.559   6.368   0.754  1.00  0.00    -0.252 OA
BRANCH   3   5
ATOM      5  C   UNL     1      -1.351   5.500   1.265  1.00  0.00     0.119 C 
ATOM      6  C   UNL     1      -0.934   3.997   0.971  1.00  0.00     0.100 C 
ATOM      7  C   UNL     1      -1.161   3.316   2.360  1.00  0.00     0.025 C 
ATOM      8  C   UNL     1      -1.999   5.344   2.687  1.00  0.00     0.027 C 
ATOM      9  C   UNL     1      -2.646   3.126   2.489  1.00  0.00    -0.027 C 
ATOM     10  C   UNL     1      -0.966   4.457   3.357  1.00  0.00     0.017 C 
ATOM     11  C   UNL     1      -3.158   4.349   2.663  1.00  0.00    -0.027 C 
BRANCH   6  12
ATOM     12  C   UNL     1       0.502   3.712   0.547  1.00  0.00     0.228 C 
ATOM     13  N   UNL     1       0.976   2.435   0.307  1.00  0.00    -0.326 N 
ATOM     14  H   UNL     1       1.932   2.437   0.073  1.00  0.00     0.169 HD
ATOM     15  O   UNL     1       1.301   4.642   0.402  1.00  0.00    -0.274 OA
BRANCH  13  16
ATOM     16  C   UNL     1       0.433   1.117   0.311  1.00  0.00     0.044 A 
ATOM     17  C   UNL     1       2.768   0.022  -0.037  1.00  0.00     0.047 C 
ATOM     18  C   UNL     1       1.267  -0.014   0.110  1.00  0.00    -0.021 A 
ATOM     19  C   UNL     1       0.701  -1.320   0.062  1.00  0.00     0.091 A 
ATOM     20  C   UNL     1      -0.668  -1.518   0.240  1.00  0.00     0.269 A 
ATOM     21  C   UNL     1      -0.931   0.860   0.486  1.00  0.00     0.033 A 
ATOM     22  C   UNL     1      -1.483  -0.428   0.487  1.00  0.00     0.088 A 
BRANCH  20  23
ATOM     23  N   UNL     1      -1.259  -2.856   0.124  1.00  0.00     0.062 N 
ATOM     24  O   UNL     1      -0.485  -3.822   0.069  1.00  0.00    -0.258 OA
ATOM     25  O   UNL     1      -2.494  -2.940   0.071  1.00  0.00    -0.258 OA
ENDBRANCH  20  23
ENDBRANCH  13  16
ENDBRANCH   6  12
ENDBRANCH   3   5
ENDBRANCH   2   3
ENDBRANCH   1   2
BRANCH   1  26
ATOM     26  C   UNL     1      -2.592   8.306  -2.675  1.00  0.00     0.275 C 
BRANCH  26  27
ATOM     27  O   UNL     1      -1.763   7.535  -3.579  1.00  0.00    -0.458 OA
BRANCH  27  28
ATOM     28  C   UNL     1      -1.735   6.191  -3.750  1.00  0.00     0.338 C 
ATOM     29  O   UNL     1      -0.812   5.603  -4.272  1.00  0.00    -0.246 OA
BRANCH  28  30
ATOM     30  C   UNL     1      -2.879   5.446  -3.223  1.00  0.00     0.060 A 
ATOM     31  C   UNL     1      -2.614   4.429  -2.296  1.00  0.00     0.016 A 
ATOM     32  C   UNL     1      -4.177   5.829  -3.556  1.00  0.00     0.016 A 
ATOM     33  C   UNL     1      -3.664   3.862  -1.593  1.00  0.00     0.010 A 
ATOM     34  C   UNL     1      -5.216   5.283  -2.840  1.00  0.00     0.010 A 
ATOM     35  C   UNL     1      -4.950   4.315  -1.860  1.00  0.00    -0.014 A 
BRANCH  35  36
ATOM     36  C   UNL     1      -6.121   3.662  -1.318  1.00  0.00     0.031 A 
ATOM     37  C   UNL     1      -6.638   4.005   0.019  1.00  0.00     0.074 A 
ATOM     38  C   UNL     1      -6.679   2.817  -2.207  1.00  0.00     0.049 A 
ATOM     39  N   UNL     1      -7.194   3.166   0.826  1.00  0.00    -0.248 NA
ATOM     40  C   UNL     1      -6.470   5.330   0.621  1.00  0.00     0.031 C 
ATOM     41  C   UNL     1      -8.022   2.289  -2.287  1.00  0.00     0.029 A 
ATOM     42  N   UNL     1      -6.013   2.179  -3.248  1.00  0.00    -0.354 N 
ATOM     43  C   UNL     1      -7.778   3.923   1.829  1.00  0.00     0.074 A 
ATOM     44  C   UNL     1      -7.109   5.196   1.790  1.00  0.00     0.031 C 
ATOM     45  C   UNL     1      -8.029   1.254  -3.152  1.00  0.00     0.029 A 
ATOM     46  C   UNL     1      -6.645   0.973  -3.516  1.00  0.00     0.049 A 
ATOM     47  H   UNL     1      -5.221   2.526  -3.718  1.00  0.00     0.167 HD
ATOM     48  C   UNL     1      -8.975   3.536   2.360  1.00  0.00     0.037 A 
ATOM     49  C   UNL     1      -5.996  -0.201  -3.245  1.00  0.00     0.037 A 
ATOM     50  C   UNL     1      -9.469   2.401   1.601  1.00  0.00     0.049 A 
ATOM     51  C   UNL     1      -6.690  -0.952  -2.130  1.00  0.00     0.074 A 
ATOM     52  C   UNL     1     -10.268   2.374   0.469  1.00  0.00     0.029 A 
ATOM     53  N   UNL     1      -8.865   1.163   1.707  1.00  0.00    -0.354 N 
ATOM     54  N   UNL     1      -7.277  -0.385  -1.109  1.00  0.00    -0.248 NA
ATOM     55  C   UNL     1      -6.875  -2.398  -2.159  1.00  0.00     0.031 C 
ATOM     56  C   UNL     1     -10.140   1.098  -0.118  1.00  0.00     0.029 A 
ATOM     57  C   UNL     1      -9.255   0.364   0.653  1.00  0.00     0.049 A 
ATOM     58  H   UNL     1      -8.248   0.892   2.425  1.00  0.00     0.167 HD
ATOM     59  C   UNL     1      -8.003  -1.337  -0.427  1.00  0.00     0.074 A 
ATOM     60  C   UNL     1      -7.694  -2.580  -1.109  1.00  0.00     0.031 C 
ATOM     61  C   UNL     1      -8.854  -1.025   0.598  1.00  0.00     0.037 A 
BRANCH  48  62
ATOM     62  C   UNL     1      -9.894   4.379   3.219  1.00  0.00     0.057 A 
ATOM     63  C   UNL     1     -11.293   4.176   3.188  1.00  0.00     0.134 A 
ATOM     64  C   UNL     1      -9.476   5.392   4.096  1.00  0.00     0.134 A 
ATOM     65  F   UNL     1     -11.849   3.178   2.490  1.00  0.00    -0.206 F 
ATOM     66  C   UNL     1     -12.203   4.981   3.882  1.00  0.00     0.040 A 
ATOM     67  C   UNL     1     -10.381   6.223   4.782  1.00  0.00     0.040 A 
ATOM     68  F   UNL     1      -8.178   5.596   4.360  1.00  0.00    -0.206 F 
ATOM     69  C   UNL     1     -11.751   6.029   4.664  1.00  0.00     0.006 A 
ENDBRANCH  48  62
BRANCH  49  70
ATOM     70  C   UNL     1      -4.515  -0.106  -3.434  1.00  0.00     0.057 A 
ATOM     71  C   UNL     1      -4.005   0.095  -4.732  1.00  0.00     0.134 A 
ATOM     72  C   UNL     1      -3.667   0.224  -2.377  1.00  0.00     0.134 A 
ATOM     73  F   UNL     1      -4.764  -0.191  -5.802  1.00  0.00    -0.206 F 
ATOM     74  C   UNL     1      -2.767   0.708  -4.967  1.00  0.00     0.040 A 
ATOM     75  C   UNL     1      -2.430   0.840  -2.611  1.00  0.00     0.040 A 
ATOM     76  F   UNL     1      -4.074   0.098  -1.107  1.00  0.00    -0.206 F 
ATOM     77  C   UNL     1      -1.987   1.117  -3.898  1.00  0.00     0.006 A 
ENDBRANCH  49  70
BRANCH  61  78
ATOM     78  C   UNL     1      -9.522  -1.960   1.588  1.00  0.00     0.057 A 
ATOM     79  C   UNL     1      -9.095  -3.263   1.859  1.00  0.00     0.134 A 
ATOM     80  C   UNL     1     -10.557  -1.491   2.443  1.00  0.00     0.134 A 
ATOM     81  F   UNL     1      -8.053  -3.812   1.225  1.00  0.00    -0.206 F 
ATOM     82  C   UNL     1      -9.683  -4.055   2.855  1.00  0.00     0.040 A 
ATOM     83  C   UNL     1     -11.098  -2.245   3.485  1.00  0.00     0.040 A 
ATOM     84  F   UNL     1     -11.081  -0.261   2.337  1.00  0.00    -0.206 F 
ATOM     85  C   UNL     1     -10.673  -3.544   3.684  1.00  0.00     0.006 A 
ENDBRANCH  61  78
ENDBRANCH  35  36
ENDBRANCH  28  30
ENDBRANCH  27  28
ENDBRANCH  26  27
ENDBRANCH   1  26
TORSDOF 14
