REMARK SMILES CC(=O)n1cc2c3c(cccc31)C(=O)C[C@@H]2C(=O)OCCOC(=O)c1ccc(-c2c3nc(c(-c4c(F)cccc4F)c4ccc([nH]4)c(-c4c(F)cccc4F)c4nc(c(-c5c(F)cccc5F)c5ccc2[nH]5)C=C4)C=C3)cc1
REMARK SMILES IDX 21 1 20 2 19 3 17 4 18 5 16 6 4 7 5 8 12 9 6 10 7 11 11 12
REMARK SMILES IDX 8 13 10 14 15 15 9 16 13 17 14 18 2 19 1 20 3 21 22 22 23 23
REMARK SMILES IDX 24 24 25 25 26 26 78 27 27 28 77 29 28 30 29 31 30 32 71 33
REMARK SMILES IDX 31 34 76 35 70 36 72 37 32 38 75 39 69 40 68 41 33 43 59 44
REMARK SMILES IDX 42 45 58 46 43 47 46 48 57 49 73 50 44 51 45 52 56 54 74 55
REMARK SMILES IDX 47 56 34 57 35 58 40 59 36 60 37 61 39 62 41 63 38 64 60 65
REMARK SMILES IDX 61 66 66 67 62 68 63 69 65 70 67 71 64 72 48 73 49 74 54 75
REMARK SMILES IDX 50 76 51 77 53 78 55 79 52 80
REMARK H PARENT 72 42 46 53
REMARK Flexibility Score: inf
ROOT
ATOM      1  C   UNL     1       6.925   5.010   1.159  1.00  0.00     0.275 C 
ENDROOT
BRANCH   1   2
ATOM      2  C   UNL     1       5.741   4.222   0.598  1.00  0.00     0.274 C 
BRANCH   2   3
ATOM      3  O   UNL     1       4.535   4.377   1.375  1.00  0.00    -0.462 OA
BRANCH   3   4
ATOM      4  C   UNL     1       4.363   3.498   2.403  1.00  0.00     0.314 C 
ATOM      5  O   UNL     1       5.120   2.563   2.648  1.00  0.00    -0.252 OA
BRANCH   4   6
ATOM      6  C   UNL     1       3.071   3.727   3.177  1.00  0.00     0.139 C 
ATOM      7  N   UNL     1       0.498   2.101   1.020  1.00  0.00    -0.287 N 
ATOM      8  C   UNL     1       1.781   2.102   1.567  1.00  0.00     0.100 A 
ATOM      9  C   UNL     1      -0.203   3.173   1.590  1.00  0.00     0.057 A 
ATOM     10  C   UNL     1       1.926   3.197   2.381  1.00  0.00    -0.006 A 
ATOM     11  C   UNL     1       0.685   3.839   2.419  1.00  0.00     0.015 A 
ATOM     12  C   UNL     1      -1.527   3.634   1.482  1.00  0.00     0.027 A 
ATOM     13  C   UNL     1       0.309   4.964   3.152  1.00  0.00     0.027 A 
ATOM     14  C   UNL     1      -1.907   4.752   2.252  1.00  0.00     0.003 A 
ATOM     15  C   UNL     1       2.833   5.200   3.600  1.00  0.00     0.101 C 
ATOM     16  C   UNL     1      -1.004   5.415   3.088  1.00  0.00     0.012 A 
ATOM     17  C   UNL     1       1.388   5.580   3.955  1.00  0.00     0.164 C 
ATOM     18  O   UNL     1       1.116   6.418   4.809  1.00  0.00    -0.294 OA
BRANCH   7  19
ATOM     19  C   UNL     1       0.000   1.186   0.070  1.00  0.00     0.227 C 
ATOM     20  C   UNL     1       0.897   0.018  -0.222  1.00  0.00     0.115 C 
ATOM     21  O   UNL     1      -1.097   1.359  -0.443  1.00  0.00    -0.274 OA
ENDBRANCH   7  19
ENDBRANCH   4   6
ENDBRANCH   3   4
ENDBRANCH   2   3
ENDBRANCH   1   2
BRANCH   1  22
ATOM     22  O   UNL     1       7.295   4.565   2.464  1.00  0.00    -0.458 OA
BRANCH  22  23
ATOM     23  C   UNL     1       6.589   5.170   3.444  1.00  0.00     0.338 C 
ATOM     24  O   UNL     1       5.668   5.956   3.309  1.00  0.00    -0.246 OA
BRANCH  23  25
ATOM     25  C   UNL     1       7.130   4.853   4.760  1.00  0.00     0.060 A 
ATOM     26  C   UNL     1       6.270   5.007   5.854  1.00  0.00     0.016 A 
ATOM     27  C   UNL     1       8.518   4.791   4.898  1.00  0.00     0.016 A 
ATOM     28  C   UNL     1       6.814   5.304   7.080  1.00  0.00     0.010 A 
ATOM     29  C   UNL     1       9.060   5.108   6.120  1.00  0.00     0.010 A 
ATOM     30  C   UNL     1       8.199   5.439   7.170  1.00  0.00    -0.014 A 
BRANCH  30  31
ATOM     31  C   UNL     1       8.741   5.963   8.403  1.00  0.00     0.031 A 
ATOM     32  C   UNL     1       8.893   4.971   9.487  1.00  0.00     0.074 A 
ATOM     33  C   UNL     1       9.199   7.225   8.480  1.00  0.00     0.049 A 
ATOM     34  N   UNL     1       8.374   4.990  10.669  1.00  0.00    -0.248 NA
ATOM     35  C   UNL     1       9.648   3.748   9.175  1.00  0.00     0.031 C 
ATOM     36  C   UNL     1       9.383   8.185   7.387  1.00  0.00     0.029 A 
ATOM     37  N   UNL     1       9.718   7.873   9.556  1.00  0.00    -0.354 N 
ATOM     38  C   UNL     1       8.883   3.869  11.316  1.00  0.00     0.074 A 
ATOM     39  C   UNL     1       9.530   3.067  10.312  1.00  0.00     0.031 C 
ATOM     40  C   UNL     1      10.171   9.195   7.819  1.00  0.00     0.029 A 
ATOM     41  C   UNL     1      10.447   9.005   9.235  1.00  0.00     0.049 A 
ATOM     42  H   UNL     1       9.587   7.564  10.481  1.00  0.00     0.167 HD
ATOM     43  C   UNL     1       8.945   3.795  12.671  1.00  0.00     0.037 A 
ATOM     44  C   UNL     1      11.285   9.677  10.059  1.00  0.00     0.037 A 
ATOM     45  C   UNL     1       8.044   4.723  13.301  1.00  0.00     0.049 A 
ATOM     46  C   UNL     1      10.976   9.271  11.454  1.00  0.00     0.074 A 
ATOM     47  C   UNL     1       6.678   4.925  13.271  1.00  0.00     0.029 A 
ATOM     48  N   UNL     1       8.573   5.854  13.871  1.00  0.00    -0.354 N 
ATOM     49  N   UNL     1       9.895   9.611  12.097  1.00  0.00    -0.248 NA
ATOM     50  C   UNL     1      11.693   8.129  12.005  1.00  0.00     0.031 C 
ATOM     51  C   UNL     1       6.505   6.335  13.383  1.00  0.00     0.029 A 
ATOM     52  C   UNL     1       7.775   6.903  13.496  1.00  0.00     0.049 A 
ATOM     53  H   UNL     1       9.374   5.903  14.441  1.00  0.00     0.167 HD
ATOM     54  C   UNL     1       9.569   8.497  12.859  1.00  0.00     0.074 A 
ATOM     55  C   UNL     1      10.767   7.664  12.848  1.00  0.00     0.031 C 
ATOM     56  C   UNL     1       8.273   8.222  13.188  1.00  0.00     0.037 A 
BRANCH  43  57
ATOM     57  C   UNL     1      10.085   3.143  13.409  1.00  0.00     0.057 A 
ATOM     58  C   UNL     1      11.377   2.968  12.871  1.00  0.00     0.134 A 
ATOM     59  C   UNL     1       9.983   2.953  14.797  1.00  0.00     0.134 A 
ATOM     60  F   UNL     1      11.659   3.202  11.583  1.00  0.00    -0.206 F 
ATOM     61  C   UNL     1      12.486   2.642  13.654  1.00  0.00     0.040 A 
ATOM     62  C   UNL     1      11.098   2.683  15.598  1.00  0.00     0.040 A 
ATOM     63  F   UNL     1       8.810   3.109  15.429  1.00  0.00    -0.206 F 
ATOM     64  C   UNL     1      12.356   2.533  15.028  1.00  0.00     0.006 A 
ENDBRANCH  43  57
BRANCH  44  65
ATOM     65  C   UNL     1      12.502  10.439   9.706  1.00  0.00     0.057 A 
ATOM     66  C   UNL     1      13.289  10.100   8.590  1.00  0.00     0.134 A 
ATOM     67  C   UNL     1      13.059  11.369  10.592  1.00  0.00     0.134 A 
ATOM     68  F   UNL     1      12.897   9.155   7.724  1.00  0.00    -0.206 F 
ATOM     69  C   UNL     1      14.551  10.657   8.365  1.00  0.00     0.040 A 
ATOM     70  C   UNL     1      14.329  11.925  10.386  1.00  0.00     0.040 A 
ATOM     71  F   UNL     1      12.407  11.720  11.710  1.00  0.00    -0.206 F 
ATOM     72  C   UNL     1      15.081  11.565   9.272  1.00  0.00     0.006 A 
ENDBRANCH  44  65
BRANCH  56  73
ATOM     73  C   UNL     1       7.252   9.293  12.937  1.00  0.00     0.057 A 
ATOM     74  C   UNL     1       6.480   9.762  14.005  1.00  0.00     0.134 A 
ATOM     75  C   UNL     1       6.924   9.768  11.658  1.00  0.00     0.134 A 
ATOM     76  F   UNL     1       6.693   9.302  15.248  1.00  0.00    -0.206 F 
ATOM     77  C   UNL     1       5.444  10.680  13.816  1.00  0.00     0.040 A 
ATOM     78  C   UNL     1       5.913  10.712  11.459  1.00  0.00     0.040 A 
ATOM     79  F   UNL     1       7.536   9.293  10.566  1.00  0.00    -0.206 F 
ATOM     80  C   UNL     1       5.167  11.168  12.541  1.00  0.00     0.006 A 
ENDBRANCH  56  73
ENDBRANCH  30  31
ENDBRANCH  23  25
ENDBRANCH  22  23
ENDBRANCH   1  22
TORSDOF 12
