REMARK SMILES CSc1ncc(Cl)c(C(=O)Nc2ccsc2C(=O)OCCOC(=O)c2ccc(-c3c4nc(c(-c5c(F)cccc5F)c5ccc([nH]5)c(-c5c(F)cccc5F)c5nc(c(-c6c(F)cccc6F)c6ccc3[nH]6)C=C5)C=C4)cc2)n1
REMARK SMILES IDX 20 1 19 2 17 3 18 4 16 5 12 6 13 7 14 8 15 9 11 10 9 11
REMARK SMILES IDX 10 12 8 14 3 15 4 16 79 17 5 18 6 19 7 20 2 21 1 22 21 23
REMARK SMILES IDX 22 24 23 25 24 26 25 27 26 28 78 29 27 30 77 31 28 32 29 33
REMARK SMILES IDX 30 34 71 35 31 36 76 37 70 38 72 39 32 40 75 41 69 42 68 43
REMARK SMILES IDX 33 45 59 46 42 47 58 48 43 49 46 50 57 51 73 52 44 53 45 54
REMARK SMILES IDX 56 56 74 57 47 58 34 59 35 60 40 61 36 62 37 63 39 64 41 65
REMARK SMILES IDX 38 66 60 67 61 68 66 69 62 70 63 71 65 72 67 73 64 74 48 75
REMARK SMILES IDX 49 76 54 77 50 78 51 79 53 80 55 81 52 82
REMARK H PARENT 11 13 72 44 46 55
REMARK Flexibility Score: inf
ROOT
ATOM      1  C   UNL     1       7.492   7.671  -2.029  1.00  0.00     0.275 C 
ENDROOT
BRANCH   1   2
ATOM      2  O   UNL     1       6.270   7.337  -1.336  1.00  0.00    -0.458 OA
BRANCH   2   3
ATOM      3  C   UNL     1       5.628   8.374  -0.715  1.00  0.00     0.350 C 
ATOM      4  O   UNL     1       6.046   9.528  -0.720  1.00  0.00    -0.245 OA
BRANCH   3   5
ATOM      5  C   UNL     1       4.393   7.921  -0.085  1.00  0.00     0.136 A 
ATOM      6  C   UNL     1       3.784   6.669  -0.021  1.00  0.00     0.067 A 
ATOM      7  C   UNL     1       2.544   6.725   0.692  1.00  0.00     0.039 A 
ATOM      8  C   UNL     1       2.213   8.000   1.088  1.00  0.00     0.068 A 
ATOM      9  S   UNL     1       3.421   9.124   0.679  1.00  0.00    -0.135 S 
BRANCH   6  10
ATOM     10  N   UNL     1       4.361   5.535  -0.579  1.00  0.00    -0.319 N 
ATOM     11  C   UNL     1       3.823   4.313  -0.926  1.00  0.00     0.276 C 
ATOM     12  O   UNL     1       4.596   3.371  -1.119  1.00  0.00    -0.267 OA
ATOM     13  H   UNL     1       5.325   5.618  -0.759  1.00  0.00     0.170 HD
BRANCH  11  14
ATOM     14  C   UNL     1       2.363   4.096  -1.169  1.00  0.00     0.151 A 
ATOM     15  C   UNL     1       0.633   2.582  -0.995  1.00  0.00     0.188 A 
ATOM     16  N   UNL     1      -0.204   3.382  -1.671  1.00  0.00    -0.230 NA
ATOM     17  N   UNL     1       1.895   2.907  -0.684  1.00  0.00    -0.216 NA
ATOM     18  C   UNL     1       0.299   4.541  -2.135  1.00  0.00     0.137 A 
ATOM     19  C   UNL     1       1.601   4.943  -1.954  1.00  0.00     0.090 A 
ATOM     20  Cl  UNL     1       2.129   6.351  -2.773  1.00  0.00    -0.080 Cl
BRANCH  15  21
ATOM     21  S   UNL     1      -0.002   0.963  -0.641  1.00  0.00    -0.090 SA
ATOM     22  C   UNL     1       1.291   0.294   0.426  1.00  0.00     0.094 C 
ENDBRANCH  15  21
ENDBRANCH  11  14
ENDBRANCH   6  10
ENDBRANCH   3   5
ENDBRANCH   2   3
ENDBRANCH   1   2
BRANCH   1  23
ATOM     23  C   UNL     1       7.271   7.794  -3.538  1.00  0.00     0.275 C 
BRANCH  23  24
ATOM     24  O   UNL     1       6.427   8.918  -3.847  1.00  0.00    -0.458 OA
BRANCH  24  25
ATOM     25  C   UNL     1       5.157   8.607  -4.197  1.00  0.00     0.338 C 
ATOM     26  O   UNL     1       4.675   7.495  -4.307  1.00  0.00    -0.246 OA
BRANCH  25  27
ATOM     27  C   UNL     1       4.370   9.841  -4.340  1.00  0.00     0.060 A 
ATOM     28  C   UNL     1       3.424  10.142  -3.358  1.00  0.00     0.016 A 
ATOM     29  C   UNL     1       4.505  10.652  -5.469  1.00  0.00     0.016 A 
ATOM     30  C   UNL     1       2.607  11.263  -3.499  1.00  0.00     0.010 A 
ATOM     31  C   UNL     1       3.686  11.780  -5.607  1.00  0.00     0.010 A 
ATOM     32  C   UNL     1       2.726  12.090  -4.627  1.00  0.00    -0.014 A 
BRANCH  32  33
ATOM     33  C   UNL     1       1.829  13.264  -4.783  1.00  0.00     0.031 A 
ATOM     34  C   UNL     1       0.706  13.235  -5.782  1.00  0.00     0.074 A 
ATOM     35  C   UNL     1       2.017  14.357  -4.019  1.00  0.00     0.049 A 
ATOM     36  N   UNL     1      -0.145  14.178  -6.097  1.00  0.00    -0.248 NA
ATOM     37  C   UNL     1       0.515  11.980  -6.526  1.00  0.00     0.031 C 
ATOM     38  C   UNL     1       3.057  14.506  -3.002  1.00  0.00     0.029 A 
ATOM     39  N   UNL     1       1.341  15.552  -3.985  1.00  0.00    -0.354 N 
ATOM     40  C   UNL     1      -0.960  13.642  -7.086  1.00  0.00     0.074 A 
ATOM     41  C   UNL     1      -0.494  12.292  -7.329  1.00  0.00     0.031 C 
ATOM     42  C   UNL     1       2.951  15.724  -2.444  1.00  0.00     0.029 A 
ATOM     43  C   UNL     1       1.863  16.453  -3.090  1.00  0.00     0.049 A 
ATOM     44  H   UNL     1       0.556  15.744  -4.549  1.00  0.00     0.167 HD
ATOM     45  C   UNL     1      -2.002  14.220  -7.729  1.00  0.00     0.037 A 
ATOM     46  C   UNL     1       1.520  17.731  -2.836  1.00  0.00     0.037 A 
ATOM     47  C   UNL     1      -2.484  15.553  -7.473  1.00  0.00     0.049 A 
ATOM     48  C   UNL     1       0.379  18.357  -3.588  1.00  0.00     0.074 A 
ATOM     49  C   UNL     1      -3.561  16.205  -8.051  1.00  0.00     0.029 A 
ATOM     50  N   UNL     1      -1.921  16.438  -6.568  1.00  0.00    -0.354 N 
ATOM     51  N   UNL     1      -0.399  17.828  -4.501  1.00  0.00    -0.248 NA
ATOM     52  C   UNL     1       0.068  19.760  -3.276  1.00  0.00     0.031 C 
ATOM     53  C   UNL     1      -3.625  17.499  -7.524  1.00  0.00     0.029 A 
ATOM     54  C   UNL     1      -2.613  17.638  -6.588  1.00  0.00     0.049 A 
ATOM     55  H   UNL     1      -1.144  16.243  -5.995  1.00  0.00     0.167 HD
ATOM     56  C   UNL     1      -1.298  18.825  -4.858  1.00  0.00     0.074 A 
ATOM     57  C   UNL     1      -0.983  19.984  -4.051  1.00  0.00     0.031 C 
ATOM     58  C   UNL     1      -2.293  18.783  -5.777  1.00  0.00     0.037 A 
BRANCH  45  59
ATOM     59  C   UNL     1      -2.693  13.422  -8.794  1.00  0.00     0.057 A 
ATOM     60  C   UNL     1      -3.575  12.380  -8.483  1.00  0.00     0.134 A 
ATOM     61  C   UNL     1      -2.527  13.749 -10.146  1.00  0.00     0.134 A 
ATOM     62  F   UNL     1      -3.771  12.013  -7.208  1.00  0.00    -0.206 F 
ATOM     63  C   UNL     1      -4.260  11.684  -9.481  1.00  0.00     0.040 A 
ATOM     64  C   UNL     1      -3.220  13.074 -11.151  1.00  0.00     0.040 A 
ATOM     65  F   UNL     1      -1.701  14.743 -10.509  1.00  0.00    -0.206 F 
ATOM     66  C   UNL     1      -4.089  12.036 -10.819  1.00  0.00     0.006 A 
ENDBRANCH  45  59
BRANCH  46  67
ATOM     67  C   UNL     1       2.287  18.521  -1.841  1.00  0.00     0.057 A 
ATOM     68  C   UNL     1       1.716  18.911  -0.624  1.00  0.00     0.134 A 
ATOM     69  C   UNL     1       3.601  18.931  -2.098  1.00  0.00     0.134 A 
ATOM     70  F   UNL     1       0.452  18.572  -0.332  1.00  0.00    -0.206 F 
ATOM     71  C   UNL     1       2.418  19.695   0.293  1.00  0.00     0.040 A 
ATOM     72  C   UNL     1       4.323  19.693  -1.179  1.00  0.00     0.040 A 
ATOM     73  F   UNL     1       4.204  18.591  -3.247  1.00  0.00    -0.206 F 
ATOM     74  C   UNL     1       3.728  20.084   0.018  1.00  0.00     0.006 A 
ENDBRANCH  46  67
BRANCH  58  75
ATOM     75  C   UNL     1      -3.128  20.018  -5.940  1.00  0.00     0.057 A 
ATOM     76  C   UNL     1      -2.640  21.156  -6.595  1.00  0.00     0.134 A 
ATOM     77  C   UNL     1      -4.446  20.058  -5.467  1.00  0.00     0.134 A 
ATOM     78  F   UNL     1      -1.381  21.185  -7.059  1.00  0.00    -0.206 F 
ATOM     79  C   UNL     1      -3.426  22.297  -6.756  1.00  0.00     0.040 A 
ATOM     80  C   UNL     1      -5.249  21.185  -5.642  1.00  0.00     0.040 A 
ATOM     81  F   UNL     1      -4.976  18.998  -4.837  1.00  0.00    -0.206 F 
ATOM     82  C   UNL     1      -4.738  22.311  -6.284  1.00  0.00     0.006 A 
ENDBRANCH  58  75
ENDBRANCH  32  33
ENDBRANCH  25  27
ENDBRANCH  24  25
ENDBRANCH  23  24
ENDBRANCH   1  23
TORSDOF 14
