REMARK SMILES O=C(C[NH+]1CC[NH+](Cc2cc(Cl)ccc2[N+](=O)[O-])CC1)OCCOC(=O)c1ccc(-c2c3nc(c(-c4c(F)cccc4F)c4ccc([nH]4)c(-c4c(F)cccc4F)c4nc(c(-c5c(F)cccc5F)c5ccc2[nH]5)C=C4)C=C3)cc1
REMARK SMILES IDX 22 1 21 2 2 3 1 4 3 5 4 6 5 7 20 8 6 10 19 11 7 12 8 14 9 15
REMARK SMILES IDX 10 16 15 17 11 18 14 19 12 20 13 21 16 22 17 23 18 24 23 25
REMARK SMILES IDX 24 26 25 27 26 28 27 29 28 30 80 31 29 32 79 33 30 34 31 35
REMARK SMILES IDX 32 36 73 37 33 38 78 39 72 40 74 41 34 42 77 43 71 44 70 45
REMARK SMILES IDX 35 47 61 48 44 49 60 50 45 51 48 52 59 53 75 54 46 55 47 56
REMARK SMILES IDX 58 58 76 59 49 60 36 61 37 62 42 63 38 64 39 65 41 66 43 67
REMARK SMILES IDX 40 68 62 69 63 70 68 71 64 72 65 73 67 74 69 75 66 76 50 77
REMARK SMILES IDX 51 78 56 79 52 80 53 81 55 82 57 83 54 84
REMARK H PARENT 4 9 7 13 74 46 48 57
REMARK Flexibility Score: inf
ROOT
ATOM      1  C   UNL     1       3.626   0.047   2.055  1.00  0.00     0.274 C 
ENDROOT
BRANCH   1   2
ATOM      2  O   UNL     1       2.324   0.342   1.507  1.00  0.00    -0.458 OA
BRANCH   2   3
ATOM      3  C   UNL     1       2.010   0.267   0.186  1.00  0.00     0.361 C 
ATOM      4  O   UNL     1       1.048   0.895  -0.251  1.00  0.00    -0.245 OA
BRANCH   3   5
ATOM      5  C   UNL     1       2.824  -0.677  -0.692  1.00  0.00     0.386 C 
BRANCH   5   6
ATOM      6  N   UNL     1       3.638  -0.106  -1.775  1.00  0.00    -0.316 N 
ATOM      7  C   UNL     1       3.826   1.342  -1.786  1.00  0.00     0.325 C 
ATOM      8  C   UNL     1       4.925  -0.809  -1.917  1.00  0.00     0.325 C 
ATOM      9  H   UNL     1       3.057  -0.270  -2.597  1.00  0.00     0.348 HD
ATOM     10  C   UNL     1       4.946   1.879  -0.869  1.00  0.00     0.324 C 
ATOM     11  C   UNL     1       6.046  -0.319  -0.965  1.00  0.00     0.324 C 
ATOM     12  N   UNL     1       6.216   1.137  -0.871  1.00  0.00    -0.322 N 
ATOM     13  H   UNL     1       6.593   1.286   0.065  1.00  0.00     0.348 HD
BRANCH  12  14
ATOM     14  C   UNL     1       7.282   1.704  -1.713  1.00  0.00     0.306 C 
BRANCH  14  15
ATOM     15  C   UNL     1       7.113   1.493  -3.206  1.00  0.00     0.085 A 
ATOM     16  C   UNL     1       6.243   2.384  -3.873  1.00  0.00     0.037 A 
ATOM     17  C   UNL     1       7.616   0.399  -3.946  1.00  0.00     0.278 A 
ATOM     18  C   UNL     1       5.754   2.104  -5.148  1.00  0.00     0.042 A 
ATOM     19  C   UNL     1       7.121   0.129  -5.239  1.00  0.00     0.088 A 
ATOM     20  Cl  UNL     1       4.573   3.138  -5.850  1.00  0.00    -0.084 Cl
ATOM     21  C   UNL     1       6.164   0.962  -5.820  1.00  0.00     0.027 A 
BRANCH  17  22
ATOM     22  N   UNL     1       8.648  -0.518  -3.429  1.00  0.00     0.063 N 
ATOM     23  O   UNL     1       8.720  -1.643  -3.943  1.00  0.00    -0.258 OA
ATOM     24  O   UNL     1       9.407  -0.114  -2.541  1.00  0.00    -0.258 OA
ENDBRANCH  17  22
ENDBRANCH  14  15
ENDBRANCH  12  14
ENDBRANCH   5   6
ENDBRANCH   3   5
ENDBRANCH   2   3
ENDBRANCH   1   2
BRANCH   1  25
ATOM     25  C   UNL     1       3.646  -1.232   2.892  1.00  0.00     0.275 C 
BRANCH  25  26
ATOM     26  O   UNL     1       3.473  -2.385   2.050  1.00  0.00    -0.458 OA
BRANCH  26  27
ATOM     27  C   UNL     1       2.188  -2.797   1.890  1.00  0.00     0.338 C 
ATOM     28  O   UNL     1       1.217  -2.400   2.495  1.00  0.00    -0.246 OA
BRANCH  27  29
ATOM     29  C   UNL     1       2.111  -3.670   0.692  1.00  0.00     0.060 A 
ATOM     30  C   UNL     1       0.956  -3.585  -0.100  1.00  0.00     0.016 A 
ATOM     31  C   UNL     1       3.158  -4.521   0.322  1.00  0.00     0.016 A 
ATOM     32  C   UNL     1       0.821  -4.387  -1.233  1.00  0.00     0.010 A 
ATOM     33  C   UNL     1       3.016  -5.336  -0.802  1.00  0.00     0.010 A 
ATOM     34  C   UNL     1       1.828  -5.305  -1.553  1.00  0.00    -0.014 A 
BRANCH  34  35
ATOM     35  C   UNL     1       1.528  -6.441  -2.456  1.00  0.00     0.031 A 
ATOM     36  C   UNL     1       1.023  -7.705  -1.817  1.00  0.00     0.074 A 
ATOM     37  C   UNL     1       1.726  -6.379  -3.782  1.00  0.00     0.049 A 
ATOM     38  N   UNL     1       0.794  -8.876  -2.349  1.00  0.00    -0.248 NA
ATOM     39  C   UNL     1       0.757  -7.636  -0.370  1.00  0.00     0.031 C 
ATOM     40  C   UNL     1       2.176  -5.204  -4.522  1.00  0.00     0.029 A 
ATOM     41  N   UNL     1       1.590  -7.354  -4.739  1.00  0.00    -0.354 N 
ATOM     42  C   UNL     1       0.371  -9.683  -1.301  1.00  0.00     0.074 A 
ATOM     43  C   UNL     1       0.406  -8.881  -0.100  1.00  0.00     0.031 C 
ATOM     44  C   UNL     1       2.308  -5.535  -5.820  1.00  0.00     0.029 A 
ATOM     45  C   UNL     1       1.981  -6.951  -5.991  1.00  0.00     0.049 A 
ATOM     46  H   UNL     1       1.245  -8.256  -4.545  1.00  0.00     0.167 HD
ATOM     47  C   UNL     1      -0.014 -10.980  -1.333  1.00  0.00     0.037 A 
ATOM     48  C   UNL     1       2.088  -7.658  -7.134  1.00  0.00     0.037 A 
ATOM     49  C   UNL     1      -0.030 -11.781  -2.524  1.00  0.00     0.049 A 
ATOM     50  C   UNL     1       1.718  -9.120  -7.141  1.00  0.00     0.074 A 
ATOM     51  C   UNL     1      -0.417 -13.100  -2.671  1.00  0.00     0.029 A 
ATOM     52  N   UNL     1       0.374 -11.336  -3.774  1.00  0.00    -0.354 N 
ATOM     53  N   UNL     1       1.287  -9.870  -6.155  1.00  0.00    -0.248 NA
ATOM     54  C   UNL     1       1.847  -9.834  -8.421  1.00  0.00     0.031 C 
ATOM     55  C   UNL     1      -0.196 -13.469  -4.002  1.00  0.00     0.029 A 
ATOM     56  C   UNL     1       0.272 -12.363  -4.694  1.00  0.00     0.049 A 
ATOM     57  H   UNL     1       0.686 -10.424  -3.976  1.00  0.00     0.167 HD
ATOM     58  C   UNL     1       1.063 -11.130  -6.699  1.00  0.00     0.074 A 
ATOM     59  C   UNL     1       1.406 -11.044  -8.103  1.00  0.00     0.031 C 
ATOM     60  C   UNL     1       0.606 -12.254  -6.093  1.00  0.00     0.037 A 
BRANCH  47  61
ATOM     61  C   UNL     1      -0.396 -11.604  -0.024  1.00  0.00     0.057 A 
ATOM     62  C   UNL     1      -1.566 -11.242   0.658  1.00  0.00     0.134 A 
ATOM     63  C   UNL     1       0.436 -12.555   0.578  1.00  0.00     0.134 A 
ATOM     64  F   UNL     1      -2.394 -10.319   0.146  1.00  0.00    -0.206 F 
ATOM     65  C   UNL     1      -1.873 -11.774   1.912  1.00  0.00     0.040 A 
ATOM     66  C   UNL     1       0.125 -13.116   1.817  1.00  0.00     0.040 A 
ATOM     67  F   UNL     1       1.572 -12.943  -0.020  1.00  0.00    -0.206 F 
ATOM     68  C   UNL     1      -1.027 -12.716   2.493  1.00  0.00     0.006 A 
ENDBRANCH  47  61
BRANCH  48  69
ATOM     69  C   UNL     1       2.580  -6.994  -8.367  1.00  0.00     0.057 A 
ATOM     70  C   UNL     1       1.724  -6.731  -9.442  1.00  0.00     0.134 A 
ATOM     71  C   UNL     1       3.919  -6.604  -8.499  1.00  0.00     0.134 A 
ATOM     72  F   UNL     1       0.437  -7.103  -9.386  1.00  0.00    -0.206 F 
ATOM     73  C   UNL     1       2.181  -6.111 -10.607  1.00  0.00     0.040 A 
ATOM     74  C   UNL     1       4.385  -5.965  -9.649  1.00  0.00     0.040 A 
ATOM     75  F   UNL     1       4.791  -6.829  -7.505  1.00  0.00    -0.206 F 
ATOM     76  C   UNL     1       3.514  -5.720 -10.709  1.00  0.00     0.006 A 
ENDBRANCH  48  69
BRANCH  60  77
ATOM     77  C   UNL     1       0.399 -13.474  -6.942  1.00  0.00     0.057 A 
ATOM     78  C   UNL     1       1.470 -14.246  -7.406  1.00  0.00     0.134 A 
ATOM     79  C   UNL     1      -0.897 -13.928  -7.221  1.00  0.00     0.134 A 
ATOM     80  F   UNL     1       2.735 -13.862  -7.179  1.00  0.00    -0.206 F 
ATOM     81  C   UNL     1       1.259 -15.424  -8.126  1.00  0.00     0.040 A 
ATOM     82  C   UNL     1      -1.121 -15.116  -7.917  1.00  0.00     0.040 A 
ATOM     83  F   UNL     1      -1.967 -13.240  -6.794  1.00  0.00    -0.206 F 
ATOM     84  C   UNL     1      -0.040 -15.868  -8.373  1.00  0.00     0.006 A 
ENDBRANCH  60  77
ENDBRANCH  34  35
ENDBRANCH  27  29
ENDBRANCH  26  27
ENDBRANCH  25  26
ENDBRANCH   1  25
TORSDOF 15
