REMARK SMILES CC[C@@H](C)[C@@H](NC(=O)Cn1ncc2ccccc2c1=O)C(=O)OCCOC(=O)c1ccc(-c2c3nc(c(-c4c(F)cccc4F)c4ccc([nH]4)c(-c4c(F)cccc4F)c4nc(c(-c5c(F)cccc5F)c5ccc2[nH]5)C=C4)C=C3)cc1
REMARK SMILES IDX 24 1 23 2 21 3 22 4 5 5 3 6 4 7 2 8 1 9 6 10 7 11 8 13 9 14
REMARK SMILES IDX 10 15 11 16 19 17 12 18 18 19 20 20 13 21 17 22 14 23 16 24
REMARK SMILES IDX 15 25 25 26 26 27 27 28 28 29 29 30 30 31 82 32 31 33 81 34
REMARK SMILES IDX 32 35 33 36 34 37 75 38 35 39 80 40 74 41 76 42 36 43 79 44
REMARK SMILES IDX 73 45 72 46 37 48 63 49 46 50 62 51 47 52 50 53 61 54 77 55
REMARK SMILES IDX 48 56 49 57 60 59 78 60 51 61 38 62 39 63 44 64 40 65 41 66
REMARK SMILES IDX 43 67 45 68 42 69 64 70 65 71 70 72 66 73 67 74 69 75 71 76
REMARK SMILES IDX 68 77 52 78 53 79 58 80 54 81 55 82 57 83 59 84 56 85
REMARK H PARENT 6 12 76 47 50 58
REMARK Flexibility Score: inf
ROOT
ATOM      1  C   UNL     1       1.913   4.236  -5.263  1.00  0.00     0.274 C 
ENDROOT
BRANCH   1   2
ATOM      2  O   UNL     1       1.664   3.540  -4.015  1.00  0.00    -0.461 OA
BRANCH   2   3
ATOM      3  C   UNL     1       0.760   4.115  -3.183  1.00  0.00     0.329 C 
ATOM      4  O   UNL     1       0.097   5.107  -3.485  1.00  0.00    -0.250 OA
BRANCH   3   5
ATOM      5  C   UNL     1       0.688   3.523  -1.757  1.00  0.00     0.195 C 
BRANCH   5   6
ATOM      6  C   UNL     1       1.033   2.052  -1.370  1.00  0.00     0.019 C 
ATOM      7  C   UNL     1       0.674   1.031  -2.446  1.00  0.00     0.010 C 
BRANCH   6   8
ATOM      8  C   UNL     1       0.355   1.665  -0.024  1.00  0.00     0.002 C 
ATOM      9  C   UNL     1       0.791   0.306   0.520  1.00  0.00     0.004 C 
ENDBRANCH   6   8
ENDBRANCH   5   6
BRANCH   5  10
ATOM     10  N   UNL     1       1.166   4.510  -0.770  1.00  0.00    -0.341 N 
ATOM     11  C   UNL     1       2.317   5.233  -0.649  1.00  0.00     0.242 C 
ATOM     12  H   UNL     1       0.520   4.684  -0.047  1.00  0.00     0.164 HD
ATOM     13  O   UNL     1       2.441   5.866   0.409  1.00  0.00    -0.273 OA
BRANCH  11  14
ATOM     14  C   UNL     1       3.300   5.482  -1.804  1.00  0.00     0.248 C 
BRANCH  14  15
ATOM     15  N   UNL     1       4.044   4.384  -2.408  1.00  0.00    -0.220 N 
ATOM     16  N   UNL     1       3.896   3.136  -1.875  1.00  0.00    -0.177 NA
ATOM     17  C   UNL     1       4.861   4.656  -3.510  1.00  0.00     0.275 A 
ATOM     18  C   UNL     1       4.308   2.117  -2.560  1.00  0.00     0.142 A 
ATOM     19  C   UNL     1       5.326   3.483  -4.282  1.00  0.00     0.050 A 
ATOM     20  O   UNL     1       5.107   5.785  -3.925  1.00  0.00    -0.267 OA
ATOM     21  C   UNL     1       4.947   2.220  -3.858  1.00  0.00     0.007 A 
ATOM     22  C   UNL     1       6.000   3.624  -5.498  1.00  0.00     0.014 A 
ATOM     23  C   UNL     1       5.160   1.089  -4.645  1.00  0.00     0.010 A 
ATOM     24  C   UNL     1       6.244   2.496  -6.288  1.00  0.00     0.001 A 
ATOM     25  C   UNL     1       5.804   1.235  -5.873  1.00  0.00     0.001 A 
ENDBRANCH  14  15
ENDBRANCH  11  14
ENDBRANCH   5  10
ENDBRANCH   3   5
ENDBRANCH   2   3
ENDBRANCH   1   2
BRANCH   1  26
ATOM     26  C   UNL     1       1.692   3.323  -6.464  1.00  0.00     0.275 C 
BRANCH  26  27
ATOM     27  O   UNL     1       0.283   3.158  -6.650  1.00  0.00    -0.458 OA
BRANCH  27  28
ATOM     28  C   UNL     1      -0.261   2.114  -5.989  1.00  0.00     0.338 C 
ATOM     29  O   UNL     1       0.303   1.161  -5.488  1.00  0.00    -0.246 OA
BRANCH  28  30
ATOM     30  C   UNL     1      -1.676   2.437  -5.807  1.00  0.00     0.060 A 
ATOM     31  C   UNL     1      -2.507   2.517  -6.919  1.00  0.00     0.016 A 
ATOM     32  C   UNL     1      -2.152   2.707  -4.520  1.00  0.00     0.016 A 
ATOM     33  C   UNL     1      -3.832   2.880  -6.733  1.00  0.00     0.010 A 
ATOM     34  C   UNL     1      -3.482   3.054  -4.330  1.00  0.00     0.010 A 
ATOM     35  C   UNL     1      -4.323   3.142  -5.441  1.00  0.00    -0.014 A 
BRANCH  35  36
ATOM     36  C   UNL     1      -5.759   3.410  -5.273  1.00  0.00     0.031 A 
ATOM     37  C   UNL     1      -6.257   4.798  -5.048  1.00  0.00     0.074 A 
ATOM     38  C   UNL     1      -6.595   2.365  -5.400  1.00  0.00     0.049 A 
ATOM     39  N   UNL     1      -7.483   5.246  -5.119  1.00  0.00    -0.248 NA
ATOM     40  C   UNL     1      -5.257   5.816  -4.692  1.00  0.00     0.031 C 
ATOM     41  C   UNL     1      -6.172   0.971  -5.562  1.00  0.00     0.029 A 
ATOM     42  N   UNL     1      -7.958   2.313  -5.458  1.00  0.00    -0.354 N 
ATOM     43  C   UNL     1      -7.400   6.605  -4.852  1.00  0.00     0.074 A 
ATOM     44  C   UNL     1      -6.014   6.896  -4.552  1.00  0.00     0.031 C 
ATOM     45  C   UNL     1      -7.255   0.208  -5.766  1.00  0.00     0.029 A 
ATOM     46  C   UNL     1      -8.439   1.057  -5.729  1.00  0.00     0.049 A 
ATOM     47  H   UNL     1      -8.537   3.098  -5.319  1.00  0.00     0.167 HD
ATOM     48  C   UNL     1      -8.397   7.521  -4.883  1.00  0.00     0.037 A 
ATOM     49  C   UNL     1      -9.700   0.650  -5.952  1.00  0.00     0.037 A 
ATOM     50  C   UNL     1      -9.773   7.188  -5.152  1.00  0.00     0.049 A 
ATOM     51  C   UNL     1     -10.788   1.685  -5.954  1.00  0.00     0.074 A 
ATOM     52  C   UNL     1     -10.869   8.026  -5.233  1.00  0.00     0.029 A 
ATOM     53  N   UNL     1     -10.241   5.896  -5.368  1.00  0.00    -0.354 N 
ATOM     54  N   UNL     1     -10.693   2.984  -5.799  1.00  0.00    -0.248 NA
ATOM     55  C   UNL     1     -12.154   1.199  -6.174  1.00  0.00     0.031 C 
ATOM     56  C   UNL     1     -12.007   7.237  -5.444  1.00  0.00     0.029 A 
ATOM     57  C   UNL     1     -11.613   5.912  -5.550  1.00  0.00     0.049 A 
ATOM     58  H   UNL     1      -9.678   5.089  -5.387  1.00  0.00     0.167 HD
ATOM     59  C   UNL     1     -11.985   3.476  -5.915  1.00  0.00     0.074 A 
ATOM     60  C   UNL     1     -12.837   2.334  -6.187  1.00  0.00     0.031 C 
ATOM     61  C   UNL     1     -12.432   4.752  -5.803  1.00  0.00     0.037 A 
BRANCH  48  62
ATOM     62  C   UNL     1      -8.029   8.951  -4.611  1.00  0.00     0.057 A 
ATOM     63  C   UNL     1      -8.460   9.597  -3.446  1.00  0.00     0.134 A 
ATOM     64  C   UNL     1      -7.256   9.697  -5.512  1.00  0.00     0.134 A 
ATOM     65  F   UNL     1      -9.207   8.947  -2.542  1.00  0.00    -0.206 F 
ATOM     66  C   UNL     1      -8.132  10.930  -3.186  1.00  0.00     0.040 A 
ATOM     67  C   UNL     1      -6.900  11.022  -5.250  1.00  0.00     0.040 A 
ATOM     68  F   UNL     1      -6.801   9.137  -6.644  1.00  0.00    -0.206 F 
ATOM     69  C   UNL     1      -7.343  11.644  -4.085  1.00  0.00     0.006 A 
ENDBRANCH  48  62
BRANCH  49  70
ATOM     70  C   UNL     1      -9.985  -0.780  -6.223  1.00  0.00     0.057 A 
ATOM     71  C   UNL     1      -9.811  -1.755  -5.232  1.00  0.00     0.134 A 
ATOM     72  C   UNL     1     -10.436  -1.209  -7.476  1.00  0.00     0.134 A 
ATOM     73  F   UNL     1      -9.365  -1.411  -4.015  1.00  0.00    -0.206 F 
ATOM     74  C   UNL     1     -10.075  -3.102  -5.478  1.00  0.00     0.040 A 
ATOM     75  C   UNL     1     -10.731  -2.550  -7.727  1.00  0.00     0.040 A 
ATOM     76  F   UNL     1     -10.627  -0.323  -8.465  1.00  0.00    -0.206 F 
ATOM     77  C   UNL     1     -10.547  -3.502  -6.726  1.00  0.00     0.006 A 
ENDBRANCH  49  70
BRANCH  61  78
ATOM     78  C   UNL     1     -13.907   4.958  -5.984  1.00  0.00     0.057 A 
ATOM     79  C   UNL     1     -14.403   5.603  -7.124  1.00  0.00     0.134 A 
ATOM     80  C   UNL     1     -14.835   4.520  -5.030  1.00  0.00     0.134 A 
ATOM     81  F   UNL     1     -13.566   6.053  -8.071  1.00  0.00    -0.206 F 
ATOM     82  C   UNL     1     -15.771   5.801  -7.311  1.00  0.00     0.040 A 
ATOM     83  C   UNL     1     -16.207   4.684  -5.221  1.00  0.00     0.040 A 
ATOM     84  F   UNL     1     -14.424   3.879  -3.925  1.00  0.00    -0.206 F 
ATOM     85  C   UNL     1     -16.678   5.331  -6.362  1.00  0.00     0.006 A 
ENDBRANCH  61  78
ENDBRANCH  35  36
ENDBRANCH  28  30
ENDBRANCH  27  28
ENDBRANCH  26  27
ENDBRANCH   1  26
TORSDOF 16
