REMARK SMILES O=C(Cc1ccc(F)cc1F)N[C@H](CCO)C(=O)OCCOC(=O)c1ccc(-c2c3nc(c(-c4c(F)cccc4F)c4ccc([nH]4)c(-c4c(F)cccc4F)c4nc(c(-c5c(F)cccc5F)c5ccc2[nH]5)C=C4)C=C3)cc1
REMARK SMILES IDX 20 1 19 2 17 3 18 4 13 5 12 6 1 7 2 8 3 10 4 11 5 12 10 13
REMARK SMILES IDX 6 14 9 15 11 16 7 17 8 18 14 19 15 20 16 21 21 23 22 24
REMARK SMILES IDX 23 25 24 26 25 27 26 28 78 29 27 30 77 31 28 32 29 33 30 34
REMARK SMILES IDX 71 35 31 36 76 37 70 38 72 39 32 40 75 41 69 42 68 43 33 45
REMARK SMILES IDX 59 46 42 47 58 48 43 49 46 50 57 51 73 52 44 53 45 54 56 56
REMARK SMILES IDX 74 57 47 58 34 59 35 60 40 61 36 62 37 63 39 64 41 65 38 66
REMARK SMILES IDX 60 67 61 68 66 69 62 70 63 71 65 72 67 73 64 74 48 75 49 76
REMARK SMILES IDX 54 77 50 78 51 79 53 80 55 81 52 82
REMARK H PARENT 12 9 16 22 72 44 46 55
REMARK Flexibility Score: inf
ROOT
ATOM      1  C   UNL     1       4.125  -3.329   3.412  1.00  0.00     0.274 C 
ENDROOT
BRANCH   1   2
ATOM      2  O   UNL     1       3.932  -2.596   2.189  1.00  0.00    -0.461 OA
BRANCH   2   3
ATOM      3  C   UNL     1       2.963  -3.037   1.351  1.00  0.00     0.328 C 
ATOM      4  O   UNL     1       2.286  -4.047   1.539  1.00  0.00    -0.250 OA
BRANCH   3   5
ATOM      5  C   UNL     1       2.756  -2.143   0.111  1.00  0.00     0.194 C 
BRANCH   5   6
ATOM      6  N   UNL     1       2.830  -2.999  -1.074  1.00  0.00    -0.342 N 
ATOM      7  O   UNL     1       5.111  -3.184  -1.074  1.00  0.00    -0.275 OA
ATOM      8  C   UNL     1       4.020  -3.541  -1.506  1.00  0.00     0.225 C 
ATOM      9  H   UNL     1       2.006  -3.192  -1.577  1.00  0.00     0.164 HD
BRANCH   8  10
ATOM     10  C   UNL     1       3.854  -4.701  -2.475  1.00  0.00     0.138 C 
BRANCH  10  11
ATOM     11  C   UNL     1       4.307  -5.992  -1.839  1.00  0.00    -0.003 A 
ATOM     12  C   UNL     1       3.673  -6.489  -0.687  1.00  0.00     0.010 A 
ATOM     13  C   UNL     1       5.400  -6.694  -2.358  1.00  0.00     0.129 A 
ATOM     14  C   UNL     1       4.151  -7.642  -0.064  1.00  0.00     0.040 A 
ATOM     15  C   UNL     1       5.876  -7.848  -1.747  1.00  0.00     0.078 A 
ATOM     16  F   UNL     1       6.013  -6.252  -3.465  1.00  0.00    -0.207 F 
ATOM     17  C   UNL     1       5.249  -8.307  -0.597  1.00  0.00     0.126 A 
ATOM     18  F   UNL     1       5.710  -9.407   0.011  1.00  0.00    -0.207 F 
ENDBRANCH  10  11
ENDBRANCH   8  10
ENDBRANCH   5   6
BRANCH   5  19
ATOM     19  C   UNL     1       3.554  -0.833   0.029  1.00  0.00     0.065 C 
BRANCH  19  20
ATOM     20  C   UNL     1       2.632   0.369  -0.168  1.00  0.00     0.159 C 
BRANCH  20  21
ATOM     21  O   UNL     1       1.685   0.466   0.887  1.00  0.00    -0.396 OA
ATOM     22  H   UNL     1       1.137  -0.334   0.904  1.00  0.00     0.210 HD
ENDBRANCH  20  21
ENDBRANCH  19  20
ENDBRANCH   5  19
ENDBRANCH   3   5
ENDBRANCH   2   3
ENDBRANCH   1   2
BRANCH   1  23
ATOM     23  C   UNL     1       3.664  -2.493   4.608  1.00  0.00     0.275 C 
BRANCH  23  24
ATOM     24  O   UNL     1       2.238  -2.292   4.590  1.00  0.00    -0.458 OA
BRANCH  24  25
ATOM     25  C   UNL     1       1.821  -1.182   3.939  1.00  0.00     0.338 C 
ATOM     26  O   UNL     1       2.503  -0.335   3.385  1.00  0.00    -0.246 OA
BRANCH  25  27
ATOM     27  C   UNL     1       0.354  -1.177   3.873  1.00  0.00     0.060 A 
ATOM     28  C   UNL     1      -0.249  -1.488   2.654  1.00  0.00     0.016 A 
ATOM     29  C   UNL     1      -0.410  -0.743   4.956  1.00  0.00     0.016 A 
ATOM     30  C   UNL     1      -1.619  -1.322   2.492  1.00  0.00     0.010 A 
ATOM     31  C   UNL     1      -1.793  -0.604   4.802  1.00  0.00     0.010 A 
ATOM     32  C   UNL     1      -2.401  -0.871   3.562  1.00  0.00    -0.014 A 
BRANCH  32  33
ATOM     33  C   UNL     1      -3.849  -0.641   3.357  1.00  0.00     0.031 A 
ATOM     34  C   UNL     1      -4.384   0.759   3.274  1.00  0.00     0.074 A 
ATOM     35  C   UNL     1      -4.673  -1.691   3.199  1.00  0.00     0.049 A 
ATOM     36  N   UNL     1      -5.626   1.163   3.189  1.00  0.00    -0.248 NA
ATOM     37  C   UNL     1      -3.394   1.847   3.285  1.00  0.00     0.031 C 
ATOM     38  C   UNL     1      -4.261  -3.095   3.198  1.00  0.00     0.029 A 
ATOM     39  N   UNL     1      -6.028  -1.738   2.996  1.00  0.00    -0.354 N 
ATOM     40  C   UNL     1      -5.570   2.549   3.166  1.00  0.00     0.074 A 
ATOM     41  C   UNL     1      -4.173   2.920   3.247  1.00  0.00     0.031 C 
ATOM     42  C   UNL     1      -5.340  -3.866   2.985  1.00  0.00     0.029 A 
ATOM     43  C   UNL     1      -6.521  -3.014   2.886  1.00  0.00     0.049 A 
ATOM     44  H   UNL     1      -6.593  -0.934   2.936  1.00  0.00     0.167 HD
ATOM     45  C   UNL     1      -6.594   3.431   3.084  1.00  0.00     0.037 A 
ATOM     46  C   UNL     1      -7.787  -3.449   2.747  1.00  0.00     0.037 A 
ATOM     47  C   UNL     1      -7.980   3.060   2.973  1.00  0.00     0.049 A 
ATOM     48  C   UNL     1      -8.908  -2.454   2.704  1.00  0.00     0.074 A 
ATOM     49  C   UNL     1      -9.090   3.883   2.891  1.00  0.00     0.029 A 
ATOM     50  N   UNL     1      -8.444   1.755   2.914  1.00  0.00    -0.354 N 
ATOM     51  N   UNL     1      -8.850  -1.145   2.744  1.00  0.00    -0.248 NA
ATOM     52  C   UNL     1     -10.272  -2.994   2.618  1.00  0.00     0.031 C 
ATOM     53  C   UNL     1     -10.229   3.075   2.804  1.00  0.00     0.029 A 
ATOM     54  C   UNL     1      -9.824   1.750   2.807  1.00  0.00     0.049 A 
ATOM     55  H   UNL     1      -7.875   0.952   2.944  1.00  0.00     0.167 HD
ATOM     56  C   UNL     1     -10.164  -0.705   2.689  1.00  0.00     0.074 A 
ATOM     57  C   UNL     1     -10.999  -1.885   2.594  1.00  0.00     0.031 C 
ATOM     58  C   UNL     1     -10.636   0.565   2.721  1.00  0.00     0.037 A 
BRANCH  45  59
ATOM     59  C   UNL     1      -6.256   4.888   3.136  1.00  0.00     0.057 A 
ATOM     60  C   UNL     1      -6.477   5.627   4.305  1.00  0.00     0.134 A 
ATOM     61  C   UNL     1      -5.753   5.568   2.022  1.00  0.00     0.134 A 
ATOM     62  F   UNL     1      -6.959   5.031   5.406  1.00  0.00    -0.206 F 
ATOM     63  C   UNL     1      -6.216   6.997   4.361  1.00  0.00     0.040 A 
ATOM     64  C   UNL     1      -5.474   6.935   2.070  1.00  0.00     0.040 A 
ATOM     65  F   UNL     1      -5.507   4.912   0.878  1.00  0.00    -0.206 F 
ATOM     66  C   UNL     1      -5.712   7.654   3.241  1.00  0.00     0.006 A 
ENDBRANCH  45  59
BRANCH  46  67
ATOM     67  C   UNL     1      -8.054  -4.904   2.664  1.00  0.00     0.057 A 
ATOM     68  C   UNL     1      -7.941  -5.729   3.789  1.00  0.00     0.134 A 
ATOM     69  C   UNL     1      -8.401  -5.504   1.450  1.00  0.00     0.134 A 
ATOM     70  F   UNL     1      -7.608  -5.208   4.979  1.00  0.00    -0.206 F 
ATOM     71  C   UNL     1      -8.145  -7.106   3.706  1.00  0.00     0.040 A 
ATOM     72  C   UNL     1      -8.626  -6.878   1.356  1.00  0.00     0.040 A 
ATOM     73  F   UNL     1      -8.542  -4.758   0.344  1.00  0.00    -0.206 F 
ATOM     74  C   UNL     1      -8.490  -7.684   2.485  1.00  0.00     0.006 A 
ENDBRANCH  46  67
BRANCH  58  75
ATOM     75  C   UNL     1     -12.121   0.741   2.652  1.00  0.00     0.057 A 
ATOM     76  C   UNL     1     -12.741   1.147   1.465  1.00  0.00     0.134 A 
ATOM     77  C   UNL     1     -12.928   0.553   3.780  1.00  0.00     0.134 A 
ATOM     78  F   UNL     1     -12.017   1.347   0.353  1.00  0.00    -0.206 F 
ATOM     79  C   UNL     1     -14.117   1.366   1.403  1.00  0.00     0.040 A 
ATOM     80  C   UNL     1     -14.307   0.755   3.727  1.00  0.00     0.040 A 
ATOM     81  F   UNL     1     -12.390   0.153   4.942  1.00  0.00    -0.206 F 
ATOM     82  C   UNL     1     -14.904   1.169   2.537  1.00  0.00     0.006 A 
ENDBRANCH  58  75
ENDBRANCH  32  33
ENDBRANCH  25  27
ENDBRANCH  24  25
ENDBRANCH  23  24
ENDBRANCH   1  23
TORSDOF 17
