REMARK SMILES O=C(COc1ccc(C(=O)/C=C/c2ccc(Cl)c([N+](=O)[O-])c2)cc1)OCCOC(=O)c1ccc(-c2c3nc(c(-c4c(F)cccc4F)c4ccc([nH]4)c(-c4c(F)cccc4F)c4nc(c(-c5c(F)cccc5F)c5ccc2[nH]5)C=C4)C=C3)cc1
REMARK SMILES IDX 1 1 2 2 3 3 4 4 5 5 6 6 24 7 7 8 23 9 8 10 9 11 10 12 11 13
REMARK SMILES IDX 12 14 13 15 14 16 22 17 15 18 18 19 16 20 17 21 19 22 20 23
REMARK SMILES IDX 21 24 25 25 26 26 27 27 28 28 29 29 30 30 31 31 32 32 84 33
REMARK SMILES IDX 33 34 83 35 34 36 35 37 36 38 77 39 37 40 82 41 76 42 78 43
REMARK SMILES IDX 38 44 81 45 75 46 74 47 39 49 65 50 48 51 64 52 49 53 52 54
REMARK SMILES IDX 63 55 79 56 50 57 51 58 62 60 80 61 53 62 40 63 41 64 46 65
REMARK SMILES IDX 42 66 43 67 45 68 47 69 44 70 66 71 67 72 72 73 68 74 69 75
REMARK SMILES IDX 71 76 73 77 70 78 54 79 55 80 60 81 56 82 57 83 59 84 61 85
REMARK SMILES IDX 58 86
REMARK H PARENT 78 48 52 59
REMARK Flexibility Score: inf
ROOT
ATOM      1  O   UNL     1       1.331   0.344   0.649  1.00  0.00    -0.248 OA
ATOM      2  C   UNL     1       2.545   0.325   0.445  1.00  0.00     0.344 C 
ENDROOT
BRANCH   2   3
ATOM      3  C   UNL     1       3.369   1.609   0.463  1.00  0.00     0.351 C 
BRANCH   3   4
ATOM      4  O   UNL     1       4.356   1.686   1.489  1.00  0.00    -0.482 OA
BRANCH   4   5
ATOM      5  C   UNL     1       3.763   2.006   2.678  1.00  0.00     0.120 A 
ATOM      6  C   UNL     1       3.705   3.340   3.076  1.00  0.00     0.047 A 
ATOM      7  C   UNL     1       3.249   0.994   3.484  1.00  0.00     0.047 A 
ATOM      8  C   UNL     1       3.041   3.673   4.257  1.00  0.00     0.016 A 
ATOM      9  C   UNL     1       2.590   1.327   4.665  1.00  0.00     0.016 A 
ATOM     10  C   UNL     1       2.443   2.671   5.034  1.00  0.00     0.022 A 
BRANCH  10  11
ATOM     11  C   UNL     1       1.694   3.071   6.253  1.00  0.00     0.185 C 
ATOM     12  O   UNL     1       2.031   4.068   6.884  1.00  0.00    -0.289 OA
BRANCH  11  13
ATOM     13  C   UNL     1       0.538   2.262   6.730  1.00  0.00     0.053 C 
ATOM     14  C   UNL     1      -0.290   1.583   5.921  1.00  0.00     0.012 C 
BRANCH  14  15
ATOM     15  C   UNL     1      -1.382   0.761   6.441  1.00  0.00    -0.019 A 
ATOM     16  C   UNL     1      -1.293  -0.630   6.343  1.00  0.00     0.010 A 
ATOM     17  C   UNL     1      -2.516   1.338   7.017  1.00  0.00     0.095 A 
ATOM     18  C   UNL     1      -2.320  -1.438   6.837  1.00  0.00     0.028 A 
ATOM     19  C   UNL     1      -3.558   0.522   7.503  1.00  0.00     0.288 A 
ATOM     20  C   UNL     1      -3.458  -0.873   7.427  1.00  0.00     0.118 A 
ATOM     21  Cl  UNL     1      -4.613  -1.994   8.055  1.00  0.00    -0.077 Cl
BRANCH  19  22
ATOM     22  N   UNL     1      -4.724   1.197   8.074  1.00  0.00     0.064 N 
ATOM     23  O   UNL     1      -5.827   0.642   8.008  1.00  0.00    -0.258 OA
ATOM     24  O   UNL     1      -4.540   2.325   8.555  1.00  0.00    -0.258 OA
ENDBRANCH  19  22
ENDBRANCH  14  15
ENDBRANCH  11  13
ENDBRANCH  10  11
ENDBRANCH   4   5
ENDBRANCH   3   4
ENDBRANCH   2   3
BRANCH   2  25
ATOM     25  O   UNL     1       3.185  -0.853   0.243  1.00  0.00    -0.460 OA
BRANCH  25  26
ATOM     26  C   UNL     1       4.522  -0.964  -0.294  1.00  0.00     0.274 C 
BRANCH  26  27
ATOM     27  C   UNL     1       4.479  -1.132  -1.814  1.00  0.00     0.275 C 
BRANCH  27  28
ATOM     28  O   UNL     1       3.998   0.085  -2.415  1.00  0.00    -0.458 OA
BRANCH  28  29
ATOM     29  C   UNL     1       2.699   0.084  -2.807  1.00  0.00     0.338 C 
ATOM     30  O   UNL     1       1.944  -0.872  -2.844  1.00  0.00    -0.246 OA
BRANCH  29  31
ATOM     31  C   UNL     1       2.268   1.489  -2.980  1.00  0.00     0.060 A 
ATOM     32  C   UNL     1       1.013   1.863  -2.483  1.00  0.00     0.016 A 
ATOM     33  C   UNL     1       3.105   2.444  -3.566  1.00  0.00     0.016 A 
ATOM     34  C   UNL     1       0.590   3.191  -2.577  1.00  0.00     0.010 A 
ATOM     35  C   UNL     1       2.678   3.771  -3.666  1.00  0.00     0.010 A 
ATOM     36  C   UNL     1       1.414   4.149  -3.183  1.00  0.00    -0.014 A 
BRANCH  36  37
ATOM     37  C   UNL     1       0.922   5.528  -3.412  1.00  0.00     0.031 A 
ATOM     38  C   UNL     1       0.319   5.877  -4.742  1.00  0.00     0.074 A 
ATOM     39  C   UNL     1       1.036   6.468  -2.457  1.00  0.00     0.049 A 
ATOM     40  N   UNL     1      -0.128   7.028  -5.173  1.00  0.00    -0.248 NA
ATOM     41  C   UNL     1       0.207   4.781  -5.719  1.00  0.00     0.031 C 
ATOM     42  C   UNL     1       1.591   6.258  -1.120  1.00  0.00     0.029 A 
ATOM     43  N   UNL     1       0.704   7.800  -2.478  1.00  0.00    -0.354 N 
ATOM     44  C   UNL     1      -0.581   6.797  -6.464  1.00  0.00     0.074 A 
ATOM     45  C   UNL     1      -0.326   5.403  -6.760  1.00  0.00     0.031 C 
ATOM     46  C   UNL     1       1.578   7.428  -0.455  1.00  0.00     0.029 A 
ATOM     47  C   UNL     1       1.035   8.470  -1.326  1.00  0.00     0.049 A 
ATOM     48  H   UNL     1       0.268   8.235  -3.247  1.00  0.00     0.167 HD
ATOM     49  C   UNL     1      -1.165   7.664  -7.323  1.00  0.00     0.037 A 
ATOM     50  C   UNL     1       0.930   9.777  -1.019  1.00  0.00     0.037 A 
ATOM     51  C   UNL     1      -1.415   9.051  -7.039  1.00  0.00     0.049 A 
ATOM     52  C   UNL     1       0.347  10.736  -2.024  1.00  0.00     0.074 A 
ATOM     53  C   UNL     1      -2.039   9.995  -7.838  1.00  0.00     0.029 A 
ATOM     54  N   UNL     1      -1.042   9.697  -5.872  1.00  0.00    -0.354 N 
ATOM     55  N   UNL     1      -0.131  10.494  -3.220  1.00  0.00    -0.248 NA
ATOM     56  C   UNL     1       0.292  12.154  -1.634  1.00  0.00     0.031 C 
ATOM     57  C   UNL     1      -2.004  11.223  -7.171  1.00  0.00     0.029 A 
ATOM     58  C   UNL     1      -1.393  11.035  -5.942  1.00  0.00     0.049 A 
ATOM     59  H   UNL     1      -0.595   9.269  -5.107  1.00  0.00     0.167 HD
ATOM     60  C   UNL     1      -0.568  11.719  -3.711  1.00  0.00     0.074 A 
ATOM     61  C   UNL     1      -0.307  12.702  -2.682  1.00  0.00     0.031 C 
ATOM     62  C   UNL     1      -1.134  12.003  -4.909  1.00  0.00     0.037 A 
BRANCH  49  63
ATOM     63  C   UNL     1      -1.570   7.137  -8.665  1.00  0.00     0.057 A 
ATOM     64  C   UNL     1      -2.703   6.330  -8.823  1.00  0.00     0.134 A 
ATOM     65  C   UNL     1      -0.848   7.479  -9.814  1.00  0.00     0.134 A 
ATOM     66  F   UNL     1      -3.426   5.957  -7.757  1.00  0.00    -0.206 F 
ATOM     67  C   UNL     1      -3.100   5.873 -10.081  1.00  0.00     0.040 A 
ATOM     68  C   UNL     1      -1.245   7.044 -11.078  1.00  0.00     0.040 A 
ATOM     69  F   UNL     1       0.247   8.250  -9.726  1.00  0.00    -0.206 F 
ATOM     70  C   UNL     1      -2.373   6.237 -11.214  1.00  0.00     0.006 A 
ENDBRANCH  49  63
BRANCH  50  71
ATOM     71  C   UNL     1       1.405  10.280   0.294  1.00  0.00     0.057 A 
ATOM     72  C   UNL     1       0.506  10.743   1.261  1.00  0.00     0.134 A 
ATOM     73  C   UNL     1       2.771  10.365   0.588  1.00  0.00     0.134 A 
ATOM     74  F   UNL     1      -0.814  10.713   1.023  1.00  0.00    -0.206 F 
ATOM     75  C   UNL     1       0.947  11.295   2.464  1.00  0.00     0.040 A 
ATOM     76  C   UNL     1       3.226  10.895   1.796  1.00  0.00     0.040 A 
ATOM     77  F   UNL     1       3.683   9.940  -0.299  1.00  0.00    -0.206 F 
ATOM     78  C   UNL     1       2.312  11.371   2.735  1.00  0.00     0.006 A 
ENDBRANCH  50  71
BRANCH  62  79
ATOM     79  C   UNL     1      -1.535  13.426  -5.164  1.00  0.00     0.057 A 
ATOM     80  C   UNL     1      -0.587  14.419  -5.440  1.00  0.00     0.134 A 
ATOM     81  C   UNL     1      -2.885  13.796  -5.179  1.00  0.00     0.134 A 
ATOM     82  F   UNL     1       0.723  14.131  -5.428  1.00  0.00    -0.206 F 
ATOM     83  C   UNL     1      -0.968  15.735  -5.706  1.00  0.00     0.040 A 
ATOM     84  C   UNL     1      -3.280  15.104  -5.466  1.00  0.00     0.040 A 
ATOM     85  F   UNL     1      -3.843  12.890  -4.931  1.00  0.00    -0.206 F 
ATOM     86  C   UNL     1      -2.319  16.079  -5.727  1.00  0.00     0.006 A 
ENDBRANCH  62  79
ENDBRANCH  36  37
ENDBRANCH  29  31
ENDBRANCH  28  29
ENDBRANCH  27  28
ENDBRANCH  26  27
ENDBRANCH  25  26
ENDBRANCH   2  25
TORSDOF 17
