REMARK SMILES CC[C@@H](C(=O)OCCOC(=O)c1ccc(-c2c3nc(c(-c4c(F)cccc4F)c4ccc([nH]4)c(-c4c(F)cccc4F)c4nc(c(-c5c(F)cccc5F)c5ccc2[nH]5)C=C4)C=C3)cc1)n1c(SCc2cccc(C(F)(F)F)c2)nc2ccncc21
REMARK SMILES IDX 6 1 4 2 5 3 3 4 2 5 1 6 66 7 67 8 86 9 80 10 81 11 85 12
REMARK SMILES IDX 82 13 84 14 83 15 68 16 69 17 70 18 71 19 79 20 72 21 74 22
REMARK SMILES IDX 73 23 75 24 76 25 77 26 78 27 7 28 8 29 9 30 10 31 11 32
REMARK SMILES IDX 12 33 13 34 65 35 14 36 64 37 15 38 16 39 17 40 58 41 18 42
REMARK SMILES IDX 63 43 57 44 59 45 19 46 62 47 56 48 55 49 20 51 46 52 29 53
REMARK SMILES IDX 45 54 30 55 33 56 44 57 60 58 31 59 32 60 43 62 61 63 34 64
REMARK SMILES IDX 21 65 22 66 27 67 23 68 24 69 26 70 28 71 25 72 47 73 48 74
REMARK SMILES IDX 53 75 49 76 50 77 52 78 54 79 51 80 35 81 36 82 41 83 37 84
REMARK SMILES IDX 38 85 40 86 42 87 39 88
REMARK H PARENT 59 50 33 61
REMARK Flexibility Score: inf
ROOT
ATOM      1  O   UNL     1       0.125  -2.004   0.960  1.00  0.00    -0.461 OA
ENDROOT
BRANCH   1   2
ATOM      2  C   UNL     1       0.274  -2.684  -0.206  1.00  0.00     0.329 C 
ATOM      3  O   UNL     1       0.109  -3.893  -0.263  1.00  0.00    -0.250 OA
BRANCH   2   4
ATOM      4  C   UNL     1       0.747  -1.814  -1.373  1.00  0.00     0.199 C 
BRANCH   4   5
ATOM      5  C   UNL     1      -0.007  -0.464  -1.479  1.00  0.00     0.034 C 
ATOM      6  C   UNL     1       0.268   0.537  -0.360  1.00  0.00     0.007 C 
ENDBRANCH   4   5
BRANCH   4   7
ATOM      7  N   UNL     1       0.817  -2.581  -2.645  1.00  0.00    -0.303 N 
ATOM      8  C   UNL     1       1.794  -3.517  -2.998  1.00  0.00     0.170 A 
ATOM      9  C   UNL     1       0.102  -2.321  -3.814  1.00  0.00     0.088 A 
ATOM     10  N   UNL     1       2.012  -3.446  -4.299  1.00  0.00    -0.222 NA
ATOM     11  C   UNL     1       0.891  -2.862  -4.823  1.00  0.00     0.093 A 
ATOM     12  C   UNL     1      -1.115  -1.715  -4.114  1.00  0.00     0.139 A 
ATOM     13  C   UNL     1       0.463  -2.811  -6.151  1.00  0.00     0.051 A 
ATOM     14  N   UNL     1      -1.545  -1.692  -5.396  1.00  0.00    -0.262 NA
ATOM     15  C   UNL     1      -0.774  -2.230  -6.366  1.00  0.00     0.113 A 
BRANCH   8  16
ATOM     16  S   UNL     1       1.969  -5.120  -2.296  1.00  0.00    -0.083 SA
BRANCH  16  17
ATOM     17  C   UNL     1       2.827  -5.084  -0.719  1.00  0.00     0.113 C 
BRANCH  17  18
ATOM     18  C   UNL     1       4.061  -4.237  -0.647  1.00  0.00    -0.037 A 
ATOM     19  C   UNL     1       5.319  -4.752  -0.969  1.00  0.00     0.004 A 
ATOM     20  C   UNL     1       3.966  -2.901  -0.252  1.00  0.00     0.017 A 
ATOM     21  C   UNL     1       6.445  -3.929  -0.931  1.00  0.00     0.001 A 
ATOM     22  C   UNL     1       5.063  -2.035  -0.321  1.00  0.00     0.056 A 
ATOM     23  C   UNL     1       6.314  -2.571  -0.635  1.00  0.00     0.013 A 
BRANCH  22  24
ATOM     24  C   UNL     1       4.857  -0.562  -0.083  1.00  0.00     0.416 C 
ATOM     25  F   UNL     1       4.751  -0.254   1.238  1.00  0.00    -0.166 F 
ATOM     26  F   UNL     1       5.850   0.220  -0.584  1.00  0.00    -0.166 F 
ATOM     27  F   UNL     1       3.704  -0.109  -0.658  1.00  0.00    -0.166 F 
ENDBRANCH  22  24
ENDBRANCH  17  18
ENDBRANCH  16  17
ENDBRANCH   8  16
ENDBRANCH   4   7
ENDBRANCH   2   4
ENDBRANCH   1   2
BRANCH   1  28
ATOM     28  C   UNL     1      -0.294  -2.805   2.087  1.00  0.00     0.274 C 
BRANCH  28  29
ATOM     29  C   UNL     1      -1.821  -2.943   2.189  1.00  0.00     0.275 C 
BRANCH  29  30
ATOM     30  O   UNL     1      -2.381  -3.777   1.152  1.00  0.00    -0.458 OA
BRANCH  30  31
ATOM     31  C   UNL     1      -2.880  -3.125   0.079  1.00  0.00     0.338 C 
ATOM     32  O   UNL     1      -2.914  -1.909  -0.091  1.00  0.00    -0.246 OA
BRANCH  31  33
ATOM     33  C   UNL     1      -3.192  -4.069  -1.004  1.00  0.00     0.060 A 
ATOM     34  C   UNL     1      -2.249  -4.195  -2.020  1.00  0.00     0.016 A 
ATOM     35  C   UNL     1      -4.417  -4.714  -1.124  1.00  0.00     0.016 A 
ATOM     36  C   UNL     1      -2.484  -4.940  -3.159  1.00  0.00     0.010 A 
ATOM     37  C   UNL     1      -4.668  -5.477  -2.275  1.00  0.00     0.010 A 
ATOM     38  C   UNL     1      -3.704  -5.583  -3.299  1.00  0.00    -0.014 A 
BRANCH  38  39
ATOM     39  C   UNL     1      -4.001  -6.251  -4.578  1.00  0.00     0.031 A 
ATOM     40  C   UNL     1      -4.969  -5.601  -5.513  1.00  0.00     0.074 A 
ATOM     41  C   UNL     1      -3.354  -7.372  -4.940  1.00  0.00     0.049 A 
ATOM     42  N   UNL     1      -5.620  -6.117  -6.518  1.00  0.00    -0.248 NA
ATOM     43  C   UNL     1      -5.237  -4.173  -5.279  1.00  0.00     0.031 C 
ATOM     44  C   UNL     1      -2.242  -7.987  -4.214  1.00  0.00     0.029 A 
ATOM     45  N   UNL     1      -3.550  -8.198  -6.016  1.00  0.00    -0.354 N 
ATOM     46  C   UNL     1      -6.431  -5.097  -6.995  1.00  0.00     0.074 A 
ATOM     47  C   UNL     1      -6.167  -3.924  -6.190  1.00  0.00     0.031 C 
ATOM     48  C   UNL     1      -1.870  -9.107  -4.854  1.00  0.00     0.029 A 
ATOM     49  C   UNL     1      -2.777  -9.332  -5.974  1.00  0.00     0.049 A 
ATOM     50  H   UNL     1      -4.181  -7.999  -6.745  1.00  0.00     0.167 HD
ATOM     51  C   UNL     1      -7.330  -5.160  -8.003  1.00  0.00     0.037 A 
ATOM     52  C   UNL     1      -2.856 -10.457  -6.709  1.00  0.00     0.037 A 
ATOM     53  C   UNL     1      -7.531  -6.335  -8.808  1.00  0.00     0.049 A 
ATOM     54  C   UNL     1      -3.939 -10.557  -7.749  1.00  0.00     0.074 A 
ATOM     55  C   UNL     1      -8.452  -6.551  -9.815  1.00  0.00     0.029 A 
ATOM     56  N   UNL     1      -6.770  -7.492  -8.701  1.00  0.00    -0.354 N 
ATOM     57  N   UNL     1      -4.824  -9.658  -8.110  1.00  0.00    -0.248 NA
ATOM     58  C   UNL     1      -4.059 -11.836  -8.461  1.00  0.00     0.031 C 
ATOM     59  C   UNL     1      -8.268  -7.851 -10.298  1.00  0.00     0.029 A 
ATOM     60  C   UNL     1      -7.204  -8.428  -9.620  1.00  0.00     0.049 A 
ATOM     61  H   UNL     1      -6.031  -7.625  -8.064  1.00  0.00     0.167 HD
ATOM     62  C   UNL     1      -5.589 -10.251  -9.105  1.00  0.00     0.074 A 
ATOM     63  C   UNL     1      -5.061 -11.587  -9.294  1.00  0.00     0.031 C 
ATOM     64  C   UNL     1      -6.634  -9.740  -9.800  1.00  0.00     0.037 A 
BRANCH  51  65
ATOM     65  C   UNL     1      -8.205  -3.965  -8.222  1.00  0.00     0.057 A 
ATOM     66  C   UNL     1      -7.732  -2.783  -8.802  1.00  0.00     0.134 A 
ATOM     67  C   UNL     1      -9.551  -4.003  -7.835  1.00  0.00     0.134 A 
ATOM     68  F   UNL     1      -6.448  -2.674  -9.174  1.00  0.00    -0.206 F 
ATOM     69  C   UNL     1      -8.562  -1.672  -8.969  1.00  0.00     0.040 A 
ATOM     70  C   UNL     1     -10.396  -2.909  -8.019  1.00  0.00     0.040 A 
ATOM     71  F   UNL     1     -10.066  -5.105  -7.269  1.00  0.00    -0.206 F 
ATOM     72  C   UNL     1      -9.900  -1.736  -8.582  1.00  0.00     0.006 A 
ENDBRANCH  51  65
BRANCH  52  73
ATOM     73  C   UNL     1      -1.953 -11.601  -6.426  1.00  0.00     0.057 A 
ATOM     74  C   UNL     1      -0.993 -12.015  -7.354  1.00  0.00     0.134 A 
ATOM     75  C   UNL     1      -2.036 -12.316  -5.223  1.00  0.00     0.134 A 
ATOM     76  F   UNL     1      -0.881 -11.390  -8.535  1.00  0.00    -0.206 F 
ATOM     77  C   UNL     1      -0.154 -13.103  -7.102  1.00  0.00     0.040 A 
ATOM     78  C   UNL     1      -1.186 -13.387  -4.946  1.00  0.00     0.040 A 
ATOM     79  F   UNL     1      -2.938 -11.975  -4.291  1.00  0.00    -0.206 F 
ATOM     80  C   UNL     1      -0.245 -13.788  -5.891  1.00  0.00     0.006 A 
ENDBRANCH  52  73
BRANCH  64  81
ATOM     81  C   UNL     1      -7.233 -10.602 -10.867  1.00  0.00     0.057 A 
ATOM     82  C   UNL     1      -8.092 -11.663 -10.564  1.00  0.00     0.134 A 
ATOM     83  C   UNL     1      -7.003 -10.312 -12.218  1.00  0.00     0.134 A 
ATOM     84  F   UNL     1      -8.339 -11.995  -9.288  1.00  0.00    -0.206 F 
ATOM     85  C   UNL     1      -8.700 -12.414 -11.571  1.00  0.00     0.040 A 
ATOM     86  C   UNL     1      -7.621 -11.041 -13.233  1.00  0.00     0.040 A 
ATOM     87  F   UNL     1      -6.195  -9.300 -12.570  1.00  0.00    -0.206 F 
ATOM     88  C   UNL     1      -8.472 -12.096 -12.909  1.00  0.00     0.006 A 
ENDBRANCH  64  81
ENDBRANCH  38  39
ENDBRANCH  31  33
ENDBRANCH  30  31
ENDBRANCH  29  30
ENDBRANCH  28  29
ENDBRANCH   1  28
TORSDOF 17
