REMARK SMILES CCCC(=O)Nc1cccc(C(=O)N[C@@H](C(=O)OCCOC(=O)c2ccc(-c3c4nc(c(-c5c(F)cccc5F)c5ccc([nH]5)c(-c5c(F)cccc5F)c5nc(c(-c6c(F)cccc6F)c6ccc3[nH]6)C=C5)C=C4)cc2)C2=C(C)N=N[C@@H]2C)c1
REMARK SMILES IDX 18 1 16 2 17 3 15 4 14 5 12 6 13 7 11 9 7 10 8 11 85 12 9 13
REMARK SMILES IDX 10 14 6 15 4 16 5 17 3 19 2 20 1 21 78 22 79 23 83 24 80 25
REMARK SMILES IDX 81 26 82 27 84 28 19 29 20 30 21 31 22 32 23 33 24 34 25 35
REMARK SMILES IDX 77 36 26 37 76 38 27 39 28 40 29 41 70 42 30 43 75 44 69 45
REMARK SMILES IDX 71 46 31 47 74 48 68 49 67 50 32 52 58 53 41 54 57 55 42 56
REMARK SMILES IDX 45 57 56 58 72 59 43 60 44 61 55 63 73 64 46 65 33 66 34 67
REMARK SMILES IDX 39 68 35 69 36 70 38 71 40 72 37 73 59 74 60 75 65 76 61 77
REMARK SMILES IDX 62 78 64 79 66 80 63 81 47 82 48 83 53 84 49 85 50 86 52 87
REMARK SMILES IDX 54 88 51 89
REMARK H PARENT 14 8 6 18 71 51 45 62
REMARK Flexibility Score: inf
ROOT
ATOM      1  O   UNL     1      -1.724  -0.232  -1.844  1.00  0.00    -0.460 OA
ENDROOT
BRANCH   1   2
ATOM      2  C   UNL     1      -1.148  -0.853  -0.772  1.00  0.00     0.333 C 
ATOM      3  O   UNL     1      -1.724  -1.104   0.280  1.00  0.00    -0.249 OA
BRANCH   2   4
ATOM      4  C   UNL     1       0.336  -1.218  -1.048  1.00  0.00     0.223 C 
BRANCH   4   5
ATOM      5  N   UNL     1       0.801  -0.485  -2.217  1.00  0.00    -0.335 N 
ATOM      6  C   UNL     1       1.388   0.748  -2.322  1.00  0.00     0.252 C 
ATOM      7  O   UNL     1       1.588   1.212  -3.442  1.00  0.00    -0.269 OA
ATOM      8  H   UNL     1       0.672  -0.954  -3.074  1.00  0.00     0.165 HD
BRANCH   6   9
ATOM      9  C   UNL     1       1.829   1.529  -1.142  1.00  0.00     0.041 A 
ATOM     10  C   UNL     1       1.503   2.556   1.025  1.00  0.00     0.041 A 
ATOM     11  C   UNL     1       2.777   3.121   0.964  1.00  0.00     0.026 A 
ATOM     12  C   UNL     1       1.002   1.809  -0.048  1.00  0.00     0.040 A 
ATOM     13  C   UNL     1       3.584   2.882  -0.148  1.00  0.00     0.003 A 
ATOM     14  C   UNL     1       3.114   2.086  -1.194  1.00  0.00     0.014 A 
BRANCH  10  15
ATOM     15  N   UNL     1       0.670   2.863   2.096  1.00  0.00    -0.326 N 
ATOM     16  C   UNL     1       0.472   2.188   3.262  1.00  0.00     0.224 C 
ATOM     17  O   UNL     1      -0.303   2.695   4.082  1.00  0.00    -0.275 OA
ATOM     18  H   UNL     1       0.146   3.691   1.996  1.00  0.00     0.169 HD
BRANCH  16  19
ATOM     19  C   UNL     1       1.248   0.936   3.645  1.00  0.00     0.100 C 
BRANCH  19  20
ATOM     20  C   UNL     1       1.327  -0.234   2.673  1.00  0.00     0.006 C 
ATOM     21  C   UNL     1       2.720  -0.423   2.082  1.00  0.00     0.004 C 
ENDBRANCH  19  20
ENDBRANCH  16  19
ENDBRANCH  10  15
ENDBRANCH   6   9
ENDBRANCH   4   5
BRANCH   4  22
ATOM     22  C   UNL     1       0.537  -2.695  -1.211  1.00  0.00     0.012 C 
ATOM     23  C   UNL     1       0.769  -3.629  -0.273  1.00  0.00     0.064 C 
ATOM     24  C   UNL     1       0.444  -3.474  -2.489  1.00  0.00     0.156 C 
ATOM     25  C   UNL     1       0.845  -3.502   1.210  1.00  0.00     0.069 C 
ATOM     26  N   UNL     1       0.830  -4.898  -0.789  1.00  0.00    -0.160 NA
ATOM     27  N   UNL     1       0.594  -4.880  -2.023  1.00  0.00    -0.181 NA
ATOM     28  C   UNL     1       1.555  -3.245  -3.507  1.00  0.00     0.040 C 
ENDBRANCH   4  22
ENDBRANCH   2   4
ENDBRANCH   1   2
BRANCH   1  29
ATOM     29  C   UNL     1      -3.072   0.260  -1.700  1.00  0.00     0.274 C 
BRANCH  29  30
ATOM     30  C   UNL     1      -4.036  -0.580  -2.533  1.00  0.00     0.275 C 
BRANCH  30  31
ATOM     31  O   UNL     1      -4.077  -1.909  -1.988  1.00  0.00    -0.458 OA
BRANCH  31  32
ATOM     32  C   UNL     1      -3.665  -2.902  -2.809  1.00  0.00     0.338 C 
ATOM     33  O   UNL     1      -3.375  -2.817  -3.989  1.00  0.00    -0.246 OA
BRANCH  32  34
ATOM     34  C   UNL     1      -3.502  -4.146  -2.033  1.00  0.00     0.060 A 
ATOM     35  C   UNL     1      -2.799  -4.112  -0.834  1.00  0.00     0.016 A 
ATOM     36  C   UNL     1      -3.881  -5.371  -2.580  1.00  0.00     0.016 A 
ATOM     37  C   UNL     1      -2.358  -5.296  -0.254  1.00  0.00     0.010 A 
ATOM     38  C   UNL     1      -3.528  -6.561  -1.929  1.00  0.00     0.010 A 
ATOM     39  C   UNL     1      -2.707  -6.542  -0.787  1.00  0.00    -0.014 A 
BRANCH  39  40
ATOM     40  C   UNL     1      -2.139  -7.798  -0.209  1.00  0.00     0.031 A 
ATOM     41  C   UNL     1      -1.439  -8.794  -1.104  1.00  0.00     0.074 A 
ATOM     42  C   UNL     1      -2.182  -8.047   1.117  1.00  0.00     0.049 A 
ATOM     43  N   UNL     1      -1.132 -10.046  -0.867  1.00  0.00    -0.248 NA
ATOM     44  C   UNL     1      -1.058  -8.331  -2.448  1.00  0.00     0.031 C 
ATOM     45  C   UNL     1      -2.747  -7.162   2.137  1.00  0.00     0.029 A 
ATOM     46  N   UNL     1      -1.715  -9.119   1.840  1.00  0.00    -0.354 N 
ATOM     47  C   UNL     1      -0.613 -10.541  -2.058  1.00  0.00     0.074 A 
ATOM     48  C   UNL     1      -0.625  -9.451  -3.010  1.00  0.00     0.031 C 
ATOM     49  C   UNL     1      -2.526  -7.686   3.351  1.00  0.00     0.029 A 
ATOM     50  C   UNL     1      -1.921  -9.003   3.193  1.00  0.00     0.049 A 
ATOM     51  H   UNL     1      -1.275  -9.897   1.427  1.00  0.00     0.167 HD
ATOM     52  C   UNL     1      -0.177 -11.795  -2.331  1.00  0.00     0.037 A 
ATOM     53  C   UNL     1      -1.706  -9.874   4.197  1.00  0.00     0.037 A 
ATOM     54  C   UNL     1      -0.064 -12.846  -1.352  1.00  0.00     0.049 A 
ATOM     55  C   UNL     1      -1.200 -11.250   3.878  1.00  0.00     0.074 A 
ATOM     56  C   UNL     1       0.338 -14.159  -1.533  1.00  0.00     0.029 A 
ATOM     57  N   UNL     1      -0.303 -12.685   0.003  1.00  0.00    -0.354 N 
ATOM     58  N   UNL     1      -0.878 -11.763   2.717  1.00  0.00    -0.248 NA
ATOM     59  C   UNL     1      -1.068 -12.182   5.007  1.00  0.00     0.031 C 
ATOM     60  C   UNL     1       0.335 -14.795  -0.286  1.00  0.00     0.029 A 
ATOM     61  C   UNL     1      -0.041 -13.869   0.673  1.00  0.00     0.049 A 
ATOM     62  H   UNL     1      -0.613 -11.853   0.427  1.00  0.00     0.167 HD
ATOM     63  C   UNL     1      -0.515 -13.078   2.971  1.00  0.00     0.074 A 
ATOM     64  C   UNL     1      -0.620 -13.274   4.402  1.00  0.00     0.031 C 
ATOM     65  C   UNL     1      -0.149 -14.045   2.096  1.00  0.00     0.037 A 
BRANCH  52  66
ATOM     66  C   UNL     1       0.178 -12.120  -3.752  1.00  0.00     0.057 A 
ATOM     67  C   UNL     1       1.371 -11.693  -4.344  1.00  0.00     0.134 A 
ATOM     68  C   UNL     1      -0.671 -12.930  -4.519  1.00  0.00     0.134 A 
ATOM     69  F   UNL     1       2.221 -10.904  -3.670  1.00  0.00    -0.206 F 
ATOM     70  C   UNL     1       1.703 -12.052  -5.653  1.00  0.00     0.040 A 
ATOM     71  C   UNL     1      -0.340 -13.314  -5.819  1.00  0.00     0.040 A 
ATOM     72  F   UNL     1      -1.828 -13.380  -4.008  1.00  0.00    -0.206 F 
ATOM     73  C   UNL     1       0.850 -12.872  -6.391  1.00  0.00     0.006 A 
ENDBRANCH  52  66
BRANCH  53  74
ATOM     74  C   UNL     1      -2.038  -9.495   5.593  1.00  0.00     0.057 A 
ATOM     75  C   UNL     1      -1.036  -9.316   6.553  1.00  0.00     0.134 A 
ATOM     76  C   UNL     1      -3.365  -9.305   6.002  1.00  0.00     0.134 A 
ATOM     77  F   UNL     1       0.251  -9.511   6.230  1.00  0.00    -0.206 F 
ATOM     78  C   UNL     1      -1.340  -8.967   7.870  1.00  0.00     0.040 A 
ATOM     79  C   UNL     1      -3.681  -8.927   7.307  1.00  0.00     0.040 A 
ATOM     80  F   UNL     1      -4.372  -9.463   5.130  1.00  0.00    -0.206 F 
ATOM     81  C   UNL     1      -2.666  -8.763   8.247  1.00  0.00     0.006 A 
ENDBRANCH  53  74
BRANCH  65  82
ATOM     82  C   UNL     1       0.181 -15.386   2.673  1.00  0.00     0.057 A 
ATOM     83  C   UNL     1      -0.821 -16.257   3.120  1.00  0.00     0.134 A 
ATOM     84  C   UNL     1       1.510 -15.811   2.783  1.00  0.00     0.134 A 
ATOM     85  F   UNL     1      -2.112 -15.899   3.054  1.00  0.00    -0.206 F 
ATOM     86  C   UNL     1      -0.509 -17.496   3.681  1.00  0.00     0.040 A 
ATOM     87  C   UNL     1       1.833 -17.055   3.325  1.00  0.00     0.040 A 
ATOM     88  F   UNL     1       2.513 -15.023   2.369  1.00  0.00    -0.206 F 
ATOM     89  C   UNL     1       0.822 -17.898   3.783  1.00  0.00     0.006 A 
ENDBRANCH  65  82
ENDBRANCH  39  40
ENDBRANCH  32  34
ENDBRANCH  31  32
ENDBRANCH  30  31
ENDBRANCH  29  30
ENDBRANCH   1  29
TORSDOF 17
