REMARK SMILES O=C(OCCOC(=O)c1ccc(-c2c3nc(c(-c4c(F)cccc4F)c4ccc([nH]4)c(-c4c(F)cccc4F)c4nc(c(-c5c(F)cccc5F)c5ccc2[nH]5)C=C4)C=C3)cc1)C1=Cc2c(ccc(Cl)c2-c2ccccc2)O[C@H]1C(F)(F)F
REMARK SMILES IDX 5 1 4 2 3 3 2 4 1 5 63 6 64 7 79 8 65 9 78 10 66 11 71 12
REMARK SMILES IDX 67 13 69 14 68 15 70 16 80 17 81 18 82 19 83 20 72 21 73 22
REMARK SMILES IDX 77 23 74 24 76 25 75 26 6 27 7 28 8 29 9 30 10 31 62 32
REMARK SMILES IDX 11 33 61 34 12 35 13 36 14 37 55 38 15 39 60 40 54 41 56 42
REMARK SMILES IDX 16 43 59 44 53 45 52 46 17 48 43 49 26 50 42 51 27 52 30 53
REMARK SMILES IDX 41 54 57 55 28 56 29 57 40 59 58 60 31 61 18 62 19 63 24 64
REMARK SMILES IDX 20 65 21 66 23 67 25 68 22 69 44 70 45 71 50 72 46 73 47 74
REMARK SMILES IDX 49 75 51 76 48 77 32 78 33 79 38 80 34 81 35 82 37 83 39 84
REMARK SMILES IDX 36 85
REMARK H PARENT 56 47 30 58
REMARK Flexibility Score: inf
ROOT
ATOM      1  C   UNL     1       2.362   0.921   1.760  1.00  0.00     0.275 C 
ENDROOT
BRANCH   1   2
ATOM      2  C   UNL     1       1.922   0.682   0.326  1.00  0.00     0.275 C 
BRANCH   2   3
ATOM      3  O   UNL     1       1.747  -0.734   0.111  1.00  0.00    -0.459 OA
BRANCH   3   4
ATOM      4  C   UNL     1       2.743  -1.603  -0.174  1.00  0.00     0.338 C 
ATOM      5  O   UNL     1       2.464  -2.695  -0.663  1.00  0.00    -0.246 OA
BRANCH   4   6
ATOM      6  C   UNL     1       4.173  -1.300   0.114  1.00  0.00     0.087 C 
ATOM      7  C   UNL     1       4.685  -0.162   0.619  1.00  0.00     0.028 C 
ATOM      8  C   UNL     1       5.131  -2.331  -0.447  1.00  0.00     0.316 C 
ATOM      9  C   UNL     1       5.624   0.490  -0.323  1.00  0.00     0.027 A 
ATOM     10  O   UNL     1       6.408  -1.756  -0.867  1.00  0.00    -0.475 OA
ATOM     11  C   UNL     1       6.429  -0.395  -1.065  1.00  0.00     0.128 A 
ATOM     12  C   UNL     1       5.691   1.903  -0.512  1.00  0.00     0.011 A 
ATOM     13  C   UNL     1       7.307   0.097  -2.016  1.00  0.00     0.049 A 
ATOM     14  C   UNL     1       6.585   2.364  -1.498  1.00  0.00     0.049 A 
ATOM     15  C   UNL     1       7.372   1.472  -2.242  1.00  0.00     0.025 A 
ATOM     16  Cl  UNL     1       6.758   4.050  -1.857  1.00  0.00    -0.084 Cl
BRANCH   8  17
ATOM     17  C   UNL     1       5.348  -3.453   0.588  1.00  0.00     0.430 C 
ATOM     18  F   UNL     1       4.198  -3.830   1.195  1.00  0.00    -0.167 F 
ATOM     19  F   UNL     1       5.884  -4.559   0.025  1.00  0.00    -0.167 F 
ATOM     20  F   UNL     1       6.186  -3.051   1.577  1.00  0.00    -0.167 F 
ENDBRANCH   8  17
BRANCH  12  21
ATOM     21  C   UNL     1       4.814   2.855   0.222  1.00  0.00    -0.016 A 
ATOM     22  C   UNL     1       3.675   3.398  -0.408  1.00  0.00     0.009 A 
ATOM     23  C   UNL     1       5.041   3.205   1.567  1.00  0.00     0.009 A 
ATOM     24  C   UNL     1       2.739   4.159   0.302  1.00  0.00     0.001 A 
ATOM     25  C   UNL     1       4.107   3.981   2.277  1.00  0.00     0.001 A 
ATOM     26  C   UNL     1       2.945   4.432   1.651  1.00  0.00     0.000 A 
ENDBRANCH  12  21
ENDBRANCH   4   6
ENDBRANCH   3   4
ENDBRANCH   2   3
ENDBRANCH   1   2
BRANCH   1  27
ATOM     27  O   UNL     1       1.367   1.584   2.537  1.00  0.00    -0.458 OA
BRANCH  27  28
ATOM     28  C   UNL     1       0.299   0.852   2.911  1.00  0.00     0.338 C 
ATOM     29  O   UNL     1      -0.843   1.274   2.847  1.00  0.00    -0.246 OA
BRANCH  28  30
ATOM     30  C   UNL     1       0.621  -0.484   3.457  1.00  0.00     0.060 A 
ATOM     31  C   UNL     1      -0.308  -1.492   3.234  1.00  0.00     0.016 A 
ATOM     32  C   UNL     1       1.780  -0.723   4.221  1.00  0.00     0.016 A 
ATOM     33  C   UNL     1      -0.165  -2.682   3.920  1.00  0.00     0.010 A 
ATOM     34  C   UNL     1       1.993  -1.967   4.795  1.00  0.00     0.010 A 
ATOM     35  C   UNL     1       0.937  -2.875   4.773  1.00  0.00    -0.014 A 
BRANCH  35  36
ATOM     36  C   UNL     1       0.743  -3.826   5.886  1.00  0.00     0.031 A 
ATOM     37  C   UNL     1       0.379  -3.253   7.234  1.00  0.00     0.074 A 
ATOM     38  C   UNL     1       0.622  -5.130   5.596  1.00  0.00     0.049 A 
ATOM     39  N   UNL     1      -0.260  -3.815   8.225  1.00  0.00    -0.248 NA
ATOM     40  C   UNL     1       0.753  -1.851   7.498  1.00  0.00     0.031 C 
ATOM     41  C   UNL     1       0.947  -5.736   4.304  1.00  0.00     0.029 A 
ATOM     42  N   UNL     1       0.101  -6.155   6.335  1.00  0.00    -0.354 N 
ATOM     43  C   UNL     1      -0.385  -2.829   9.198  1.00  0.00     0.074 A 
ATOM     44  C   UNL     1       0.288  -1.653   8.718  1.00  0.00     0.031 C 
ATOM     45  C   UNL     1       0.539  -7.015   4.311  1.00  0.00     0.029 A 
ATOM     46  C   UNL     1      -0.065  -7.308   5.607  1.00  0.00     0.049 A 
ATOM     47  H   UNL     1      -0.131  -6.075   7.289  1.00  0.00     0.167 HD
ATOM     48  C   UNL     1      -1.031  -2.891  10.383  1.00  0.00     0.037 A 
ATOM     49  C   UNL     1      -0.687  -8.451   5.945  1.00  0.00     0.037 A 
ATOM     50  C   UNL     1      -1.682  -4.082  10.845  1.00  0.00     0.049 A 
ATOM     51  C   UNL     1      -1.382  -8.506   7.278  1.00  0.00     0.074 A 
ATOM     52  C   UNL     1      -2.337  -4.309  12.038  1.00  0.00     0.029 A 
ATOM     53  N   UNL     1      -1.745  -5.260  10.111  1.00  0.00    -0.354 N 
ATOM     54  N   UNL     1      -1.524  -7.559   8.178  1.00  0.00    -0.248 NA
ATOM     55  C   UNL     1      -2.019  -9.777   7.635  1.00  0.00     0.031 C 
ATOM     56  C   UNL     1      -2.761  -5.643  12.043  1.00  0.00     0.029 A 
ATOM     57  C   UNL     1      -2.415  -6.227  10.832  1.00  0.00     0.049 A 
ATOM     58  H   UNL     1      -1.369  -5.386   9.210  1.00  0.00     0.167 HD
ATOM     59  C   UNL     1      -2.284  -8.113   9.199  1.00  0.00     0.074 A 
ATOM     60  C   UNL     1      -2.591  -9.471   8.791  1.00  0.00     0.031 C 
ATOM     61  C   UNL     1      -2.692  -7.563  10.371  1.00  0.00     0.037 A 
BRANCH  48  62
ATOM     62  C   UNL     1      -1.010  -1.662  11.245  1.00  0.00     0.057 A 
ATOM     63  C   UNL     1      -1.726  -0.503  10.909  1.00  0.00     0.134 A 
ATOM     64  C   UNL     1      -0.224  -1.617  12.402  1.00  0.00     0.134 A 
ATOM     65  F   UNL     1      -2.472  -0.464   9.795  1.00  0.00    -0.206 F 
ATOM     66  C   UNL     1      -1.639   0.661  11.678  1.00  0.00     0.040 A 
ATOM     67  C   UNL     1      -0.148  -0.468  13.193  1.00  0.00     0.040 A 
ATOM     68  F   UNL     1       0.498  -2.684  12.776  1.00  0.00    -0.206 F 
ATOM     69  C   UNL     1      -0.851   0.679  12.826  1.00  0.00     0.006 A 
ENDBRANCH  48  62
BRANCH  49  70
ATOM     70  C   UNL     1      -0.711  -9.593   4.995  1.00  0.00     0.057 A 
ATOM     71  C   UNL     1      -1.898 -10.040   4.405  1.00  0.00     0.134 A 
ATOM     72  C   UNL     1       0.470 -10.259   4.643  1.00  0.00     0.134 A 
ATOM     73  F   UNL     1      -3.066  -9.452   4.704  1.00  0.00    -0.206 F 
ATOM     74  C   UNL     1      -1.913 -11.118   3.515  1.00  0.00     0.040 A 
ATOM     75  C   UNL     1       0.474 -11.319   3.736  1.00  0.00     0.040 A 
ATOM     76  F   UNL     1       1.645  -9.875   5.165  1.00  0.00    -0.206 F 
ATOM     77  C   UNL     1      -0.723 -11.757   3.174  1.00  0.00     0.006 A 
ENDBRANCH  49  70
BRANCH  61  78
ATOM     78  C   UNL     1      -3.526  -8.430  11.263  1.00  0.00     0.057 A 
ATOM     79  C   UNL     1      -2.972  -9.501  11.973  1.00  0.00     0.134 A 
ATOM     80  C   UNL     1      -4.888  -8.159  11.441  1.00  0.00     0.134 A 
ATOM     81  F   UNL     1      -1.673  -9.809  11.836  1.00  0.00    -0.206 F 
ATOM     82  C   UNL     1      -3.754 -10.297  12.807  1.00  0.00     0.040 A 
ATOM     83  C   UNL     1      -5.673  -8.931  12.295  1.00  0.00     0.040 A 
ATOM     84  F   UNL     1      -5.470  -7.135  10.800  1.00  0.00    -0.206 F 
ATOM     85  C   UNL     1      -5.108 -10.009  12.974  1.00  0.00     0.006 A 
ENDBRANCH  61  78
ENDBRANCH  35  36
ENDBRANCH  28  30
ENDBRANCH  27  28
ENDBRANCH   1  27
TORSDOF 13
