REMARK SMILES Cc1n[nH]c(C)c1S(=O)(=O)N[C@H](C(=O)OCCOC(=O)c1ccc(-c2c3nc(c(-c4c(F)cccc4F)c4ccc([nH]4)c(-c4c(F)cccc4F)c4nc(c(-c5c(F)cccc5F)c5ccc2[nH]5)C=C4)C=C3)cc1)C(C)C
REMARK SMILES IDX 16 1 15 2 13 3 14 4 12 5 11 6 8 8 9 9 10 10 7 11 1 12 2 13
REMARK SMILES IDX 3 14 4 15 5 16 6 18 75 19 76 20 77 21 17 22 18 23 19 24
REMARK SMILES IDX 20 25 21 26 22 27 74 28 23 29 73 30 24 31 25 32 26 33 67 34
REMARK SMILES IDX 27 35 72 36 66 37 68 38 28 39 71 40 65 41 64 42 29 44 55 45
REMARK SMILES IDX 38 46 54 47 39 48 42 49 53 50 69 51 40 52 41 53 52 55 70 56
REMARK SMILES IDX 43 57 30 58 31 59 36 60 32 61 33 62 35 63 37 64 34 65 56 66
REMARK SMILES IDX 57 67 62 68 58 69 59 70 61 71 63 72 60 73 44 74 45 75 50 76
REMARK SMILES IDX 46 77 47 78 49 79 51 80 48 81
REMARK H PARENT 11 7 4 17 68 43 42 54
REMARK Flexibility Score: inf
ROOT
ATOM      1  C   UNL     1       1.683  -3.599  -2.139  1.00  0.00     0.274 C 
ENDROOT
BRANCH   1   2
ATOM      2  O   UNL     1       2.619  -3.384  -1.062  1.00  0.00    -0.461 OA
BRANCH   2   3
ATOM      3  C   UNL     1       2.174  -2.682   0.010  1.00  0.00     0.324 C 
ATOM      4  O   UNL     1       1.035  -2.231   0.091  1.00  0.00    -0.250 OA
BRANCH   3   5
ATOM      5  C   UNL     1       3.224  -2.538   1.155  1.00  0.00     0.182 C 
BRANCH   5   6
ATOM      6  N   UNL     1       2.521  -3.155   2.308  1.00  0.00    -0.196 NA
ATOM      7  H   UNL     1       1.561  -3.306   1.997  1.00  0.00     0.142 HD
BRANCH   6   8
ATOM      8  S   UNL     1       2.402  -2.450   3.818  1.00  0.00     0.245 S 
ATOM      9  O   UNL     1       3.562  -2.867   4.546  1.00  0.00    -0.207 OA
ATOM     10  O   UNL     1       1.065  -2.767   4.307  1.00  0.00    -0.207 OA
BRANCH   8  11
ATOM     11  C   UNL     1       2.446  -0.733   3.822  1.00  0.00     0.125 A 
ATOM     12  C   UNL     1       3.992  -0.355   5.914  1.00  0.00     0.070 C 
ATOM     13  C   UNL     1       3.169   0.063   4.749  1.00  0.00     0.079 A 
ATOM     14  N   UNL     1       3.014   1.370   4.491  1.00  0.00    -0.179 NA
ATOM     15  N   UNL     1       2.135   1.404   3.482  1.00  0.00    -0.281 N 
ATOM     16  C   UNL     1       1.729   0.170   3.057  1.00  0.00     0.052 A 
ATOM     17  H   UNL     1       1.811   2.243   3.082  1.00  0.00     0.190 HD
ATOM     18  C   UNL     1       0.686   0.029   2.019  1.00  0.00     0.067 C 
ENDBRANCH   8  11
ENDBRANCH   6   8
ENDBRANCH   5   6
BRANCH   5  19
ATOM     19  C   UNL     1       4.592  -3.212   0.891  1.00  0.00     0.012 C 
ATOM     20  C   UNL     1       5.351  -2.521  -0.253  1.00  0.00     0.009 C 
ATOM     21  C   UNL     1       5.496  -3.189   2.129  1.00  0.00     0.009 C 
ENDBRANCH   5  19
ENDBRANCH   3   5
ENDBRANCH   2   3
ENDBRANCH   1   2
BRANCH   1  22
ATOM     22  C   UNL     1       1.326  -5.080  -2.260  1.00  0.00     0.275 C 
BRANCH  22  23
ATOM     23  O   UNL     1       0.529  -5.512  -1.142  1.00  0.00    -0.458 OA
BRANCH  23  24
ATOM     24  C   UNL     1       1.228  -6.040  -0.115  1.00  0.00     0.338 C 
ATOM     25  O   UNL     1       2.434  -6.195  -0.030  1.00  0.00    -0.246 OA
BRANCH  24  26
ATOM     26  C   UNL     1       0.321  -6.348   0.995  1.00  0.00     0.060 A 
ATOM     27  C   UNL     1       0.098  -5.364   1.953  1.00  0.00     0.016 A 
ATOM     28  C   UNL     1      -0.169  -7.641   1.174  1.00  0.00     0.016 A 
ATOM     29  C   UNL     1      -0.529  -5.693   3.150  1.00  0.00     0.010 A 
ATOM     30  C   UNL     1      -0.878  -7.947   2.340  1.00  0.00     0.010 A 
ATOM     31  C   UNL     1      -1.033  -6.985   3.356  1.00  0.00    -0.014 A 
BRANCH  31  32
ATOM     32  C   UNL     1      -1.703  -7.327   4.638  1.00  0.00     0.031 A 
ATOM     33  C   UNL     1      -1.123  -8.377   5.547  1.00  0.00     0.074 A 
ATOM     34  C   UNL     1      -2.829  -6.682   5.000  1.00  0.00     0.049 A 
ATOM     35  N   UNL     1      -1.636  -8.909   6.628  1.00  0.00    -0.248 NA
ATOM     36  C   UNL     1       0.201  -8.911   5.187  1.00  0.00     0.031 C 
ATOM     37  C   UNL     1      -3.481  -5.618   4.234  1.00  0.00     0.029 A 
ATOM     38  N   UNL     1      -3.620  -6.820   6.113  1.00  0.00    -0.354 N 
ATOM     39  C   UNL     1      -0.728  -9.874   7.045  1.00  0.00     0.074 A 
ATOM     40  C   UNL     1       0.375  -9.851   6.107  1.00  0.00     0.031 C 
ATOM     41  C   UNL     1      -4.549  -5.176   4.915  1.00  0.00     0.029 A 
ATOM     42  C   UNL     1      -4.696  -5.967   6.132  1.00  0.00     0.049 A 
ATOM     43  H   UNL     1      -3.434  -7.469   6.830  1.00  0.00     0.167 HD
ATOM     44  C   UNL     1      -0.808 -10.705   8.111  1.00  0.00     0.037 A 
ATOM     45  C   UNL     1      -5.705  -5.851   7.014  1.00  0.00     0.037 A 
ATOM     46  C   UNL     1      -1.867 -10.681   9.086  1.00  0.00     0.049 A 
ATOM     47  C   UNL     1      -5.761  -6.772   8.196  1.00  0.00     0.074 A 
ATOM     48  C   UNL     1      -2.019 -11.470  10.213  1.00  0.00     0.029 A 
ATOM     49  N   UNL     1      -2.940  -9.805   9.062  1.00  0.00    -0.354 N 
ATOM     50  N   UNL     1      -4.924  -7.717   8.546  1.00  0.00    -0.248 NA
ATOM     51  C   UNL     1      -6.915  -6.626   9.095  1.00  0.00     0.031 C 
ATOM     52  C   UNL     1      -3.196 -11.082  10.864  1.00  0.00     0.029 A 
ATOM     53  C   UNL     1      -3.763 -10.039  10.151  1.00  0.00     0.049 A 
ATOM     54  H   UNL     1      -3.095  -9.119   8.373  1.00  0.00     0.167 HD
ATOM     55  C   UNL     1      -5.446  -8.277   9.703  1.00  0.00     0.074 A 
ATOM     56  C   UNL     1      -6.663  -7.553  10.009  1.00  0.00     0.031 C 
ATOM     57  C   UNL     1      -4.967  -9.307  10.439  1.00  0.00     0.037 A 
BRANCH  44  58
ATOM     58  C   UNL     1       0.266 -11.735   8.270  1.00  0.00     0.057 A 
ATOM     59  C   UNL     1       1.521 -11.423   8.802  1.00  0.00     0.134 A 
ATOM     60  C   UNL     1       0.016 -13.072   7.936  1.00  0.00     0.134 A 
ATOM     61  F   UNL     1       1.825 -10.158   9.130  1.00  0.00    -0.206 F 
ATOM     62  C   UNL     1       2.496 -12.405   8.990  1.00  0.00     0.040 A 
ATOM     63  C   UNL     1       0.976 -14.066   8.133  1.00  0.00     0.040 A 
ATOM     64  F   UNL     1      -1.171 -13.435   7.425  1.00  0.00    -0.206 F 
ATOM     65  C   UNL     1       2.221 -13.732   8.661  1.00  0.00     0.006 A 
ENDBRANCH  44  58
BRANCH  45  66
ATOM     66  C   UNL     1      -6.766  -4.840   6.791  1.00  0.00     0.057 A 
ATOM     67  C   UNL     1      -6.850  -3.695   7.591  1.00  0.00     0.134 A 
ATOM     68  C   UNL     1      -7.716  -4.994   5.775  1.00  0.00     0.134 A 
ATOM     69  F   UNL     1      -5.981  -3.507   8.595  1.00  0.00    -0.206 F 
ATOM     70  C   UNL     1      -7.848  -2.741   7.392  1.00  0.00     0.040 A 
ATOM     71  C   UNL     1      -8.706  -4.037   5.552  1.00  0.00     0.040 A 
ATOM     72  F   UNL     1      -7.684  -6.071   4.976  1.00  0.00    -0.206 F 
ATOM     73  C   UNL     1      -8.777  -2.908   6.365  1.00  0.00     0.006 A 
ENDBRANCH  45  66
BRANCH  57  74
ATOM     74  C   UNL     1      -5.757  -9.699  11.647  1.00  0.00     0.057 A 
ATOM     75  C   UNL     1      -6.916 -10.476  11.538  1.00  0.00     0.134 A 
ATOM     76  C   UNL     1      -5.343  -9.318  12.929  1.00  0.00     0.134 A 
ATOM     77  F   UNL     1      -7.367 -10.858  10.334  1.00  0.00    -0.206 F 
ATOM     78  C   UNL     1      -7.647 -10.850  12.665  1.00  0.00     0.040 A 
ATOM     79  C   UNL     1      -6.059  -9.698  14.064  1.00  0.00     0.040 A 
ATOM     80  F   UNL     1      -4.239  -8.575  13.096  1.00  0.00    -0.206 F 
ATOM     81  C   UNL     1      -7.217 -10.464  13.933  1.00  0.00     0.006 A 
ENDBRANCH  57  74
ENDBRANCH  31  32
ENDBRANCH  24  26
ENDBRANCH  23  24
ENDBRANCH  22  23
ENDBRANCH   1  22
TORSDOF 15
