REMARK SMILES Cc1ccc(NC(=O)C[NH+]2CCC(C(=O)OCCOC(=O)c3ccc(-c4c5nc(c(-c6c(F)cccc6F)c6ccc([nH]6)c(-c6c(F)cccc6F)c6nc(c(-c7c(F)cccc7F)c7ccc4[nH]7)C=C6)C=C5)cc3)CC2)cc1Cl
REMARK SMILES IDX 17 1 16 2 14 3 15 4 13 5 10 6 11 7 77 8 12 10 76 11 9 12
REMARK SMILES IDX 7 13 6 14 8 16 5 17 1 18 2 19 3 20 79 21 4 22 78 23 80 24
REMARK SMILES IDX 18 25 19 26 20 27 21 28 22 29 23 30 75 31 24 32 74 33 25 34
REMARK SMILES IDX 26 35 27 36 68 37 28 38 73 39 67 40 69 41 29 42 72 43 66 44
REMARK SMILES IDX 65 45 30 47 56 48 39 49 55 50 40 51 43 52 54 53 70 54 41 55
REMARK SMILES IDX 42 56 53 58 71 59 44 60 31 61 32 62 37 63 33 64 34 65 36 66
REMARK SMILES IDX 38 67 35 68 57 69 58 70 63 71 59 72 60 73 62 74 64 75 61 76
REMARK SMILES IDX 45 77 46 78 51 79 47 80 48 81 50 82 52 83 49 84
REMARK H PARENT 10 9 6 15 69 46 43 57
REMARK Flexibility Score: inf
ROOT
ATOM      1  C   UNL     1       2.103  -1.023  -6.614  1.00  0.00     0.274 C 
ENDROOT
BRANCH   1   2
ATOM      2  O   UNL     1       1.650  -1.751  -5.457  1.00  0.00    -0.462 OA
BRANCH   2   3
ATOM      3  C   UNL     1       0.591  -1.198  -4.820  1.00  0.00     0.309 C 
ATOM      4  O   UNL     1       0.039  -0.152  -5.151  1.00  0.00    -0.252 OA
BRANCH   3   5
ATOM      5  C   UNL     1       0.165  -1.949  -3.588  1.00  0.00     0.110 C 
ATOM      6  N   UNL     1       0.121  -3.499  -1.142  1.00  0.00    -0.327 N 
ATOM      7  C   UNL     1      -0.531  -4.010  -2.355  1.00  0.00     0.263 C 
ATOM      8  C   UNL     1       0.360  -2.060  -1.148  1.00  0.00     0.263 C 
ATOM      9  H   UNL     1       1.047  -3.926  -1.166  1.00  0.00     0.348 HD
ATOM     10  C   UNL     1       0.120  -3.473  -3.647  1.00  0.00     0.077 C 
ATOM     11  C   UNL     1       1.026  -1.537  -2.408  1.00  0.00     0.077 C 
BRANCH   6  12
ATOM     12  C   UNL     1      -0.517  -3.965   0.120  1.00  0.00     0.363 C 
BRANCH  12  13
ATOM     13  C   UNL     1      -2.023  -3.681   0.277  1.00  0.00     0.279 C 
ATOM     14  N   UNL     1      -2.555  -2.484   0.677  1.00  0.00    -0.321 N 
ATOM     15  H   UNL     1      -3.535  -2.494   0.770  1.00  0.00     0.170 HD
ATOM     16  O   UNL     1      -2.842  -4.561  -0.027  1.00  0.00    -0.268 OA
BRANCH  14  17
ATOM     17  C   UNL     1      -1.968  -1.246   0.981  1.00  0.00     0.042 A 
ATOM     18  C   UNL     1       0.141   2.488   0.626  1.00  0.00     0.046 C 
ATOM     19  C   UNL     1      -0.639   1.235   0.918  1.00  0.00    -0.032 A 
ATOM     20  C   UNL     1      -1.939   1.110   0.410  1.00  0.00     0.007 A 
ATOM     21  C   UNL     1      -0.075   0.135   1.579  1.00  0.00     0.046 A 
ATOM     22  C   UNL     1      -2.610  -0.115   0.468  1.00  0.00     0.026 A 
ATOM     23  C   UNL     1      -0.747  -1.094   1.631  1.00  0.00     0.047 A 
ATOM     24  Cl  UNL     1       1.515   0.204   2.254  1.00  0.00    -0.084 Cl
ENDBRANCH  14  17
ENDBRANCH  12  13
ENDBRANCH   6  12
ENDBRANCH   3   5
ENDBRANCH   2   3
ENDBRANCH   1   2
BRANCH   1  25
ATOM     25  C   UNL     1       1.488  -1.557  -7.910  1.00  0.00     0.275 C 
BRANCH  25  26
ATOM     26  O   UNL     1       0.059  -1.386  -7.953  1.00  0.00    -0.458 OA
BRANCH  26  27
ATOM     27  C   UNL     1      -0.656  -2.440  -7.499  1.00  0.00     0.338 C 
ATOM     28  O   UNL     1      -0.225  -3.509  -7.092  1.00  0.00    -0.246 OA
BRANCH  27  29
ATOM     29  C   UNL     1      -2.086  -2.103  -7.457  1.00  0.00     0.060 A 
ATOM     30  C   UNL     1      -2.717  -2.019  -6.212  1.00  0.00     0.016 A 
ATOM     31  C   UNL     1      -2.825  -1.991  -8.635  1.00  0.00     0.016 A 
ATOM     32  C   UNL     1      -4.095  -1.834  -6.136  1.00  0.00     0.010 A 
ATOM     33  C   UNL     1      -4.208  -1.804  -8.559  1.00  0.00     0.010 A 
ATOM     34  C   UNL     1      -4.852  -1.740  -7.310  1.00  0.00    -0.014 A 
BRANCH  34  35
ATOM     35  C   UNL     1      -6.329  -1.643  -7.234  1.00  0.00     0.031 A 
ATOM     36  C   UNL     1      -7.171  -2.842  -7.560  1.00  0.00     0.074 A 
ATOM     37  C   UNL     1      -6.911  -0.486  -6.870  1.00  0.00     0.049 A 
ATOM     38  N   UNL     1      -8.471  -2.933  -7.677  1.00  0.00    -0.248 NA
ATOM     39  C   UNL     1      -6.453  -4.106  -7.785  1.00  0.00     0.031 C 
ATOM     40  C   UNL     1      -6.202   0.732  -6.479  1.00  0.00     0.029 A 
ATOM     41  N   UNL     1      -8.237  -0.147  -6.780  1.00  0.00    -0.354 N 
ATOM     42  C   UNL     1      -8.726  -4.254  -8.020  1.00  0.00     0.074 A 
ATOM     43  C   UNL     1      -7.447  -4.928  -8.093  1.00  0.00     0.031 C 
ATOM     44  C   UNL     1      -7.101   1.688  -6.194  1.00  0.00     0.029 A 
ATOM     45  C   UNL     1      -8.444   1.164  -6.429  1.00  0.00     0.049 A 
ATOM     46  H   UNL     1      -8.970  -0.783  -6.950  1.00  0.00     0.167 HD
ATOM     47  C   UNL     1      -9.920  -4.848  -8.255  1.00  0.00     0.037 A 
ATOM     48  C   UNL     1      -9.587   1.870  -6.341  1.00  0.00     0.037 A 
ATOM     49  C   UNL     1     -11.192  -4.183  -8.156  1.00  0.00     0.049 A 
ATOM     50  C   UNL     1     -10.895   1.201  -6.659  1.00  0.00     0.074 A 
ATOM     51  C   UNL     1     -12.458  -4.707  -8.356  1.00  0.00     0.029 A 
ATOM     52  N   UNL     1     -11.359  -2.848  -7.825  1.00  0.00    -0.354 N 
ATOM     53  N   UNL     1     -11.126  -0.043  -7.001  1.00  0.00    -0.248 NA
ATOM     54  C   UNL     1     -12.101   2.039  -6.593  1.00  0.00     0.031 C 
ATOM     55  C   UNL     1     -13.390  -3.678  -8.175  1.00  0.00     0.029 A 
ATOM     56  C   UNL     1     -12.706  -2.524  -7.831  1.00  0.00     0.049 A 
ATOM     57  H   UNL     1     -10.628  -2.222  -7.616  1.00  0.00     0.167 HD
ATOM     58  C   UNL     1     -12.500  -0.143  -7.173  1.00  0.00     0.074 A 
ATOM     59  C   UNL     1     -13.054   1.165  -6.886  1.00  0.00     0.031 C 
ATOM     60  C   UNL     1     -13.238  -1.219  -7.537  1.00  0.00     0.037 A 
BRANCH  47  61
ATOM     61  C   UNL     1      -9.903  -6.286  -8.676  1.00  0.00     0.057 A 
ATOM     62  C   UNL     1      -9.666  -7.322  -7.764  1.00  0.00     0.134 A 
ATOM     63  C   UNL     1     -10.161  -6.638 -10.007  1.00  0.00     0.134 A 
ATOM     64  F   UNL     1      -9.399  -7.048  -6.479  1.00  0.00    -0.206 F 
ATOM     65  C   UNL     1      -9.671  -8.659  -8.166  1.00  0.00     0.040 A 
ATOM     66  C   UNL     1     -10.187  -7.972 -10.416  1.00  0.00     0.040 A 
ATOM     67  F   UNL     1     -10.398  -5.692 -10.928  1.00  0.00    -0.206 F 
ATOM     68  C   UNL     1      -9.937  -8.987  -9.495  1.00  0.00     0.006 A 
ENDBRANCH  47  61
BRANCH  48  69
ATOM     69  C   UNL     1      -9.546   3.303  -5.963  1.00  0.00     0.057 A 
ATOM     70  C   UNL     1     -10.019   3.735  -4.719  1.00  0.00     0.134 A 
ATOM     71  C   UNL     1      -9.046   4.274  -6.838  1.00  0.00     0.134 A 
ATOM     72  F   UNL     1     -10.532   2.852  -3.849  1.00  0.00    -0.206 F 
ATOM     73  C   UNL     1     -10.007   5.084  -4.363  1.00  0.00     0.040 A 
ATOM     74  C   UNL     1      -9.007   5.623  -6.487  1.00  0.00     0.040 A 
ATOM     75  F   UNL     1      -8.580   3.921  -8.046  1.00  0.00    -0.206 F 
ATOM     76  C   UNL     1      -9.494   6.032  -5.247  1.00  0.00     0.006 A 
ENDBRANCH  48  69
BRANCH  60  77
ATOM     77  C   UNL     1     -14.722  -1.034  -7.616  1.00  0.00     0.057 A 
ATOM     78  C   UNL     1     -15.323  -0.367  -8.690  1.00  0.00     0.134 A 
ATOM     79  C   UNL     1     -15.560  -1.556  -6.624  1.00  0.00     0.134 A 
ATOM     80  F   UNL     1     -14.571   0.169  -9.664  1.00  0.00    -0.206 F 
ATOM     81  C   UNL     1     -16.708  -0.212  -8.767  1.00  0.00     0.040 A 
ATOM     82  C   UNL     1     -16.947  -1.424  -6.699  1.00  0.00     0.040 A 
ATOM     83  F   UNL     1     -15.045  -2.210  -5.572  1.00  0.00    -0.206 F 
ATOM     84  C   UNL     1     -17.524  -0.747  -7.771  1.00  0.00     0.006 A 
ENDBRANCH  60  77
ENDBRANCH  34  35
ENDBRANCH  27  29
ENDBRANCH  26  27
ENDBRANCH  25  26
ENDBRANCH   1  25
TORSDOF 14
