REMARK SMILES O=C(OCCOC(=O)[C@@H]1CCCN1S(=O)(=O)c1ccc2[nH]c(=O)c(=O)[nH]c2c1)c1ccc(-c2c3nc(c(-c4c(F)cccc4F)c4ccc([nH]4)c(-c4c(F)cccc4F)c4nc(c(-c5c(F)cccc5F)c5ccc2[nH]5)C=C4)C=C3)cc1
REMARK SMILES IDX 4 1 3 2 2 3 1 4 29 5 30 6 82 7 31 8 81 9 32 10 33 11 34 12
REMARK SMILES IDX 75 13 35 14 80 15 74 16 76 17 36 18 79 19 73 20 72 21 37 23
REMARK SMILES IDX 63 24 46 25 62 26 47 27 50 28 61 29 77 30 48 31 49 32 60 34
REMARK SMILES IDX 78 35 51 36 38 37 39 38 44 39 40 40 41 41 43 42 45 43 42 44
REMARK SMILES IDX 64 45 65 46 70 47 66 48 67 49 69 50 71 51 68 52 52 53 53 54
REMARK SMILES IDX 58 55 54 56 55 57 57 58 59 59 56 60 5 61 6 62 7 63 8 64 9 65
REMARK SMILES IDX 10 66 13 67 11 68 12 69 14 70 15 71 16 72 17 73 18 74 28 75
REMARK SMILES IDX 19 76 27 77 20 78 26 79 21 80 24 81 22 83 25 85 23 86
REMARK H PARENT 76 22 50 33 26 82 21 84
REMARK Flexibility Score: inf
ROOT
ATOM      1  C   UNL     1       3.502   1.811  -2.270  1.00  0.00     0.275 C 
ENDROOT
BRANCH   1   2
ATOM      2  O   UNL     1       2.406   1.012  -1.759  1.00  0.00    -0.458 OA
BRANCH   2   3
ATOM      3  C   UNL     1       2.236   0.334  -0.602  1.00  0.00     0.338 C 
ATOM      4  O   UNL     1       1.293  -0.443  -0.485  1.00  0.00    -0.246 OA
BRANCH   3   5
ATOM      5  C   UNL     1       3.097   0.506   0.615  1.00  0.00     0.060 A 
ATOM      6  C   UNL     1       4.505   1.634   0.802  1.00  0.00     0.016 A 
ATOM      7  C   UNL     1       2.523  -0.404   2.065  1.00  0.00     0.016 A 
ATOM      8  C   UNL     1       5.267   1.897   2.422  1.00  0.00     0.010 A 
ATOM      9  C   UNL     1       3.326  -0.192   3.658  1.00  0.00     0.010 A 
ATOM     10  C   UNL     1       4.711   0.978   3.858  1.00  0.00    -0.014 A 
BRANCH  10  11
ATOM     11  C   UNL     1       5.403   1.254   5.183  1.00  0.00     0.031 A 
ATOM     12  C   UNL     1       5.861   0.174   6.143  1.00  0.00     0.074 A 
ATOM     13  C   UNL     1       5.654   2.534   5.551  1.00  0.00     0.049 A 
ATOM     14  N   UNL     1       6.693   0.287   7.158  1.00  0.00    -0.248 NA
ATOM     15  C   UNL     1       5.353  -1.188   5.967  1.00  0.00     0.031 C 
ATOM     16  C   UNL     1       5.248   3.719   4.808  1.00  0.00     0.029 A 
ATOM     17  N   UNL     1       6.299   3.070   6.646  1.00  0.00    -0.354 N 
ATOM     18  C   UNL     1       6.885  -1.001   7.646  1.00  0.00     0.074 A 
ATOM     19  C   UNL     1       6.009  -1.866   6.896  1.00  0.00     0.031 C 
ATOM     20  C   UNL     1       5.641   4.829   5.437  1.00  0.00     0.029 A 
ATOM     21  C   UNL     1       6.335   4.447   6.654  1.00  0.00     0.049 A 
ATOM     22  H   UNL     1       6.697   2.519   7.358  1.00  0.00     0.167 HD
ATOM     23  C   UNL     1       7.728  -1.447   8.609  1.00  0.00     0.037 A 
ATOM     24  C   UNL     1       6.868   5.336   7.513  1.00  0.00     0.037 A 
ATOM     25  C   UNL     1       8.501  -0.602   9.477  1.00  0.00     0.049 A 
ATOM     26  C   UNL     1       7.667   4.840   8.673  1.00  0.00     0.074 A 
ATOM     27  C   UNL     1       9.368  -0.965  10.493  1.00  0.00     0.029 A 
ATOM     28  N   UNL     1       8.446   0.782   9.473  1.00  0.00    -0.354 N 
ATOM     29  N   UNL     1       7.962   3.606   8.993  1.00  0.00    -0.248 NA
ATOM     30  C   UNL     1       8.227   5.854   9.575  1.00  0.00     0.031 C 
ATOM     31  C   UNL     1       9.784   0.201  11.150  1.00  0.00     0.029 A 
ATOM     32  C   UNL     1       9.210   1.288  10.512  1.00  0.00     0.049 A 
ATOM     33  H   UNL     1       7.939   1.325   8.828  1.00  0.00     0.167 HD
ATOM     34  C   UNL     1       8.766   3.692  10.119  1.00  0.00     0.074 A 
ATOM     35  C   UNL     1       8.914   5.101  10.424  1.00  0.00     0.031 C 
ATOM     36  C   UNL     1       9.336   2.687  10.825  1.00  0.00     0.037 A 
BRANCH  23  37
ATOM     37  C   UNL     1       7.841  -2.936   8.764  1.00  0.00     0.057 A 
ATOM     38  C   UNL     1       8.552  -3.705   7.830  1.00  0.00     0.134 A 
ATOM     39  C   UNL     1       7.235  -3.609   9.829  1.00  0.00     0.134 A 
ATOM     40  F   UNL     1       9.147  -3.120   6.780  1.00  0.00    -0.206 F 
ATOM     41  C   UNL     1       8.634  -5.094   7.939  1.00  0.00     0.040 A 
ATOM     42  C   UNL     1       7.323  -4.998   9.957  1.00  0.00     0.040 A 
ATOM     43  F   UNL     1       6.538  -2.933  10.754  1.00  0.00    -0.206 F 
ATOM     44  C   UNL     1       8.019  -5.744   9.006  1.00  0.00     0.006 A 
ENDBRANCH  23  37
BRANCH  24  45
ATOM     45  C   UNL     1       6.686   6.790   7.260  1.00  0.00     0.057 A 
ATOM     46  C   UNL     1       7.738   7.587   6.798  1.00  0.00     0.134 A 
ATOM     47  C   UNL     1       5.432   7.397   7.409  1.00  0.00     0.134 A 
ATOM     48  F   UNL     1       8.963   7.065   6.643  1.00  0.00    -0.206 F 
ATOM     49  C   UNL     1       7.551   8.936   6.491  1.00  0.00     0.040 A 
ATOM     50  C   UNL     1       5.226   8.739   7.086  1.00  0.00     0.040 A 
ATOM     51  F   UNL     1       4.380   6.682   7.832  1.00  0.00    -0.206 F 
ATOM     52  C   UNL     1       6.289   9.513   6.625  1.00  0.00     0.006 A 
ENDBRANCH  24  45
BRANCH  36  53
ATOM     53  C   UNL     1      10.171   3.082  12.002  1.00  0.00     0.057 A 
ATOM     54  C   UNL     1       9.588   3.524  13.196  1.00  0.00     0.134 A 
ATOM     55  C   UNL     1      11.567   3.011  11.944  1.00  0.00     0.134 A 
ATOM     56  F   UNL     1       8.255   3.631  13.304  1.00  0.00    -0.206 F 
ATOM     57  C   UNL     1      10.370   3.904  14.287  1.00  0.00     0.040 A 
ATOM     58  C   UNL     1      12.358   3.369  13.035  1.00  0.00     0.040 A 
ATOM     59  F   UNL     1      12.182   2.595  10.827  1.00  0.00    -0.206 F 
ATOM     60  C   UNL     1      11.759   3.822  14.209  1.00  0.00     0.006 A 
ENDBRANCH  36  53
ENDBRANCH  10  11
ENDBRANCH   3   5
ENDBRANCH   2   3
ENDBRANCH   1   2
BRANCH   1  61
ATOM     61  C   UNL     1       3.359   3.306  -1.968  1.00  0.00     0.274 C 
BRANCH  61  62
ATOM     62  O   UNL     1       3.407   3.523  -0.550  1.00  0.00    -0.461 OA
BRANCH  62  63
ATOM     63  C   UNL     1       2.251   3.213   0.078  1.00  0.00     0.324 C 
ATOM     64  O   UNL     1       1.152   3.368  -0.450  1.00  0.00    -0.250 OA
BRANCH  63  65
ATOM     65  C   UNL     1       2.389   2.657   1.474  1.00  0.00     0.183 C 
ATOM     66  C   UNL     1       2.412   3.872   2.395  1.00  0.00     0.034 C 
ATOM     67  N   UNL     1       3.284   1.454   2.408  1.00  0.00    -0.184 NA
ATOM     68  C   UNL     1       1.975   3.355   3.740  1.00  0.00     0.019 C 
ATOM     69  C   UNL     1       2.323   1.861   3.842  1.00  0.00     0.103 C 
BRANCH  67  70
ATOM     70  S   UNL     1       4.875  -0.361   1.908  1.00  0.00     0.243 S 
ATOM     71  O   UNL     1       6.121   0.081   1.249  1.00  0.00    -0.207 OA
ATOM     72  O   UNL     1       5.163  -1.283   3.015  1.00  0.00    -0.207 OA
BRANCH  70  73
ATOM     73  C   UNL     1       4.461  -1.720   0.545  1.00  0.00     0.084 A 
ATOM     74  C   UNL     1       4.619  -1.372  -0.808  1.00  0.00     0.024 A 
ATOM     75  C   UNL     1       4.658  -3.071   0.893  1.00  0.00     0.050 A 
ATOM     76  C   UNL     1       4.634  -2.320  -1.824  1.00  0.00     0.030 A 
ATOM     77  C   UNL     1       4.910  -4.009  -0.127  1.00  0.00     0.066 A 
ATOM     78  C   UNL     1       4.814  -3.643  -1.476  1.00  0.00     0.065 A 
ATOM     79  N   UNL     1       5.399  -5.284   0.185  1.00  0.00    -0.316 N 
ATOM     80  N   UNL     1       5.028  -4.576  -2.489  1.00  0.00    -0.316 N 
ATOM     81  C   UNL     1       5.790  -6.200  -0.774  1.00  0.00     0.314 A 
ATOM     82  H   UNL     1       5.469  -5.540   1.133  1.00  0.00     0.170 HD
ATOM     83  C   UNL     1       5.479  -5.850  -2.250  1.00  0.00     0.314 A 
ATOM     84  H   UNL     1       4.847  -4.308  -3.420  1.00  0.00     0.170 HD
ATOM     85  O   UNL     1       6.369  -7.238  -0.481  1.00  0.00    -0.263 OA
ATOM     86  O   UNL     1       5.655  -6.650  -3.158  1.00  0.00    -0.263 OA
ENDBRANCH  70  73
ENDBRANCH  67  70
ENDBRANCH  63  65
ENDBRANCH  62  63
ENDBRANCH  61  62
ENDBRANCH   1  61
TORSDOF 13
