REMARK SMILES CC(C)[C@H](NC(=O)c1cc2cc(Cl)ccc2n1C)C(=O)N[C@@H](C(=O)OCCOC(=O)c1ccc(-c2c3nc(c(-c4c(F)cccc4F)c4ccc([nH]4)c(-c4c(F)cccc4F)c4nc(c(-c5c(F)cccc5F)c5ccc2[nH]5)C=C4)C=C3)cc1)c1ccccc1
REMARK SMILES IDX 26 1 25 2 23 3 24 4 22 5 21 6 19 7 20 8 4 10 2 11 1 12 3 13
REMARK SMILES IDX 5 14 6 15 7 17 8 18 9 19 17 20 10 21 16 22 18 23 11 24 15 25
REMARK SMILES IDX 12 26 14 27 13 28 85 29 86 30 90 31 87 32 89 33 88 34 27 35
REMARK SMILES IDX 28 36 29 37 30 38 31 39 32 40 84 41 33 42 83 43 34 44 35 45
REMARK SMILES IDX 36 46 77 47 37 48 82 49 76 50 78 51 38 52 81 53 75 54 74 55
REMARK SMILES IDX 39 57 65 58 48 59 64 60 49 61 52 62 63 63 79 64 50 65 51 66
REMARK SMILES IDX 62 68 80 69 53 70 40 71 41 72 46 73 42 74 43 75 45 76 47 77
REMARK SMILES IDX 44 78 66 79 67 80 72 81 68 82 69 83 71 84 73 85 70 86 54 87
REMARK SMILES IDX 55 88 60 89 56 90 57 91 59 92 61 93 58 94
REMARK H PARENT 21 9 5 16 78 56 52 67
REMARK Flexibility Score: inf
ROOT
ATOM      1  C   UNL     1       2.364   4.703   2.678  1.00  0.00     0.274 C 
ENDROOT
BRANCH   1   2
ATOM      2  O   UNL     1       0.948   4.424   2.490  1.00  0.00    -0.460 OA
BRANCH   2   3
ATOM      3  C   UNL     1       0.603   3.104   2.397  1.00  0.00     0.333 C 
ATOM      4  O   UNL     1       1.398   2.179   2.537  1.00  0.00    -0.249 OA
BRANCH   3   5
ATOM      5  C   UNL     1      -0.902   2.861   2.181  1.00  0.00     0.223 C 
BRANCH   5   6
ATOM      6  N   UNL     1      -1.415   3.651   1.081  1.00  0.00    -0.337 N 
ATOM      7  C   UNL     1      -1.815   3.186  -0.136  1.00  0.00     0.243 C 
ATOM      8  O   UNL     1      -2.204   4.004  -0.972  1.00  0.00    -0.273 OA
ATOM      9  H   UNL     1      -1.482   4.622   1.228  1.00  0.00     0.164 HD
BRANCH   7  10
ATOM     10  C   UNL     1      -1.810   1.664  -0.455  1.00  0.00     0.174 C 
BRANCH  10  11
ATOM     11  C   UNL     1      -2.906   0.857   0.295  1.00  0.00     0.015 C 
ATOM     12  C   UNL     1      -4.092   1.644   0.868  1.00  0.00     0.010 C 
ATOM     13  C   UNL     1      -3.500  -0.228  -0.611  1.00  0.00     0.010 C 
ENDBRANCH  10  11
BRANCH  10  14
ATOM     14  N   UNL     1      -0.386   1.200  -0.442  1.00  0.00    -0.339 N 
ATOM     15  C   UNL     1       0.348   0.163   0.088  1.00  0.00     0.268 C 
ATOM     16  H   UNL     1       0.188   1.810  -0.960  1.00  0.00     0.164 HD
ATOM     17  O   UNL     1       1.537   0.099  -0.176  1.00  0.00    -0.268 OA
BRANCH  15  18
ATOM     18  C   UNL     1      -0.324  -0.794   0.919  1.00  0.00     0.107 A 
ATOM     19  C   UNL     1      -0.445  -0.811   2.291  1.00  0.00     0.042 A 
ATOM     20  N   UNL     1      -0.935  -1.946   0.488  1.00  0.00    -0.340 N 
ATOM     21  C   UNL     1      -1.488  -1.719   2.623  1.00  0.00     0.002 A 
ATOM     22  C   UNL     1      -1.841  -2.372   1.442  1.00  0.00     0.048 A 
ATOM     23  C   UNL     1      -0.655  -2.558  -0.790  1.00  0.00     0.150 C 
ATOM     24  C   UNL     1      -2.196  -2.003   3.808  1.00  0.00     0.030 A 
ATOM     25  C   UNL     1      -2.917  -3.271   1.393  1.00  0.00     0.028 A 
ATOM     26  C   UNL     1      -3.253  -2.908   3.770  1.00  0.00     0.041 A 
ATOM     27  C   UNL     1      -3.620  -3.522   2.578  1.00  0.00     0.023 A 
ATOM     28  Cl  UNL     1      -4.121  -3.248   5.218  1.00  0.00    -0.084 Cl
ENDBRANCH  15  18
ENDBRANCH  10  14
ENDBRANCH   7  10
ENDBRANCH   5   6
BRANCH   5  29
ATOM     29  C   UNL     1      -1.878   2.869   3.361  1.00  0.00    -0.014 A 
ATOM     30  C   UNL     1      -2.460   1.650   3.768  1.00  0.00     0.006 A 
ATOM     31  C   UNL     1      -2.353   4.025   3.985  1.00  0.00     0.006 A 
ATOM     32  C   UNL     1      -3.486   1.564   4.706  1.00  0.00     0.000 A 
ATOM     33  C   UNL     1      -3.383   3.946   4.941  1.00  0.00     0.000 A 
ATOM     34  C   UNL     1      -3.954   2.722   5.293  1.00  0.00     0.000 A 
ENDBRANCH   5  29
ENDBRANCH   3   5
ENDBRANCH   2   3
ENDBRANCH   1   2
BRANCH   1  35
ATOM     35  C   UNL     1       2.604   5.697   3.829  1.00  0.00     0.275 C 
BRANCH  35  36
ATOM     36  O   UNL     1       2.738   4.964   5.067  1.00  0.00    -0.458 OA
BRANCH  36  37
ATOM     37  C   UNL     1       1.702   5.036   5.941  1.00  0.00     0.338 C 
ATOM     38  O   UNL     1       0.846   5.901   6.007  1.00  0.00    -0.246 OA
BRANCH  37  39
ATOM     39  C   UNL     1       1.498   3.644   6.376  1.00  0.00     0.060 A 
ATOM     40  C   UNL     1       2.024   2.993   7.482  1.00  0.00     0.016 A 
ATOM     41  C   UNL     1       0.706   2.943   5.485  1.00  0.00     0.016 A 
ATOM     42  C   UNL     1       1.788   1.606   7.621  1.00  0.00     0.010 A 
ATOM     43  C   UNL     1       0.486   1.591   5.602  1.00  0.00     0.010 A 
ATOM     44  C   UNL     1       1.050   0.894   6.650  1.00  0.00    -0.014 A 
BRANCH  44  45
ATOM     45  C   UNL     1       0.557  -0.483   6.807  1.00  0.00     0.031 A 
ATOM     46  C   UNL     1      -0.470  -0.592   7.864  1.00  0.00     0.074 A 
ATOM     47  C   UNL     1       0.735  -1.531   5.963  1.00  0.00     0.049 A 
ATOM     48  N   UNL     1      -0.286  -1.088   9.037  1.00  0.00    -0.248 NA
ATOM     49  C   UNL     1      -1.793   0.019   7.676  1.00  0.00     0.031 C 
ATOM     50  C   UNL     1       1.501  -1.563   4.716  1.00  0.00     0.029 A 
ATOM     51  N   UNL     1       0.205  -2.805   6.016  1.00  0.00    -0.354 N 
ATOM     52  C   UNL     1      -1.529  -1.083   9.646  1.00  0.00     0.074 A 
ATOM     53  C   UNL     1      -2.363  -0.212   8.862  1.00  0.00     0.031 C 
ATOM     54  C   UNL     1       1.283  -2.736   4.067  1.00  0.00     0.029 A 
ATOM     55  C   UNL     1       0.456  -3.607   4.886  1.00  0.00     0.049 A 
ATOM     56  H   UNL     1      -0.312  -3.129   6.789  1.00  0.00     0.167 HD
ATOM     57  C   UNL     1      -1.826  -2.024  10.580  1.00  0.00     0.037 A 
ATOM     58  C   UNL     1       0.017  -4.884   4.674  1.00  0.00     0.037 A 
ATOM     59  C   UNL     1      -0.648  -2.796  10.913  1.00  0.00     0.049 A 
ATOM     60  C   UNL     1      -0.033  -5.479   6.027  1.00  0.00     0.074 A 
ATOM     61  C   UNL     1       0.527  -2.578  11.601  1.00  0.00     0.029 A 
ATOM     62  N   UNL     1      -0.440  -3.878  10.098  1.00  0.00    -0.354 N 
ATOM     63  N   UNL     1       1.043  -5.736   6.716  1.00  0.00    -0.248 NA
ATOM     64  C   UNL     1      -1.294  -5.628   6.751  1.00  0.00     0.031 C 
ATOM     65  C   UNL     1       1.501  -3.455  11.032  1.00  0.00     0.029 A 
ATOM     66  C   UNL     1       0.892  -4.204  10.032  1.00  0.00     0.049 A 
ATOM     67  H   UNL     1      -1.155  -4.360   9.622  1.00  0.00     0.167 HD
ATOM     68  C   UNL     1       0.624  -5.603   8.018  1.00  0.00     0.074 A 
ATOM     69  C   UNL     1      -0.816  -5.805   7.985  1.00  0.00     0.031 C 
ATOM     70  C   UNL     1       1.416  -4.970   8.927  1.00  0.00     0.037 A 
BRANCH  57  71
ATOM     71  C   UNL     1      -3.205  -2.551  10.878  1.00  0.00     0.057 A 
ATOM     72  C   UNL     1      -4.287  -2.537   9.976  1.00  0.00     0.134 A 
ATOM     73  C   UNL     1      -3.385  -3.353  12.018  1.00  0.00     0.134 A 
ATOM     74  F   UNL     1      -4.228  -1.905   8.797  1.00  0.00    -0.206 F 
ATOM     75  C   UNL     1      -5.463  -3.261  10.194  1.00  0.00     0.040 A 
ATOM     76  C   UNL     1      -4.536  -4.124  12.221  1.00  0.00     0.040 A 
ATOM     77  F   UNL     1      -2.418  -3.462  12.942  1.00  0.00    -0.206 F 
ATOM     78  C   UNL     1      -5.580  -4.080  11.306  1.00  0.00     0.006 A 
ENDBRANCH  57  71
BRANCH  58  79
ATOM     79  C   UNL     1      -0.300  -5.756   3.496  1.00  0.00     0.057 A 
ATOM     80  C   UNL     1      -0.297  -5.329   2.167  1.00  0.00     0.134 A 
ATOM     81  C   UNL     1      -0.893  -7.026   3.694  1.00  0.00     0.134 A 
ATOM     82  F   UNL     1       0.349  -4.217   1.802  1.00  0.00    -0.206 F 
ATOM     83  C   UNL     1      -0.987  -6.018   1.148  1.00  0.00     0.040 A 
ATOM     84  C   UNL     1      -1.580  -7.726   2.692  1.00  0.00     0.040 A 
ATOM     85  F   UNL     1      -0.876  -7.624   4.894  1.00  0.00    -0.206 F 
ATOM     86  C   UNL     1      -1.673  -7.195   1.418  1.00  0.00     0.006 A 
ENDBRANCH  58  79
BRANCH  70  87
ATOM     87  C   UNL     1       2.879  -4.919   8.597  1.00  0.00     0.057 A 
ATOM     88  C   UNL     1       3.768  -5.727   9.304  1.00  0.00     0.134 A 
ATOM     89  C   UNL     1       3.431  -4.118   7.588  1.00  0.00     0.134 A 
ATOM     90  F   UNL     1       3.326  -6.494  10.312  1.00  0.00    -0.206 F 
ATOM     91  C   UNL     1       5.133  -5.759   9.001  1.00  0.00     0.040 A 
ATOM     92  C   UNL     1       4.784  -4.165   7.245  1.00  0.00     0.040 A 
ATOM     93  F   UNL     1       2.678  -3.244   6.922  1.00  0.00    -0.206 F 
ATOM     94  C   UNL     1       5.643  -4.992   7.955  1.00  0.00     0.006 A 
ENDBRANCH  70  87
ENDBRANCH  44  45
ENDBRANCH  37  39
ENDBRANCH  36  37
ENDBRANCH  35  36
ENDBRANCH   1  35
TORSDOF 17
