REMARK SMILES CCN(C(=O)C[NH2+][C@@](C)(C(=O)OCCOC(=O)c1ccc(-c2c3nc(c(-c4c(F)cccc4F)c4ccc([nH]4)c(-c4c(F)cccc4F)c4nc(c(-c5c(F)cccc5F)c5ccc2[nH]5)C=C4)C=C3)cc1)C(F)(F)F)C1CC1
REMARK SMILES IDX 12 1 10 2 11 3 8 4 9 5 7 6 6 9 4 10 5 11 3 12 2 13 1 14
REMARK SMILES IDX 76 15 77 16 78 17 72 18 73 19 74 20 75 21 13 22 14 23 15 24
REMARK SMILES IDX 16 25 17 26 18 27 19 28 71 29 20 30 70 31 21 32 22 33 23 34
REMARK SMILES IDX 64 35 24 36 69 37 63 38 65 39 25 40 68 41 62 42 61 43 26 45
REMARK SMILES IDX 52 46 35 47 51 48 36 49 39 50 50 51 66 52 37 53 38 54 49 56
REMARK SMILES IDX 67 57 40 58 27 59 28 60 33 61 29 62 30 63 32 64 34 65 31 66
REMARK SMILES IDX 53 67 54 68 59 69 55 70 56 71 58 72 60 73 57 74 41 75 42 76
REMARK SMILES IDX 47 77 43 78 44 79 46 80 48 81 45 82
REMARK H PARENT 7 7 7 8 65 44 39 55
REMARK Flexibility Score: inf
ROOT
ATOM      1  O   UNL     1      -3.185  -2.181   1.678  1.00  0.00    -0.457 OA
ENDROOT
BRANCH   1   2
ATOM      2  C   UNL     1      -4.035  -2.042   0.613  1.00  0.00     0.377 C 
ATOM      3  O   UNL     1      -5.171  -1.593   0.715  1.00  0.00    -0.244 OA
BRANCH   2   4
ATOM      4  C   UNL     1      -3.444  -2.633  -0.683  1.00  0.00     0.287 C 
ATOM      5  C   UNL     1      -4.032  -4.049  -0.795  1.00  0.00     0.103 C 
BRANCH   4   6
ATOM      6  N   UNL     1      -1.938  -2.691  -0.557  1.00  0.00    -0.317 N 
ATOM      7  H   UNL     1      -1.613  -1.797  -0.190  1.00  0.00     0.347 HD
ATOM      8  H   UNL     1      -1.725  -3.473   0.063  1.00  0.00     0.347 HD
BRANCH   6   9
ATOM      9  C   UNL     1      -1.241  -2.952  -1.823  1.00  0.00     0.363 C 
BRANCH   9  10
ATOM     10  C   UNL     1       0.261  -3.115  -1.569  1.00  0.00     0.277 C 
ATOM     11  O   UNL     1       0.709  -4.240  -1.325  1.00  0.00    -0.268 OA
BRANCH  10  12
ATOM     12  N   UNL     1       1.069  -1.983  -1.661  1.00  0.00    -0.335 N 
BRANCH  12  13
ATOM     13  C   UNL     1       0.588  -0.601  -1.505  1.00  0.00     0.116 C 
ATOM     14  C   UNL     1       0.971  -0.010  -0.154  1.00  0.00     0.027 C 
ENDBRANCH  12  13
BRANCH  12  15
ATOM     15  C   UNL     1       2.504  -2.158  -1.728  1.00  0.00     0.085 C 
ATOM     16  C   UNL     1       3.143  -3.040  -2.772  1.00  0.00     0.027 C 
ATOM     17  C   UNL     1       3.309  -1.556  -2.854  1.00  0.00     0.027 C 
ENDBRANCH  12  15
ENDBRANCH  10  12
ENDBRANCH   9  10
ENDBRANCH   6   9
ENDBRANCH   4   6
BRANCH   4  18
ATOM     18  C   UNL     1      -3.977  -1.767  -1.853  1.00  0.00     0.455 C 
ATOM     19  F   UNL     1      -3.363  -0.562  -1.900  1.00  0.00    -0.164 F 
ATOM     20  F   UNL     1      -3.712  -2.369  -3.045  1.00  0.00    -0.164 F 
ATOM     21  F   UNL     1      -5.307  -1.555  -1.831  1.00  0.00    -0.164 F 
ENDBRANCH   4  18
ENDBRANCH   2   4
ENDBRANCH   1   2
BRANCH   1  22
ATOM     22  C   UNL     1      -3.653  -1.697   2.956  1.00  0.00     0.274 C 
BRANCH  22  23
ATOM     23  C   UNL     1      -3.038  -0.334   3.262  1.00  0.00     0.275 C 
BRANCH  23  24
ATOM     24  O   UNL     1      -3.502   0.605   2.281  1.00  0.00    -0.458 OA
BRANCH  24  25
ATOM     25  C   UNL     1      -2.590   1.488   1.813  1.00  0.00     0.338 C 
ATOM     26  O   UNL     1      -1.446   1.645   2.197  1.00  0.00    -0.246 OA
BRANCH  25  27
ATOM     27  C   UNL     1      -3.211   2.276   0.728  1.00  0.00     0.060 A 
ATOM     28  C   UNL     1      -4.033   1.654  -0.211  1.00  0.00     0.016 A 
ATOM     29  C   UNL     1      -2.938   3.638   0.615  1.00  0.00     0.016 A 
ATOM     30  C   UNL     1      -4.542   2.369  -1.291  1.00  0.00     0.010 A 
ATOM     31  C   UNL     1      -3.531   4.378  -0.414  1.00  0.00     0.010 A 
ATOM     32  C   UNL     1      -4.335   3.749  -1.383  1.00  0.00    -0.014 A 
BRANCH  32  33
ATOM     33  C   UNL     1      -4.973   4.542  -2.468  1.00  0.00     0.031 A 
ATOM     34  C   UNL     1      -4.129   5.350  -3.411  1.00  0.00     0.074 A 
ATOM     35  C   UNL     1      -6.315   4.561  -2.593  1.00  0.00     0.049 A 
ATOM     36  N   UNL     1      -4.492   6.288  -4.248  1.00  0.00    -0.248 NA
ATOM     37  C   UNL     1      -2.683   5.076  -3.404  1.00  0.00     0.031 C 
ATOM     38  C   UNL     1      -7.257   3.785  -1.783  1.00  0.00     0.029 A 
ATOM     39  N   UNL     1      -7.123   5.268  -3.449  1.00  0.00    -0.354 N 
ATOM     40  C   UNL     1      -3.318   6.756  -4.824  1.00  0.00     0.074 A 
ATOM     41  C   UNL     1      -2.230   5.993  -4.249  1.00  0.00     0.031 C 
ATOM     42  C   UNL     1      -8.508   4.038  -2.195  1.00  0.00     0.029 A 
ATOM     43  C   UNL     1      -8.464   5.065  -3.229  1.00  0.00     0.049 A 
ATOM     44  H   UNL     1      -6.776   5.864  -4.152  1.00  0.00     0.167 HD
ATOM     45  C   UNL     1      -3.166   7.738  -5.744  1.00  0.00     0.037 A 
ATOM     46  C   UNL     1      -9.543   5.677  -3.751  1.00  0.00     0.037 A 
ATOM     47  C   UNL     1      -4.255   8.457  -6.352  1.00  0.00     0.049 A 
ATOM     48  C   UNL     1      -9.349   6.802  -4.723  1.00  0.00     0.074 A 
ATOM     49  C   UNL     1      -4.205   9.446  -7.319  1.00  0.00     0.029 A 
ATOM     50  N   UNL     1      -5.595   8.253  -6.058  1.00  0.00    -0.354 N 
ATOM     51  N   UNL     1      -8.233   7.283  -5.213  1.00  0.00    -0.248 NA
ATOM     52  C   UNL     1     -10.560   7.494  -5.186  1.00  0.00     0.031 C 
ATOM     53  C   UNL     1      -5.513   9.864  -7.587  1.00  0.00     0.029 A 
ATOM     54  C   UNL     1      -6.379   9.114  -6.808  1.00  0.00     0.049 A 
ATOM     55  H   UNL     1      -5.938   7.594  -5.411  1.00  0.00     0.167 HD
ATOM     56  C   UNL     1      -8.604   8.340  -6.032  1.00  0.00     0.074 A 
ATOM     57  C   UNL     1     -10.050   8.412  -5.995  1.00  0.00     0.031 C 
ATOM     58  C   UNL     1      -7.815   9.183  -6.741  1.00  0.00     0.037 A 
BRANCH  45  59
ATOM     59  C   UNL     1      -1.768   8.122  -6.125  1.00  0.00     0.057 A 
ATOM     60  C   UNL     1      -0.986   7.334  -6.977  1.00  0.00     0.134 A 
ATOM     61  C   UNL     1      -1.216   9.324  -5.663  1.00  0.00     0.134 A 
ATOM     62  F   UNL     1      -1.452   6.165  -7.441  1.00  0.00    -0.206 F 
ATOM     63  C   UNL     1       0.304   7.723  -7.347  1.00  0.00     0.040 A 
ATOM     64  C   UNL     1       0.064   9.732  -6.041  1.00  0.00     0.040 A 
ATOM     65  F   UNL     1      -1.916  10.125  -4.846  1.00  0.00    -0.206 F 
ATOM     66  C   UNL     1       0.829   8.928  -6.883  1.00  0.00     0.006 A 
ENDBRANCH  45  59
BRANCH  46  67
ATOM     67  C   UNL     1     -10.901   5.285  -3.300  1.00  0.00     0.057 A 
ATOM     68  C   UNL     1     -11.773   4.595  -4.146  1.00  0.00     0.134 A 
ATOM     69  C   UNL     1     -11.350   5.575  -2.004  1.00  0.00     0.134 A 
ATOM     70  F   UNL     1     -11.409   4.313  -5.406  1.00  0.00    -0.206 F 
ATOM     71  C   UNL     1     -13.043   4.202  -3.721  1.00  0.00     0.040 A 
ATOM     72  C   UNL     1     -12.607   5.167  -1.558  1.00  0.00     0.040 A 
ATOM     73  F   UNL     1     -10.559   6.236  -1.146  1.00  0.00    -0.206 F 
ATOM     74  C   UNL     1     -13.459   4.480  -2.420  1.00  0.00     0.006 A 
ENDBRANCH  46  67
BRANCH  58  75
ATOM     75  C   UNL     1      -8.505  10.256  -7.523  1.00  0.00     0.057 A 
ATOM     76  C   UNL     1      -9.011  11.402  -6.896  1.00  0.00     0.134 A 
ATOM     77  C   UNL     1      -8.644  10.158  -8.912  1.00  0.00     0.134 A 
ATOM     78  F   UNL     1      -8.923  11.543  -5.565  1.00  0.00    -0.206 F 
ATOM     79  C   UNL     1      -9.645  12.409  -7.625  1.00  0.00     0.040 A 
ATOM     80  C   UNL     1      -9.259  11.167  -9.654  1.00  0.00     0.040 A 
ATOM     81  F   UNL     1      -8.177   9.086  -9.569  1.00  0.00    -0.206 F 
ATOM     82  C   UNL     1      -9.765  12.295  -9.009  1.00  0.00     0.006 A 
ENDBRANCH  58  75
ENDBRANCH  32  33
ENDBRANCH  25  27
ENDBRANCH  24  25
ENDBRANCH  23  24
ENDBRANCH  22  23
ENDBRANCH   1  22
TORSDOF 18
