REMARK SMILES Cc1ccccc1N[C@H](C(=O)OCCOC(=O)c1ccc(-c2c3nc(c(-c4c(F)cccc4F)c4ccc([nH]4)c(-c4c(F)cccc4F)c4nc(c(-c5c(F)cccc5F)c5ccc2[nH]5)C=C4)C=C3)cc1)c1ccccc1
REMARK SMILES IDX 13 1 12 2 10 3 11 4 9 5 8 6 7 8 1 9 2 10 3 11 4 12 6 13 5 14
REMARK SMILES IDX 72 15 73 16 77 17 74 18 76 19 75 20 14 21 15 22 16 23 17 24
REMARK SMILES IDX 18 25 19 26 71 27 20 28 70 29 21 30 22 31 23 32 64 33 24 34
REMARK SMILES IDX 69 35 63 36 65 37 25 38 68 39 62 40 61 41 26 43 52 44 35 45
REMARK SMILES IDX 51 46 36 47 39 48 50 49 66 50 37 51 38 52 49 54 67 55 40 56
REMARK SMILES IDX 27 57 28 58 33 59 29 60 30 61 32 62 34 63 31 64 53 65 54 66
REMARK SMILES IDX 59 67 55 68 56 69 58 70 60 71 57 72 41 73 42 74 47 75 43 76
REMARK SMILES IDX 44 77 46 78 48 79 45 80
REMARK H PARENT 8 7 65 42 39 53
REMARK Flexibility Score: inf
ROOT
ATOM      1  C   UNL     1       3.362   1.146   2.143  1.00  0.00     0.274 C 
ENDROOT
BRANCH   1   2
ATOM      2  O   UNL     1       2.756   2.430   1.859  1.00  0.00    -0.460 OA
BRANCH   2   3
ATOM      3  C   UNL     1       1.508   2.791   2.229  1.00  0.00     0.333 C 
ATOM      4  O   UNL     1       0.783   2.062   2.904  1.00  0.00    -0.249 OA
BRANCH   3   5
ATOM      5  C   UNL     1       0.988   4.129   1.540  1.00  0.00     0.221 C 
BRANCH   5   6
ATOM      6  N   UNL     1      -0.443   4.217   1.957  1.00  0.00    -0.368 N 
ATOM      7  H   UNL     1      -0.839   3.326   2.093  1.00  0.00     0.161 HD
BRANCH   6   8
ATOM      8  C   UNL     1      -1.344   5.216   2.198  1.00  0.00     0.038 A 
ATOM      9  C   UNL     1      -2.341   3.976   4.213  1.00  0.00     0.046 C 
ATOM     10  C   UNL     1      -2.075   5.220   3.403  1.00  0.00    -0.028 A 
ATOM     11  C   UNL     1      -2.611   6.426   3.884  1.00  0.00     0.005 A 
ATOM     12  C   UNL     1      -2.556   7.580   3.113  1.00  0.00     0.000 A 
ATOM     13  C   UNL     1      -1.497   6.315   1.353  1.00  0.00     0.026 A 
ATOM     14  C   UNL     1      -2.072   7.505   1.814  1.00  0.00     0.002 A 
ENDBRANCH   6   8
ENDBRANCH   5   6
BRANCH   5  15
ATOM     15  C   UNL     1       1.972   5.325   1.555  1.00  0.00    -0.015 A 
ATOM     16  C   UNL     1       1.600   6.671   1.640  1.00  0.00     0.006 A 
ATOM     17  C   UNL     1       3.342   5.129   1.257  1.00  0.00     0.006 A 
ATOM     18  C   UNL     1       2.499   7.734   1.466  1.00  0.00     0.000 A 
ATOM     19  C   UNL     1       4.267   6.176   1.145  1.00  0.00     0.000 A 
ATOM     20  C   UNL     1       3.843   7.486   1.259  1.00  0.00     0.000 A 
ENDBRANCH   5  15
ENDBRANCH   3   5
ENDBRANCH   2   3
ENDBRANCH   1   2
BRANCH   1  21
ATOM     21  C   UNL     1       2.491  -0.137   2.195  1.00  0.00     0.275 C 
BRANCH  21  22
ATOM     22  O   UNL     1       1.883  -0.611   0.963  1.00  0.00    -0.458 OA
BRANCH  22  23
ATOM     23  C   UNL     1       0.690  -0.100   0.551  1.00  0.00     0.338 C 
ATOM     24  O   UNL     1      -0.409  -0.585   0.786  1.00  0.00    -0.246 OA
BRANCH  23  25
ATOM     25  C   UNL     1       0.913   1.016  -0.393  1.00  0.00     0.060 A 
ATOM     26  C   UNL     1      -0.109   1.803  -0.950  1.00  0.00     0.016 A 
ATOM     27  C   UNL     1       2.238   1.333  -0.646  1.00  0.00     0.016 A 
ATOM     28  C   UNL     1       0.233   2.866  -1.802  1.00  0.00     0.010 A 
ATOM     29  C   UNL     1       2.554   2.553  -1.149  1.00  0.00     0.010 A 
ATOM     30  C   UNL     1       1.581   3.211  -1.908  1.00  0.00    -0.014 A 
BRANCH  30  31
ATOM     31  C   UNL     1       2.259   3.891  -3.006  1.00  0.00     0.031 A 
ATOM     32  C   UNL     1       2.694   5.287  -2.897  1.00  0.00     0.074 A 
ATOM     33  C   UNL     1       2.962   2.961  -3.704  1.00  0.00     0.049 A 
ATOM     34  N   UNL     1       3.733   5.725  -3.507  1.00  0.00    -0.248 NA
ATOM     35  C   UNL     1       2.037   6.304  -2.087  1.00  0.00     0.031 C 
ATOM     36  C   UNL     1       4.287   2.994  -4.304  1.00  0.00     0.029 A 
ATOM     37  N   UNL     1       2.558   1.637  -3.932  1.00  0.00    -0.354 N 
ATOM     38  C   UNL     1       4.001   7.000  -3.077  1.00  0.00     0.074 A 
ATOM     39  C   UNL     1       2.897   7.330  -2.209  1.00  0.00     0.031 C 
ATOM     40  C   UNL     1       4.407   1.930  -5.124  1.00  0.00     0.029 A 
ATOM     41  C   UNL     1       3.106   1.276  -5.171  1.00  0.00     0.049 A 
ATOM     42  H   UNL     1       2.004   1.076  -3.343  1.00  0.00     0.167 HD
ATOM     43  C   UNL     1       5.168   7.560  -3.511  1.00  0.00     0.037 A 
ATOM     44  C   UNL     1       2.207   1.308  -6.203  1.00  0.00     0.037 A 
ATOM     45  C   UNL     1       5.623   6.834  -4.705  1.00  0.00     0.049 A 
ATOM     46  C   UNL     1       2.385   2.562  -7.056  1.00  0.00     0.074 A 
ATOM     47  C   UNL     1       6.509   5.813  -4.992  1.00  0.00     0.029 A 
ATOM     48  N   UNL     1       4.786   6.920  -5.801  1.00  0.00    -0.354 N 
ATOM     49  N   UNL     1       3.303   3.474  -6.858  1.00  0.00    -0.248 NA
ATOM     50  C   UNL     1       1.516   2.905  -8.176  1.00  0.00     0.031 C 
ATOM     51  C   UNL     1       6.040   5.174  -6.200  1.00  0.00     0.029 A 
ATOM     52  C   UNL     1       4.907   5.838  -6.650  1.00  0.00     0.049 A 
ATOM     53  H   UNL     1       4.171   7.671  -5.960  1.00  0.00     0.167 HD
ATOM     54  C   UNL     1       3.127   4.522  -7.709  1.00  0.00     0.074 A 
ATOM     55  C   UNL     1       1.997   4.110  -8.531  1.00  0.00     0.031 C 
ATOM     56  C   UNL     1       3.881   5.664  -7.682  1.00  0.00     0.037 A 
BRANCH  43  57
ATOM     57  C   UNL     1       5.922   8.715  -2.904  1.00  0.00     0.057 A 
ATOM     58  C   UNL     1       7.146   9.129  -3.466  1.00  0.00     0.134 A 
ATOM     59  C   UNL     1       5.594   9.362  -1.700  1.00  0.00     0.134 A 
ATOM     60  F   UNL     1       7.578   8.639  -4.637  1.00  0.00    -0.206 F 
ATOM     61  C   UNL     1       8.000  10.054  -2.845  1.00  0.00     0.040 A 
ATOM     62  C   UNL     1       6.437  10.289  -1.067  1.00  0.00     0.040 A 
ATOM     63  F   UNL     1       4.445   9.132  -1.063  1.00  0.00    -0.206 F 
ATOM     64  C   UNL     1       7.656  10.624  -1.630  1.00  0.00     0.006 A 
ENDBRANCH  43  57
BRANCH  44  65
ATOM     65  C   UNL     1       0.898   0.691  -5.741  1.00  0.00     0.057 A 
ATOM     66  C   UNL     1       0.951  -0.626  -5.218  1.00  0.00     0.134 A 
ATOM     67  C   UNL     1      -0.200   1.465  -5.339  1.00  0.00     0.134 A 
ATOM     68  F   UNL     1       1.982  -1.429  -5.527  1.00  0.00    -0.206 F 
ATOM     69  C   UNL     1       0.061  -1.084  -4.237  1.00  0.00     0.040 A 
ATOM     70  C   UNL     1      -1.123   0.996  -4.385  1.00  0.00     0.040 A 
ATOM     71  F   UNL     1      -0.330   2.735  -5.749  1.00  0.00    -0.206 F 
ATOM     72  C   UNL     1      -0.965  -0.259  -3.796  1.00  0.00     0.006 A 
ENDBRANCH  44  65
BRANCH  56  73
ATOM     73  C   UNL     1       3.638   6.751  -8.689  1.00  0.00     0.057 A 
ATOM     74  C   UNL     1       3.601   6.462 -10.058  1.00  0.00     0.134 A 
ATOM     75  C   UNL     1       3.529   8.112  -8.345  1.00  0.00     0.134 A 
ATOM     76  F   UNL     1       3.747   5.203 -10.499  1.00  0.00    -0.206 F 
ATOM     77  C   UNL     1       3.411   7.455 -11.021  1.00  0.00     0.040 A 
ATOM     78  C   UNL     1       3.417   9.121  -9.301  1.00  0.00     0.040 A 
ATOM     79  F   UNL     1       3.494   8.522  -7.069  1.00  0.00    -0.206 F 
ATOM     80  C   UNL     1       3.335   8.792 -10.645  1.00  0.00     0.006 A 
ENDBRANCH  56  73
ENDBRANCH  30  31
ENDBRANCH  23  25
ENDBRANCH  22  23
ENDBRANCH  21  22
ENDBRANCH   1  21
TORSDOF 14
