REMARK SMILES C[C@H](NC(=O)OC(C)(C)C)C(=O)N[C@@H](C)C(=O)N1CCC[C@H]1C(=O)OCCOC(=O)c1ccc(-c2c3nc(c(-c4c(F)cccc4F)c4ccc([nH]4)c(-c4c(F)cccc4F)c4nc(c(-c5c(F)cccc5F)c5ccc2[nH]5)C=C4)C=C3)cc1
REMARK SMILES IDX 23 1 24 2 22 3 18 4 19 5 20 6 21 7 16 8 17 9 14 10 15 11
REMARK SMILES IDX 13 12 11 13 12 14 2 16 1 17 3 18 4 19 5 21 6 22 7 23 8 24
REMARK SMILES IDX 9 25 10 26 25 27 26 28 27 29 28 30 29 31 30 32 31 33 32 34
REMARK SMILES IDX 84 35 33 36 83 37 34 38 35 39 36 40 77 41 37 42 82 43 76 44
REMARK SMILES IDX 78 45 38 46 81 47 75 48 74 49 39 51 65 52 48 53 64 54 49 55
REMARK SMILES IDX 52 56 63 57 79 58 50 59 51 60 62 62 80 63 53 64 40 65 41 66
REMARK SMILES IDX 46 67 42 68 43 69 45 70 47 71 44 72 66 73 67 74 72 75 68 76
REMARK SMILES IDX 69 77 71 78 73 79 70 80 54 81 55 82 60 83 56 84 57 85 59 86
REMARK SMILES IDX 61 87 58 88
REMARK H PARENT 13 15 3 20 78 50 52 61
REMARK Flexibility Score: inf
ROOT
ATOM      1  C   UNL     1      -3.741  -5.824  -2.312  1.00  0.00     0.328 C 
ATOM      2  O   UNL     1      -4.351  -6.892  -2.325  1.00  0.00    -0.250 OA
ENDROOT
BRANCH   1   3
ATOM      3  C   UNL     1      -3.796  -4.878  -1.103  1.00  0.00     0.195 C 
ATOM      4  N   UNL     1      -3.382  -3.479  -1.187  1.00  0.00    -0.327 N 
ATOM      5  C   UNL     1      -4.522  -2.605  -1.021  1.00  0.00     0.120 C 
ATOM      6  C   UNL     1      -5.449  -3.393  -0.116  1.00  0.00     0.024 C 
ATOM      7  C   UNL     1      -5.225  -4.838  -0.540  1.00  0.00     0.039 C 
BRANCH   4   8
ATOM      8  C   UNL     1      -2.038  -3.201  -1.089  1.00  0.00     0.245 C 
ATOM      9  O   UNL     1      -1.204  -4.003  -1.514  1.00  0.00    -0.272 OA
BRANCH   8  10
ATOM     10  C   UNL     1      -1.547  -1.982  -0.285  1.00  0.00     0.168 C 
ATOM     11  C   UNL     1      -2.003  -2.038   1.171  1.00  0.00     0.041 C 
BRANCH  10  12
ATOM     12  N   UNL     1      -1.802  -0.689  -0.891  1.00  0.00    -0.343 N 
ATOM     13  C   UNL     1      -0.920   0.203  -1.418  1.00  0.00     0.243 C 
ATOM     14  O   UNL     1      -1.405   1.187  -1.988  1.00  0.00    -0.273 OA
ATOM     15  H   UNL     1      -2.748  -0.418  -0.926  1.00  0.00     0.164 HD
BRANCH  13  16
ATOM     16  C   UNL     1       0.615  -0.003  -1.390  1.00  0.00     0.171 C 
ATOM     17  C   UNL     1       1.059  -1.006  -2.447  1.00  0.00     0.042 C 
BRANCH  16  18
ATOM     18  N   UNL     1       1.158  -0.149  -0.035  1.00  0.00    -0.310 N 
ATOM     19  C   UNL     1       1.718  -1.201   0.623  1.00  0.00     0.408 C 
ATOM     20  H   UNL     1       1.107   0.674   0.503  1.00  0.00     0.167 HD
ATOM     21  O   UNL     1       2.034  -1.089   1.801  1.00  0.00    -0.225 OA
BRANCH  19  22
ATOM     22  O   UNL     1       1.840  -2.317  -0.123  1.00  0.00    -0.444 OA
BRANCH  22  23
ATOM     23  C   UNL     1       2.307  -3.569   0.450  1.00  0.00     0.106 C 
ATOM     24  C   UNL     1       3.758  -3.449   0.921  1.00  0.00     0.056 C 
ATOM     25  C   UNL     1       1.381  -4.061   1.570  1.00  0.00     0.056 C 
ATOM     26  C   UNL     1       2.250  -4.583  -0.703  1.00  0.00     0.056 C 
ENDBRANCH  22  23
ENDBRANCH  19  22
ENDBRANCH  16  18
ENDBRANCH  13  16
ENDBRANCH  10  12
ENDBRANCH   8  10
ENDBRANCH   4   8
ENDBRANCH   1   3
BRANCH   1  27
ATOM     27  O   UNL     1      -2.860  -5.440  -3.267  1.00  0.00    -0.461 OA
BRANCH  27  28
ATOM     28  C   UNL     1      -2.522  -6.448  -4.238  1.00  0.00     0.274 C 
BRANCH  28  29
ATOM     29  C   UNL     1      -1.357  -7.328  -3.767  1.00  0.00     0.275 C 
BRANCH  29  30
ATOM     30  O   UNL     1      -1.742  -8.190  -2.675  1.00  0.00    -0.458 OA
BRANCH  30  31
ATOM     31  C   UNL     1      -1.278  -7.838  -1.455  1.00  0.00     0.338 C 
ATOM     32  O   UNL     1      -0.542  -6.911  -1.168  1.00  0.00    -0.246 OA
BRANCH  31  33
ATOM     33  C   UNL     1      -1.838  -8.719  -0.424  1.00  0.00     0.060 A 
ATOM     34  C   UNL     1      -2.855  -8.231   0.400  1.00  0.00     0.016 A 
ATOM     35  C   UNL     1      -1.269  -9.967  -0.182  1.00  0.00     0.016 A 
ATOM     36  C   UNL     1      -3.307  -8.981   1.478  1.00  0.00     0.010 A 
ATOM     37  C   UNL     1      -1.744 -10.736   0.883  1.00  0.00     0.010 A 
ATOM     38  C   UNL     1      -2.763 -10.245   1.719  1.00  0.00    -0.014 A 
BRANCH  38  39
ATOM     39  C   UNL     1      -3.277 -11.067   2.836  1.00  0.00     0.031 A 
ATOM     40  C   UNL     1      -2.419 -11.331   4.035  1.00  0.00     0.074 A 
ATOM     41  C   UNL     1      -4.515 -11.588   2.748  1.00  0.00     0.049 A 
ATOM     42  N   UNL     1      -2.627 -12.148   5.034  1.00  0.00    -0.248 NA
ATOM     43  C   UNL     1      -1.158 -10.578   4.121  1.00  0.00     0.031 C 
ATOM     44  C   UNL     1      -5.454 -11.351   1.650  1.00  0.00     0.029 A 
ATOM     45  N   UNL     1      -5.187 -12.440   3.586  1.00  0.00    -0.354 N 
ATOM     46  C   UNL     1      -1.515 -12.029   5.857  1.00  0.00     0.074 A 
ATOM     47  C   UNL     1      -0.628 -11.069   5.233  1.00  0.00     0.031 C 
ATOM     48  C   UNL     1      -6.576 -12.051   1.875  1.00  0.00     0.029 A 
ATOM     49  C   UNL     1      -6.407 -12.835   3.093  1.00  0.00     0.049 A 
ATOM     50  H   UNL     1      -4.831 -12.738   4.454  1.00  0.00     0.167 HD
ATOM     51  C   UNL     1      -1.264 -12.668   7.024  1.00  0.00     0.037 A 
ATOM     52  C   UNL     1      -7.267 -13.766   3.545  1.00  0.00     0.037 A 
ATOM     53  C   UNL     1      -2.163 -13.617   7.630  1.00  0.00     0.049 A 
ATOM     54  C   UNL     1      -6.918 -14.535   4.788  1.00  0.00     0.074 A 
ATOM     55  C   UNL     1      -2.018 -14.301   8.824  1.00  0.00     0.029 A 
ATOM     56  N   UNL     1      -3.371 -14.023   7.080  1.00  0.00    -0.354 N 
ATOM     57  N   UNL     1      -5.870 -14.412   5.567  1.00  0.00    -0.248 NA
ATOM     58  C   UNL     1      -7.859 -15.582   5.206  1.00  0.00     0.031 C 
ATOM     59  C   UNL     1      -3.109 -15.164   8.968  1.00  0.00     0.029 A 
ATOM     60  C   UNL     1      -3.961 -14.979   7.891  1.00  0.00     0.049 A 
ATOM     61  H   UNL     1      -3.752 -13.683   6.239  1.00  0.00     0.167 HD
ATOM     62  C   UNL     1      -6.033 -15.353   6.574  1.00  0.00     0.074 A 
ATOM     63  C   UNL     1      -7.290 -16.025   6.318  1.00  0.00     0.031 C 
ATOM     64  C   UNL     1      -5.213 -15.638   7.616  1.00  0.00     0.037 A 
BRANCH  51  65
ATOM     65  C   UNL     1       0.046 -12.395   7.701  1.00  0.00     0.057 A 
ATOM     66  C   UNL     1       0.319 -11.174   8.331  1.00  0.00     0.134 A 
ATOM     67  C   UNL     1       1.037 -13.384   7.756  1.00  0.00     0.134 A 
ATOM     68  F   UNL     1      -0.581 -10.180   8.306  1.00  0.00    -0.206 F 
ATOM     69  C   UNL     1       1.537 -10.940   8.973  1.00  0.00     0.040 A 
ATOM     70  C   UNL     1       2.248 -13.172   8.417  1.00  0.00     0.040 A 
ATOM     71  F   UNL     1       0.839 -14.579   7.178  1.00  0.00    -0.206 F 
ATOM     72  C   UNL     1       2.503 -11.944   9.024  1.00  0.00     0.006 A 
ENDBRANCH  51  65
BRANCH  52  73
ATOM     73  C   UNL     1      -8.511 -14.055   2.789  1.00  0.00     0.057 A 
ATOM     74  C   UNL     1      -9.768 -13.743   3.318  1.00  0.00     0.134 A 
ATOM     75  C   UNL     1      -8.475 -14.650   1.521  1.00  0.00     0.134 A 
ATOM     76  F   UNL     1      -9.869 -13.191   4.536  1.00  0.00    -0.206 F 
ATOM     77  C   UNL     1     -10.944 -14.023   2.620  1.00  0.00     0.040 A 
ATOM     78  C   UNL     1      -9.641 -14.910   0.800  1.00  0.00     0.040 A 
ATOM     79  F   UNL     1      -7.301 -14.971   0.956  1.00  0.00    -0.206 F 
ATOM     80  C   UNL     1     -10.881 -14.602   1.354  1.00  0.00     0.006 A 
ENDBRANCH  52  73
BRANCH  64  81
ATOM     81  C   UNL     1      -5.658 -16.712   8.563  1.00  0.00     0.057 A 
ATOM     82  C   UNL     1      -5.621 -18.066   8.209  1.00  0.00     0.134 A 
ATOM     83  C   UNL     1      -6.074 -16.393   9.862  1.00  0.00     0.134 A 
ATOM     84  F   UNL     1      -5.248 -18.436   6.974  1.00  0.00    -0.206 F 
ATOM     85  C   UNL     1      -5.994 -19.065   9.109  1.00  0.00     0.040 A 
ATOM     86  C   UNL     1      -6.424 -17.384  10.780  1.00  0.00     0.040 A 
ATOM     87  F   UNL     1      -6.126 -15.114  10.266  1.00  0.00    -0.206 F 
ATOM     88  C   UNL     1      -6.388 -18.724  10.402  1.00  0.00     0.006 A 
ENDBRANCH  64  81
ENDBRANCH  38  39
ENDBRANCH  31  33
ENDBRANCH  30  31
ENDBRANCH  29  30
ENDBRANCH  28  29
ENDBRANCH  27  28
ENDBRANCH   1  27
TORSDOF 18
