REMARK SMILES CCc1nn(-c2ccc(Cl)nn2)c(CC)c1CC(=O)OCCOC(=O)c1ccc(-c2c3nc(c(-c4c(F)cccc4F)c4ccc([nH]4)c(-c4c(F)cccc4F)c4nc(c(-c5c(F)cccc5F)c5ccc2[nH]5)C=C4)C=C3)cc1
REMARK SMILES IDX 21 1 20 2 18 3 19 4 17 5 16 6 3 7 4 8 5 9 13 10 2 11 1 12
REMARK SMILES IDX 6 13 7 14 12 15 8 16 11 17 9 18 10 19 14 20 15 21 22 22
REMARK SMILES IDX 23 23 24 24 25 25 26 26 27 27 79 28 28 29 78 30 29 31 30 32
REMARK SMILES IDX 31 33 72 34 32 35 77 36 71 37 73 38 33 39 76 40 70 41 69 42
REMARK SMILES IDX 34 44 60 45 43 46 59 47 44 48 47 49 58 50 74 51 45 52 46 53
REMARK SMILES IDX 57 55 75 56 48 57 35 58 36 59 41 60 37 61 38 62 40 63 42 64
REMARK SMILES IDX 39 65 61 66 62 67 67 68 63 69 64 70 66 71 68 72 65 73 49 74
REMARK SMILES IDX 50 75 55 76 51 77 52 78 54 79 56 80 53 81
REMARK H PARENT 73 43 47 54
REMARK Flexibility Score: inf
ROOT
ATOM      1  C   UNL     1       5.276  -2.676   3.132  1.00  0.00     0.274 C 
ENDROOT
BRANCH   1   2
ATOM      2  O   UNL     1       3.974  -2.081   3.266  1.00  0.00    -0.462 OA
BRANCH   2   3
ATOM      3  C   UNL     1       2.919  -2.821   2.829  1.00  0.00     0.310 C 
ATOM      4  O   UNL     1       3.014  -3.845   2.161  1.00  0.00    -0.252 OA
BRANCH   3   5
ATOM      5  C   UNL     1       1.605  -2.293   3.363  1.00  0.00     0.162 C 
BRANCH   5   6
ATOM      6  C   UNL     1       1.492  -0.796   3.413  1.00  0.00     0.008 A 
ATOM      7  C   UNL     1       0.978   0.064   2.402  1.00  0.00     0.067 A 
ATOM      8  N   UNL     1       0.931   1.342   2.803  1.00  0.00    -0.171 NA
ATOM      9  N   UNL     1       1.396   1.326   4.071  1.00  0.00    -0.217 N 
ATOM     10  C   UNL     1       1.754   0.053   4.480  1.00  0.00     0.050 A 
BRANCH   7  11
ATOM     11  C   UNL     1       0.439  -0.327   1.062  1.00  0.00     0.055 C 
ATOM     12  C   UNL     1       1.119   0.377  -0.099  1.00  0.00     0.011 C 
ENDBRANCH   7  11
BRANCH   9  13
ATOM     13  C   UNL     1       1.381   2.480   4.894  1.00  0.00     0.176 A 
ATOM     14  C   UNL     1       2.597   3.053   5.254  1.00  0.00     0.054 A 
ATOM     15  N   UNL     1       0.239   2.748   5.572  1.00  0.00    -0.129 NA
ATOM     16  C   UNL     1       2.635   3.885   6.371  1.00  0.00     0.047 A 
ATOM     17  N   UNL     1       0.276   3.591   6.655  1.00  0.00    -0.136 NA
ATOM     18  C   UNL     1       1.454   4.116   7.046  1.00  0.00     0.151 A 
ATOM     19  Cl  UNL     1       1.411   5.046   8.482  1.00  0.00    -0.060 Cl
ENDBRANCH   9  13
BRANCH  10  20
ATOM     20  C   UNL     1       2.206  -0.251   5.871  1.00  0.00     0.053 C 
ATOM     21  C   UNL     1       3.619   0.234   6.165  1.00  0.00     0.011 C 
ENDBRANCH  10  20
ENDBRANCH   5   6
ENDBRANCH   3   5
ENDBRANCH   2   3
ENDBRANCH   1   2
BRANCH   1  22
ATOM     22  C   UNL     1       6.010  -2.453   4.449  1.00  0.00     0.275 C 
BRANCH  22  23
ATOM     23  O   UNL     1       5.834  -3.539   5.384  1.00  0.00    -0.458 OA
BRANCH  23  24
ATOM     24  C   UNL     1       4.601  -3.640   5.943  1.00  0.00     0.338 C 
ATOM     25  O   UNL     1       3.585  -3.967   5.371  1.00  0.00    -0.246 OA
BRANCH  24  26
ATOM     26  C   UNL     1       4.627  -3.131   7.332  1.00  0.00     0.060 A 
ATOM     27  C   UNL     1       3.407  -2.744   7.898  1.00  0.00     0.016 A 
ATOM     28  C   UNL     1       5.834  -2.858   7.982  1.00  0.00     0.016 A 
ATOM     29  C   UNL     1       3.407  -1.917   9.010  1.00  0.00     0.010 A 
ATOM     30  C   UNL     1       5.828  -2.090   9.134  1.00  0.00     0.010 A 
ATOM     31  C   UNL     1       4.623  -1.558   9.606  1.00  0.00    -0.014 A 
BRANCH  31  32
ATOM     32  C   UNL     1       4.575  -0.809  10.864  1.00  0.00     0.031 A 
ATOM     33  C   UNL     1       3.766  -1.480  11.931  1.00  0.00     0.074 A 
ATOM     34  C   UNL     1       5.370   0.248  11.126  1.00  0.00     0.049 A 
ATOM     35  N   UNL     1       2.866  -0.984  12.717  1.00  0.00    -0.248 NA
ATOM     36  C   UNL     1       3.922  -2.945  12.050  1.00  0.00     0.031 C 
ATOM     37  C   UNL     1       6.418   0.815  10.270  1.00  0.00     0.029 A 
ATOM     38  N   UNL     1       5.526   0.936  12.293  1.00  0.00    -0.354 N 
ATOM     39  C   UNL     1       2.463  -2.039  13.537  1.00  0.00     0.074 A 
ATOM     40  C   UNL     1       3.016  -3.240  12.977  1.00  0.00     0.031 C 
ATOM     41  C   UNL     1       7.258   1.549  11.030  1.00  0.00     0.029 A 
ATOM     42  C   UNL     1       6.746   1.593  12.390  1.00  0.00     0.049 A 
ATOM     43  H   UNL     1       4.840   0.965  12.999  1.00  0.00     0.167 HD
ATOM     44  C   UNL     1       1.899  -1.843  14.758  1.00  0.00     0.037 A 
ATOM     45  C   UNL     1       7.343   2.039  13.523  1.00  0.00     0.037 A 
ATOM     46  C   UNL     1       1.292  -0.546  14.869  1.00  0.00     0.049 A 
ATOM     47  C   UNL     1       6.322   2.079  14.598  1.00  0.00     0.074 A 
ATOM     48  C   UNL     1       0.293   0.123  14.187  1.00  0.00     0.029 A 
ATOM     49  N   UNL     1       1.924   0.410  15.623  1.00  0.00    -0.354 N 
ATOM     50  N   UNL     1       5.337   2.928  14.649  1.00  0.00    -0.248 NA
ATOM     51  C   UNL     1       6.167   0.893  15.429  1.00  0.00     0.031 C 
ATOM     52  C   UNL     1       0.695   1.490  14.188  1.00  0.00     0.029 A 
ATOM     53  C   UNL     1       1.896   1.569  14.892  1.00  0.00     0.049 A 
ATOM     54  H   UNL     1       2.320   0.288  16.515  1.00  0.00     0.167 HD
ATOM     55  C   UNL     1       4.274   2.205  15.169  1.00  0.00     0.074 A 
ATOM     56  C   UNL     1       4.871   0.998  15.731  1.00  0.00     0.031 C 
ATOM     57  C   UNL     1       2.984   2.514  14.847  1.00  0.00     0.037 A 
BRANCH  44  58
ATOM     58  C   UNL     1       2.229  -2.699  15.959  1.00  0.00     0.057 A 
ATOM     59  C   UNL     1       1.509  -2.523  17.153  1.00  0.00     0.134 A 
ATOM     60  C   UNL     1       3.404  -3.473  16.081  1.00  0.00     0.134 A 
ATOM     61  F   UNL     1       0.383  -1.794  17.177  1.00  0.00    -0.206 F 
ATOM     62  C   UNL     1       1.966  -3.012  18.384  1.00  0.00     0.040 A 
ATOM     63  C   UNL     1       3.839  -4.013  17.293  1.00  0.00     0.040 A 
ATOM     64  F   UNL     1       4.251  -3.664  15.062  1.00  0.00    -0.206 F 
ATOM     65  C   UNL     1       3.138  -3.753  18.457  1.00  0.00     0.006 A 
ENDBRANCH  44  58
BRANCH  45  66
ATOM     66  C   UNL     1       8.791   2.148  13.814  1.00  0.00     0.057 A 
ATOM     67  C   UNL     1       9.263   2.948  14.864  1.00  0.00     0.134 A 
ATOM     68  C   UNL     1       9.734   1.284  13.227  1.00  0.00     0.134 A 
ATOM     69  F   UNL     1       8.431   3.768  15.521  1.00  0.00    -0.206 F 
ATOM     70  C   UNL     1      10.590   2.887  15.309  1.00  0.00     0.040 A 
ATOM     71  C   UNL     1      11.065   1.224  13.651  1.00  0.00     0.040 A 
ATOM     72  F   UNL     1       9.376   0.407  12.278  1.00  0.00    -0.206 F 
ATOM     73  C   UNL     1      11.495   2.019  14.705  1.00  0.00     0.006 A 
ENDBRANCH  45  66
BRANCH  57  74
ATOM     74  C   UNL     1       2.730   3.809  14.130  1.00  0.00     0.057 A 
ATOM     75  C   UNL     1       3.240   4.109  12.858  1.00  0.00     0.134 A 
ATOM     76  C   UNL     1       1.823   4.722  14.680  1.00  0.00     0.134 A 
ATOM     77  F   UNL     1       4.026   3.245  12.203  1.00  0.00    -0.206 F 
ATOM     78  C   UNL     1       2.908   5.290  12.190  1.00  0.00     0.040 A 
ATOM     79  C   UNL     1       1.453   5.888  14.005  1.00  0.00     0.040 A 
ATOM     80  F   UNL     1       1.246   4.472  15.866  1.00  0.00    -0.206 F 
ATOM     81  C   UNL     1       2.005   6.181  12.761  1.00  0.00     0.006 A 
ENDBRANCH  57  74
ENDBRANCH  31  32
ENDBRANCH  24  26
ENDBRANCH  23  24
ENDBRANCH  22  23
ENDBRANCH   1  22
TORSDOF 15
