REMARK SMILES O=C(CCC(=O)OCCOC(=O)c1ccc(-c2c3nc(c(-c4c(F)cccc4F)c4ccc([nH]4)c(-c4c(F)cccc4F)c4nc(c(-c5c(F)cccc5F)c5ccc2[nH]5)C=C4)C=C3)cc1)/[NH+]=C1\S[C@H]2CS(=O)(=O)C[C@@H]2N1c1ccc(Oc2ccccc2)cc1
REMARK SMILES IDX 7 1 5 2 6 3 4 4 3 5 2 6 1 7 67 8 68 9 69 11 77 12 70 13
REMARK SMILES IDX 76 14 71 15 75 16 72 17 73 18 74 19 78 20 79 21 90 22 80 23
REMARK SMILES IDX 89 24 81 25 82 26 83 27 84 28 88 29 85 30 87 31 86 32 8 33
REMARK SMILES IDX 9 34 10 35 11 36 12 37 13 38 14 39 66 40 15 41 65 42 16 43
REMARK SMILES IDX 17 44 18 45 59 46 19 47 64 48 58 49 60 50 20 51 63 52 57 53
REMARK SMILES IDX 56 54 21 56 47 57 30 58 46 59 31 60 34 61 45 62 61 63 32 64
REMARK SMILES IDX 33 65 44 67 62 68 35 69 22 70 23 71 28 72 24 73 25 74 27 75
REMARK SMILES IDX 29 76 26 77 48 78 49 79 54 80 50 81 51 82 53 83 55 84 52 85
REMARK SMILES IDX 36 86 37 87 42 88 38 89 39 90 41 91 43 92 40 93
REMARK H PARENT 67 10 60 55 34 66
REMARK Flexibility Score: inf
ROOT
ATOM      1  O   UNL     1       3.873   1.661  -1.841  1.00  0.00    -0.462 OA
ENDROOT
BRANCH   1   2
ATOM      2  C   UNL     1       3.499   0.428  -2.251  1.00  0.00     0.306 C 
ATOM      3  O   UNL     1       3.986  -0.175  -3.200  1.00  0.00    -0.252 OA
BRANCH   2   4
ATOM      4  C   UNL     1       2.377  -0.116  -1.409  1.00  0.00     0.135 C 
BRANCH   4   5
ATOM      5  C   UNL     1       2.730  -0.431   0.040  1.00  0.00     0.139 C 
BRANCH   5   6
ATOM      6  C   UNL     1       2.665   0.690   1.075  1.00  0.00     0.308 C 
ATOM      7  O   UNL     1       1.763   0.685   1.911  1.00  0.00    -0.247 OA
ATOM      8  N   UNL     1       3.577   1.710   1.027  1.00  0.00    -0.204 N 
ATOM      9  C   UNL     1       4.669   1.668   1.724  1.00  0.00     0.319 C 
ATOM     10  H   UNL     1       3.400   2.490   0.454  1.00  0.00     0.316 HD
ATOM     11  S   UNL     1       5.319   0.255   2.607  1.00  0.00    -0.029 SA
ATOM     12  N   UNL     1       5.577   2.727   1.833  1.00  0.00    -0.217 N 
ATOM     13  C   UNL     1       6.969   1.018   2.779  1.00  0.00     0.120 C 
ATOM     14  C   UNL     1       6.948   2.252   1.871  1.00  0.00     0.212 C 
ATOM     15  C   UNL     1       8.245   0.330   2.324  1.00  0.00     0.156 C 
ATOM     16  C   UNL     1       8.157   3.045   2.305  1.00  0.00     0.188 C 
ATOM     17  S   UNL     1       9.400   1.728   2.214  1.00  0.00     0.155 S 
ATOM     18  O   UNL     1      10.217   1.764   3.405  1.00  0.00    -0.229 OA
ATOM     19  O   UNL     1       9.968   1.745   0.881  1.00  0.00    -0.229 OA
BRANCH  12  20
ATOM     20  C   UNL     1       5.236   3.920   2.476  1.00  0.00     0.128 A 
ATOM     21  C   UNL     1       5.801   5.148   2.105  1.00  0.00     0.056 A 
ATOM     22  C   UNL     1       4.315   3.911   3.531  1.00  0.00     0.056 A 
ATOM     23  C   UNL     1       5.505   6.319   2.813  1.00  0.00     0.051 A 
ATOM     24  C   UNL     1       4.014   5.073   4.234  1.00  0.00     0.051 A 
ATOM     25  C   UNL     1       4.635   6.278   3.902  1.00  0.00     0.127 A 
BRANCH  25  26
ATOM     26  O   UNL     1       4.434   7.467   4.576  1.00  0.00    -0.457 OA
BRANCH  26  27
ATOM     27  C   UNL     1       3.850   7.371   5.818  1.00  0.00     0.127 A 
ATOM     28  C   UNL     1       2.538   7.815   5.966  1.00  0.00     0.047 A 
ATOM     29  C   UNL     1       4.539   6.798   6.891  1.00  0.00     0.047 A 
ATOM     30  C   UNL     1       1.883   7.618   7.181  1.00  0.00     0.004 A 
ATOM     31  C   UNL     1       3.877   6.596   8.100  1.00  0.00     0.004 A 
ATOM     32  C   UNL     1       2.547   6.996   8.241  1.00  0.00     0.000 A 
ENDBRANCH  26  27
ENDBRANCH  25  26
ENDBRANCH  12  20
ENDBRANCH   5   6
ENDBRANCH   4   5
ENDBRANCH   2   4
ENDBRANCH   1   2
BRANCH   1  33
ATOM     33  C   UNL     1       5.074   2.192  -2.432  1.00  0.00     0.274 C 
BRANCH  33  34
ATOM     34  C   UNL     1       6.290   1.604  -1.737  1.00  0.00     0.275 C 
BRANCH  34  35
ATOM     35  O   UNL     1       6.577   0.253  -2.135  1.00  0.00    -0.458 OA
BRANCH  35  36
ATOM     36  C   UNL     1       6.325  -0.670  -1.189  1.00  0.00     0.338 C 
ATOM     37  O   UNL     1       5.855  -0.475  -0.076  1.00  0.00    -0.246 OA
BRANCH  36  38
ATOM     38  C   UNL     1       6.898  -1.956  -1.512  1.00  0.00     0.060 A 
ATOM     39  C   UNL     1       6.396  -2.731  -2.553  1.00  0.00     0.016 A 
ATOM     40  C   UNL     1       7.978  -2.368  -0.724  1.00  0.00     0.016 A 
ATOM     41  C   UNL     1       7.062  -3.904  -2.868  1.00  0.00     0.010 A 
ATOM     42  C   UNL     1       8.678  -3.498  -1.076  1.00  0.00     0.010 A 
ATOM     43  C   UNL     1       8.242  -4.238  -2.177  1.00  0.00    -0.014 A 
BRANCH  43  44
ATOM     44  C   UNL     1       9.158  -5.230  -2.749  1.00  0.00     0.031 A 
ATOM     45  C   UNL     1       9.379  -6.534  -2.071  1.00  0.00     0.074 A 
ATOM     46  C   UNL     1       9.823  -4.848  -3.854  1.00  0.00     0.049 A 
ATOM     47  N   UNL     1      10.094  -7.547  -2.471  1.00  0.00    -0.248 NA
ATOM     48  C   UNL     1       8.742  -6.716  -0.758  1.00  0.00     0.031 C 
ATOM     49  C   UNL     1       9.725  -3.519  -4.473  1.00  0.00     0.029 A 
ATOM     50  N   UNL     1      10.692  -5.522  -4.659  1.00  0.00    -0.354 N 
ATOM     51  C   UNL     1       9.988  -8.495  -1.465  1.00  0.00     0.074 A 
ATOM     52  C   UNL     1       9.189  -7.913  -0.409  1.00  0.00     0.031 C 
ATOM     53  C   UNL     1      10.451  -3.500  -5.597  1.00  0.00     0.029 A 
ATOM     54  C   UNL     1      11.087  -4.798  -5.757  1.00  0.00     0.049 A 
ATOM     55  H   UNL     1      11.005  -6.437  -4.472  1.00  0.00     0.167 HD
ATOM     56  C   UNL     1      10.505  -9.745  -1.454  1.00  0.00     0.037 A 
ATOM     57  C   UNL     1      11.866  -5.164  -6.788  1.00  0.00     0.037 A 
ATOM     58  C   UNL     1      11.310 -10.257  -2.533  1.00  0.00     0.049 A 
ATOM     59  C   UNL     1      12.374  -6.573  -6.786  1.00  0.00     0.074 A 
ATOM     60  C   UNL     1      11.870 -11.510  -2.685  1.00  0.00     0.029 A 
ATOM     61  N   UNL     1      11.678  -9.513  -3.652  1.00  0.00    -0.354 N 
ATOM     62  N   UNL     1      12.190  -7.507  -5.881  1.00  0.00    -0.248 NA
ATOM     63  C   UNL     1      13.185  -6.986  -7.932  1.00  0.00     0.031 C 
ATOM     64  C   UNL     1      12.604 -11.511  -3.878  1.00  0.00     0.029 A 
ATOM     65  C   UNL     1      12.475 -10.271  -4.490  1.00  0.00     0.049 A 
ATOM     66  H   UNL     1      11.408  -8.581  -3.822  1.00  0.00     0.167 HD
ATOM     67  C   UNL     1      12.875  -8.620  -6.335  1.00  0.00     0.074 A 
ATOM     68  C   UNL     1      13.443  -8.250  -7.622  1.00  0.00     0.031 C 
ATOM     69  C   UNL     1      13.038  -9.831  -5.745  1.00  0.00     0.037 A 
BRANCH  56  70
ATOM     70  C   UNL     1      10.220 -10.589  -0.246  1.00  0.00     0.057 A 
ATOM     71  C   UNL     1       8.925 -11.040   0.051  1.00  0.00     0.134 A 
ATOM     72  C   UNL     1      11.234 -10.910   0.664  1.00  0.00     0.134 A 
ATOM     73  F   UNL     1       7.900 -10.752  -0.766  1.00  0.00    -0.206 F 
ATOM     74  C   UNL     1       8.642 -11.739   1.228  1.00  0.00     0.040 A 
ATOM     75  C   UNL     1      10.968 -11.631   1.831  1.00  0.00     0.040 A 
ATOM     76  F   UNL     1      12.496 -10.511   0.448  1.00  0.00    -0.206 F 
ATOM     77  C   UNL     1       9.667 -12.036   2.123  1.00  0.00     0.006 A 
ENDBRANCH  56  70
BRANCH  57  78
ATOM     78  C   UNL     1      12.135  -4.196  -7.878  1.00  0.00     0.057 A 
ATOM     79  C   UNL     1      11.531  -4.328  -9.133  1.00  0.00     0.134 A 
ATOM     80  C   UNL     1      12.912  -3.051  -7.657  1.00  0.00     0.134 A 
ATOM     81  F   UNL     1      10.773  -5.399  -9.408  1.00  0.00    -0.206 F 
ATOM     82  C   UNL     1      11.689  -3.359 -10.127  1.00  0.00     0.040 A 
ATOM     83  C   UNL     1      13.060  -2.063  -8.633  1.00  0.00     0.040 A 
ATOM     84  F   UNL     1      13.497  -2.850  -6.467  1.00  0.00    -0.206 F 
ATOM     85  C   UNL     1      12.446  -2.216  -9.874  1.00  0.00     0.006 A 
ENDBRANCH  57  78
BRANCH  69  86
ATOM     86  C   UNL     1      13.900 -10.803  -6.485  1.00  0.00     0.057 A 
ATOM     87  C   UNL     1      15.293 -10.663  -6.508  1.00  0.00     0.134 A 
ATOM     88  C   UNL     1      13.339 -11.900  -7.146  1.00  0.00     0.134 A 
ATOM     89  F   UNL     1      15.882  -9.619  -5.904  1.00  0.00    -0.206 F 
ATOM     90  C   UNL     1      16.101 -11.576  -7.182  1.00  0.00     0.040 A 
ATOM     91  C   UNL     1      14.138 -12.833  -7.804  1.00  0.00     0.040 A 
ATOM     92  F   UNL     1      12.010 -12.087  -7.153  1.00  0.00    -0.206 F 
ATOM     93  C   UNL     1      15.523 -12.669  -7.827  1.00  0.00     0.006 A 
ENDBRANCH  69  86
ENDBRANCH  43  44
ENDBRANCH  36  38
ENDBRANCH  35  36
ENDBRANCH  34  35
ENDBRANCH  33  34
ENDBRANCH   1  33
TORSDOF 16
