REMARK SMILES Cc1ccc(C)c(S(=O)(=O)N[C@H](CC2=c3ccccc3=NC2)C(=O)OCCOC(=O)c2ccc(-c3c4nc(c(-c5c(F)cccc5F)c5ccc([nH]5)c(-c5c(F)cccc5F)c5nc(c(-c6c(F)cccc6F)c6ccc3[nH]6)C=C5)C=C4)cc2)c1
REMARK SMILES IDX 26 1 25 2 23 3 24 4 12 5 11 6 8 8 9 9 10 10 7 11 1 12 2 13
REMARK SMILES IDX 3 14 85 15 4 16 5 17 6 18 13 19 14 20 15 21 22 22 16 23
REMARK SMILES IDX 20 24 21 25 17 26 19 27 18 28 27 29 28 30 29 31 30 32 31 33
REMARK SMILES IDX 32 34 84 35 33 36 83 37 34 38 35 39 36 40 77 41 37 42 82 43
REMARK SMILES IDX 76 44 78 45 38 46 81 47 75 48 74 49 39 51 65 52 48 53 64 54
REMARK SMILES IDX 49 55 52 56 63 57 79 58 50 59 51 60 62 62 80 63 53 64 40 65
REMARK SMILES IDX 41 66 46 67 42 68 43 69 45 70 47 71 44 72 66 73 67 74 72 75
REMARK SMILES IDX 68 76 69 77 71 78 73 79 70 80 54 81 55 82 60 83 56 84 57 85
REMARK SMILES IDX 59 86 61 87 58 88
REMARK H PARENT 11 7 78 50 52 61
REMARK Flexibility Score: inf
ROOT
ATOM      1  C   UNL     1       3.649   8.381  -0.643  1.00  0.00     0.274 C 
ENDROOT
BRANCH   1   2
ATOM      2  O   UNL     1       2.542   7.915  -1.426  1.00  0.00    -0.461 OA
BRANCH   2   3
ATOM      3  C   UNL     1       2.613   6.530  -1.900  1.00  0.00     0.324 C 
ATOM      4  O   UNL     1       3.837   6.415  -2.229  1.00  0.00    -0.250 OA
BRANCH   3   5
ATOM      5  C   UNL     1       0.922   5.150  -1.889  1.00  0.00     0.183 C 
BRANCH   5   6
ATOM      6  N   UNL     1      -0.081   4.526  -3.103  1.00  0.00    -0.197 NA
ATOM      7  H   UNL     1      -1.023   4.586  -2.716  1.00  0.00     0.142 HD
BRANCH   6   8
ATOM      8  S   UNL     1      -0.006   2.964  -3.838  1.00  0.00     0.241 S 
ATOM      9  O   UNL     1       1.360   2.762  -4.270  1.00  0.00    -0.207 OA
ATOM     10  O   UNL     1      -1.087   3.009  -4.806  1.00  0.00    -0.207 OA
BRANCH   8  11
ATOM     11  C   UNL     1      -0.403   1.469  -2.851  1.00  0.00     0.085 A 
ATOM     12  C   UNL     1      -1.633   0.292   0.610  1.00  0.00     0.044 C 
ATOM     13  C   UNL     1      -1.120   0.302  -0.805  1.00  0.00    -0.050 A 
ATOM     14  C   UNL     1      -0.809  -0.936  -1.370  1.00  0.00     0.004 A 
ATOM     15  C   UNL     1      -0.949   1.496  -1.560  1.00  0.00     0.025 A 
ATOM     16  C   UNL     1      -0.344  -0.994  -2.672  1.00  0.00     0.005 A 
ATOM     17  C   UNL     1      -0.143   0.184  -3.429  1.00  0.00    -0.031 A 
ATOM     18  C   UNL     1       0.322  -0.078  -4.840  1.00  0.00     0.046 C 
ENDBRANCH   8  11
ENDBRANCH   6   8
ENDBRANCH   5   6
BRANCH   5  19
ATOM     19  C   UNL     1      -0.397   4.818  -0.568  1.00  0.00     0.065 C 
BRANCH  19  20
ATOM     20  C   UNL     1      -0.790   5.563   0.727  1.00  0.00    -0.037 C 
ATOM     21  C   UNL     1      -0.333   5.394   1.977  1.00  0.00     0.001 A 
ATOM     22  C   UNL     1      -1.642   6.807   0.679  1.00  0.00     0.174 C 
ATOM     23  C   UNL     1       0.436   4.419   2.686  1.00  0.00     0.010 A 
ATOM     24  C   UNL     1      -0.530   6.749   2.552  1.00  0.00     0.065 A 
ATOM     25  N   UNL     1      -1.243   7.595   1.870  1.00  0.00    -0.280 NA
ATOM     26  C   UNL     1       1.010   4.755   3.856  1.00  0.00     0.001 A 
ATOM     27  C   UNL     1       0.238   7.078   3.776  1.00  0.00     0.028 A 
ATOM     28  C   UNL     1       0.966   6.114   4.364  1.00  0.00     0.002 A 
ENDBRANCH  19  20
ENDBRANCH   5  19
ENDBRANCH   3   5
ENDBRANCH   2   3
ENDBRANCH   1   2
BRANCH   1  29
ATOM     29  C   UNL     1       3.643   7.752   0.761  1.00  0.00     0.275 C 
BRANCH  29  30
ATOM     30  O   UNL     1       4.088   6.365   0.866  1.00  0.00    -0.458 OA
BRANCH  30  31
ATOM     31  C   UNL     1       3.310   5.251   0.787  1.00  0.00     0.338 C 
ATOM     32  O   UNL     1       3.491   4.228   1.425  1.00  0.00    -0.246 OA
BRANCH  31  33
ATOM     33  C   UNL     1       2.386   5.242  -0.350  1.00  0.00     0.060 A 
ATOM     34  C   UNL     1       2.961   4.477  -1.888  1.00  0.00     0.016 A 
ATOM     35  C   UNL     1       1.189   6.586  -0.436  1.00  0.00     0.016 A 
ATOM     36  C   UNL     1       2.431   5.203  -3.472  1.00  0.00     0.010 A 
ATOM     37  C   UNL     1       0.603   7.214  -2.026  1.00  0.00     0.010 A 
ATOM     38  C   UNL     1       1.382   6.659  -3.521  1.00  0.00    -0.014 A 
BRANCH  38  39
ATOM     39  C   UNL     1       1.520   7.822  -4.557  1.00  0.00     0.031 A 
ATOM     40  C   UNL     1       0.232   7.788  -5.260  1.00  0.00     0.074 A 
ATOM     41  C   UNL     1       2.333   8.922  -4.822  1.00  0.00     0.049 A 
ATOM     42  N   UNL     1      -0.049   6.899  -6.152  1.00  0.00    -0.248 NA
ATOM     43  C   UNL     1      -0.945   8.461  -4.688  1.00  0.00     0.031 C 
ATOM     44  C   UNL     1       3.528   9.449  -4.133  1.00  0.00     0.029 A 
ATOM     45  N   UNL     1       2.226   9.887  -5.854  1.00  0.00    -0.354 N 
ATOM     46  C   UNL     1      -1.357   7.161  -6.489  1.00  0.00     0.074 A 
ATOM     47  C   UNL     1      -1.919   7.813  -5.338  1.00  0.00     0.031 C 
ATOM     48  C   UNL     1       3.889  10.684  -4.600  1.00  0.00     0.029 A 
ATOM     49  C   UNL     1       3.079  11.039  -5.755  1.00  0.00     0.049 A 
ATOM     50  H   UNL     1       1.597   9.774  -6.602  1.00  0.00     0.167 HD
ATOM     51  C   UNL     1      -1.709   7.229  -7.801  1.00  0.00     0.037 A 
ATOM     52  C   UNL     1       3.203  12.123  -6.613  1.00  0.00     0.037 A 
ATOM     53  C   UNL     1      -0.576   6.864  -8.637  1.00  0.00     0.049 A 
ATOM     54  C   UNL     1       2.706  11.672  -7.924  1.00  0.00     0.074 A 
ATOM     55  C   UNL     1       0.216   5.752  -8.835  1.00  0.00     0.029 A 
ATOM     56  N   UNL     1       0.145   7.939  -9.088  1.00  0.00    -0.354 N 
ATOM     57  N   UNL     1       3.310  10.793  -8.663  1.00  0.00    -0.248 NA
ATOM     58  C   UNL     1       1.307  11.904  -8.212  1.00  0.00     0.031 C 
ATOM     59  C   UNL     1       1.522   6.247  -9.140  1.00  0.00     0.029 A 
ATOM     60  C   UNL     1       1.470   7.637  -9.218  1.00  0.00     0.049 A 
ATOM     61  H   UNL     1      -0.244   8.820  -9.292  1.00  0.00     0.167 HD
ATOM     62  C   UNL     1       2.278   9.990  -9.106  1.00  0.00     0.074 A 
ATOM     63  C   UNL     1       1.065  10.787  -8.899  1.00  0.00     0.031 C 
ATOM     64  C   UNL     1       2.497   8.653  -9.275  1.00  0.00     0.037 A 
BRANCH  51  65
ATOM     65  C   UNL     1      -2.820   8.093  -8.354  1.00  0.00     0.057 A 
ATOM     66  C   UNL     1      -3.375   9.232  -7.734  1.00  0.00     0.134 A 
ATOM     67  C   UNL     1      -3.162   7.930  -9.708  1.00  0.00     0.134 A 
ATOM     68  F   UNL     1      -3.096   9.592  -6.478  1.00  0.00    -0.206 F 
ATOM     69  C   UNL     1      -4.186  10.146  -8.409  1.00  0.00     0.040 A 
ATOM     70  C   UNL     1      -3.931   8.867 -10.407  1.00  0.00     0.040 A 
ATOM     71  F   UNL     1      -2.690   6.891 -10.415  1.00  0.00    -0.206 F 
ATOM     72  C   UNL     1      -4.441   9.983  -9.759  1.00  0.00     0.006 A 
ENDBRANCH  51  65
BRANCH  52  73
ATOM     73  C   UNL     1       3.518  13.608  -6.506  1.00  0.00     0.057 A 
ATOM     74  C   UNL     1       3.107  14.331  -5.380  1.00  0.00     0.134 A 
ATOM     75  C   UNL     1       3.845  14.422  -7.628  1.00  0.00     0.134 A 
ATOM     76  F   UNL     1       2.686  13.682  -4.287  1.00  0.00    -0.206 F 
ATOM     77  C   UNL     1       2.998  15.741  -5.365  1.00  0.00     0.040 A 
ATOM     78  C   UNL     1       3.749  15.835  -7.625  1.00  0.00     0.040 A 
ATOM     79  F   UNL     1       4.190  13.869  -8.801  1.00  0.00    -0.206 F 
ATOM     80  C   UNL     1       3.308  16.499  -6.489  1.00  0.00     0.006 A 
ENDBRANCH  52  73
BRANCH  64  81
ATOM     81  C   UNL     1       3.933   8.200  -9.384  1.00  0.00     0.057 A 
ATOM     82  C   UNL     1       4.332   7.577 -10.571  1.00  0.00     0.134 A 
ATOM     83  C   UNL     1       4.896   8.284  -8.364  1.00  0.00     0.134 A 
ATOM     84  F   UNL     1       3.459   7.428 -11.579  1.00  0.00    -0.206 F 
ATOM     85  C   UNL     1       5.620   7.067 -10.745  1.00  0.00     0.040 A 
ATOM     86  C   UNL     1       6.201   7.806  -8.537  1.00  0.00     0.040 A 
ATOM     87  F   UNL     1       4.595   8.798  -7.165  1.00  0.00    -0.206 F 
ATOM     88  C   UNL     1       6.565   7.191  -9.730  1.00  0.00     0.006 A 
ENDBRANCH  64  81
ENDBRANCH  38  39
ENDBRANCH  31  33
ENDBRANCH  30  31
ENDBRANCH  29  30
ENDBRANCH   1  29
TORSDOF 16
