REMARK SMILES O=C(CCc1cccnc1)Nc1ccsc1C(=O)OCCOC(=O)c1ccc(-c2c3nc(c(-c4c(F)cccc4F)c4ccc([nH]4)c(-c4c(F)cccc4F)c4nc(c(-c5c(F)cccc5F)c5ccc2[nH]5)C=C4)C=C3)cc1
REMARK SMILES IDX 20 1 19 2 17 3 18 4 16 5 12 6 13 7 14 8 15 9 11 10 1 11 2 12
REMARK SMILES IDX 3 14 4 15 5 16 6 17 10 18 7 19 9 20 8 21 21 22 22 23 23 24
REMARK SMILES IDX 24 25 25 26 26 27 78 28 27 29 77 30 28 31 29 32 30 33 71 34
REMARK SMILES IDX 31 35 76 36 70 37 72 38 32 39 75 40 69 41 68 42 33 44 59 45
REMARK SMILES IDX 42 46 58 47 43 48 46 49 57 50 73 51 44 52 45 53 56 55 74 56
REMARK SMILES IDX 47 57 34 58 35 59 40 60 36 61 37 62 39 63 41 64 38 65 60 66
REMARK SMILES IDX 61 67 66 68 62 69 63 70 65 71 67 72 64 73 48 74 49 75 54 76
REMARK SMILES IDX 50 77 51 78 53 79 55 80 52 81
REMARK H PARENT 11 13 72 43 46 54
REMARK Flexibility Score: inf
ROOT
ATOM      1  C   UNL     1       4.940   2.765  -3.326  1.00  0.00     0.275 C 
ENDROOT
BRANCH   1   2
ATOM      2  O   UNL     1       3.769   2.755  -2.470  1.00  0.00    -0.458 OA
BRANCH   2   3
ATOM      3  C   UNL     1       3.791   3.596  -1.379  1.00  0.00     0.350 C 
ATOM      4  O   UNL     1       4.716   4.341  -1.113  1.00  0.00    -0.245 OA
BRANCH   3   5
ATOM      5  C   UNL     1       2.559   3.459  -0.614  1.00  0.00     0.136 A 
ATOM      6  C   UNL     1       1.970   2.351  -0.021  1.00  0.00     0.066 A 
ATOM      7  C   UNL     1       0.619   2.615   0.357  1.00  0.00     0.039 A 
ATOM      8  C   UNL     1       0.298   3.949   0.237  1.00  0.00     0.068 A 
ATOM      9  S   UNL     1       1.605   4.866  -0.366  1.00  0.00    -0.135 S 
BRANCH   6  10
ATOM     10  N   UNL     1       2.649   1.165   0.226  1.00  0.00    -0.325 N 
ATOM     11  O   UNL     1       0.981  -0.372  -0.242  1.00  0.00    -0.275 OA
ATOM     12  C   UNL     1       2.128  -0.105   0.099  1.00  0.00     0.224 C 
ATOM     13  H   UNL     1       3.586   1.237   0.518  1.00  0.00     0.169 HD
BRANCH  12  14
ATOM     14  C   UNL     1       3.158  -1.202   0.364  1.00  0.00     0.105 C 
BRANCH  14  15
ATOM     15  C   UNL     1       4.080  -1.499  -0.834  1.00  0.00     0.047 C 
BRANCH  15  16
ATOM     16  C   UNL     1       5.441  -0.838  -0.783  1.00  0.00    -0.029 A 
ATOM     17  C   UNL     1       5.586   0.543  -0.795  1.00  0.00     0.007 A 
ATOM     18  C   UNL     1       6.628  -1.557  -0.777  1.00  0.00     0.114 A 
ATOM     19  C   UNL     1       6.827   1.162  -0.698  1.00  0.00     0.020 A 
ATOM     20  N   UNL     1       7.864  -0.996  -0.731  1.00  0.00    -0.264 NA
ATOM     21  C   UNL     1       7.936   0.351  -0.678  1.00  0.00     0.111 A 
ENDBRANCH  15  16
ENDBRANCH  14  15
ENDBRANCH  12  14
ENDBRANCH   6  10
ENDBRANCH   3   5
ENDBRANCH   2   3
ENDBRANCH   1   2
BRANCH   1  22
ATOM     22  C   UNL     1       4.596   2.397  -4.771  1.00  0.00     0.275 C 
BRANCH  22  23
ATOM     23  O   UNL     1       3.921   3.503  -5.378  1.00  0.00    -0.458 OA
BRANCH  23  24
ATOM     24  C   UNL     1       2.577   3.455  -5.258  1.00  0.00     0.338 C 
ATOM     25  O   UNL     1       1.881   2.512  -4.930  1.00  0.00    -0.246 OA
BRANCH  24  26
ATOM     26  C   UNL     1       2.101   4.836  -5.322  1.00  0.00     0.060 A 
ATOM     27  C   UNL     1       1.717   5.421  -4.116  1.00  0.00     0.016 A 
ATOM     28  C   UNL     1       2.014   5.529  -6.525  1.00  0.00     0.016 A 
ATOM     29  C   UNL     1       1.195   6.705  -4.101  1.00  0.00     0.010 A 
ATOM     30  C   UNL     1       1.497   6.824  -6.512  1.00  0.00     0.010 A 
ATOM     31  C   UNL     1       1.061   7.405  -5.304  1.00  0.00    -0.014 A 
BRANCH  31  32
ATOM     32  C   UNL     1       0.354   8.703  -5.321  1.00  0.00     0.031 A 
ATOM     33  C   UNL     1      -1.010   8.773  -5.942  1.00  0.00     0.074 A 
ATOM     34  C   UNL     1       0.921   9.792  -4.775  1.00  0.00     0.049 A 
ATOM     35  N   UNL     1      -1.740   9.820  -6.221  1.00  0.00    -0.248 NA
ATOM     36  C   UNL     1      -1.628   7.489  -6.313  1.00  0.00     0.031 C 
ATOM     37  C   UNL     1       2.214   9.820  -4.089  1.00  0.00     0.029 A 
ATOM     38  N   UNL     1       0.484  11.090  -4.721  1.00  0.00    -0.354 N 
ATOM     39  C   UNL     1      -2.881   9.326  -6.840  1.00  0.00     0.074 A 
ATOM     40  C   UNL     1      -2.746   7.887  -6.902  1.00  0.00     0.031 C 
ATOM     41  C   UNL     1       2.469  11.076  -3.690  1.00  0.00     0.029 A 
ATOM     42  C   UNL     1       1.388  11.946  -4.144  1.00  0.00     0.049 A 
ATOM     43  H   UNL     1      -0.392  11.380  -5.064  1.00  0.00     0.167 HD
ATOM     44  C   UNL     1      -3.942  10.018  -7.314  1.00  0.00     0.037 A 
ATOM     45  C   UNL     1       1.362  13.287  -4.035  1.00  0.00     0.037 A 
ATOM     46  C   UNL     1      -4.076  11.447  -7.209  1.00  0.00     0.049 A 
ATOM     47  C   UNL     1       0.189  14.037  -4.602  1.00  0.00     0.074 A 
ATOM     48  C   UNL     1      -5.117  12.251  -7.636  1.00  0.00     0.029 A 
ATOM     49  N   UNL     1      -3.135  12.282  -6.624  1.00  0.00    -0.354 N 
ATOM     50  N   UNL     1      -0.874  13.569  -5.212  1.00  0.00    -0.248 NA
ATOM     51  C   UNL     1       0.214  15.500  -4.476  1.00  0.00     0.031 C 
ATOM     52  C   UNL     1      -4.788  13.579  -7.343  1.00  0.00     0.029 A 
ATOM     53  C   UNL     1      -3.563  13.596  -6.693  1.00  0.00     0.049 A 
ATOM     54  H   UNL     1      -2.288  11.984  -6.220  1.00  0.00     0.167 HD
ATOM     55  C   UNL     1      -1.651  14.675  -5.528  1.00  0.00     0.074 A 
ATOM     56  C   UNL     1      -0.944  15.837  -5.025  1.00  0.00     0.031 C 
ATOM     57  C   UNL     1      -2.839  14.730  -6.179  1.00  0.00     0.037 A 
BRANCH  44  58
ATOM     58  C   UNL     1      -5.017   9.245  -8.020  1.00  0.00     0.057 A 
ATOM     59  C   UNL     1      -5.910   8.412  -7.335  1.00  0.00     0.134 A 
ATOM     60  C   UNL     1      -5.174   9.358  -9.408  1.00  0.00     0.134 A 
ATOM     61  F   UNL     1      -5.803   8.244  -6.008  1.00  0.00    -0.206 F 
ATOM     62  C   UNL     1      -6.908   7.703  -8.008  1.00  0.00     0.040 A 
ATOM     63  C   UNL     1      -6.183   8.675 -10.088  1.00  0.00     0.040 A 
ATOM     64  F   UNL     1      -4.352  10.139 -10.124  1.00  0.00    -0.206 F 
ATOM     65  C   UNL     1      -7.051   7.840  -9.387  1.00  0.00     0.006 A 
ENDBRANCH  44  58
BRANCH  45  66
ATOM     66  C   UNL     1       2.498  14.004  -3.403  1.00  0.00     0.057 A 
ATOM     67  C   UNL     1       2.353  14.656  -2.174  1.00  0.00     0.134 A 
ATOM     68  C   UNL     1       3.758  14.055  -4.014  1.00  0.00     0.134 A 
ATOM     69  F   UNL     1       1.166  14.663  -1.550  1.00  0.00    -0.206 F 
ATOM     70  C   UNL     1       3.413  15.344  -1.581  1.00  0.00     0.040 A 
ATOM     71  C   UNL     1       4.834  14.715  -3.420  1.00  0.00     0.040 A 
ATOM     72  F   UNL     1       3.965  13.448  -5.192  1.00  0.00    -0.206 F 
ATOM     73  C   UNL     1       4.661  15.368  -2.202  1.00  0.00     0.006 A 
ENDBRANCH  45  66
BRANCH  57  74
ATOM     74  C   UNL     1      -3.455  16.085  -6.353  1.00  0.00     0.057 A 
ATOM     75  C   UNL     1      -2.954  17.009  -7.279  1.00  0.00     0.134 A 
ATOM     76  C   UNL     1      -4.584  16.454  -5.611  1.00  0.00     0.134 A 
ATOM     77  F   UNL     1      -1.867  16.719  -8.009  1.00  0.00    -0.206 F 
ATOM     78  C   UNL     1      -3.543  18.263  -7.444  1.00  0.00     0.040 A 
ATOM     79  C   UNL     1      -5.196  17.695  -5.786  1.00  0.00     0.040 A 
ATOM     80  F   UNL     1      -5.116  15.610  -4.715  1.00  0.00    -0.206 F 
ATOM     81  C   UNL     1      -4.671  18.606  -6.701  1.00  0.00     0.006 A 
ENDBRANCH  57  74
ENDBRANCH  31  32
ENDBRANCH  24  26
ENDBRANCH  23  24
ENDBRANCH  22  23
ENDBRANCH   1  22
TORSDOF 15
