REMARK SMILES C[C@H]1CC[C@@](C[C@@H]2CCCc3ccccc32)(C(=O)OCCOC(=O)c2ccc(-c3c4nc(c(-c5c(F)cccc5F)c5ccc([nH]5)c(-c5c(F)cccc5F)c5nc(c(-c6c(F)cccc6F)c6ccc3[nH]6)C=C5)C=C4)cc2)C1
REMARK SMILES IDX 20 1 19 2 17 3 18 4 5 5 1 6 2 7 3 8 79 9 4 10 6 11 7 12 8 13
REMARK SMILES IDX 16 14 9 15 11 16 15 17 10 18 12 19 14 20 13 21 21 22 22 23
REMARK SMILES IDX 23 24 24 25 25 26 26 27 78 28 27 29 77 30 28 31 29 32 30 33
REMARK SMILES IDX 71 34 31 35 76 36 70 37 72 38 32 39 75 40 69 41 68 42 33 44
REMARK SMILES IDX 59 45 42 46 58 47 43 48 46 49 57 50 73 51 44 52 45 53 56 55
REMARK SMILES IDX 74 56 47 57 34 58 35 59 40 60 36 61 37 62 39 63 41 64 38 65
REMARK SMILES IDX 60 66 61 67 66 68 62 69 63 70 65 71 67 72 64 73 48 74 49 75
REMARK SMILES IDX 54 76 50 77 51 78 53 79 55 80 52 81
REMARK H PARENT 72 43 46 54
REMARK Flexibility Score: inf
ROOT
ATOM      1  C   UNL     1      -4.294   2.451   0.597  1.00  0.00     0.274 C 
ENDROOT
BRANCH   1   2
ATOM      2  O   UNL     1      -3.233   1.532   0.269  1.00  0.00    -0.462 OA
BRANCH   2   3
ATOM      3  C   UNL     1      -2.105   2.047  -0.276  1.00  0.00     0.312 C 
ATOM      4  O   UNL     1      -1.897   3.248  -0.403  1.00  0.00    -0.252 OA
BRANCH   3   5
ATOM      5  C   UNL     1      -1.132   0.962  -0.773  1.00  0.00     0.069 C 
ATOM      6  C   UNL     1       2.134   0.126   1.081  1.00  0.00     0.007 C 
ATOM      7  C   UNL     1       0.957   0.001   0.128  1.00  0.00    -0.013 C 
ATOM      8  C   UNL     1      -0.195  -0.781   0.727  1.00  0.00     0.004 C 
ATOM      9  C   UNL     1       0.294   1.331  -0.235  1.00  0.00     0.022 C 
ATOM     10  C   UNL     1      -1.359  -0.463  -0.204  1.00  0.00     0.019 C 
BRANCH   5  11
ATOM     11  C   UNL     1      -1.115   1.053  -2.330  1.00  0.00     0.027 C 
BRANCH  11  12
ATOM     12  C   UNL     1      -2.211   0.399  -3.228  1.00  0.00     0.020 C 
ATOM     13  C   UNL     1      -3.668   0.758  -2.894  1.00  0.00     0.009 C 
ATOM     14  C   UNL     1      -1.988  -1.086  -3.459  1.00  0.00    -0.042 A 
ATOM     15  C   UNL     1      -4.376  -0.260  -2.011  1.00  0.00     0.005 C 
ATOM     16  C   UNL     1      -2.940  -2.049  -3.082  1.00  0.00    -0.045 A 
ATOM     17  C   UNL     1      -0.781  -1.515  -4.042  1.00  0.00     0.004 A 
ATOM     18  C   UNL     1      -4.309  -1.666  -2.585  1.00  0.00     0.036 C 
ATOM     19  C   UNL     1      -2.637  -3.412  -3.230  1.00  0.00     0.004 A 
ATOM     20  C   UNL     1      -0.494  -2.869  -4.188  1.00  0.00     0.000 A 
ATOM     21  C   UNL     1      -1.415  -3.819  -3.765  1.00  0.00     0.000 A 
ENDBRANCH  11  12
ENDBRANCH   5  11
ENDBRANCH   3   5
ENDBRANCH   2   3
ENDBRANCH   1   2
BRANCH   1  22
ATOM     22  C   UNL     1      -5.107   1.870   1.753  1.00  0.00     0.275 C 
BRANCH  22  23
ATOM     23  O   UNL     1      -4.308   1.977   2.944  1.00  0.00    -0.458 OA
BRANCH  23  24
ATOM     24  C   UNL     1      -3.627   0.862   3.288  1.00  0.00     0.338 C 
ATOM     25  O   UNL     1      -3.811  -0.284   2.925  1.00  0.00    -0.246 OA
BRANCH  24  26
ATOM     26  C   UNL     1      -2.442   1.307   4.029  1.00  0.00     0.060 A 
ATOM     27  C   UNL     1      -1.348   1.742   3.283  1.00  0.00     0.016 A 
ATOM     28  C   UNL     1      -2.382   1.257   5.417  1.00  0.00     0.016 A 
ATOM     29  C   UNL     1      -0.159   2.081   3.910  1.00  0.00     0.010 A 
ATOM     30  C   UNL     1      -1.202   1.658   6.053  1.00  0.00     0.010 A 
ATOM     31  C   UNL     1      -0.074   2.052   5.305  1.00  0.00    -0.014 A 
BRANCH  31  32
ATOM     32  C   UNL     1       1.213   2.356   5.978  1.00  0.00     0.031 A 
ATOM     33  C   UNL     1       1.876   1.293   6.806  1.00  0.00     0.074 A 
ATOM     34  C   UNL     1       1.801   3.560   5.839  1.00  0.00     0.049 A 
ATOM     35  N   UNL     1       2.845   1.403   7.676  1.00  0.00    -0.248 NA
ATOM     36  C   UNL     1       1.362  -0.077   6.643  1.00  0.00     0.031 C 
ATOM     37  C   UNL     1       1.314   4.654   4.998  1.00  0.00     0.029 A 
ATOM     38  N   UNL     1       2.945   4.063   6.408  1.00  0.00    -0.354 N 
ATOM     39  C   UNL     1       3.007   0.135   8.219  1.00  0.00     0.074 A 
ATOM     40  C   UNL     1       2.046  -0.732   7.571  1.00  0.00     0.031 C 
ATOM     41  C   UNL     1       2.163   5.689   5.088  1.00  0.00     0.029 A 
ATOM     42  C   UNL     1       3.202   5.367   6.060  1.00  0.00     0.049 A 
ATOM     43  H   UNL     1       3.525   3.540   7.007  1.00  0.00     0.167 HD
ATOM     44  C   UNL     1       3.873  -0.262   9.181  1.00  0.00     0.037 A 
ATOM     45  C   UNL     1       4.137   6.223   6.513  1.00  0.00     0.037 A 
ATOM     46  C   UNL     1       4.864   0.598   9.772  1.00  0.00     0.049 A 
ATOM     47  C   UNL     1       5.081   5.768   7.589  1.00  0.00     0.074 A 
ATOM     48  C   UNL     1       5.781   0.306  10.767  1.00  0.00     0.029 A 
ATOM     49  N   UNL     1       5.085   1.915   9.398  1.00  0.00    -0.354 N 
ATOM     50  N   UNL     1       5.158   4.600   8.180  1.00  0.00    -0.248 NA
ATOM     51  C   UNL     1       6.050   6.756   8.081  1.00  0.00     0.031 C 
ATOM     52  C   UNL     1       6.544   1.455  11.008  1.00  0.00     0.029 A 
ATOM     53  C   UNL     1       6.125   2.450  10.139  1.00  0.00     0.049 A 
ATOM     54  H   UNL     1       4.576   2.399   8.707  1.00  0.00     0.167 HD
ATOM     55  C   UNL     1       6.183   4.710   9.109  1.00  0.00     0.074 A 
ATOM     56  C   UNL     1       6.715   6.052   8.986  1.00  0.00     0.031 C 
ATOM     57  C   UNL     1       6.637   3.788   9.993  1.00  0.00     0.037 A 
BRANCH  44  58
ATOM     58  C   UNL     1       3.747  -1.669   9.683  1.00  0.00     0.057 A 
ATOM     59  C   UNL     1       4.153  -2.774   8.925  1.00  0.00     0.134 A 
ATOM     60  C   UNL     1       3.212  -1.919  10.954  1.00  0.00     0.134 A 
ATOM     61  F   UNL     1       4.654  -2.605   7.692  1.00  0.00    -0.206 F 
ATOM     62  C   UNL     1       4.009  -4.078   9.402  1.00  0.00     0.040 A 
ATOM     63  C   UNL     1       3.086  -3.217  11.452  1.00  0.00     0.040 A 
ATOM     64  F   UNL     1       2.804  -0.906  11.732  1.00  0.00    -0.206 F 
ATOM     65  C   UNL     1       3.479  -4.302  10.672  1.00  0.00     0.006 A 
ENDBRANCH  44  58
BRANCH  45  66
ATOM     66  C   UNL     1       4.186   7.611   5.988  1.00  0.00     0.057 A 
ATOM     67  C   UNL     1       5.244   8.043   5.182  1.00  0.00     0.134 A 
ATOM     68  C   UNL     1       3.171   8.535   6.270  1.00  0.00     0.134 A 
ATOM     69  F   UNL     1       6.259   7.213   4.898  1.00  0.00    -0.206 F 
ATOM     70  C   UNL     1       5.294   9.344   4.677  1.00  0.00     0.040 A 
ATOM     71  C   UNL     1       3.195   9.830   5.751  1.00  0.00     0.040 A 
ATOM     72  F   UNL     1       2.129   8.183   7.037  1.00  0.00    -0.206 F 
ATOM     73  C   UNL     1       4.262  10.239   4.954  1.00  0.00     0.006 A 
ENDBRANCH  45  66
BRANCH  57  74
ATOM     74  C   UNL     1       7.779   4.198  10.872  1.00  0.00     0.057 A 
ATOM     75  C   UNL     1       7.594   5.055  11.964  1.00  0.00     0.134 A 
ATOM     76  C   UNL     1       9.069   3.707  10.640  1.00  0.00     0.134 A 
ATOM     77  F   UNL     1       6.384   5.568  12.230  1.00  0.00    -0.206 F 
ATOM     78  C   UNL     1       8.661   5.425  12.785  1.00  0.00     0.040 A 
ATOM     79  C   UNL     1      10.139   4.054  11.465  1.00  0.00     0.040 A 
ATOM     80  F   UNL     1       9.307   2.878   9.612  1.00  0.00    -0.206 F 
ATOM     81  C   UNL     1       9.936   4.920  12.538  1.00  0.00     0.006 A 
ENDBRANCH  57  74
ENDBRANCH  31  32
ENDBRANCH  24  26
ENDBRANCH  23  24
ENDBRANCH  22  23
ENDBRANCH   1  22
TORSDOF 13
