REMARK SMILES CC1=C[C@H](C)[C@H](CN2C[C@@]34C=C[C@@H](O3)[C@H](C(=O)OCCOC(=O)c3ccc(-c5c6nc(c(-c7c(F)cccc7F)c7ccc([nH]7)c(-c7c(F)cccc7F)c7nc(c(-c8c(F)cccc8F)c8ccc5[nH]8)C=C7)C=C6)cc3)[C@@H]4C2=O)[C@H](C)C1
REMARK SMILES IDX 19 1 18 2 16 3 17 4 15 5 8 6 9 7 79 8 10 9 78 10 80 11 11 12
REMARK SMILES IDX 14 13 12 14 13 15 7 16 6 17 1 18 2 19 3 20 83 21 4 22 81 23
REMARK SMILES IDX 5 24 82 25 20 26 21 27 22 28 23 29 24 30 25 31 77 32 26 33
REMARK SMILES IDX 76 34 27 35 28 36 29 37 70 38 30 39 75 40 69 41 71 42 31 43
REMARK SMILES IDX 74 44 68 45 67 46 32 48 58 49 41 50 57 51 42 52 45 53 56 54
REMARK SMILES IDX 72 55 43 56 44 57 55 59 73 60 46 61 33 62 34 63 39 64 35 65
REMARK SMILES IDX 36 66 38 67 40 68 37 69 59 70 60 71 65 72 61 73 62 74 64 75
REMARK SMILES IDX 66 76 63 77 47 78 48 79 53 80 49 81 50 82 52 83 54 84 51 85
REMARK H PARENT 71 47 45 58
REMARK Flexibility Score: inf
ROOT
ATOM      1  C   UNL     1      -7.416  -2.581   7.625  1.00  0.00     0.274 C 
ENDROOT
BRANCH   1   2
ATOM      2  O   UNL     1      -6.031  -2.338   7.951  1.00  0.00    -0.462 OA
BRANCH   2   3
ATOM      3  C   UNL     1      -5.418  -1.508   7.086  1.00  0.00     0.312 C 
ATOM      4  O   UNL     1      -5.909  -1.110   6.030  1.00  0.00    -0.252 OA
BRANCH   3   5
ATOM      5  C   UNL     1      -4.103  -0.967   7.525  1.00  0.00     0.148 C 
ATOM      6  N   UNL     1      -1.176  -2.139   5.509  1.00  0.00    -0.339 N 
ATOM      7  C   UNL     1      -0.586  -1.665   6.795  1.00  0.00     0.160 C 
ATOM      8  C   UNL     1      -2.556  -2.504   5.800  1.00  0.00     0.230 C 
ATOM      9  C   UNL     1      -1.790  -1.519   7.736  1.00  0.00     0.117 C 
ATOM     10  C   UNL     1      -2.925  -1.406   6.730  1.00  0.00     0.133 C 
ATOM     11  O   UNL     1      -3.280  -3.272   5.207  1.00  0.00    -0.274 OA
ATOM     12  C   UNL     1      -2.044  -2.550   8.803  1.00  0.00     0.009 C 
ATOM     13  O   UNL     1      -2.115  -0.332   8.489  1.00  0.00    -0.360 OA
ATOM     14  C   UNL     1      -3.083  -2.102   9.522  1.00  0.00     0.004 C 
ATOM     15  C   UNL     1      -3.490  -0.807   8.911  1.00  0.00     0.157 C 
BRANCH   6  16
ATOM     16  C   UNL     1      -1.177  -1.202   4.387  1.00  0.00     0.124 C 
BRANCH  16  17
ATOM     17  C   UNL     1       0.062  -0.889   3.557  1.00  0.00     0.018 C 
ATOM     18  C   UNL     1       1.500   0.088  -0.565  1.00  0.00     0.039 C 
ATOM     19  C   UNL     1       1.031  -0.267   0.818  1.00  0.00    -0.077 C 
ATOM     20  C   UNL     1       0.933  -1.542   1.215  1.00  0.00    -0.025 C 
ATOM     21  C   UNL     1       0.702   0.890   1.701  1.00  0.00     0.034 C 
ATOM     22  C   UNL     1       0.442  -2.016   2.553  1.00  0.00     0.014 C 
ATOM     23  C   UNL     1      -0.095   0.577   2.974  1.00  0.00    -0.005 C 
ATOM     24  C   UNL     1      -0.628  -3.087   2.295  1.00  0.00     0.012 C 
ATOM     25  C   UNL     1      -1.543   1.107   2.803  1.00  0.00     0.008 C 
ENDBRANCH  16  17
ENDBRANCH   6  16
ENDBRANCH   3   5
ENDBRANCH   2   3
ENDBRANCH   1   2
BRANCH   1  26
ATOM     26  C   UNL     1      -8.332  -1.726   8.505  1.00  0.00     0.275 C 
BRANCH  26  27
ATOM     27  O   UNL     1      -8.044  -0.314   8.399  1.00  0.00    -0.458 OA
BRANCH  27  28
ATOM     28  C   UNL     1      -7.210   0.165   9.350  1.00  0.00     0.338 C 
ATOM     29  O   UNL     1      -6.646  -0.469  10.228  1.00  0.00    -0.246 OA
BRANCH  28  30
ATOM     30  C   UNL     1      -6.967   1.606   9.177  1.00  0.00     0.060 A 
ATOM     31  C   UNL     1      -5.949   2.015   8.321  1.00  0.00     0.016 A 
ATOM     32  C   UNL     1      -7.581   2.531  10.015  1.00  0.00     0.016 A 
ATOM     33  C   UNL     1      -5.449   3.311   8.378  1.00  0.00     0.010 A 
ATOM     34  C   UNL     1      -7.161   3.868   9.985  1.00  0.00     0.010 A 
ATOM     35  C   UNL     1      -6.068   4.264   9.192  1.00  0.00    -0.014 A 
BRANCH  35  36
ATOM     36  C   UNL     1      -5.583   5.670   9.198  1.00  0.00     0.031 A 
ATOM     37  C   UNL     1      -5.088   6.298  10.473  1.00  0.00     0.074 A 
ATOM     38  C   UNL     1      -5.605   6.391   8.059  1.00  0.00     0.049 A 
ATOM     39  N   UNL     1      -4.819   7.554  10.724  1.00  0.00    -0.248 NA
ATOM     40  C   UNL     1      -4.878   5.398  11.618  1.00  0.00     0.031 C 
ATOM     41  C   UNL     1      -6.017   5.891   6.745  1.00  0.00     0.029 A 
ATOM     42  N   UNL     1      -5.291   7.707   7.827  1.00  0.00    -0.354 N 
ATOM     43  C   UNL     1      -4.457   7.604  12.065  1.00  0.00     0.074 A 
ATOM     44  C   UNL     1      -4.538   6.252  12.575  1.00  0.00     0.031 C 
ATOM     45  C   UNL     1      -5.933   6.885   5.848  1.00  0.00     0.029 A 
ATOM     46  C   UNL     1      -5.542   8.108   6.536  1.00  0.00     0.049 A 
ATOM     47  H   UNL     1      -4.923   8.306   8.517  1.00  0.00     0.167 HD
ATOM     48  C   UNL     1      -4.097   8.683  12.800  1.00  0.00     0.037 A 
ATOM     49  C   UNL     1      -5.521   9.333   5.977  1.00  0.00     0.037 A 
ATOM     50  C   UNL     1      -3.975  10.018  12.273  1.00  0.00     0.049 A 
ATOM     51  C   UNL     1      -5.161  10.518   6.827  1.00  0.00     0.074 A 
ATOM     52  C   UNL     1      -3.577  11.170  12.931  1.00  0.00     0.029 A 
ATOM     53  N   UNL     1      -4.243  10.379  10.962  1.00  0.00    -0.354 N 
ATOM     54  N   UNL     1      -4.834  10.555   8.095  1.00  0.00    -0.248 NA
ATOM     55  C   UNL     1      -5.179  11.832   6.171  1.00  0.00     0.031 C 
ATOM     56  C   UNL     1      -3.649  12.236  12.028  1.00  0.00     0.029 A 
ATOM     57  C   UNL     1      -4.044  11.740  10.797  1.00  0.00     0.049 A 
ATOM     58  H   UNL     1      -4.532   9.760  10.253  1.00  0.00     0.167 HD
ATOM     59  C   UNL     1      -4.588  11.891   8.384  1.00  0.00     0.074 A 
ATOM     60  C   UNL     1      -4.785  12.629   7.154  1.00  0.00     0.031 C 
ATOM     61  C   UNL     1      -4.234  12.456   9.563  1.00  0.00     0.037 A 
BRANCH  48  62
ATOM     62  C   UNL     1      -3.838   8.484  14.264  1.00  0.00     0.057 A 
ATOM     63  C   UNL     1      -2.675   7.868  14.740  1.00  0.00     0.134 A 
ATOM     64  C   UNL     1      -4.739   8.986  15.213  1.00  0.00     0.134 A 
ATOM     65  F   UNL     1      -1.777   7.357  13.884  1.00  0.00    -0.206 F 
ATOM     66  C   UNL     1      -2.421   7.750  16.108  1.00  0.00     0.040 A 
ATOM     67  C   UNL     1      -4.485   8.895  16.583  1.00  0.00     0.040 A 
ATOM     68  F   UNL     1      -5.870   9.593  14.824  1.00  0.00    -0.206 F 
ATOM     69  C   UNL     1      -3.323   8.273  17.034  1.00  0.00     0.006 A 
ENDBRANCH  48  62
BRANCH  49  70
ATOM     70  C   UNL     1      -5.911   9.510   4.555  1.00  0.00     0.057 A 
ATOM     71  C   UNL     1      -4.981   9.908   3.590  1.00  0.00     0.134 A 
ATOM     72  C   UNL     1      -7.232   9.309   4.133  1.00  0.00     0.134 A 
ATOM     73  F   UNL     1      -3.705  10.138   3.936  1.00  0.00    -0.206 F 
ATOM     74  C   UNL     1      -5.352  10.120   2.261  1.00  0.00     0.040 A 
ATOM     75  C   UNL     1      -7.611   9.488   2.803  1.00  0.00     0.040 A 
ATOM     76  F   UNL     1      -8.172   8.922   5.009  1.00  0.00    -0.206 F 
ATOM     77  C   UNL     1      -6.670   9.905   1.864  1.00  0.00     0.006 A 
ENDBRANCH  49  70
BRANCH  61  78
ATOM     78  C   UNL     1      -4.001  13.937   9.567  1.00  0.00     0.057 A 
ATOM     79  C   UNL     1      -5.058  14.852   9.484  1.00  0.00     0.134 A 
ATOM     80  C   UNL     1      -2.704  14.453   9.687  1.00  0.00     0.134 A 
ATOM     81  F   UNL     1      -6.322  14.421   9.351  1.00  0.00    -0.206 F 
ATOM     82  C   UNL     1      -4.832  16.229   9.498  1.00  0.00     0.040 A 
ATOM     83  C   UNL     1      -2.468  15.827   9.728  1.00  0.00     0.040 A 
ATOM     84  F   UNL     1      -1.649  13.630   9.777  1.00  0.00    -0.206 F 
ATOM     85  C   UNL     1      -3.533  16.719   9.628  1.00  0.00     0.006 A 
ENDBRANCH  61  78
ENDBRANCH  35  36
ENDBRANCH  28  30
ENDBRANCH  27  28
ENDBRANCH  26  27
ENDBRANCH   1  26
TORSDOF 13
