REMARK SMILES COc1cccc([C@@H]2CC(c3cccc(C)c3)=NN2C(=O)CCC(=O)OCCOC(=O)c2ccc(-c3c4nc(c(-c5c(F)cccc5F)c5ccc([nH]5)c(-c5c(F)cccc5F)c5nc(c(-c6c(F)cccc6F)c6ccc3[nH]6)C=C5)C=C4)cc2)c1
REMARK SMILES IDX 26 1 24 2 25 3 23 4 22 5 20 6 21 7 19 8 8 9 9 10 10 11 18 12
REMARK SMILES IDX 7 13 3 14 4 15 86 16 5 17 6 18 2 19 1 20 11 21 12 22 17 23
REMARK SMILES IDX 13 24 15 25 14 26 16 27 27 28 28 29 29 30 30 31 31 32 32 33
REMARK SMILES IDX 33 34 85 35 34 36 84 37 35 38 36 39 37 40 78 41 38 42 83 43
REMARK SMILES IDX 77 44 79 45 39 46 82 47 76 48 75 49 40 51 66 52 49 53 65 54
REMARK SMILES IDX 50 55 53 56 64 57 80 58 51 59 52 60 63 62 81 63 54 64 41 65
REMARK SMILES IDX 42 66 47 67 43 68 44 69 46 70 48 71 45 72 67 73 68 74 73 75
REMARK SMILES IDX 69 76 70 77 72 78 74 79 71 80 55 81 56 82 61 83 57 84 58 85
REMARK SMILES IDX 60 86 62 87 59 88
REMARK H PARENT 79 50 53 61
REMARK Flexibility Score: inf
ROOT
ATOM      1  O   UNL     1       2.664   2.418  -1.169  1.00  0.00    -0.462 OA
ENDROOT
BRANCH   1   2
ATOM      2  C   UNL     1       2.030   2.204  -2.352  1.00  0.00     0.306 C 
ATOM      3  O   UNL     1       0.844   1.908  -2.456  1.00  0.00    -0.252 OA
BRANCH   2   4
ATOM      4  C   UNL     1       2.947   2.309  -3.546  1.00  0.00     0.132 C 
BRANCH   4   5
ATOM      5  C   UNL     1       3.839   3.551  -3.611  1.00  0.00     0.114 C 
BRANCH   5   6
ATOM      6  C   UNL     1       5.240   3.227  -3.141  1.00  0.00     0.243 C 
ATOM      7  O   UNL     1       5.896   2.413  -3.803  1.00  0.00    -0.273 OA
BRANCH   6   8
ATOM      8  N   UNL     1       5.701   3.790  -1.958  1.00  0.00    -0.225 N 
ATOM      9  C   UNL     1       5.039   4.727  -1.029  1.00  0.00     0.147 C 
ATOM     10  C   UNL     1       5.733   4.495   0.307  1.00  0.00     0.091 C 
ATOM     11  C   UNL     1       6.729   3.461  -0.103  1.00  0.00     0.071 C 
ATOM     12  N   UNL     1       6.758   3.141  -1.355  1.00  0.00    -0.174 NA
BRANCH   9  13
ATOM     13  C   UNL     1       5.045   6.204  -1.398  1.00  0.00    -0.019 A 
ATOM     14  C   UNL     1       3.980   8.405  -1.149  1.00  0.00     0.119 A 
ATOM     15  C   UNL     1       4.895   8.925  -2.062  1.00  0.00     0.046 A 
ATOM     16  C   UNL     1       4.098   7.065  -0.786  1.00  0.00     0.052 A 
ATOM     17  C   UNL     1       5.890   8.116  -2.617  1.00  0.00     0.004 A 
ATOM     18  C   UNL     1       5.958   6.758  -2.299  1.00  0.00     0.006 A 
BRANCH  14  19
ATOM     19  O   UNL     1       3.034   9.294  -0.728  1.00  0.00    -0.497 OA
ATOM     20  C   UNL     1       2.039   8.891   0.203  1.00  0.00     0.278 C 
ENDBRANCH  14  19
ENDBRANCH   9  13
BRANCH  11  21
ATOM     21  C   UNL     1       7.569   2.805   0.895  1.00  0.00    -0.002 A 
ATOM     22  C   UNL     1       8.954   2.863   0.778  1.00  0.00     0.010 A 
ATOM     23  C   UNL     1       6.954   2.051   1.900  1.00  0.00     0.013 A 
ATOM     24  C   UNL     1       9.738   2.184   1.707  1.00  0.00     0.001 A 
ATOM     25  C   UNL     1       7.738   1.347   2.816  1.00  0.00    -0.050 A 
ATOM     26  C   UNL     1       9.134   1.432   2.720  1.00  0.00     0.003 A 
ATOM     27  C   UNL     1       7.103   0.490   3.871  1.00  0.00     0.044 C 
ENDBRANCH  11  21
ENDBRANCH   6   8
ENDBRANCH   5   6
ENDBRANCH   4   5
ENDBRANCH   2   4
ENDBRANCH   1   2
BRANCH   1  28
ATOM     28  C   UNL     1       1.838   2.324   0.011  1.00  0.00     0.274 C 
BRANCH  28  29
ATOM     29  C   UNL     1       1.196   3.661   0.399  1.00  0.00     0.275 C 
BRANCH  29  30
ATOM     30  O   UNL     1       0.303   4.162  -0.615  1.00  0.00    -0.458 OA
BRANCH  30  31
ATOM     31  C   UNL     1       0.911   4.970  -1.502  1.00  0.00     0.338 C 
ATOM     32  O   UNL     1       2.094   5.275  -1.505  1.00  0.00    -0.246 OA
BRANCH  31  33
ATOM     33  C   UNL     1       0.021   5.617  -2.441  1.00  0.00     0.060 A 
ATOM     34  C   UNL     1      -0.656   4.910  -3.429  1.00  0.00     0.016 A 
ATOM     35  C   UNL     1      -0.039   7.010  -2.362  1.00  0.00     0.016 A 
ATOM     36  C   UNL     1      -1.482   5.619  -4.295  1.00  0.00     0.010 A 
ATOM     37  C   UNL     1      -0.921   7.702  -3.163  1.00  0.00     0.010 A 
ATOM     38  C   UNL     1      -1.684   7.002  -4.101  1.00  0.00    -0.014 A 
BRANCH  38  39
ATOM     39  C   UNL     1      -2.870   7.677  -4.665  1.00  0.00     0.031 A 
ATOM     40  C   UNL     1      -2.751   8.897  -5.524  1.00  0.00     0.074 A 
ATOM     41  C   UNL     1      -4.064   7.263  -4.197  1.00  0.00     0.049 A 
ATOM     42  N   UNL     1      -3.704   9.654  -6.001  1.00  0.00    -0.248 NA
ATOM     43  C   UNL     1      -1.393   9.368  -5.840  1.00  0.00     0.031 C 
ATOM     44  C   UNL     1      -4.257   6.199  -3.201  1.00  0.00     0.029 A 
ATOM     45  N   UNL     1      -5.335   7.682  -4.474  1.00  0.00    -0.354 N 
ATOM     46  C   UNL     1      -3.066  10.717  -6.626  1.00  0.00     0.074 A 
ATOM     47  C   UNL     1      -1.643  10.519  -6.451  1.00  0.00     0.031 C 
ATOM     48  C   UNL     1      -5.566   6.003  -3.006  1.00  0.00     0.029 A 
ATOM     49  C   UNL     1      -6.302   6.954  -3.824  1.00  0.00     0.049 A 
ATOM     50  H   UNL     1      -5.538   8.431  -5.080  1.00  0.00     0.167 HD
ATOM     51  C   UNL     1      -3.632  11.754  -7.287  1.00  0.00     0.037 A 
ATOM     52  C   UNL     1      -7.640   7.037  -3.891  1.00  0.00     0.037 A 
ATOM     53  C   UNL     1      -5.053  11.882  -7.492  1.00  0.00     0.049 A 
ATOM     54  C   UNL     1      -8.231   8.070  -4.795  1.00  0.00     0.074 A 
ATOM     55  C   UNL     1      -5.737  12.809  -8.257  1.00  0.00     0.029 A 
ATOM     56  N   UNL     1      -6.007  11.043  -6.931  1.00  0.00    -0.354 N 
ATOM     57  N   UNL     1      -7.617   9.000  -5.485  1.00  0.00    -0.248 NA
ATOM     58  C   UNL     1      -9.689   8.063  -4.944  1.00  0.00     0.031 C 
ATOM     59  C   UNL     1      -7.106  12.542  -8.144  1.00  0.00     0.029 A 
ATOM     60  C   UNL     1      -7.273  11.431  -7.333  1.00  0.00     0.049 A 
ATOM     61  H   UNL     1      -5.811  10.284  -6.336  1.00  0.00     0.167 HD
ATOM     62  C   UNL     1      -8.611   9.693  -6.153  1.00  0.00     0.074 A 
ATOM     63  C   UNL     1      -9.867   9.051  -5.809  1.00  0.00     0.031 C 
ATOM     64  C   UNL     1      -8.500  10.771  -6.965  1.00  0.00     0.037 A 
BRANCH  51  65
ATOM     65  C   UNL     1      -2.728  12.813  -7.850  1.00  0.00     0.057 A 
ATOM     66  C   UNL     1      -1.885  12.566  -8.941  1.00  0.00     0.134 A 
ATOM     67  C   UNL     1      -2.741  14.115  -7.330  1.00  0.00     0.134 A 
ATOM     68  F   UNL     1      -1.818  11.341  -9.484  1.00  0.00    -0.206 F 
ATOM     69  C   UNL     1      -1.073  13.566  -9.481  1.00  0.00     0.040 A 
ATOM     70  C   UNL     1      -1.952  15.130  -7.876  1.00  0.00     0.040 A 
ATOM     71  F   UNL     1      -3.529  14.426  -6.290  1.00  0.00    -0.206 F 
ATOM     72  C   UNL     1      -1.111  14.855  -8.953  1.00  0.00     0.006 A 
ENDBRANCH  51  65
BRANCH  52  73
ATOM     73  C   UNL     1      -8.472   6.066  -3.143  1.00  0.00     0.057 A 
ATOM     74  C   UNL     1      -9.120   5.020  -3.810  1.00  0.00     0.134 A 
ATOM     75  C   UNL     1      -8.578   6.108  -1.748  1.00  0.00     0.134 A 
ATOM     76  F   UNL     1      -9.049   4.926  -5.146  1.00  0.00    -0.206 F 
ATOM     77  C   UNL     1      -9.858   4.059  -3.119  1.00  0.00     0.040 A 
ATOM     78  C   UNL     1      -9.294   5.140  -1.042  1.00  0.00     0.040 A 
ATOM     79  F   UNL     1      -7.952   7.066  -1.049  1.00  0.00    -0.206 F 
ATOM     80  C   UNL     1      -9.941   4.114  -1.729  1.00  0.00     0.006 A 
ENDBRANCH  52  73
BRANCH  64  81
ATOM     81  C   UNL     1      -9.777  11.310  -7.526  1.00  0.00     0.057 A 
ATOM     82  C   UNL     1     -10.661  12.056  -6.738  1.00  0.00     0.134 A 
ATOM     83  C   UNL     1     -10.114  11.097  -8.867  1.00  0.00     0.134 A 
ATOM     84  F   UNL     1     -10.396  12.276  -5.441  1.00  0.00    -0.206 F 
ATOM     85  C   UNL     1     -11.853  12.555  -7.261  1.00  0.00     0.040 A 
ATOM     86  C   UNL     1     -11.292  11.609  -9.407  1.00  0.00     0.040 A 
ATOM     87  F   UNL     1      -9.303  10.391  -9.670  1.00  0.00    -0.206 F 
ATOM     88  C   UNL     1     -12.168  12.336  -8.601  1.00  0.00     0.006 A 
ENDBRANCH  64  81
ENDBRANCH  38  39
ENDBRANCH  31  33
ENDBRANCH  30  31
ENDBRANCH  29  30
ENDBRANCH  28  29
ENDBRANCH   1  28
TORSDOF 17
