REMARK SMILES [NH3+][C@H](Cc1ccc2nsnc2c1)C(=O)OCCOC(=O)c1ccc(-c2c3nc(c(-c4c(F)cccc4F)c4ccc([nH]4)c(-c4c(F)cccc4F)c4nc(c(-c5c(F)cccc5F)c5ccc2[nH]5)C=C4)C=C3)cc1
REMARK SMILES IDX 16 1 15 2 13 3 14 4 2 5 1 6 3 10 4 11 5 12 12 13 6 14 11 15
REMARK SMILES IDX 7 16 10 17 8 18 9 19 17 20 18 21 19 22 20 23 21 24 22 25
REMARK SMILES IDX 74 26 23 27 73 28 24 29 25 30 26 31 67 32 27 33 72 34 66 35
REMARK SMILES IDX 68 36 28 37 71 38 65 39 64 40 29 42 55 43 38 44 54 45 39 46
REMARK SMILES IDX 42 47 53 48 69 49 40 50 41 51 52 53 70 54 43 55 30 56 31 57
REMARK SMILES IDX 36 58 32 59 33 60 35 61 37 62 34 63 56 64 57 65 62 66 58 67
REMARK SMILES IDX 59 68 61 69 63 70 60 71 44 72 45 73 50 74 46 75 47 76 49 77
REMARK SMILES IDX 51 78 48 79
REMARK H PARENT 1 7 1 8 1 9 68 41 42 52
REMARK Flexibility Score: inf
ROOT
ATOM      1  C   UNL     1      -3.022  -0.935   0.796  1.00  0.00     0.274 C 
ENDROOT
BRANCH   1   2
ATOM      2  O   UNL     1      -1.591  -0.882   0.955  1.00  0.00    -0.458 OA
BRANCH   2   3
ATOM      3  C   UNL     1      -0.884  -1.861   0.330  1.00  0.00     0.365 C 
ATOM      4  O   UNL     1      -1.401  -2.817  -0.241  1.00  0.00    -0.245 OA
BRANCH   3   5
ATOM      5  C   UNL     1       0.645  -1.644   0.392  1.00  0.00     0.296 C 
BRANCH   5   6
ATOM      6  N   UNL     1       1.268  -2.803   1.079  1.00  0.00    -0.346 N 
ATOM      7  H   UNL     1       0.879  -3.668   0.704  1.00  0.00     0.345 HD
ATOM      8  H   UNL     1       1.075  -2.748   2.079  1.00  0.00     0.345 HD
ATOM      9  H   UNL     1       2.276  -2.788   0.925  1.00  0.00     0.345 HD
ENDBRANCH   5   6
BRANCH   5  10
ATOM     10  C   UNL     1       1.104  -0.222   0.820  1.00  0.00     0.113 C 
BRANCH  10  11
ATOM     11  C   UNL     1       2.182  -0.239   1.886  1.00  0.00    -0.039 A 
ATOM     12  C   UNL     1       3.550  -0.207   1.494  1.00  0.00     0.006 A 
ATOM     13  C   UNL     1       1.776  -0.430   3.226  1.00  0.00     0.035 A 
ATOM     14  C   UNL     1       4.614  -0.416   2.390  1.00  0.00     0.032 A 
ATOM     15  C   UNL     1       2.806  -0.686   4.156  1.00  0.00     0.105 A 
ATOM     16  C   UNL     1       4.251  -0.686   3.730  1.00  0.00     0.104 A 
ATOM     17  N   UNL     1       2.634  -0.978   5.454  1.00  0.00    -0.173 NA
ATOM     18  N   UNL     1       5.094  -0.977   4.732  1.00  0.00    -0.173 NA
ATOM     19  S   UNL     1       4.152  -1.242   6.076  1.00  0.00     0.069 S 
ENDBRANCH  10  11
ENDBRANCH   5  10
ENDBRANCH   3   5
ENDBRANCH   2   3
ENDBRANCH   1   2
BRANCH   1  20
ATOM     20  C   UNL     1      -3.496  -0.024  -0.344  1.00  0.00     0.275 C 
BRANCH  20  21
ATOM     21  O   UNL     1      -3.106  -0.511  -1.643  1.00  0.00    -0.458 OA
BRANCH  21  22
ATOM     22  C   UNL     1      -1.899  -0.082  -2.083  1.00  0.00     0.338 C 
ATOM     23  O   UNL     1      -1.126   0.665  -1.509  1.00  0.00    -0.246 OA
BRANCH  22  24
ATOM     24  C   UNL     1      -1.540  -0.779  -3.328  1.00  0.00     0.060 A 
ATOM     25  C   UNL     1      -0.457  -1.658  -3.285  1.00  0.00     0.016 A 
ATOM     26  C   UNL     1      -2.182  -0.513  -4.535  1.00  0.00     0.016 A 
ATOM     27  C   UNL     1       0.013  -2.262  -4.441  1.00  0.00     0.010 A 
ATOM     28  C   UNL     1      -1.731  -1.147  -5.699  1.00  0.00     0.010 A 
ATOM     29  C   UNL     1      -0.628  -2.021  -5.657  1.00  0.00    -0.014 A 
BRANCH  29  30
ATOM     30  C   UNL     1      -0.137  -2.701  -6.876  1.00  0.00     0.031 A 
ATOM     31  C   UNL     1       0.548  -1.914  -7.951  1.00  0.00     0.074 A 
ATOM     32  C   UNL     1      -0.291  -4.033  -6.995  1.00  0.00     0.049 A 
ATOM     33  N   UNL     1       0.918  -2.299  -9.144  1.00  0.00    -0.248 NA
ATOM     34  C   UNL     1       0.856  -0.508  -7.646  1.00  0.00     0.031 C 
ATOM     35  C   UNL     1      -0.884  -4.909  -5.982  1.00  0.00     0.029 A 
ATOM     36  N   UNL     1       0.030  -4.881  -8.023  1.00  0.00    -0.354 N 
ATOM     37  C   UNL     1       1.466  -1.176  -9.749  1.00  0.00     0.074 A 
ATOM     38  C   UNL     1       1.387  -0.095  -8.790  1.00  0.00     0.031 C 
ATOM     39  C   UNL     1      -0.891  -6.169  -6.443  1.00  0.00     0.029 A 
ATOM     40  C   UNL     1      -0.366  -6.177  -7.804  1.00  0.00     0.049 A 
ATOM     41  H   UNL     1       0.499  -4.589  -8.838  1.00  0.00     0.167 HD
ATOM     42  C   UNL     1       1.979  -1.065 -10.996  1.00  0.00     0.037 A 
ATOM     43  C   UNL     1      -0.357  -7.241  -8.627  1.00  0.00     0.037 A 
ATOM     44  C   UNL     1       2.087  -2.158 -11.925  1.00  0.00     0.049 A 
ATOM     45  C   UNL     1       0.160  -7.074 -10.027  1.00  0.00     0.074 A 
ATOM     46  C   UNL     1       2.635  -2.159 -13.196  1.00  0.00     0.029 A 
ATOM     47  N   UNL     1       1.637  -3.447 -11.682  1.00  0.00    -0.354 N 
ATOM     48  N   UNL     1       0.663  -6.006 -10.597  1.00  0.00    -0.248 NA
ATOM     49  C   UNL     1       0.090  -8.250 -10.904  1.00  0.00     0.031 C 
ATOM     50  C   UNL     1       2.479  -3.439 -13.738  1.00  0.00     0.029 A 
ATOM     51  C   UNL     1       1.865  -4.244 -12.791  1.00  0.00     0.049 A 
ATOM     52  H   UNL     1       1.217  -3.750 -10.844  1.00  0.00     0.167 HD
ATOM     53  C   UNL     1       0.974  -6.381 -11.896  1.00  0.00     0.074 A 
ATOM     54  C   UNL     1       0.621  -7.780 -12.024  1.00  0.00     0.031 C 
ATOM     55  C   UNL     1       1.499  -5.632 -12.896  1.00  0.00     0.037 A 
BRANCH  42  56
ATOM     56  C   UNL     1       2.426   0.292 -11.445  1.00  0.00     0.057 A 
ATOM     57  C   UNL     1       3.629   0.861 -11.014  1.00  0.00     0.134 A 
ATOM     58  C   UNL     1       1.657   1.017 -12.365  1.00  0.00     0.134 A 
ATOM     59  F   UNL     1       4.402   0.223 -10.123  1.00  0.00    -0.206 F 
ATOM     60  C   UNL     1       4.049   2.110 -11.475  1.00  0.00     0.040 A 
ATOM     61  C   UNL     1       2.075   2.258 -12.847  1.00  0.00     0.040 A 
ATOM     62  F   UNL     1       0.494   0.525 -12.818  1.00  0.00    -0.206 F 
ATOM     63  C   UNL     1       3.274   2.809 -12.399  1.00  0.00     0.006 A 
ENDBRANCH  42  56
BRANCH  43  64
ATOM     64  C   UNL     1      -0.921  -8.534  -8.170  1.00  0.00     0.057 A 
ATOM     65  C   UNL     1      -0.102  -9.643  -7.937  1.00  0.00     0.134 A 
ATOM     66  C   UNL     1      -2.296  -8.689  -7.955  1.00  0.00     0.134 A 
ATOM     67  F   UNL     1       1.220  -9.563  -8.148  1.00  0.00    -0.206 F 
ATOM     68  C   UNL     1      -0.631 -10.864  -7.514  1.00  0.00     0.040 A 
ATOM     69  C   UNL     1      -2.836  -9.896  -7.509  1.00  0.00     0.040 A 
ATOM     70  F   UNL     1      -3.134  -7.662  -8.161  1.00  0.00    -0.206 F 
ATOM     71  C   UNL     1      -2.002 -10.990  -7.293  1.00  0.00     0.006 A 
ENDBRANCH  43  64
BRANCH  55  72
ATOM     72  C   UNL     1       1.727  -6.316 -14.208  1.00  0.00     0.057 A 
ATOM     73  C   UNL     1       0.668  -6.588 -15.082  1.00  0.00     0.134 A 
ATOM     74  C   UNL     1       3.018  -6.668 -14.617  1.00  0.00     0.134 A 
ATOM     75  F   UNL     1      -0.593  -6.287 -14.738  1.00  0.00    -0.206 F 
ATOM     76  C   UNL     1       0.886  -7.198 -16.318  1.00  0.00     0.040 A 
ATOM     77  C   UNL     1       3.251  -7.261 -15.858  1.00  0.00     0.040 A 
ATOM     78  F   UNL     1       4.073  -6.429 -13.824  1.00  0.00    -0.206 F 
ATOM     79  C   UNL     1       2.182  -7.530 -16.711  1.00  0.00     0.006 A 
ENDBRANCH  55  72
ENDBRANCH  29  30
ENDBRANCH  22  24
ENDBRANCH  21  22
ENDBRANCH  20  21
ENDBRANCH   1  20
TORSDOF 14
