REMARK SMILES Cc1cc(C)c2c(OCCCC(=O)OCCOC(=O)c3ccc(-c4c5nc(c(-c6c(F)cccc6F)c6ccc([nH]6)c(-c6c(F)cccc6F)c6nc(c(-c7c(F)cccc7F)c7ccc4[nH]7)C=C6)C=C5)cc3)nsc2n1
REMARK SMILES IDX 15 1 14 2 12 3 13 4 11 5 10 6 9 7 8 8 7 9 1 10 2 11 3 12
REMARK SMILES IDX 77 13 4 14 76 15 5 16 6 17 75 18 74 19 16 20 17 21 18 22
REMARK SMILES IDX 19 23 20 24 21 25 73 26 22 27 72 28 23 29 24 30 25 31 66 32
REMARK SMILES IDX 26 33 71 34 65 35 67 36 27 37 70 38 64 39 63 40 28 42 54 43
REMARK SMILES IDX 37 44 53 45 38 46 41 47 52 48 68 49 39 50 40 51 51 53 69 54
REMARK SMILES IDX 42 55 29 56 30 57 35 58 31 59 32 60 34 61 36 62 33 63 55 64
REMARK SMILES IDX 56 65 61 66 57 67 58 68 60 69 62 70 59 71 43 72 44 73 49 74
REMARK SMILES IDX 45 75 46 76 48 77 50 78 47 79
REMARK H PARENT 67 41 41 52
REMARK Flexibility Score: inf
ROOT
ATOM      1  C   UNL     1       1.911  -2.983   2.805  1.00  0.00     0.274 C 
ENDROOT
BRANCH   1   2
ATOM      2  O   UNL     1       0.623  -2.581   3.351  1.00  0.00    -0.462 OA
BRANCH   2   3
ATOM      3  C   UNL     1      -0.435  -2.430   2.522  1.00  0.00     0.306 C 
ATOM      4  O   UNL     1      -0.370  -2.627   1.312  1.00  0.00    -0.252 OA
BRANCH   3   5
ATOM      5  C   UNL     1      -1.688  -1.865   3.191  1.00  0.00     0.126 C 
BRANCH   5   6
ATOM      6  C   UNL     1      -2.134  -2.296   4.594  1.00  0.00     0.053 C 
BRANCH   6   7
ATOM      7  C   UNL     1      -1.562  -1.677   5.886  1.00  0.00     0.232 C 
BRANCH   7   8
ATOM      8  O   UNL     1      -1.863  -0.340   6.268  1.00  0.00    -0.477 OA
BRANCH   8   9
ATOM      9  C   UNL     1      -1.446   0.688   5.497  1.00  0.00     0.235 A 
ATOM     10  C   UNL     1       1.115   1.021   0.673  1.00  0.00     0.067 C 
ATOM     11  C   UNL     1       0.811   1.182   2.137  1.00  0.00     0.039 A 
ATOM     12  C   UNL     1       1.441   0.362   3.067  1.00  0.00     0.027 A 
ATOM     13  N   UNL     1      -0.178   2.026   2.461  1.00  0.00    -0.240 NA
ATOM     14  C   UNL     1       0.908   0.173   4.361  1.00  0.00    -0.034 A 
ATOM     15  C   UNL     1      -0.684   1.819   3.690  1.00  0.00     0.147 A 
ATOM     16  C   UNL     1       1.616  -0.728   5.338  1.00  0.00     0.045 C 
ATOM     17  C   UNL     1      -0.323   0.829   4.606  1.00  0.00     0.078 A 
ATOM     18  S   UNL     1      -1.945   2.760   4.335  1.00  0.00    -0.012 S 
ATOM     19  N   UNL     1      -2.282   1.724   5.582  1.00  0.00    -0.153 NA
ENDBRANCH   8   9
ENDBRANCH   7   8
ENDBRANCH   6   7
ENDBRANCH   5   6
ENDBRANCH   3   5
ENDBRANCH   2   3
ENDBRANCH   1   2
BRANCH   1  20
ATOM     20  C   UNL     1       2.531  -4.082   3.673  1.00  0.00     0.275 C 
BRANCH  20  21
ATOM     21  O   UNL     1       1.990  -5.338   3.308  1.00  0.00    -0.458 OA
BRANCH  21  22
ATOM     22  C   UNL     1       0.635  -5.357   3.384  1.00  0.00     0.338 C 
ATOM     23  O   UNL     1      -0.045  -4.978   4.299  1.00  0.00    -0.246 OA
BRANCH  22  24
ATOM     24  C   UNL     1       0.157  -5.962   2.132  1.00  0.00     0.060 A 
ATOM     25  C   UNL     1      -1.130  -6.478   2.180  1.00  0.00     0.016 A 
ATOM     26  C   UNL     1       1.082  -6.304   1.132  1.00  0.00     0.016 A 
ATOM     27  C   UNL     1      -1.344  -7.635   1.484  1.00  0.00     0.010 A 
ATOM     28  C   UNL     1       0.877  -7.469   0.454  1.00  0.00     0.010 A 
ATOM     29  C   UNL     1      -0.277  -8.175   0.755  1.00  0.00    -0.014 A 
BRANCH  29  30
ATOM     30  C   UNL     1      -0.436  -9.504   0.238  1.00  0.00     0.031 A 
ATOM     31  C   UNL     1      -1.297  -9.499  -0.948  1.00  0.00     0.074 A 
ATOM     32  C   UNL     1       0.160 -10.575   0.787  1.00  0.00     0.049 A 
ATOM     33  N   UNL     1      -2.557  -9.769  -0.982  1.00  0.00    -0.248 NA
ATOM     34  C   UNL     1      -0.775  -8.850  -2.159  1.00  0.00     0.031 C 
ATOM     35  C   UNL     1       1.226 -10.630   1.789  1.00  0.00     0.029 A 
ATOM     36  N   UNL     1      -0.048 -11.880   0.485  1.00  0.00    -0.354 N 
ATOM     37  C   UNL     1      -2.921  -9.567  -2.303  1.00  0.00     0.074 A 
ATOM     38  C   UNL     1      -1.888  -8.755  -2.886  1.00  0.00     0.031 C 
ATOM     39  C   UNL     1       1.716 -11.892   1.845  1.00  0.00     0.029 A 
ATOM     40  C   UNL     1       0.907 -12.749   0.996  1.00  0.00     0.049 A 
ATOM     41  H   UNL     1      -0.814 -12.187  -0.052  1.00  0.00     0.167 HD
ATOM     42  C   UNL     1      -3.842 -10.381  -2.879  1.00  0.00     0.037 A 
ATOM     43  C   UNL     1       1.028 -14.055   0.645  1.00  0.00     0.037 A 
ATOM     44  C   UNL     1      -4.633 -11.053  -1.871  1.00  0.00     0.049 A 
ATOM     45  C   UNL     1      -0.282 -14.471   0.069  1.00  0.00     0.074 A 
ATOM     46  C   UNL     1      -5.444 -10.630  -0.834  1.00  0.00     0.029 A 
ATOM     47  N   UNL     1      -4.325 -12.364  -1.597  1.00  0.00    -0.354 N 
ATOM     48  N   UNL     1      -1.380 -14.575   0.767  1.00  0.00    -0.248 NA
ATOM     49  C   UNL     1      -0.471 -14.312  -1.366  1.00  0.00     0.031 C 
ATOM     50  C   UNL     1      -5.215 -11.558   0.224  1.00  0.00     0.029 A 
ATOM     51  C   UNL     1      -4.330 -12.533  -0.237  1.00  0.00     0.049 A 
ATOM     52  H   UNL     1      -4.134 -13.063  -2.264  1.00  0.00     0.167 HD
ATOM     53  C   UNL     1      -2.377 -14.074  -0.059  1.00  0.00     0.074 A 
ATOM     54  C   UNL     1      -1.771 -14.007  -1.388  1.00  0.00     0.031 C 
ATOM     55  C   UNL     1      -3.491 -13.482   0.463  1.00  0.00     0.037 A 
BRANCH  42  56
ATOM     56  C   UNL     1      -3.707 -10.898  -4.291  1.00  0.00     0.057 A 
ATOM     57  C   UNL     1      -4.745 -11.684  -4.814  1.00  0.00     0.134 A 
ATOM     58  C   UNL     1      -2.514 -10.909  -5.049  1.00  0.00     0.134 A 
ATOM     59  F   UNL     1      -5.928 -11.769  -4.186  1.00  0.00    -0.206 F 
ATOM     60  C   UNL     1      -4.580 -12.486  -5.949  1.00  0.00     0.040 A 
ATOM     61  C   UNL     1      -2.356 -11.663  -6.212  1.00  0.00     0.040 A 
ATOM     62  F   UNL     1      -1.396 -10.280  -4.672  1.00  0.00    -0.206 F 
ATOM     63  C   UNL     1      -3.379 -12.483  -6.647  1.00  0.00     0.006 A 
ENDBRANCH  42  56
BRANCH  43  64
ATOM     64  C   UNL     1       2.266 -14.840   0.420  1.00  0.00     0.057 A 
ATOM     65  C   UNL     1       2.204 -16.228   0.222  1.00  0.00     0.134 A 
ATOM     66  C   UNL     1       3.489 -14.227   0.094  1.00  0.00     0.134 A 
ATOM     67  F   UNL     1       1.071 -16.901   0.471  1.00  0.00    -0.206 F 
ATOM     68  C   UNL     1       3.276 -16.956  -0.311  1.00  0.00     0.040 A 
ATOM     69  C   UNL     1       4.569 -14.944  -0.432  1.00  0.00     0.040 A 
ATOM     70  F   UNL     1       3.648 -12.900   0.184  1.00  0.00    -0.206 F 
ATOM     71  C   UNL     1       4.459 -16.311  -0.655  1.00  0.00     0.006 A 
ENDBRANCH  43  64
BRANCH  55  72
ATOM     72  C   UNL     1      -3.744 -13.633   1.940  1.00  0.00     0.057 A 
ATOM     73  C   UNL     1      -2.923 -13.091   2.941  1.00  0.00     0.134 A 
ATOM     74  C   UNL     1      -4.958 -14.194   2.353  1.00  0.00     0.134 A 
ATOM     75  F   UNL     1      -1.784 -12.456   2.635  1.00  0.00    -0.206 F 
ATOM     76  C   UNL     1      -3.287 -13.126   4.292  1.00  0.00     0.040 A 
ATOM     77  C   UNL     1      -5.348 -14.205   3.694  1.00  0.00     0.040 A 
ATOM     78  F   UNL     1      -5.815 -14.689   1.447  1.00  0.00    -0.206 F 
ATOM     79  C   UNL     1      -4.509 -13.674   4.670  1.00  0.00     0.006 A 
ENDBRANCH  55  72
ENDBRANCH  29  30
ENDBRANCH  22  24
ENDBRANCH  21  22
ENDBRANCH  20  21
ENDBRANCH   1  20
TORSDOF 15
