REMARK SMILES Cc1cccc(-c2ncc(C[NH+]3CCC4(CC3)NC(=O)C[C@H]4C(=O)OCCOC(=O)c3ccc(-c4c5nc(c(-c6c(F)cccc6F)c6ccc([nH]6)c(-c6c(F)cccc6F)c6nc(c(-c7c(F)cccc7F)c7ccc4[nH]7)C=C6)C=C5)cc3)cn2)c1
REMARK SMILES IDX 26 1 25 2 23 3 24 4 22 5 12 6 13 7 17 8 14 10 16 11 15 12
REMARK SMILES IDX 18 13 19 14 21 16 20 17 11 18 10 19 7 20 8 21 86 22 9 23
REMARK SMILES IDX 85 24 6 25 1 26 2 27 3 28 87 29 4 30 5 31 27 32 28 33 29 34
REMARK SMILES IDX 30 35 31 36 32 37 84 38 33 39 83 40 34 41 35 42 36 43 77 44
REMARK SMILES IDX 37 45 82 46 76 47 78 48 38 49 81 50 75 51 74 52 39 54 65 55
REMARK SMILES IDX 48 56 64 57 49 58 52 59 63 60 79 61 50 62 51 63 62 65 80 66
REMARK SMILES IDX 53 67 40 68 41 69 46 70 42 71 43 72 45 73 47 74 44 75 66 76
REMARK SMILES IDX 67 77 72 78 68 79 69 80 71 81 73 82 70 83 54 84 55 85 60 86
REMARK SMILES IDX 56 87 57 88 59 89 61 90 58 91
REMARK H PARENT 12 9 18 15 78 53 52 64
REMARK Flexibility Score: inf
ROOT
ATOM      1  C   UNL     1      -0.644   4.637  -4.329  1.00  0.00     0.274 C 
ENDROOT
BRANCH   1   2
ATOM      2  O   UNL     1       0.134   4.673  -3.075  1.00  0.00    -0.462 OA
BRANCH   2   3
ATOM      3  C   UNL     1      -0.280   5.546  -2.158  1.00  0.00     0.311 C 
ATOM      4  O   UNL     1      -1.296   6.182  -2.385  1.00  0.00    -0.252 OA
BRANCH   3   5
ATOM      5  C   UNL     1       0.353   5.733  -0.787  1.00  0.00     0.134 C 
ATOM      6  N   UNL     1      -3.448   6.201   0.763  1.00  0.00    -0.331 N 
ATOM      7  C   UNL     1      -2.391   6.622   1.685  1.00  0.00     0.264 C 
ATOM      8  C   UNL     1      -2.861   5.878  -0.506  1.00  0.00     0.264 C 
ATOM      9  H   UNL     1      -4.023   7.043   0.786  1.00  0.00     0.348 HD
ATOM     10  C   UNL     1      -0.929   6.040   1.549  1.00  0.00     0.091 C 
ATOM     11  C   UNL     1      -1.871   4.712  -0.305  1.00  0.00     0.091 C 
ATOM     12  C   UNL     1      -0.573   5.165   0.306  1.00  0.00     0.064 C 
ATOM     13  N   UNL     1       0.199   4.024   0.770  1.00  0.00    -0.349 N 
ATOM     14  C   UNL     1       1.479   3.968   0.304  1.00  0.00     0.221 C 
ATOM     15  H   UNL     1      -0.175   3.343   1.375  1.00  0.00     0.164 HD
ATOM     16  C   UNL     1       1.736   5.152  -0.554  1.00  0.00     0.117 C 
ATOM     17  O   UNL     1       2.302   3.099   0.598  1.00  0.00    -0.275 OA
BRANCH   6  18
ATOM     18  C   UNL     1      -4.589   5.334   1.118  1.00  0.00     0.302 C 
BRANCH  18  19
ATOM     19  C   UNL     1      -4.374   3.836   0.971  1.00  0.00     0.043 A 
ATOM     20  C   UNL     1      -3.005   1.519   0.482  1.00  0.00     0.159 A 
ATOM     21  N   UNL     1      -3.025   1.994   1.747  1.00  0.00    -0.236 NA
ATOM     22  N   UNL     1      -3.741   2.030  -0.529  1.00  0.00    -0.236 NA
ATOM     23  C   UNL     1      -3.738   3.125   1.969  1.00  0.00     0.124 A 
ATOM     24  C   UNL     1      -4.423   3.175  -0.257  1.00  0.00     0.124 A 
BRANCH  20  25
ATOM     25  C   UNL     1      -2.051   0.429   0.188  1.00  0.00     0.019 A 
ATOM     26  C   UNL     1       1.745  -0.303   0.142  1.00  0.00     0.044 C 
ATOM     27  C   UNL     1       0.252  -0.475   0.062  1.00  0.00    -0.050 A 
ATOM     28  C   UNL     1      -0.270  -1.748  -0.163  1.00  0.00     0.003 A 
ATOM     29  C   UNL     1      -0.645   0.600   0.224  1.00  0.00     0.015 A 
ATOM     30  C   UNL     1      -1.648  -1.935  -0.249  1.00  0.00     0.001 A 
ATOM     31  C   UNL     1      -2.526  -0.858  -0.085  1.00  0.00     0.012 A 
ENDBRANCH  20  25
ENDBRANCH  18  19
ENDBRANCH   6  18
ENDBRANCH   3   5
ENDBRANCH   2   3
ENDBRANCH   1   2
BRANCH   1  32
ATOM     32  C   UNL     1      -1.940   5.523  -4.682  1.00  0.00     0.275 C 
BRANCH  32  33
ATOM     33  O   UNL     1      -2.219   7.002  -4.580  1.00  0.00    -0.458 OA
BRANCH  33  34
ATOM     34  C   UNL     1      -1.641   8.071  -3.945  1.00  0.00     0.338 C 
ATOM     35  O   UNL     1      -2.259   9.021  -3.487  1.00  0.00    -0.246 OA
BRANCH  34  36
ATOM     36  C   UNL     1      -0.178   8.021  -3.888  1.00  0.00     0.060 A 
ATOM     37  C   UNL     1       0.572   8.390  -2.748  1.00  0.00     0.016 A 
ATOM     38  C   UNL     1       0.372   7.306  -4.925  1.00  0.00     0.016 A 
ATOM     39  C   UNL     1       1.887   7.935  -2.628  1.00  0.00     0.010 A 
ATOM     40  C   UNL     1       1.524   6.633  -4.670  1.00  0.00     0.010 A 
ATOM     41  C   UNL     1       2.328   7.019  -3.584  1.00  0.00    -0.014 A 
BRANCH  41  42
ATOM     42  C   UNL     1       3.709   6.769  -3.956  1.00  0.00     0.031 A 
ATOM     43  C   UNL     1       4.402   5.552  -3.504  1.00  0.00     0.074 A 
ATOM     44  C   UNL     1       3.952   7.548  -5.041  1.00  0.00     0.049 A 
ATOM     45  N   UNL     1       5.598   5.517  -3.019  1.00  0.00    -0.248 NA
ATOM     46  C   UNL     1       3.741   4.236  -3.474  1.00  0.00     0.031 C 
ATOM     47  C   UNL     1       4.829   7.441  -6.181  1.00  0.00     0.029 A 
ATOM     48  N   UNL     1       3.227   8.717  -5.331  1.00  0.00    -0.354 N 
ATOM     49  C   UNL     1       5.965   4.181  -3.080  1.00  0.00     0.074 A 
ATOM     50  C   UNL     1       4.730   3.434  -3.058  1.00  0.00     0.031 C 
ATOM     51  C   UNL     1       4.843   8.635  -6.819  1.00  0.00     0.029 A 
ATOM     52  C   UNL     1       3.998   9.576  -6.080  1.00  0.00     0.049 A 
ATOM     53  H   UNL     1       2.303   8.895  -5.041  1.00  0.00     0.167 HD
ATOM     54  C   UNL     1       7.123   3.819  -3.714  1.00  0.00     0.037 A 
ATOM     55  C   UNL     1       4.347  10.709  -5.405  1.00  0.00     0.037 A 
ATOM     56  C   UNL     1       7.616   4.956  -4.485  1.00  0.00     0.049 A 
ATOM     57  C   UNL     1       5.767  10.525  -4.942  1.00  0.00     0.074 A 
ATOM     58  C   UNL     1       7.513   5.247  -5.835  1.00  0.00     0.029 A 
ATOM     59  N   UNL     1       7.976   6.136  -3.851  1.00  0.00    -0.354 N 
ATOM     60  N   UNL     1       6.295   9.374  -4.620  1.00  0.00    -0.248 NA
ATOM     61  C   UNL     1       6.727  11.615  -4.958  1.00  0.00     0.031 C 
ATOM     62  C   UNL     1       7.826   6.617  -6.010  1.00  0.00     0.029 A 
ATOM     63  C   UNL     1       8.057   7.170  -4.761  1.00  0.00     0.049 A 
ATOM     64  H   UNL     1       8.149   6.223  -2.886  1.00  0.00     0.167 HD
ATOM     65  C   UNL     1       7.649   9.526  -4.513  1.00  0.00     0.074 A 
ATOM     66  C   UNL     1       7.865  10.952  -4.699  1.00  0.00     0.031 C 
ATOM     67  C   UNL     1       8.511   8.482  -4.341  1.00  0.00     0.037 A 
BRANCH  54  68
ATOM     68  C   UNL     1       7.587   2.399  -3.982  1.00  0.00     0.057 A 
ATOM     69  C   UNL     1       8.518   2.112  -5.004  1.00  0.00     0.134 A 
ATOM     70  C   UNL     1       7.221   1.284  -3.206  1.00  0.00     0.134 A 
ATOM     71  F   UNL     1       9.045   3.075  -5.773  1.00  0.00    -0.206 F 
ATOM     72  C   UNL     1       8.987   0.822  -5.281  1.00  0.00     0.040 A 
ATOM     73  C   UNL     1       7.670  -0.019  -3.483  1.00  0.00     0.040 A 
ATOM     74  F   UNL     1       6.447   1.416  -2.119  1.00  0.00    -0.206 F 
ATOM     75  C   UNL     1       8.553  -0.255  -4.528  1.00  0.00     0.006 A 
ENDBRANCH  54  68
BRANCH  55  76
ATOM     76  C   UNL     1       3.207  11.283  -4.584  1.00  0.00     0.057 A 
ATOM     77  C   UNL     1       1.982  11.570  -5.236  1.00  0.00     0.134 A 
ATOM     78  C   UNL     1       3.159  11.282  -3.184  1.00  0.00     0.134 A 
ATOM     79  F   UNL     1       1.921  11.574  -6.578  1.00  0.00    -0.206 F 
ATOM     80  C   UNL     1       0.774  11.753  -4.548  1.00  0.00     0.040 A 
ATOM     81  C   UNL     1       1.956  11.495  -2.481  1.00  0.00     0.040 A 
ATOM     82  F   UNL     1       4.248  10.990  -2.461  1.00  0.00    -0.206 F 
ATOM     83  C   UNL     1       0.755  11.702  -3.161  1.00  0.00     0.006 A 
ENDBRANCH  55  76
BRANCH  67  84
ATOM     84  C   UNL     1       9.928   8.612  -3.858  1.00  0.00     0.057 A 
ATOM     85  C   UNL     1      10.379   9.688  -3.085  1.00  0.00     0.134 A 
ATOM     86  C   UNL     1      10.849   7.548  -4.008  1.00  0.00     0.134 A 
ATOM     87  F   UNL     1       9.569  10.696  -2.736  1.00  0.00    -0.206 F 
ATOM     88  C   UNL     1      11.677   9.747  -2.576  1.00  0.00     0.040 A 
ATOM     89  C   UNL     1      12.117   7.561  -3.434  1.00  0.00     0.040 A 
ATOM     90  F   UNL     1      10.550   6.431  -4.687  1.00  0.00    -0.206 F 
ATOM     91  C   UNL     1      12.546   8.677  -2.737  1.00  0.00     0.006 A 
ENDBRANCH  67  84
ENDBRANCH  41  42
ENDBRANCH  34  36
ENDBRANCH  33  34
ENDBRANCH  32  33
ENDBRANCH   1  32
TORSDOF 14
