REMARK SMILES O=C(OCCOC(=O)c1ccc(-c2c3nc(c(-c4c(F)cccc4F)c4ccc([nH]4)c(-c4c(F)cccc4F)c4nc(c(-c5c(F)cccc5F)c5ccc2[nH]5)C=C4)C=C3)cc1)C1=Cc2cc(OC(F)(F)F)ccc2O[C@@H]1C(F)(F)F
REMARK SMILES IDX 4 1 3 2 2 3 1 4 63 5 64 6 77 7 65 8 76 9 66 10 75 11 67 12
REMARK SMILES IDX 74 13 73 14 78 15 79 16 80 17 81 18 68 19 69 20 70 21 71 22
REMARK SMILES IDX 72 23 5 24 6 25 7 26 8 27 9 28 10 29 62 30 11 31 61 32 12 33
REMARK SMILES IDX 13 34 14 35 55 36 15 37 60 38 54 39 56 40 16 41 59 42 53 43
REMARK SMILES IDX 52 44 17 46 43 47 26 48 42 49 27 50 30 51 41 52 57 53 28 54
REMARK SMILES IDX 29 55 40 57 58 58 31 59 18 60 19 61 24 62 20 63 21 64 23 65
REMARK SMILES IDX 25 66 22 67 44 68 45 69 50 70 46 71 47 72 49 73 51 74 48 75
REMARK SMILES IDX 32 76 33 77 38 78 34 79 35 80 37 81 39 82 36 83
REMARK H PARENT 56 45 30 56
REMARK Flexibility Score: inf
ROOT
ATOM      1  C   UNL     1       2.750  -0.851  -1.261  1.00  0.00     0.275 C 
ENDROOT
BRANCH   1   2
ATOM      2  O   UNL     1       2.131  -0.128  -0.176  1.00  0.00    -0.459 OA
BRANCH   2   3
ATOM      3  C   UNL     1       2.509  -0.514   1.069  1.00  0.00     0.338 C 
ATOM      4  O   UNL     1       2.012  -1.460   1.660  1.00  0.00    -0.246 OA
BRANCH   3   5
ATOM      5  C   UNL     1       3.591   0.356   1.636  1.00  0.00     0.087 C 
ATOM      6  C   UNL     1       4.584  -0.401   2.136  1.00  0.00     0.027 C 
ATOM      7  C   UNL     1       3.982   1.550   0.805  1.00  0.00     0.316 C 
ATOM      8  C   UNL     1       5.789  -0.496   1.316  1.00  0.00     0.021 A 
ATOM      9  O   UNL     1       4.993   1.246  -0.185  1.00  0.00    -0.475 OA
ATOM     10  C   UNL     1       6.763  -1.455   1.597  1.00  0.00     0.058 A 
ATOM     11  C   UNL     1       5.878   0.255   0.142  1.00  0.00     0.128 A 
ATOM     12  C   UNL     1       7.774  -1.732   0.668  1.00  0.00     0.130 A 
ATOM     13  C   UNL     1       6.853  -0.042  -0.803  1.00  0.00     0.051 A 
ATOM     14  C   UNL     1       7.785  -1.053  -0.552  1.00  0.00     0.050 A 
BRANCH   7  15
ATOM     15  C   UNL     1       4.361   2.757   1.676  1.00  0.00     0.430 C 
ATOM     16  F   UNL     1       3.268   3.231   2.326  1.00  0.00    -0.167 F 
ATOM     17  F   UNL     1       5.288   2.465   2.613  1.00  0.00    -0.167 F 
ATOM     18  F   UNL     1       4.845   3.775   0.926  1.00  0.00    -0.167 F 
ENDBRANCH   7  15
BRANCH  12  19
ATOM     19  O   UNL     1       8.668  -2.676   1.082  1.00  0.00    -0.406 OA
BRANCH  19  20
ATOM     20  C   UNL     1       9.617  -3.159   0.148  1.00  0.00     0.573 C 
ATOM     21  F   UNL     1       9.004  -3.853  -0.834  1.00  0.00    -0.132 F 
ATOM     22  F   UNL     1      10.344  -2.157  -0.393  1.00  0.00    -0.132 F 
ATOM     23  F   UNL     1      10.469  -3.989   0.788  1.00  0.00    -0.132 F 
ENDBRANCH  19  20
ENDBRANCH  12  19
ENDBRANCH   3   5
ENDBRANCH   2   3
ENDBRANCH   1   2
BRANCH   1  24
ATOM     24  C   UNL     1       2.999   0.058  -2.485  1.00  0.00     0.275 C 
BRANCH  24  25
ATOM     25  O   UNL     1       2.804   1.449  -2.178  1.00  0.00    -0.458 OA
BRANCH  25  26
ATOM     26  C   UNL     1       1.509   1.855  -2.265  1.00  0.00     0.338 C 
ATOM     27  O   UNL     1       0.604   1.265  -2.811  1.00  0.00    -0.246 OA
BRANCH  26  28
ATOM     28  C   UNL     1       1.309   3.029  -1.375  1.00  0.00     0.060 A 
ATOM     29  C   UNL     1       0.123   3.064  -0.635  1.00  0.00     0.016 A 
ATOM     30  C   UNL     1       2.268   4.035  -1.203  1.00  0.00     0.016 A 
ATOM     31  C   UNL     1      -0.126   4.119   0.243  1.00  0.00     0.010 A 
ATOM     32  C   UNL     1       2.026   5.082  -0.300  1.00  0.00     0.010 A 
ATOM     33  C   UNL     1       0.810   5.150   0.401  1.00  0.00    -0.014 A 
BRANCH  33  34
ATOM     34  C   UNL     1       0.418   6.353   1.185  1.00  0.00     0.031 A 
ATOM     35  C   UNL     1      -0.022   7.589   0.448  1.00  0.00     0.074 A 
ATOM     36  C   UNL     1       0.348   6.324   2.529  1.00  0.00     0.049 A 
ATOM     37  N   UNL     1      -0.596   8.671   0.912  1.00  0.00    -0.248 NA
ATOM     38  C   UNL     1       0.206   7.607  -1.006  1.00  0.00     0.031 C 
ATOM     39  C   UNL     1       0.751   5.205   3.378  1.00  0.00     0.029 A 
ATOM     40  N   UNL     1      -0.108   7.269   3.417  1.00  0.00    -0.354 N 
ATOM     41  C   UNL     1      -0.837   9.473  -0.195  1.00  0.00     0.074 A 
ATOM     42  C   UNL     1      -0.276   8.794  -1.342  1.00  0.00     0.031 C 
ATOM     43  C   UNL     1       0.523   5.526   4.665  1.00  0.00     0.029 A 
ATOM     44  C   UNL     1      -0.055   6.867   4.730  1.00  0.00     0.049 A 
ATOM     45  H   UNL     1      -0.441   8.152   3.138  1.00  0.00     0.167 HD
ATOM     46  C   UNL     1      -1.500  10.651  -0.265  1.00  0.00     0.037 A 
ATOM     47  C   UNL     1      -0.446   7.500   5.854  1.00  0.00     0.037 A 
ATOM     48  C   UNL     1      -2.041  11.352   0.867  1.00  0.00     0.049 A 
ATOM     49  C   UNL     1      -1.123   8.843   5.758  1.00  0.00     0.074 A 
ATOM     50  C   UNL     1      -2.731  12.552   0.890  1.00  0.00     0.029 A 
ATOM     51  N   UNL     1      -1.941  10.922   2.180  1.00  0.00    -0.354 N 
ATOM     52  N   UNL     1      -1.432   9.543   4.694  1.00  0.00    -0.248 NA
ATOM     53  C   UNL     1      -1.531   9.471   7.024  1.00  0.00     0.031 C 
ATOM     54  C   UNL     1      -3.017  12.866   2.224  1.00  0.00     0.029 A 
ATOM     55  C   UNL     1      -2.539  11.842   3.025  1.00  0.00     0.049 A 
ATOM     56  H   UNL     1      -1.509  10.086   2.469  1.00  0.00     0.167 HD
ATOM     57  C   UNL     1      -2.101  10.670   5.159  1.00  0.00     0.074 A 
ATOM     58  C   UNL     1      -2.167  10.553   6.600  1.00  0.00     0.031 C 
ATOM     59  C   UNL     1      -2.615  11.709   4.456  1.00  0.00     0.037 A 
BRANCH  46  60
ATOM     60  C   UNL     1      -1.688  11.241  -1.629  1.00  0.00     0.057 A 
ATOM     61  C   UNL     1      -2.595  10.684  -2.542  1.00  0.00     0.134 A 
ATOM     62  C   UNL     1      -0.973  12.373  -2.034  1.00  0.00     0.134 A 
ATOM     63  F   UNL     1      -3.298   9.588  -2.218  1.00  0.00    -0.206 F 
ATOM     64  C   UNL     1      -2.765  11.218  -3.819  1.00  0.00     0.040 A 
ATOM     65  C   UNL     1      -1.150  12.930  -3.301  1.00  0.00     0.040 A 
ATOM     66  F   UNL     1      -0.091  12.954  -1.206  1.00  0.00    -0.206 F 
ATOM     67  C   UNL     1      -2.044  12.348  -4.200  1.00  0.00     0.006 A 
ENDBRANCH  46  60
BRANCH  47  68
ATOM     68  C   UNL     1      -0.238   6.873   7.185  1.00  0.00     0.057 A 
ATOM     69  C   UNL     1      -1.318   6.427   7.957  1.00  0.00     0.134 A 
ATOM     70  C   UNL     1       1.039   6.783   7.749  1.00  0.00     0.134 A 
ATOM     71  F   UNL     1      -2.569   6.513   7.482  1.00  0.00    -0.206 F 
ATOM     72  C   UNL     1      -1.139   5.948   9.256  1.00  0.00     0.040 A 
ATOM     73  C   UNL     1       1.235   6.283   9.037  1.00  0.00     0.040 A 
ATOM     74  F   UNL     1       2.114   7.195   7.061  1.00  0.00    -0.206 F 
ATOM     75  C   UNL     1       0.142   5.876   9.800  1.00  0.00     0.006 A 
ENDBRANCH  47  68
BRANCH  59  76
ATOM     76  C   UNL     1      -3.324  12.783   5.228  1.00  0.00     0.057 A 
ATOM     77  C   UNL     1      -2.632  13.692   6.039  1.00  0.00     0.134 A 
ATOM     78  C   UNL     1      -4.714  12.931   5.132  1.00  0.00     0.134 A 
ATOM     79  F   UNL     1      -1.302  13.597   6.183  1.00  0.00    -0.206 F 
ATOM     80  C   UNL     1      -3.300  14.693   6.747  1.00  0.00     0.040 A 
ATOM     81  C   UNL     1      -5.389  13.944   5.814  1.00  0.00     0.040 A 
ATOM     82  F   UNL     1      -5.437  12.100   4.366  1.00  0.00    -0.206 F 
ATOM     83  C   UNL     1      -4.682  14.825   6.630  1.00  0.00     0.006 A 
ENDBRANCH  59  76
ENDBRANCH  33  34
ENDBRANCH  26  28
ENDBRANCH  25  26
ENDBRANCH  24  25
ENDBRANCH   1  24
TORSDOF 14
