REMARK SMILES Cc1ccc(NC(=O)C[C@H]2SC[C@H](C(=O)OCCOC(=O)c3ccc(-c4c5nc(c(-c6c(F)cccc6F)c6ccc([nH]6)c(-c6c(F)cccc6F)c6nc(c(-c7c(F)cccc7F)c7ccc4[nH]7)C=C6)C=C5)cc3)NC2=O)cc1
REMARK SMILES IDX 17 1 16 2 14 3 15 4 13 5 10 6 11 7 77 8 12 9 76 10 78 11
REMARK SMILES IDX 9 13 7 14 6 15 8 17 5 18 1 19 2 20 3 21 80 22 4 23 79 24
REMARK SMILES IDX 18 25 19 26 20 27 21 28 22 29 23 30 75 31 24 32 74 33 25 34
REMARK SMILES IDX 26 35 27 36 68 37 28 38 73 39 67 40 69 41 29 42 72 43 66 44
REMARK SMILES IDX 65 45 30 47 56 48 39 49 55 50 40 51 43 52 54 53 70 54 41 55
REMARK SMILES IDX 42 56 53 58 71 59 44 60 31 61 32 62 37 63 33 64 34 65 36 66
REMARK SMILES IDX 38 67 35 68 57 69 58 70 63 71 59 72 60 73 62 74 64 75 61 76
REMARK SMILES IDX 45 77 46 78 51 79 47 80 48 81 50 82 52 83 49 84
REMARK H PARENT 76 12 6 16 69 46 43 57
REMARK Flexibility Score: inf
ROOT
ATOM      1  C   UNL     1      -8.230  -2.910  -3.082  1.00  0.00     0.274 C 
ENDROOT
BRANCH   1   2
ATOM      2  O   UNL     1      -6.905  -2.377  -3.077  1.00  0.00    -0.461 OA
BRANCH   2   3
ATOM      3  C   UNL     1      -6.090  -2.915  -2.123  1.00  0.00     0.329 C 
ATOM      4  O   UNL     1      -6.466  -3.598  -1.192  1.00  0.00    -0.250 OA
BRANCH   3   5
ATOM      5  C   UNL     1      -4.639  -2.538  -2.421  1.00  0.00     0.202 C 
ATOM      6  C   UNL     1      -1.853  -2.211  -1.320  1.00  0.00     0.145 C 
ATOM      7  S   UNL     1      -2.619  -0.710  -2.064  1.00  0.00    -0.145 SA
ATOM      8  C   UNL     1      -2.367  -3.474  -2.014  1.00  0.00     0.234 C 
ATOM      9  C   UNL     1      -4.352  -1.186  -1.790  1.00  0.00     0.107 C 
ATOM     10  N   UNL     1      -3.732  -3.624  -2.045  1.00  0.00    -0.341 N 
ATOM     11  O   UNL     1      -1.673  -4.394  -2.433  1.00  0.00    -0.274 OA
ATOM     12  H   UNL     1      -4.117  -4.497  -1.803  1.00  0.00     0.164 HD
BRANCH   6  13
ATOM     13  C   UNL     1      -0.344  -2.019  -1.189  1.00  0.00     0.124 C 
BRANCH  13  14
ATOM     14  C   UNL     1       0.553  -3.239  -1.175  1.00  0.00     0.226 C 
ATOM     15  N   UNL     1       0.360  -4.322  -0.380  1.00  0.00    -0.326 N 
ATOM     16  H   UNL     1       0.978  -5.061  -0.581  1.00  0.00     0.169 HD
ATOM     17  O   UNL     1       1.538  -3.264  -1.925  1.00  0.00    -0.275 OA
BRANCH  15  18
ATOM     18  C   UNL     1      -0.525  -4.620   0.663  1.00  0.00     0.041 A 
ATOM     19  C   UNL     1      -3.307  -5.830   3.729  1.00  0.00     0.044 C 
ATOM     20  C   UNL     1      -2.329  -5.421   2.670  1.00  0.00    -0.051 A 
ATOM     21  C   UNL     1      -2.024  -4.068   2.481  1.00  0.00     0.005 A 
ATOM     22  C   UNL     1      -1.705  -6.374   1.864  1.00  0.00     0.005 A 
ATOM     23  C   UNL     1      -1.113  -3.672   1.495  1.00  0.00     0.026 A 
ATOM     24  C   UNL     1      -0.801  -5.975   0.878  1.00  0.00     0.026 A 
ENDBRANCH  15  18
ENDBRANCH  13  14
ENDBRANCH   6  13
ENDBRANCH   3   5
ENDBRANCH   2   3
ENDBRANCH   1   2
BRANCH   1  25
ATOM     25  C   UNL     1      -8.929  -2.580  -4.406  1.00  0.00     0.275 C 
BRANCH  25  26
ATOM     26  O   UNL     1      -8.209  -2.681  -5.673  1.00  0.00    -0.458 OA
BRANCH  26  27
ATOM     27  C   UNL     1      -6.948  -3.136  -5.872  1.00  0.00     0.338 C 
ATOM     28  O   UNL     1      -6.118  -2.514  -6.519  1.00  0.00    -0.246 OA
BRANCH  27  29
ATOM     29  C   UNL     1      -6.634  -4.465  -5.308  1.00  0.00     0.060 A 
ATOM     30  C   UNL     1      -5.304  -4.794  -4.989  1.00  0.00     0.016 A 
ATOM     31  C   UNL     1      -7.667  -5.346  -5.011  1.00  0.00     0.016 A 
ATOM     32  C   UNL     1      -5.027  -5.931  -4.223  1.00  0.00     0.010 A 
ATOM     33  C   UNL     1      -7.403  -6.420  -4.189  1.00  0.00     0.010 A 
ATOM     34  C   UNL     1      -6.091  -6.707  -3.769  1.00  0.00    -0.014 A 
BRANCH  34  35
ATOM     35  C   UNL     1      -5.972  -7.937  -2.990  1.00  0.00     0.031 A 
ATOM     36  C   UNL     1      -5.761  -7.998  -1.526  1.00  0.00     0.074 A 
ATOM     37  C   UNL     1      -6.266  -9.048  -3.692  1.00  0.00     0.049 A 
ATOM     38  N   UNL     1      -5.596  -9.099  -0.870  1.00  0.00    -0.248 NA
ATOM     39  C   UNL     1      -5.665  -6.825  -0.670  1.00  0.00     0.031 C 
ATOM     40  C   UNL     1      -6.657 -10.366  -3.223  1.00  0.00     0.029 A 
ATOM     41  N   UNL     1      -6.070  -9.206  -5.069  1.00  0.00    -0.354 N 
ATOM     42  C   UNL     1      -5.587  -8.822   0.482  1.00  0.00     0.074 A 
ATOM     43  C   UNL     1      -5.553  -7.381   0.544  1.00  0.00     0.031 C 
ATOM     44  C   UNL     1      -6.421 -11.251  -4.208  1.00  0.00     0.029 A 
ATOM     45  C   UNL     1      -5.674 -10.541  -5.239  1.00  0.00     0.049 A 
ATOM     46  H   UNL     1      -6.185  -8.524  -5.770  1.00  0.00     0.167 HD
ATOM     47  C   UNL     1      -5.696  -9.861   1.365  1.00  0.00     0.037 A 
ATOM     48  C   UNL     1      -4.381 -10.812  -5.595  1.00  0.00     0.037 A 
ATOM     49  C   UNL     1      -5.567 -11.138   0.660  1.00  0.00     0.049 A 
ATOM     50  C   UNL     1      -3.638 -11.667  -4.595  1.00  0.00     0.074 A 
ATOM     51  C   UNL     1      -6.469 -12.067   0.171  1.00  0.00     0.029 A 
ATOM     52  N   UNL     1      -4.333 -11.478   0.134  1.00  0.00    -0.354 N 
ATOM     53  N   UNL     1      -4.005 -11.828  -3.354  1.00  0.00    -0.248 NA
ATOM     54  C   UNL     1      -2.381 -12.346  -4.901  1.00  0.00     0.031 C 
ATOM     55  C   UNL     1      -5.761 -12.945  -0.701  1.00  0.00     0.029 A 
ATOM     56  C   UNL     1      -4.434 -12.557  -0.718  1.00  0.00     0.049 A 
ATOM     57  H   UNL     1      -3.493 -11.009   0.342  1.00  0.00     0.167 HD
ATOM     58  C   UNL     1      -3.101 -12.629  -2.719  1.00  0.00     0.074 A 
ATOM     59  C   UNL     1      -2.082 -12.900  -3.714  1.00  0.00     0.031 C 
ATOM     60  C   UNL     1      -3.248 -13.011  -1.421  1.00  0.00     0.037 A 
BRANCH  47  61
ATOM     61  C   UNL     1      -6.049  -9.807   2.847  1.00  0.00     0.057 A 
ATOM     62  C   UNL     1      -6.399 -10.992   3.538  1.00  0.00     0.134 A 
ATOM     63  C   UNL     1      -6.135  -8.653   3.645  1.00  0.00     0.134 A 
ATOM     64  F   UNL     1      -6.351 -12.194   2.947  1.00  0.00    -0.206 F 
ATOM     65  C   UNL     1      -6.833 -11.015   4.873  1.00  0.00     0.040 A 
ATOM     66  C   UNL     1      -6.559  -8.662   4.985  1.00  0.00     0.040 A 
ATOM     67  F   UNL     1      -5.813  -7.444   3.190  1.00  0.00    -0.206 F 
ATOM     68  C   UNL     1      -6.923  -9.844   5.604  1.00  0.00     0.006 A 
ENDBRANCH  47  61
BRANCH  48  69
ATOM     69  C   UNL     1      -3.734  -9.728  -6.394  1.00  0.00     0.057 A 
ATOM     70  C   UNL     1      -4.337  -9.287  -7.588  1.00  0.00     0.134 A 
ATOM     71  C   UNL     1      -2.732  -8.913  -5.855  1.00  0.00     0.134 A 
ATOM     72  F   UNL     1      -5.316 -10.009  -8.158  1.00  0.00    -0.206 F 
ATOM     73  C   UNL     1      -4.029  -8.051  -8.161  1.00  0.00     0.040 A 
ATOM     74  C   UNL     1      -2.402  -7.681  -6.431  1.00  0.00     0.040 A 
ATOM     75  F   UNL     1      -2.109  -9.254  -4.718  1.00  0.00    -0.206 F 
ATOM     76  C   UNL     1      -3.073  -7.233  -7.568  1.00  0.00     0.006 A 
ENDBRANCH  48  69
BRANCH  60  77
ATOM     77  C   UNL     1      -2.265 -13.886  -0.720  1.00  0.00     0.057 A 
ATOM     78  C   UNL     1      -1.822 -15.099  -1.259  1.00  0.00     0.134 A 
ATOM     79  C   UNL     1      -1.825 -13.580   0.580  1.00  0.00     0.134 A 
ATOM     80  F   UNL     1      -2.227 -15.502  -2.474  1.00  0.00    -0.206 F 
ATOM     81  C   UNL     1      -0.962 -15.948  -0.557  1.00  0.00     0.040 A 
ATOM     82  C   UNL     1      -1.003 -14.439   1.308  1.00  0.00     0.040 A 
ATOM     83  F   UNL     1      -2.166 -12.428   1.178  1.00  0.00    -0.206 F 
ATOM     84  C   UNL     1      -0.560 -15.625   0.736  1.00  0.00     0.006 A 
ENDBRANCH  60  77
ENDBRANCH  34  35
ENDBRANCH  27  29
ENDBRANCH  26  27
ENDBRANCH  25  26
ENDBRANCH   1  25
TORSDOF 14
