REMARK SMILES C[N@@H+]1CCN(C(=O)c2ccc3[nH]c4c(c3c2)CSCC4)C[C@H]1C(=O)OCCOC(=O)c1ccc(-c2c3nc(c(-c4c(F)cccc4F)c4ccc([nH]4)c(-c4c(F)cccc4F)c4nc(c(-c5c(F)cccc5F)c5ccc2[nH]5)C=C4)C=C3)cc1
REMARK SMILES IDX 26 1 25 2 23 3 24 4 22 5 1 6 2 7 3 8 4 10 21 11 5 12 6 13
REMARK SMILES IDX 7 14 8 15 9 16 16 17 10 18 15 19 11 20 14 21 12 22 13 23
REMARK SMILES IDX 17 24 20 26 18 27 19 28 27 29 28 30 29 31 30 32 31 33 32 34
REMARK SMILES IDX 84 35 33 36 83 37 34 38 35 39 36 40 77 41 37 42 82 43 76 44
REMARK SMILES IDX 78 45 38 46 81 47 75 48 74 49 39 51 65 52 48 53 64 54 49 55
REMARK SMILES IDX 52 56 63 57 79 58 50 59 51 60 62 62 80 63 53 64 40 65 41 66
REMARK SMILES IDX 46 67 42 68 43 69 45 70 47 71 44 72 66 73 67 74 72 75 68 76
REMARK SMILES IDX 69 77 71 78 73 79 70 80 54 81 55 82 60 83 56 84 57 85 59 86
REMARK SMILES IDX 61 87 58 88
REMARK H PARENT 2 9 12 25 78 50 52 61
REMARK Flexibility Score: inf
ROOT
ATOM      1  C   UNL     1       2.695  -3.631  -2.138  1.00  0.00     0.274 C 
ENDROOT
BRANCH   1   2
ATOM      2  O   UNL     1       2.257  -2.257  -2.010  1.00  0.00    -0.458 OA
BRANCH   2   3
ATOM      3  C   UNL     1       1.164  -2.142  -1.233  1.00  0.00     0.366 C 
ATOM      4  O   UNL     1       0.612  -3.121  -0.728  1.00  0.00    -0.245 OA
BRANCH   3   5
ATOM      5  C   UNL     1       0.549  -0.783  -1.042  1.00  0.00     0.314 C 
ATOM      6  C   UNL     1       2.593   0.549  -0.495  1.00  0.00     0.333 C 
ATOM      7  N   UNL     1       1.270   0.514  -1.095  1.00  0.00    -0.323 N 
ATOM      8  C   UNL     1       0.350   1.506  -0.433  1.00  0.00     0.284 C 
ATOM      9  H   UNL     1       1.475   0.724  -2.071  1.00  0.00     0.348 HD
ATOM     10  C   UNL     1      -1.142   1.494  -0.946  1.00  0.00     0.181 C 
ATOM     11  C   UNL     1      -0.595  -0.636  -2.044  1.00  0.00     0.197 C 
ATOM     12  N   UNL     1      -1.615   0.163  -1.383  1.00  0.00    -0.326 N 
BRANCH  12  13
ATOM     13  C   UNL     1      -2.919  -0.258  -1.167  1.00  0.00     0.254 C 
ATOM     14  O   UNL     1      -3.794   0.518  -0.784  1.00  0.00    -0.269 OA
BRANCH  13  15
ATOM     15  C   UNL     1      -3.279  -1.717  -1.292  1.00  0.00     0.040 A 
ATOM     16  C   UNL     1      -2.455  -2.721  -0.758  1.00  0.00     0.016 A 
ATOM     17  C   UNL     1      -4.593  -2.038  -1.638  1.00  0.00     0.024 A 
ATOM     18  C   UNL     1      -2.898  -4.016  -0.485  1.00  0.00     0.027 A 
ATOM     19  C   UNL     1      -5.100  -3.305  -1.277  1.00  0.00     0.004 A 
ATOM     20  C   UNL     1      -4.255  -4.236  -0.674  1.00  0.00     0.046 A 
ATOM     21  C   UNL     1      -6.407  -3.870  -1.283  1.00  0.00    -0.009 A 
ATOM     22  N   UNL     1      -5.034  -5.281  -0.242  1.00  0.00    -0.358 N 
ATOM     23  C   UNL     1      -6.345  -5.018  -0.515  1.00  0.00     0.021 A 
ATOM     24  C   UNL     1      -7.640  -3.252  -1.844  1.00  0.00     0.107 C 
ATOM     25  H   UNL     1      -4.699  -6.096   0.197  1.00  0.00     0.166 HD
ATOM     26  C   UNL     1      -7.476  -5.840  -0.005  1.00  0.00     0.065 C 
ATOM     27  S   UNL     1      -9.076  -4.382  -1.790  1.00  0.00    -0.157 SA
ATOM     28  C   UNL     1      -8.802  -5.075  -0.115  1.00  0.00     0.076 C 
ENDBRANCH  13  15
ENDBRANCH  12  13
ENDBRANCH   3   5
ENDBRANCH   2   3
ENDBRANCH   1   2
BRANCH   1  29
ATOM     29  C   UNL     1       3.667  -4.033  -1.018  1.00  0.00     0.275 C 
BRANCH  29  30
ATOM     30  O   UNL     1       2.994  -4.142   0.252  1.00  0.00    -0.458 OA
BRANCH  30  31
ATOM     31  C   UNL     1       3.175  -3.124   1.125  1.00  0.00     0.338 C 
ATOM     32  O   UNL     1       4.032  -2.246   1.060  1.00  0.00    -0.246 OA
BRANCH  31  33
ATOM     33  C   UNL     1       1.980  -3.021   1.989  1.00  0.00     0.060 A 
ATOM     34  C   UNL     1       1.259  -4.138   2.410  1.00  0.00     0.016 A 
ATOM     35  C   UNL     1       1.481  -1.731   2.219  1.00  0.00     0.016 A 
ATOM     36  C   UNL     1       0.005  -3.949   2.983  1.00  0.00     0.010 A 
ATOM     37  C   UNL     1       0.206  -1.543   2.722  1.00  0.00     0.010 A 
ATOM     38  C   UNL     1      -0.533  -2.656   3.096  1.00  0.00    -0.014 A 
BRANCH  38  39
ATOM     39  C   UNL     1      -1.771  -2.497   3.841  1.00  0.00     0.031 A 
ATOM     40  C   UNL     1      -1.580  -2.476   5.293  1.00  0.00     0.074 A 
ATOM     41  C   UNL     1      -2.991  -2.223   3.356  1.00  0.00     0.049 A 
ATOM     42  N   UNL     1      -1.713  -3.460   6.113  1.00  0.00    -0.248 NA
ATOM     43  C   UNL     1      -1.026  -1.252   5.882  1.00  0.00     0.031 C 
ATOM     44  C   UNL     1      -3.276  -1.671   2.055  1.00  0.00     0.029 A 
ATOM     45  N   UNL     1      -4.221  -2.325   3.939  1.00  0.00    -0.354 N 
ATOM     46  C   UNL     1      -1.536  -2.897   7.367  1.00  0.00     0.074 A 
ATOM     47  C   UNL     1      -0.874  -1.638   7.149  1.00  0.00     0.031 C 
ATOM     48  C   UNL     1      -4.594  -1.433   1.931  1.00  0.00     0.029 A 
ATOM     49  C   UNL     1      -5.256  -1.847   3.149  1.00  0.00     0.049 A 
ATOM     50  H   UNL     1      -4.361  -2.702   4.837  1.00  0.00     0.167 HD
ATOM     51  C   UNL     1      -2.264  -3.359   8.419  1.00  0.00     0.037 A 
ATOM     52  C   UNL     1      -6.574  -1.718   3.437  1.00  0.00     0.037 A 
ATOM     53  C   UNL     1      -2.794  -4.681   8.139  1.00  0.00     0.049 A 
ATOM     54  C   UNL     1      -6.869  -2.577   4.607  1.00  0.00     0.074 A 
ATOM     55  C   UNL     1      -2.249  -5.874   7.697  1.00  0.00     0.029 A 
ATOM     56  N   UNL     1      -4.149  -4.815   7.943  1.00  0.00    -0.354 N 
ATOM     57  N   UNL     1      -6.795  -3.885   4.577  1.00  0.00    -0.248 NA
ATOM     58  C   UNL     1      -6.695  -1.980   5.925  1.00  0.00     0.031 C 
ATOM     59  C   UNL     1      -3.230  -6.432   6.821  1.00  0.00     0.029 A 
ATOM     60  C   UNL     1      -4.332  -5.576   6.818  1.00  0.00     0.049 A 
ATOM     61  H   UNL     1      -4.859  -4.433   8.508  1.00  0.00     0.167 HD
ATOM     62  C   UNL     1      -6.152  -4.235   5.761  1.00  0.00     0.074 A 
ATOM     63  C   UNL     1      -6.176  -3.024   6.578  1.00  0.00     0.031 C 
ATOM     64  C   UNL     1      -5.404  -5.373   5.867  1.00  0.00     0.037 A 
BRANCH  51  65
ATOM     65  C   UNL     1      -2.857  -2.453   9.479  1.00  0.00     0.057 A 
ATOM     66  C   UNL     1      -3.029  -1.055   9.365  1.00  0.00     0.134 A 
ATOM     67  C   UNL     1      -3.571  -3.048  10.533  1.00  0.00     0.134 A 
ATOM     68  F   UNL     1      -2.443  -0.315   8.420  1.00  0.00    -0.206 F 
ATOM     69  C   UNL     1      -3.902  -0.329  10.177  1.00  0.00     0.040 A 
ATOM     70  C   UNL     1      -4.486  -2.338  11.318  1.00  0.00     0.040 A 
ATOM     71  F   UNL     1      -3.481  -4.366  10.767  1.00  0.00    -0.206 F 
ATOM     72  C   UNL     1      -4.669  -0.976  11.128  1.00  0.00     0.006 A 
ENDBRANCH  51  65
BRANCH  52  73
ATOM     73  C   UNL     1      -7.426  -0.677   2.814  1.00  0.00     0.057 A 
ATOM     74  C   UNL     1      -6.880   0.602   2.564  1.00  0.00     0.134 A 
ATOM     75  C   UNL     1      -8.757  -0.852   2.437  1.00  0.00     0.134 A 
ATOM     76  F   UNL     1      -5.662   0.925   3.028  1.00  0.00    -0.206 F 
ATOM     77  C   UNL     1      -7.551   1.591   1.846  1.00  0.00     0.040 A 
ATOM     78  C   UNL     1      -9.463   0.152   1.747  1.00  0.00     0.040 A 
ATOM     79  F   UNL     1      -9.402  -1.993   2.715  1.00  0.00    -0.206 F 
ATOM     80  C   UNL     1      -8.849   1.362   1.419  1.00  0.00     0.006 A 
ENDBRANCH  52  73
BRANCH  64  81
ATOM     81  C   UNL     1      -5.501  -6.395   4.774  1.00  0.00     0.057 A 
ATOM     82  C   UNL     1      -6.212  -7.574   5.016  1.00  0.00     0.134 A 
ATOM     83  C   UNL     1      -4.705  -6.349   3.620  1.00  0.00     0.134 A 
ATOM     84  F   UNL     1      -6.937  -7.706   6.137  1.00  0.00    -0.206 F 
ATOM     85  C   UNL     1      -6.127  -8.671   4.155  1.00  0.00     0.040 A 
ATOM     86  C   UNL     1      -4.604  -7.447   2.758  1.00  0.00     0.040 A 
ATOM     87  F   UNL     1      -3.939  -5.282   3.351  1.00  0.00    -0.206 F 
ATOM     88  C   UNL     1      -5.316  -8.613   3.024  1.00  0.00     0.006 A 
ENDBRANCH  64  81
ENDBRANCH  38  39
ENDBRANCH  31  33
ENDBRANCH  30  31
ENDBRANCH  29  30
ENDBRANCH   1  29
TORSDOF 13
