REMARK SMILES COc1c(C)cc([C@H](C(=O)OCCOC(=O)c2ccc(-c3c4nc(c(-c5c(F)cccc5F)c5ccc([nH]5)c(-c5c(F)cccc5F)c5nc(c(-c6c(F)cccc6F)c6ccc3[nH]6)C=C5)C=C4)cc2)[N@@H+](C)CCN2CCCCC2=O)cc1C
REMARK SMILES IDX 12 1 11 2 9 3 10 4 8 5 7 6 3 7 4 8 83 9 5 10 6 11 82 12
REMARK SMILES IDX 84 13 2 14 1 15 71 16 72 17 73 19 74 20 75 21 76 22 80 23
REMARK SMILES IDX 77 24 79 25 81 26 78 27 13 28 14 29 15 30 16 31 17 32 18 33
REMARK SMILES IDX 70 34 19 35 69 36 20 37 21 38 22 39 63 40 23 41 68 42 62 43
REMARK SMILES IDX 64 44 24 45 67 46 61 47 60 48 25 50 51 51 34 52 50 53 35 54
REMARK SMILES IDX 38 55 49 56 65 57 36 58 37 59 48 61 66 62 39 63 26 64 27 65
REMARK SMILES IDX 32 66 28 67 29 68 31 69 33 70 30 71 52 72 53 73 58 74 54 75
REMARK SMILES IDX 55 76 57 77 59 78 56 79 40 80 41 81 46 82 42 83 43 84 45 85
REMARK SMILES IDX 47 86 44 87
REMARK H PARENT 71 18 64 49 38 60
REMARK Flexibility Score: inf
ROOT
ATOM      1  C   UNL     1       1.111  -3.151  -3.308  1.00  0.00     0.274 C 
ENDROOT
BRANCH   1   2
ATOM      2  O   UNL     1       2.018  -3.135  -4.442  1.00  0.00    -0.457 OA
BRANCH   2   3
ATOM      3  C   UNL     1       1.617  -3.099  -5.755  1.00  0.00     0.370 C 
ATOM      4  O   UNL     1       0.460  -2.886  -6.101  1.00  0.00    -0.245 OA
BRANCH   3   5
ATOM      5  C   UNL     1       2.822  -3.389  -6.747  1.00  0.00     0.326 C 
BRANCH   5   6
ATOM      6  C   UNL     1       3.242  -2.352  -7.829  1.00  0.00     0.022 A 
ATOM      7  C   UNL     1       4.051  -0.378  -9.735  1.00  0.00     0.124 A 
ATOM      8  C   UNL     1       2.897  -1.149  -9.954  1.00  0.00    -0.008 A 
ATOM      9  C   UNL     1       4.863  -0.641  -8.644  1.00  0.00    -0.008 A 
ATOM     10  C   UNL     1       2.109  -0.986 -11.224  1.00  0.00     0.048 C 
ATOM     11  C   UNL     1       2.471  -2.088  -8.972  1.00  0.00     0.017 A 
ATOM     12  C   UNL     1       4.464  -1.651  -7.759  1.00  0.00     0.017 A 
ATOM     13  C   UNL     1       6.106   0.135  -8.304  1.00  0.00     0.048 C 
BRANCH   7  14
ATOM     14  O   UNL     1       4.433   0.601 -10.613  1.00  0.00    -0.496 OA
ATOM     15  C   UNL     1       3.771   1.835 -10.323  1.00  0.00     0.278 C 
ENDBRANCH   7  14
ENDBRANCH   5   6
BRANCH   5  16
ATOM     16  N   UNL     1       3.933  -4.001  -5.983  1.00  0.00    -0.320 N 
ATOM     17  C   UNL     1       4.657  -4.985  -6.792  1.00  0.00     0.333 C 
ATOM     18  H   UNL     1       3.397  -4.439  -5.234  1.00  0.00     0.348 HD
BRANCH  16  19
ATOM     19  C   UNL     1       4.832  -3.195  -5.123  1.00  0.00     0.284 C 
BRANCH  19  20
ATOM     20  C   UNL     1       4.550  -1.860  -4.303  1.00  0.00     0.180 C 
BRANCH  20  21
ATOM     21  N   UNL     1       4.205  -0.519  -4.878  1.00  0.00    -0.337 N 
ATOM     22  C   UNL     1       2.863  -0.244  -5.352  1.00  0.00     0.119 C 
ATOM     23  C   UNL     1       4.945   0.589  -4.452  1.00  0.00     0.222 C 
ATOM     24  C   UNL     1       2.742   0.958  -6.265  1.00  0.00     0.022 C 
ATOM     25  C   UNL     1       4.468   2.000  -4.828  1.00  0.00     0.100 C 
ATOM     26  O   UNL     1       5.991   0.475  -3.808  1.00  0.00    -0.275 OA
ATOM     27  C   UNL     1       3.104   2.178  -5.472  1.00  0.00     0.012 C 
ENDBRANCH  20  21
ENDBRANCH  19  20
ENDBRANCH  16  19
ENDBRANCH   5  16
ENDBRANCH   3   5
ENDBRANCH   2   3
ENDBRANCH   1   2
BRANCH   1  28
ATOM     28  C   UNL     1       1.119  -1.837  -2.504  1.00  0.00     0.275 C 
BRANCH  28  29
ATOM     29  O   UNL     1       0.148  -0.976  -3.109  1.00  0.00    -0.458 OA
BRANCH  29  30
ATOM     30  C   UNL     1       0.262   0.357  -2.908  1.00  0.00     0.338 C 
ATOM     31  O   UNL     1       0.886   0.917  -2.029  1.00  0.00    -0.246 OA
BRANCH  30  32
ATOM     32  C   UNL     1      -0.352   1.030  -4.088  1.00  0.00     0.060 A 
ATOM     33  C   UNL     1      -0.656   0.277  -5.231  1.00  0.00     0.016 A 
ATOM     34  C   UNL     1      -0.488   2.421  -4.123  1.00  0.00     0.016 A 
ATOM     35  C   UNL     1      -1.041   0.901  -6.407  1.00  0.00     0.010 A 
ATOM     36  C   UNL     1      -0.952   3.044  -5.290  1.00  0.00     0.010 A 
ATOM     37  C   UNL     1      -1.235   2.285  -6.439  1.00  0.00    -0.014 A 
BRANCH  37  38
ATOM     38  C   UNL     1      -1.855   2.895  -7.637  1.00  0.00     0.031 A 
ATOM     39  C   UNL     1      -1.127   3.886  -8.491  1.00  0.00     0.074 A 
ATOM     40  C   UNL     1      -3.114   2.533  -7.951  1.00  0.00     0.049 A 
ATOM     41  N   UNL     1      -1.594   4.635  -9.457  1.00  0.00    -0.248 NA
ATOM     42  C   UNL     1       0.312   4.053  -8.239  1.00  0.00     0.031 C 
ATOM     43  C   UNL     1      -3.905   1.526  -7.237  1.00  0.00     0.029 A 
ATOM     44  N   UNL     1      -3.953   2.977  -8.939  1.00  0.00    -0.354 N 
ATOM     45  C   UNL     1      -0.517   5.379  -9.918  1.00  0.00     0.074 A 
ATOM     46  C   UNL     1       0.632   4.990  -9.124  1.00  0.00     0.031 C 
ATOM     47  C   UNL     1      -5.112   1.432  -7.806  1.00  0.00     0.029 A 
ATOM     48  C   UNL     1      -5.214   2.443  -8.849  1.00  0.00     0.049 A 
ATOM     49  H   UNL     1      -3.681   3.613  -9.639  1.00  0.00     0.167 HD
ATOM     50  C   UNL     1      -0.502   6.303 -10.909  1.00  0.00     0.037 A 
ATOM     51  C   UNL     1      -6.357   2.780  -9.470  1.00  0.00     0.037 A 
ATOM     52  C   UNL     1      -1.656   6.676 -11.692  1.00  0.00     0.049 A 
ATOM     53  C   UNL     1      -6.348   3.894 -10.464  1.00  0.00     0.074 A 
ATOM     54  C   UNL     1      -1.733   7.585 -12.735  1.00  0.00     0.029 A 
ATOM     55  N   UNL     1      -2.935   6.171 -11.512  1.00  0.00    -0.354 N 
ATOM     56  N   UNL     1      -5.339   4.628 -10.863  1.00  0.00    -0.248 NA
ATOM     57  C   UNL     1      -7.633   4.238 -11.081  1.00  0.00     0.031 C 
ATOM     58  C   UNL     1      -3.068   7.668 -13.149  1.00  0.00     0.029 A 
ATOM     59  C   UNL     1      -3.814   6.774 -12.400  1.00  0.00     0.049 A 
ATOM     60  H   UNL     1      -3.183   5.485 -10.851  1.00  0.00     0.167 HD
ATOM     61  C   UNL     1      -5.864   5.521 -11.784  1.00  0.00     0.074 A 
ATOM     62  C   UNL     1      -7.279   5.225 -11.892  1.00  0.00     0.031 C 
ATOM     63  C   UNL     1      -5.226   6.494 -12.479  1.00  0.00     0.037 A 
BRANCH  50  64
ATOM     64  C   UNL     1       0.790   7.015 -11.186  1.00  0.00     0.057 A 
ATOM     65  C   UNL     1       1.854   6.397 -11.854  1.00  0.00     0.134 A 
ATOM     66  C   UNL     1       0.937   8.368 -10.851  1.00  0.00     0.134 A 
ATOM     67  F   UNL     1       1.785   5.099 -12.190  1.00  0.00    -0.206 F 
ATOM     68  C   UNL     1       3.018   7.099 -12.177  1.00  0.00     0.040 A 
ATOM     69  C   UNL     1       2.087   9.085 -11.185  1.00  0.00     0.040 A 
ATOM     70  F   UNL     1      -0.046   9.020 -10.212  1.00  0.00    -0.206 F 
ATOM     71  C   UNL     1       3.132   8.449 -11.851  1.00  0.00     0.006 A 
ENDBRANCH  50  64
BRANCH  51  72
ATOM     72  C   UNL     1      -7.606   2.091  -9.073  1.00  0.00     0.057 A 
ATOM     73  C   UNL     1      -8.201   1.134  -9.898  1.00  0.00     0.134 A 
ATOM     74  C   UNL     1      -8.172   2.304  -7.808  1.00  0.00     0.134 A 
ATOM     75  F   UNL     1      -7.710   0.901 -11.124  1.00  0.00    -0.206 F 
ATOM     76  C   UNL     1      -9.307   0.398  -9.473  1.00  0.00     0.040 A 
ATOM     77  C   UNL     1      -9.259   1.558  -7.360  1.00  0.00     0.040 A 
ATOM     78  F   UNL     1      -7.634   3.203  -6.969  1.00  0.00    -0.206 F 
ATOM     79  C   UNL     1      -9.829   0.599  -8.195  1.00  0.00     0.006 A 
ENDBRANCH  51  72
BRANCH  63  80
ATOM     80  C   UNL     1      -6.063   7.295 -13.429  1.00  0.00     0.057 A 
ATOM     81  C   UNL     1      -6.968   8.263 -12.976  1.00  0.00     0.134 A 
ATOM     82  C   UNL     1      -5.972   7.087 -14.811  1.00  0.00     0.134 A 
ATOM     83  F   UNL     1      -7.115   8.494 -11.663  1.00  0.00    -0.206 F 
ATOM     84  C   UNL     1      -7.775   8.976 -13.864  1.00  0.00     0.040 A 
ATOM     85  C   UNL     1      -6.757   7.810 -15.709  1.00  0.00     0.040 A 
ATOM     86  F   UNL     1      -5.122   6.176 -15.308  1.00  0.00    -0.206 F 
ATOM     87  C   UNL     1      -7.668   8.752 -15.236  1.00  0.00     0.006 A 
ENDBRANCH  63  80
ENDBRANCH  37  38
ENDBRANCH  30  32
ENDBRANCH  29  30
ENDBRANCH  28  29
ENDBRANCH   1  28
TORSDOF 17
