REMARK SMILES O=C(OCCOC(=O)c1c[nH]c(=O)c(-c2cccc([N+](=O)[O-])c2)c1)c1ccc(-c2c3nc(c(-c4c(F)cccc4F)c4ccc([nH]4)c(-c4c(F)cccc4F)c4nc(c(-c5c(F)cccc5F)c5ccc2[nH]5)C=C4)C=C3)cc1
REMARK SMILES IDX 4 1 3 2 2 3 1 4 25 5 26 6 78 7 27 8 77 9 28 10 29 11 30 12
REMARK SMILES IDX 71 13 31 14 76 15 70 16 72 17 32 18 75 19 69 20 68 21 33 23
REMARK SMILES IDX 59 24 42 25 58 26 43 27 46 28 57 29 73 30 44 31 45 32 56 34
REMARK SMILES IDX 74 35 47 36 34 37 35 38 40 39 36 40 37 41 39 42 41 43 38 44
REMARK SMILES IDX 60 45 61 46 66 47 62 48 63 49 65 50 67 51 64 52 48 53 49 54
REMARK SMILES IDX 54 55 50 56 51 57 53 58 55 59 52 60 5 61 6 62 7 63 8 64 9 65
REMARK SMILES IDX 10 66 24 67 11 68 14 69 12 70 13 72 15 73 16 74 23 75 17 76
REMARK SMILES IDX 19 77 18 78 20 79 21 80 22 81
REMARK H PARENT 72 22 46 33 11 71
REMARK Flexibility Score: inf
ROOT
ATOM      1  C   UNL     1       4.141  -0.895  -1.348  1.00  0.00     0.275 C 
ENDROOT
BRANCH   1   2
ATOM      2  O   UNL     1       3.030  -0.975  -0.436  1.00  0.00    -0.458 OA
BRANCH   2   3
ATOM      3  C   UNL     1       2.900  -0.439   0.801  1.00  0.00     0.338 C 
ATOM      4  O   UNL     1       2.020  -0.861   1.549  1.00  0.00    -0.246 OA
BRANCH   3   5
ATOM      5  C   UNL     1       3.651   0.775   1.239  1.00  0.00     0.060 A 
ATOM      6  C   UNL     1       5.000   1.028   0.987  1.00  0.00     0.016 A 
ATOM      7  C   UNL     1       2.934   1.704   2.016  1.00  0.00     0.016 A 
ATOM      8  C   UNL     1       5.605   2.201   1.447  1.00  0.00     0.010 A 
ATOM      9  C   UNL     1       3.530   2.882   2.474  1.00  0.00     0.010 A 
ATOM     10  C   UNL     1       4.880   3.124   2.206  1.00  0.00    -0.014 A 
BRANCH  10  11
ATOM     11  C   UNL     1       5.609   4.209   2.898  1.00  0.00     0.031 A 
ATOM     12  C   UNL     1       5.995   3.990   4.335  1.00  0.00     0.074 A 
ATOM     13  C   UNL     1       6.006   5.311   2.238  1.00  0.00     0.049 A 
ATOM     14  N   UNL     1       6.741   4.728   5.114  1.00  0.00    -0.248 NA
ATOM     15  C   UNL     1       5.506   2.751   4.967  1.00  0.00     0.031 C 
ATOM     16  C   UNL     1       5.771   5.589   0.821  1.00  0.00     0.029 A 
ATOM     17  N   UNL     1       6.705   6.404   2.678  1.00  0.00    -0.354 N 
ATOM     18  C   UNL     1       6.850   4.021   6.305  1.00  0.00     0.074 A 
ATOM     19  C   UNL     1       6.037   2.833   6.176  1.00  0.00     0.031 C 
ATOM     20  C   UNL     1       6.296   6.789   0.514  1.00  0.00     0.029 A 
ATOM     21  C   UNL     1       6.909   7.356   1.710  1.00  0.00     0.049 A 
ATOM     22  H   UNL     1       7.031   6.498   3.602  1.00  0.00     0.167 HD
ATOM     23  C   UNL     1       7.595   4.315   7.395  1.00  0.00     0.037 A 
ATOM     24  C   UNL     1       7.523   8.550   1.795  1.00  0.00     0.037 A 
ATOM     25  C   UNL     1       8.368   5.517   7.532  1.00  0.00     0.049 A 
ATOM     26  C   UNL     1       8.153   8.955   3.095  1.00  0.00     0.074 A 
ATOM     27  C   UNL     1       9.170   5.918   8.585  1.00  0.00     0.029 A 
ATOM     28  N   UNL     1       8.410   6.530   6.585  1.00  0.00    -0.354 N 
ATOM     29  N   UNL     1       8.274   8.267   4.203  1.00  0.00    -0.248 NA
ATOM     30  C   UNL     1       8.757  10.293   3.141  1.00  0.00     0.031 C 
ATOM     31  C   UNL     1       9.667   7.193   8.290  1.00  0.00     0.029 A 
ATOM     32  C   UNL     1       9.207   7.566   7.036  1.00  0.00     0.049 A 
ATOM     33  H   UNL     1       7.941   6.513   5.719  1.00  0.00     0.167 HD
ATOM     34  C   UNL     1       9.015   9.065   5.063  1.00  0.00     0.074 A 
ATOM     35  C   UNL     1       9.285  10.302   4.357  1.00  0.00     0.031 C 
ATOM     36  C   UNL     1       9.466   8.782   6.309  1.00  0.00     0.037 A 
BRANCH  23  37
ATOM     37  C   UNL     1       7.590   3.311   8.507  1.00  0.00     0.057 A 
ATOM     38  C   UNL     1       8.247   2.078   8.381  1.00  0.00     0.134 A 
ATOM     39  C   UNL     1       6.904   3.559   9.700  1.00  0.00     0.134 A 
ATOM     40  F   UNL     1       8.905   1.769   7.253  1.00  0.00    -0.206 F 
ATOM     41  C   UNL     1       8.195   1.116   9.391  1.00  0.00     0.040 A 
ATOM     42  C   UNL     1       6.862   2.612  10.726  1.00  0.00     0.040 A 
ATOM     43  F   UNL     1       6.252   4.716   9.883  1.00  0.00    -0.206 F 
ATOM     44  C   UNL     1       7.502   1.384  10.570  1.00  0.00     0.006 A 
ENDBRANCH  23  37
BRANCH  24  45
ATOM     45  C   UNL     1       7.585   9.456   0.627  1.00  0.00     0.057 A 
ATOM     46  C   UNL     1       8.662   9.440  -0.262  1.00  0.00     0.134 A 
ATOM     47  C   UNL     1       6.582  10.404   0.410  1.00  0.00     0.134 A 
ATOM     48  F   UNL     1       9.673   8.579  -0.082  1.00  0.00    -0.206 F 
ATOM     49  C   UNL     1       8.731  10.331  -1.336  1.00  0.00     0.040 A 
ATOM     50  C   UNL     1       6.628  11.292  -0.665  1.00  0.00     0.040 A 
ATOM     51  F   UNL     1       5.558  10.501   1.266  1.00  0.00    -0.206 F 
ATOM     52  C   UNL     1       7.708  11.256  -1.543  1.00  0.00     0.006 A 
ENDBRANCH  24  45
BRANCH  36  53
ATOM     53  C   UNL     1      10.370   9.793   6.942  1.00  0.00     0.057 A 
ATOM     54  C   UNL     1       9.889  10.988   7.487  1.00  0.00     0.134 A 
ATOM     55  C   UNL     1      11.747   9.548   7.014  1.00  0.00     0.134 A 
ATOM     56  F   UNL     1       8.583  11.286   7.427  1.00  0.00    -0.206 F 
ATOM     57  C   UNL     1      10.754  11.917   8.067  1.00  0.00     0.040 A 
ATOM     58  C   UNL     1      12.617  10.458   7.612  1.00  0.00     0.040 A 
ATOM     59  F   UNL     1      12.266   8.418   6.509  1.00  0.00    -0.206 F 
ATOM     60  C   UNL     1      12.121  11.649   8.136  1.00  0.00     0.006 A 
ENDBRANCH  36  53
ENDBRANCH  10  11
ENDBRANCH   3   5
ENDBRANCH   2   3
ENDBRANCH   1   2
BRANCH   1  61
ATOM     61  C   UNL     1       4.064   0.262  -2.347  1.00  0.00     0.275 C 
BRANCH  61  62
ATOM     62  O   UNL     1       3.562   1.472  -1.760  1.00  0.00    -0.458 OA
BRANCH  62  63
ATOM     63  C   UNL     1       2.229   1.674  -1.942  1.00  0.00     0.339 C 
ATOM     64  O   UNL     1       1.486   0.998  -2.638  1.00  0.00    -0.246 OA
BRANCH  63  65
ATOM     65  C   UNL     1       1.753   2.759  -1.055  1.00  0.00     0.077 A 
ATOM     66  C   UNL     1       0.670   2.474  -0.317  1.00  0.00     0.101 A 
ATOM     67  C   UNL     1       2.378   4.065  -0.947  1.00  0.00     0.031 A 
ATOM     68  N   UNL     1       0.180   3.393   0.572  1.00  0.00    -0.328 N 
ATOM     69  C   UNL     1       1.893   5.013  -0.113  1.00  0.00     0.048 A 
ATOM     70  C   UNL     1       0.712   4.645   0.760  1.00  0.00     0.255 A 
ATOM     71  H   UNL     1      -0.603   3.139   1.112  1.00  0.00     0.169 HD
ATOM     72  O   UNL     1       0.234   5.408   1.593  1.00  0.00    -0.269 OA
BRANCH  69  73
ATOM     73  C   UNL     1       2.441   6.389  -0.075  1.00  0.00    -0.006 A 
ATOM     74  C   UNL     1       2.663   7.102  -1.267  1.00  0.00     0.009 A 
ATOM     75  C   UNL     1       2.644   7.048   1.148  1.00  0.00     0.094 A 
ATOM     76  C   UNL     1       3.041   8.449  -1.245  1.00  0.00     0.008 A 
ATOM     77  C   UNL     1       3.005   8.401   1.164  1.00  0.00     0.270 A 
ATOM     78  C   UNL     1       3.191   9.109  -0.028  1.00  0.00     0.085 A 
BRANCH  77  79
ATOM     79  N   UNL     1       3.141   9.095   2.445  1.00  0.00     0.062 N 
ATOM     80  O   UNL     1       2.918  10.315   2.458  1.00  0.00    -0.258 OA
ATOM     81  O   UNL     1       3.448   8.419   3.436  1.00  0.00    -0.258 OA
ENDBRANCH  77  79
ENDBRANCH  69  73
ENDBRANCH  63  65
ENDBRANCH  62  63
ENDBRANCH  61  62
ENDBRANCH   1  61
TORSDOF 13
