REMARK SMILES O=C(OCCOC(=O)c1ccc(-c2c3nc(c(-c4c(F)cccc4F)c4ccc([nH]4)c(-c4c(F)cccc4F)c4nc(c(-c5c(F)cccc5F)c5ccc2[nH]5)C=C4)C=C3)cc1)C1=Cc2cc(Cl)cc(-c3ccc(Cl)cc3)c2O[C@@H]1C(F)(F)F
REMARK SMILES IDX 5 1 4 2 3 3 2 4 1 5 63 6 64 7 80 8 65 9 79 10 66 11 78 12
REMARK SMILES IDX 67 13 70 14 68 15 69 16 81 17 82 18 83 19 84 20 71 21 72 22
REMARK SMILES IDX 77 23 73 24 76 25 74 26 75 27 6 28 7 29 8 30 9 31 10 32
REMARK SMILES IDX 62 33 11 34 61 35 12 36 13 37 14 38 55 39 15 40 60 41 54 42
REMARK SMILES IDX 56 43 16 44 59 45 53 46 52 47 17 49 43 50 26 51 42 52 27 53
REMARK SMILES IDX 30 54 41 55 57 56 28 57 29 58 40 60 58 61 31 62 18 63 19 64
REMARK SMILES IDX 24 65 20 66 21 67 23 68 25 69 22 70 44 71 45 72 50 73 46 74
REMARK SMILES IDX 47 75 49 76 51 77 48 78 32 79 33 80 38 81 34 82 35 83 37 84
REMARK SMILES IDX 39 85 36 86
REMARK H PARENT 56 48 30 59
REMARK Flexibility Score: inf
ROOT
ATOM      1  C   UNL     1       4.715  -0.512  -0.770  1.00  0.00     0.275 C 
ENDROOT
BRANCH   1   2
ATOM      2  C   UNL     1       3.999   1.144   0.431  1.00  0.00     0.275 C 
BRANCH   2   3
ATOM      3  O   UNL     1       3.206   2.391  -0.099  1.00  0.00    -0.459 OA
BRANCH   3   4
ATOM      4  C   UNL     1       3.376   2.620  -1.406  1.00  0.00     0.338 C 
ATOM      5  O   UNL     1       2.864   3.419  -2.146  1.00  0.00    -0.246 OA
BRANCH   4   6
ATOM      6  C   UNL     1       4.120   1.414  -1.641  1.00  0.00     0.087 C 
ATOM      7  C   UNL     1       5.510   1.575  -1.178  1.00  0.00     0.027 C 
ATOM      8  C   UNL     1       2.834   0.178  -0.893  1.00  0.00     0.316 C 
ATOM      9  C   UNL     1       6.175   0.720   0.267  1.00  0.00     0.019 A 
ATOM     10  O   UNL     1       3.519  -0.714   0.677  1.00  0.00    -0.475 OA
ATOM     11  C   UNL     1       7.422   1.109   0.677  1.00  0.00     0.032 A 
ATOM     12  C   UNL     1       5.200  -0.331   1.272  1.00  0.00     0.135 A 
ATOM     13  C   UNL     1       7.811   0.603   1.914  1.00  0.00     0.042 A 
ATOM     14  C   UNL     1       5.656  -0.731   2.510  1.00  0.00     0.026 A 
ATOM     15  Cl  UNL     1       9.359   1.091   2.519  1.00  0.00    -0.084 Cl
ATOM     16  C   UNL     1       6.994  -0.246   2.753  1.00  0.00     0.033 A 
BRANCH   8  17
ATOM     17  C   UNL     1       2.201  -0.324  -2.240  1.00  0.00     0.430 C 
ATOM     18  F   UNL     1       0.978  -0.843  -2.061  1.00  0.00    -0.167 F 
ATOM     19  F   UNL     1       1.989   0.766  -3.041  1.00  0.00    -0.167 F 
ATOM     20  F   UNL     1       2.961  -1.114  -3.017  1.00  0.00    -0.167 F 
ENDBRANCH   8  17
BRANCH  14  21
ATOM     21  C   UNL     1       5.022  -1.423   3.628  1.00  0.00    -0.015 A 
ATOM     22  C   UNL     1       4.898  -0.733   4.859  1.00  0.00     0.010 A 
ATOM     23  C   UNL     1       4.821  -2.806   3.628  1.00  0.00     0.010 A 
ATOM     24  C   UNL     1       4.640  -1.407   6.054  1.00  0.00     0.021 A 
ATOM     25  C   UNL     1       4.556  -3.485   4.828  1.00  0.00     0.021 A 
ATOM     26  C   UNL     1       4.482  -2.786   6.034  1.00  0.00     0.041 A 
ATOM     27  Cl  UNL     1       4.239  -3.634   7.511  1.00  0.00    -0.084 Cl
ENDBRANCH  14  21
ENDBRANCH   4   6
ENDBRANCH   3   4
ENDBRANCH   2   3
ENDBRANCH   1   2
BRANCH   1  28
ATOM     28  O   UNL     1       3.874  -1.944  -1.138  1.00  0.00    -0.458 OA
BRANCH  28  29
ATOM     29  C   UNL     1       3.050  -2.916  -0.641  1.00  0.00     0.338 C 
ATOM     30  O   UNL     1       2.645  -3.088   0.491  1.00  0.00    -0.246 OA
BRANCH  29  31
ATOM     31  C   UNL     1       2.427  -3.546  -1.851  1.00  0.00     0.060 A 
ATOM     32  C   UNL     1       1.061  -3.322  -2.096  1.00  0.00     0.016 A 
ATOM     33  C   UNL     1       3.250  -3.983  -2.889  1.00  0.00     0.016 A 
ATOM     34  C   UNL     1       0.590  -3.271  -3.421  1.00  0.00     0.010 A 
ATOM     35  C   UNL     1       2.764  -3.985  -4.199  1.00  0.00     0.010 A 
ATOM     36  C   UNL     1       1.458  -3.548  -4.487  1.00  0.00    -0.014 A 
BRANCH  36  37
ATOM     37  C   UNL     1       0.986  -3.613  -5.896  1.00  0.00     0.031 A 
ATOM     38  C   UNL     1       0.434  -4.930  -6.343  1.00  0.00     0.074 A 
ATOM     39  C   UNL     1       1.161  -2.615  -6.788  1.00  0.00     0.049 A 
ATOM     40  N   UNL     1       0.139  -5.352  -7.542  1.00  0.00    -0.248 NA
ATOM     41  C   UNL     1       0.234  -5.925  -5.277  1.00  0.00     0.031 C 
ATOM     42  C   UNL     1       1.688  -1.282  -6.497  1.00  0.00     0.029 A 
ATOM     43  N   UNL     1       0.941  -2.590  -8.149  1.00  0.00    -0.354 N 
ATOM     44  C   UNL     1      -0.259  -6.670  -7.375  1.00  0.00     0.074 A 
ATOM     45  C   UNL     1      -0.126  -6.987  -5.972  1.00  0.00     0.031 C 
ATOM     46  C   UNL     1       1.779  -0.583  -7.646  1.00  0.00     0.029 A 
ATOM     47  C   UNL     1       1.341  -1.422  -8.762  1.00  0.00     0.049 A 
ATOM     48  H   UNL     1       0.534  -3.340  -8.640  1.00  0.00     0.167 HD
ATOM     49  C   UNL     1      -0.700  -7.547  -8.304  1.00  0.00     0.037 A 
ATOM     50  C   UNL     1       1.369  -1.087 -10.071  1.00  0.00     0.037 A 
ATOM     51  C   UNL     1      -0.803  -7.250  -9.701  1.00  0.00     0.049 A 
ATOM     52  C   UNL     1       0.905  -2.095 -11.103  1.00  0.00     0.074 A 
ATOM     53  C   UNL     1      -1.248  -8.064 -10.725  1.00  0.00     0.029 A 
ATOM     54  N   UNL     1      -0.436  -6.040 -10.271  1.00  0.00    -0.354 N 
ATOM     55  N   UNL     1       0.462  -3.317 -10.928  1.00  0.00    -0.248 NA
ATOM     56  C   UNL     1       0.949  -1.678 -12.516  1.00  0.00     0.031 C 
ATOM     57  C   UNL     1      -1.113  -7.358 -11.924  1.00  0.00     0.029 A 
ATOM     58  C   UNL     1      -0.630  -6.090 -11.639  1.00  0.00     0.049 A 
ATOM     59  H   UNL     1      -0.090  -5.263  -9.776  1.00  0.00     0.167 HD
ATOM     60  C   UNL     1       0.138  -3.796 -12.194  1.00  0.00     0.074 A 
ATOM     61  C   UNL     1       0.435  -2.735 -13.132  1.00  0.00     0.031 C 
ATOM     62  C   UNL     1      -0.361  -5.005 -12.549  1.00  0.00     0.037 A 
BRANCH  49  63
ATOM     63  C   UNL     1      -1.053  -8.912  -7.799  1.00  0.00     0.057 A 
ATOM     64  C   UNL     1      -2.162  -9.120  -6.966  1.00  0.00     0.134 A 
ATOM     65  C   UNL     1      -0.218 -10.004  -8.056  1.00  0.00     0.134 A 
ATOM     66  F   UNL     1      -2.978  -8.101  -6.654  1.00  0.00    -0.206 F 
ATOM     67  C   UNL     1      -2.393 -10.353  -6.358  1.00  0.00     0.040 A 
ATOM     68  C   UNL     1      -0.458 -11.251  -7.480  1.00  0.00     0.040 A 
ATOM     69  F   UNL     1       0.863  -9.868  -8.839  1.00  0.00    -0.206 F 
ATOM     70  C   UNL     1      -1.538 -11.423  -6.614  1.00  0.00     0.006 A 
ENDBRANCH  49  63
BRANCH  50  71
ATOM     71  C   UNL     1       1.853   0.251 -10.518  1.00  0.00     0.057 A 
ATOM     72  C   UNL     1       0.976   1.185 -11.088  1.00  0.00     0.134 A 
ATOM     73  C   UNL     1       3.208   0.602 -10.465  1.00  0.00     0.134 A 
ATOM     74  F   UNL     1      -0.329   0.898 -11.206  1.00  0.00    -0.206 F 
ATOM     75  C   UNL     1       1.428   2.402 -11.607  1.00  0.00     0.040 A 
ATOM     76  C   UNL     1       3.671   1.825 -10.960  1.00  0.00     0.040 A 
ATOM     77  F   UNL     1       4.107  -0.246  -9.946  1.00  0.00    -0.206 F 
ATOM     78  C   UNL     1       2.781   2.726 -11.542  1.00  0.00     0.006 A 
ENDBRANCH  50  71
BRANCH  62  79
ATOM     79  C   UNL     1      -0.679  -5.245 -13.996  1.00  0.00     0.057 A 
ATOM     80  C   UNL     1       0.320  -5.488 -14.945  1.00  0.00     0.134 A 
ATOM     81  C   UNL     1      -2.012  -5.358 -14.414  1.00  0.00     0.134 A 
ATOM     82  F   UNL     1       1.615  -5.388 -14.611  1.00  0.00    -0.206 F 
ATOM     83  C   UNL     1       0.004  -5.839 -16.259  1.00  0.00     0.040 A 
ATOM     84  C   UNL     1      -2.340  -5.731 -15.717  1.00  0.00     0.040 A 
ATOM     85  F   UNL     1      -3.017  -5.148 -13.549  1.00  0.00    -0.206 F 
ATOM     86  C   UNL     1      -1.329  -5.975 -16.644  1.00  0.00     0.006 A 
ENDBRANCH  62  79
ENDBRANCH  36  37
ENDBRANCH  29  31
ENDBRANCH  28  29
ENDBRANCH   1  28
TORSDOF 13
