REMARK SMILES CC(C)[C@H](NC(=O)CC[NH3+])C(=O)OCCOC(=O)c1ccc(-c2c3nc(c(-c4c(F)cccc4F)c4ccc([nH]4)c(-c4c(F)cccc4F)c4nc(c(-c5c(F)cccc5F)c5ccc2[nH]5)C=C4)C=C3)cc1
REMARK SMILES IDX 14 1 13 2 11 3 12 4 4 5 2 6 1 7 3 8 5 9 6 10 7 12 8 13 9 14
REMARK SMILES IDX 10 15 15 19 16 20 17 21 18 22 19 23 20 24 72 25 21 26 71 27
REMARK SMILES IDX 22 28 23 29 24 30 65 31 25 32 70 33 64 34 66 35 26 36 69 37
REMARK SMILES IDX 63 38 62 39 27 41 53 42 36 43 52 44 37 45 40 46 51 47 67 48
REMARK SMILES IDX 38 49 39 50 50 52 68 53 41 54 28 55 29 56 34 57 30 58 31 59
REMARK SMILES IDX 33 60 35 61 32 62 54 63 55 64 60 65 56 66 57 67 59 68 61 69
REMARK SMILES IDX 58 70 42 71 43 72 48 73 44 74 45 75 47 76 49 77 46 78
REMARK H PARENT 5 11 10 16 10 17 10 18 66 40 40 51
REMARK Flexibility Score: inf
ROOT
ATOM      1  C   UNL     1      -2.331  -0.925   4.891  1.00  0.00     0.274 C 
ENDROOT
BRANCH   1   2
ATOM      2  O   UNL     1      -1.490  -0.898   3.709  1.00  0.00    -0.461 OA
BRANCH   2   3
ATOM      3  C   UNL     1      -2.098  -0.760   2.507  1.00  0.00     0.329 C 
ATOM      4  O   UNL     1      -3.316  -0.671   2.372  1.00  0.00    -0.250 OA
BRANCH   3   5
ATOM      5  C   UNL     1      -1.146  -0.835   1.278  1.00  0.00     0.194 C 
BRANCH   5   6
ATOM      6  C   UNL     1      -1.545  -2.059   0.402  1.00  0.00     0.017 C 
ATOM      7  C   UNL     1      -0.726  -2.162  -0.891  1.00  0.00     0.010 C 
ATOM      8  C   UNL     1      -1.489  -3.380   1.168  1.00  0.00     0.010 C 
ENDBRANCH   5   6
BRANCH   5   9
ATOM      9  N   UNL     1       0.309  -0.576   1.218  1.00  0.00    -0.342 N 
ATOM     10  C   UNL     1       1.412  -0.971   1.899  1.00  0.00     0.226 C 
ATOM     11  H   UNL     1       0.536   0.048   0.491  1.00  0.00     0.164 HD
ATOM     12  O   UNL     1       2.483  -1.017   1.289  1.00  0.00    -0.275 OA
BRANCH  10  13
ATOM     13  C   UNL     1       1.367  -1.191   3.381  1.00  0.00     0.161 C 
BRANCH  13  14
ATOM     14  C   UNL     1       1.424   0.143   4.137  1.00  0.00     0.268 C 
BRANCH  14  15
ATOM     15  N   UNL     1       0.616   1.218   3.566  1.00  0.00    -0.357 N 
ATOM     16  H   UNL     1       0.962   1.445   2.633  1.00  0.00     0.344 HD
ATOM     17  H   UNL     1       0.679   2.044   4.162  1.00  0.00     0.344 HD
ATOM     18  H   UNL     1      -0.356   0.917   3.505  1.00  0.00     0.344 HD
ENDBRANCH  14  15
ENDBRANCH  13  14
ENDBRANCH  10  13
ENDBRANCH   5   9
ENDBRANCH   3   5
ENDBRANCH   2   3
ENDBRANCH   1   2
BRANCH   1  19
ATOM     19  C   UNL     1      -2.128   0.356   5.696  1.00  0.00     0.275 C 
BRANCH  19  20
ATOM     20  O   UNL     1      -2.425   1.455   4.825  1.00  0.00    -0.458 OA
BRANCH  20  21
ATOM     21  C   UNL     1      -1.768   2.611   5.062  1.00  0.00     0.338 C 
ATOM     22  O   UNL     1      -1.046   2.867   6.011  1.00  0.00    -0.246 OA
BRANCH  21  23
ATOM     23  C   UNL     1      -2.047   3.530   3.940  1.00  0.00     0.060 A 
ATOM     24  C   UNL     1      -2.255   3.047   2.639  1.00  0.00     0.016 A 
ATOM     25  C   UNL     1      -2.124   4.895   4.203  1.00  0.00     0.016 A 
ATOM     26  C   UNL     1      -2.612   3.917   1.614  1.00  0.00     0.010 A 
ATOM     27  C   UNL     1      -2.543   5.756   3.193  1.00  0.00     0.010 A 
ATOM     28  C   UNL     1      -2.830   5.265   1.906  1.00  0.00    -0.014 A 
BRANCH  28  29
ATOM     29  C   UNL     1      -3.475   6.176   0.933  1.00  0.00     0.031 A 
ATOM     30  C   UNL     1      -2.752   7.403   0.478  1.00  0.00     0.074 A 
ATOM     31  C   UNL     1      -4.767   5.970   0.613  1.00  0.00     0.049 A 
ATOM     32  N   UNL     1      -3.231   8.488  -0.070  1.00  0.00    -0.248 NA
ATOM     33  C   UNL     1      -1.298   7.420   0.699  1.00  0.00     0.031 C 
ATOM     34  C   UNL     1      -5.562   4.797   0.991  1.00  0.00     0.029 A 
ATOM     35  N   UNL     1      -5.658   6.771  -0.056  1.00  0.00    -0.354 N 
ATOM     36  C   UNL     1      -2.145   9.338  -0.223  1.00  0.00     0.074 A 
ATOM     37  C   UNL     1      -0.986   8.647   0.303  1.00  0.00     0.031 C 
ATOM     38  C   UNL     1      -6.824   4.966   0.572  1.00  0.00     0.029 A 
ATOM     39  C   UNL     1      -6.945   6.286  -0.031  1.00  0.00     0.049 A 
ATOM     40  H   UNL     1      -5.402   7.607  -0.508  1.00  0.00     0.167 HD
ATOM     41  C   UNL     1      -2.130  10.585  -0.750  1.00  0.00     0.037 A 
ATOM     42  C   UNL     1      -8.103   6.868  -0.392  1.00  0.00     0.037 A 
ATOM     43  C   UNL     1      -3.301  11.246  -1.267  1.00  0.00     0.049 A 
ATOM     44  C   UNL     1      -8.070   8.276  -0.913  1.00  0.00     0.074 A 
ATOM     45  C   UNL     1      -3.398  12.493  -1.859  1.00  0.00     0.029 A 
ATOM     46  N   UNL     1      -4.583  10.713  -1.245  1.00  0.00    -0.354 N 
ATOM     47  N   UNL     1      -7.041   9.073  -1.073  1.00  0.00    -0.248 NA
ATOM     48  C   UNL     1      -9.358   8.870  -1.292  1.00  0.00     0.031 C 
ATOM     49  C   UNL     1      -4.746  12.736  -2.144  1.00  0.00     0.029 A 
ATOM     50  C   UNL     1      -5.482  11.618  -1.784  1.00  0.00     0.049 A 
ATOM     51  H   UNL     1      -4.818   9.822  -0.897  1.00  0.00     0.167 HD
ATOM     52  C   UNL     1      -7.552  10.254  -1.592  1.00  0.00     0.074 A 
ATOM     53  C   UNL     1      -8.981  10.060  -1.738  1.00  0.00     0.031 C 
ATOM     54  C   UNL     1      -6.902  11.399  -1.916  1.00  0.00     0.037 A 
BRANCH  41  55
ATOM     55  C   UNL     1      -0.821  11.320  -0.762  1.00  0.00     0.057 A 
ATOM     56  C   UNL     1       0.246  10.929  -1.581  1.00  0.00     0.134 A 
ATOM     57  C   UNL     1      -0.632  12.453   0.042  1.00  0.00     0.134 A 
ATOM     58  F   UNL     1       0.139   9.847  -2.367  1.00  0.00    -0.206 F 
ATOM     59  C   UNL     1       1.460  11.619  -1.580  1.00  0.00     0.040 A 
ATOM     60  C   UNL     1       0.566  13.169   0.030  1.00  0.00     0.040 A 
ATOM     61  F   UNL     1      -1.612  12.887   0.849  1.00  0.00    -0.206 F 
ATOM     62  C   UNL     1       1.620  12.747  -0.778  1.00  0.00     0.006 A 
ENDBRANCH  41  55
BRANCH  42  63
ATOM     63  C   UNL     1      -9.386   6.133  -0.243  1.00  0.00     0.057 A 
ATOM     64  C   UNL     1     -10.108   5.718  -1.367  1.00  0.00     0.134 A 
ATOM     65  C   UNL     1      -9.919   5.822   1.015  1.00  0.00     0.134 A 
ATOM     66  F   UNL     1      -9.659   6.002  -2.598  1.00  0.00    -0.206 F 
ATOM     67  C   UNL     1     -11.319   5.035  -1.248  1.00  0.00     0.040 A 
ATOM     68  C   UNL     1     -11.115   5.114   1.149  1.00  0.00     0.040 A 
ATOM     69  F   UNL     1      -9.274   6.184   2.134  1.00  0.00    -0.206 F 
ATOM     70  C   UNL     1     -11.823   4.725   0.013  1.00  0.00     0.006 A 
ENDBRANCH  42  63
BRANCH  54  71
ATOM     71  C   UNL     1      -7.730  12.512  -2.486  1.00  0.00     0.057 A 
ATOM     72  C   UNL     1      -8.621  13.250  -1.696  1.00  0.00     0.134 A 
ATOM     73  C   UNL     1      -7.609  12.872  -3.834  1.00  0.00     0.134 A 
ATOM     74  F   UNL     1      -8.797  12.944  -0.402  1.00  0.00    -0.206 F 
ATOM     75  C   UNL     1      -9.379  14.291  -2.234  1.00  0.00     0.040 A 
ATOM     76  C   UNL     1      -8.338  13.931  -4.375  1.00  0.00     0.040 A 
ATOM     77  F   UNL     1      -6.768  12.210  -4.643  1.00  0.00    -0.206 F 
ATOM     78  C   UNL     1      -9.232  14.639  -3.575  1.00  0.00     0.006 A 
ENDBRANCH  54  71
ENDBRANCH  28  29
ENDBRANCH  21  23
ENDBRANCH  20  21
ENDBRANCH  19  20
ENDBRANCH   1  19
TORSDOF 16
