REMARK SMILES O=C(OCCOC(=O)[C@H]1CCCN(c2cc(-c3ccccn3)nc(-c3ccccc3F)n2)C1)c1ccc(-c2c3nc(c(-c4c(F)cccc4F)c4ccc([nH]4)c(-c4c(F)cccc4F)c4nc(c(-c5c(F)cccc5F)c5ccc2[nH]5)C=C4)C=C3)cc1
REMARK SMILES IDX 4 1 3 2 2 3 1 4 34 5 35 6 87 7 36 8 86 9 37 10 38 11 39 12
REMARK SMILES IDX 80 13 40 14 85 15 79 16 81 17 41 18 84 19 78 20 77 21 42 23
REMARK SMILES IDX 68 24 51 25 67 26 52 27 55 28 66 29 82 30 53 31 54 32 65 34
REMARK SMILES IDX 83 35 56 36 43 37 44 38 49 39 45 40 46 41 48 42 50 43 47 44
REMARK SMILES IDX 69 45 70 46 75 47 71 48 72 49 74 50 76 51 73 52 57 53 58 54
REMARK SMILES IDX 63 55 59 56 60 57 62 58 64 59 61 60 5 61 6 62 7 63 8 64 9 65
REMARK SMILES IDX 10 66 33 67 11 68 13 69 12 70 14 71 15 72 32 73 16 74 24 75
REMARK SMILES IDX 23 76 17 77 18 78 22 79 19 80 21 81 20 82 25 83 26 84 30 85
REMARK SMILES IDX 27 86 29 87 31 88 28 89
REMARK H PARENT 81 22 55 33
REMARK Flexibility Score: inf
ROOT
ATOM      1  C   UNL     1       5.404   2.493  -5.641  1.00  0.00     0.275 C 
ENDROOT
BRANCH   1   2
ATOM      2  O   UNL     1       6.047   1.652  -4.671  1.00  0.00    -0.458 OA
BRANCH   2   3
ATOM      3  C   UNL     1       6.124   1.767  -3.326  1.00  0.00     0.338 C 
ATOM      4  O   UNL     1       6.799   0.932  -2.721  1.00  0.00    -0.246 OA
BRANCH   3   5
ATOM      5  C   UNL     1       5.354   2.760  -2.496  1.00  0.00     0.060 A 
ATOM      6  C   UNL     1       4.691   3.916  -2.936  1.00  0.00     0.016 A 
ATOM      7  C   UNL     1       5.195   2.405  -1.143  1.00  0.00     0.016 A 
ATOM      8  C   UNL     1       3.796   4.621  -2.107  1.00  0.00     0.010 A 
ATOM      9  C   UNL     1       4.281   3.078  -0.328  1.00  0.00     0.010 A 
ATOM     10  C   UNL     1       3.550   4.183  -0.810  1.00  0.00    -0.014 A 
BRANCH  10  11
ATOM     11  C   UNL     1       2.688   4.916   0.154  1.00  0.00     0.031 A 
ATOM     12  C   UNL     1       3.392   5.508   1.335  1.00  0.00     0.074 A 
ATOM     13  C   UNL     1       1.341   4.954   0.087  1.00  0.00     0.049 A 
ATOM     14  N   UNL     1       2.903   5.967   2.451  1.00  0.00    -0.248 NA
ATOM     15  C   UNL     1       4.864   5.554   1.245  1.00  0.00     0.031 C 
ATOM     16  C   UNL     1       0.516   4.498  -1.027  1.00  0.00     0.029 A 
ATOM     17  N   UNL     1       0.415   5.326   1.038  1.00  0.00    -0.354 N 
ATOM     18  C   UNL     1       4.007   6.385   3.174  1.00  0.00     0.074 A 
ATOM     19  C   UNL     1       5.187   5.967   2.456  1.00  0.00     0.031 C 
ATOM     20  C   UNL     1      -0.776   4.480  -0.649  1.00  0.00     0.029 A 
ATOM     21  C   UNL     1      -0.875   4.949   0.727  1.00  0.00     0.049 A 
ATOM     22  H   UNL     1       0.651   5.813   1.861  1.00  0.00     0.167 HD
ATOM     23  C   UNL     1       4.038   7.148   4.287  1.00  0.00     0.037 A 
ATOM     24  C   UNL     1      -1.998   4.961   1.475  1.00  0.00     0.037 A 
ATOM     25  C   UNL     1       2.863   7.566   4.985  1.00  0.00     0.049 A 
ATOM     26  C   UNL     1      -1.952   5.628   2.824  1.00  0.00     0.074 A 
ATOM     27  C   UNL     1       2.762   8.387   6.089  1.00  0.00     0.029 A 
ATOM     28  N   UNL     1       1.577   7.172   4.645  1.00  0.00    -0.354 N 
ATOM     29  N   UNL     1      -0.915   6.131   3.451  1.00  0.00    -0.248 NA
ATOM     30  C   UNL     1      -3.225   5.800   3.539  1.00  0.00     0.031 C 
ATOM     31  C   UNL     1       1.413   8.447   6.452  1.00  0.00     0.029 A 
ATOM     32  C   UNL     1       0.672   7.708   5.539  1.00  0.00     0.049 A 
ATOM     33  H   UNL     1       1.345   6.596   3.881  1.00  0.00     0.167 HD
ATOM     34  C   UNL     1      -1.419   6.759   4.581  1.00  0.00     0.074 A 
ATOM     35  C   UNL     1      -2.849   6.527   4.586  1.00  0.00     0.031 C 
ATOM     36  C   UNL     1      -0.755   7.499   5.502  1.00  0.00     0.037 A 
BRANCH  23  37
ATOM     37  C   UNL     1       5.394   7.587   4.742  1.00  0.00     0.057 A 
ATOM     38  C   UNL     1       5.965   7.069   5.907  1.00  0.00     0.134 A 
ATOM     39  C   UNL     1       6.174   8.457   3.963  1.00  0.00     0.134 A 
ATOM     40  F   UNL     1       5.274   6.228   6.691  1.00  0.00    -0.206 F 
ATOM     41  C   UNL     1       7.277   7.379   6.268  1.00  0.00     0.040 A 
ATOM     42  C   UNL     1       7.496   8.746   4.296  1.00  0.00     0.040 A 
ATOM     43  F   UNL     1       5.691   8.964   2.818  1.00  0.00    -0.206 F 
ATOM     44  C   UNL     1       8.051   8.205   5.453  1.00  0.00     0.006 A 
ENDBRANCH  23  37
BRANCH  24  45
ATOM     45  C   UNL     1      -3.264   4.380   0.952  1.00  0.00     0.057 A 
ATOM     46  C   UNL     1      -3.486   2.996   0.946  1.00  0.00     0.134 A 
ATOM     47  C   UNL     1      -4.286   5.193   0.450  1.00  0.00     0.134 A 
ATOM     48  F   UNL     1      -2.545   2.158   1.404  1.00  0.00    -0.206 F 
ATOM     49  C   UNL     1      -4.679   2.443   0.466  1.00  0.00     0.040 A 
ATOM     50  C   UNL     1      -5.485   4.656  -0.029  1.00  0.00     0.040 A 
ATOM     51  F   UNL     1      -4.142   6.526   0.443  1.00  0.00    -0.206 F 
ATOM     52  C   UNL     1      -5.684   3.276  -0.022  1.00  0.00     0.006 A 
ENDBRANCH  24  45
BRANCH  36  53
ATOM     53  C   UNL     1      -1.547   8.202   6.561  1.00  0.00     0.057 A 
ATOM     54  C   UNL     1      -1.640   9.601   6.540  1.00  0.00     0.134 A 
ATOM     55  C   UNL     1      -2.038   7.531   7.683  1.00  0.00     0.134 A 
ATOM     56  F   UNL     1      -1.174  10.299   5.493  1.00  0.00    -0.206 F 
ATOM     57  C   UNL     1      -2.144  10.312   7.628  1.00  0.00     0.040 A 
ATOM     58  C   UNL     1      -2.570   8.231   8.766  1.00  0.00     0.040 A 
ATOM     59  F   UNL     1      -1.987   6.192   7.752  1.00  0.00    -0.206 F 
ATOM     60  C   UNL     1      -2.603   9.626   8.749  1.00  0.00     0.006 A 
ENDBRANCH  36  53
ENDBRANCH  10  11
ENDBRANCH   3   5
ENDBRANCH   2   3
ENDBRANCH   1   2
BRANCH   1  61
ATOM     61  C   UNL     1       3.922   2.170  -5.857  1.00  0.00     0.274 C 
BRANCH  61  62
ATOM     62  O   UNL     1       3.268   1.778  -4.638  1.00  0.00    -0.462 OA
BRANCH  62  63
ATOM     63  C   UNL     1       2.574   0.601  -4.631  1.00  0.00     0.310 C 
ATOM     64  O   UNL     1       2.429  -0.116  -5.619  1.00  0.00    -0.252 OA
BRANCH  63  65
ATOM     65  C   UNL     1       1.995   0.262  -3.258  1.00  0.00     0.118 C 
ATOM     66  C   UNL     1       2.183   1.407  -2.274  1.00  0.00     0.019 C 
ATOM     67  C   UNL     1       0.520  -0.101  -3.389  1.00  0.00     0.133 C 
ATOM     68  C   UNL     1       1.478   1.203  -0.949  1.00  0.00     0.022 C 
ATOM     69  N   UNL     1      -0.206  -0.033  -2.120  1.00  0.00    -0.356 N 
ATOM     70  C   UNL     1      -0.001   1.101  -1.234  1.00  0.00     0.118 C 
BRANCH  69  71
ATOM     71  C   UNL     1      -0.578  -1.180  -1.441  1.00  0.00     0.133 A 
ATOM     72  C   UNL     1      -1.846  -1.183  -0.916  1.00  0.00     0.077 A 
ATOM     73  N   UNL     1       0.263  -2.200  -1.262  1.00  0.00    -0.211 NA
ATOM     74  C   UNL     1      -2.276  -2.304  -0.249  1.00  0.00     0.095 A 
ATOM     75  C   UNL     1      -0.207  -3.235  -0.533  1.00  0.00     0.165 A 
ATOM     76  N   UNL     1      -1.453  -3.345  -0.021  1.00  0.00    -0.226 NA
BRANCH  74  77
ATOM     77  C   UNL     1      -3.698  -2.371   0.120  1.00  0.00     0.089 A 
ATOM     78  C   UNL     1      -4.672  -2.037  -0.833  1.00  0.00     0.030 A 
ATOM     79  N   UNL     1      -4.016  -2.591   1.418  1.00  0.00    -0.255 NA
ATOM     80  C   UNL     1      -5.998  -1.898  -0.447  1.00  0.00     0.004 A 
ATOM     81  C   UNL     1      -5.319  -2.475   1.761  1.00  0.00     0.112 A 
ATOM     82  C   UNL     1      -6.331  -2.121   0.879  1.00  0.00     0.020 A 
ENDBRANCH  74  77
BRANCH  75  83
ATOM     83  C   UNL     1       0.719  -4.335  -0.304  1.00  0.00     0.055 A 
ATOM     84  C   UNL     1       1.786  -4.232   0.608  1.00  0.00     0.015 A 
ATOM     85  C   UNL     1       0.587  -5.525  -1.025  1.00  0.00     0.134 A 
ATOM     86  C   UNL     1       2.680  -5.295   0.789  1.00  0.00     0.001 A 
ATOM     87  C   UNL     1       1.477  -6.584  -0.855  1.00  0.00     0.040 A 
ATOM     88  F   UNL     1      -0.397  -5.661  -1.928  1.00  0.00    -0.206 F 
ATOM     89  C   UNL     1       2.525  -6.471   0.056  1.00  0.00     0.003 A 
ENDBRANCH  75  83
ENDBRANCH  69  71
ENDBRANCH  63  65
ENDBRANCH  62  63
ENDBRANCH  61  62
ENDBRANCH   1  61
TORSDOF 14
