REMARK SMILES O=C1C[C@@H](c2cccc(O)c2)c2c(c(C(=O)OCCOC(=O)c3ccc(-c4c5nc(c(-c6c(F)cccc6F)c6ccc([nH]6)c(-c6c(F)cccc6F)c6nc(c(-c7c(F)cccc7F)c7ccc4[nH]7)C=C6)C=C5)cc3)cn2-c2cccc(C(F)(F)F)c2)N1
REMARK SMILES IDX 18 1 17 2 15 3 16 4 14 5 1 6 2 7 3 8 89 9 4 10 13 11 12 13
REMARK SMILES IDX 78 14 77 15 5 16 6 17 11 18 7 19 9 20 8 21 10 22 79 24 80 25
REMARK SMILES IDX 88 26 81 27 83 28 82 29 84 30 85 31 86 32 87 33 19 34 20 35
REMARK SMILES IDX 21 36 22 37 23 38 24 39 76 40 25 41 75 42 26 43 27 44 28 45
REMARK SMILES IDX 69 46 29 47 74 48 68 49 70 50 30 51 73 52 67 53 66 54 31 56
REMARK SMILES IDX 57 57 40 58 56 59 41 60 44 61 55 62 71 63 42 64 43 65 54 67
REMARK SMILES IDX 72 68 45 69 32 70 33 71 38 72 34 73 35 74 37 75 39 76 36 77
REMARK SMILES IDX 58 78 59 79 64 80 60 81 61 82 63 83 65 84 62 85 46 86 47 87
REMARK SMILES IDX 52 88 48 89 49 90 51 91 53 92 50 93
REMARK H PARENT 89 12 10 23 70 55 44 66
REMARK Flexibility Score: inf
ROOT
ATOM      1  C   UNL     1       5.967  -5.299   2.284  1.00  0.00     0.275 C 
ENDROOT
BRANCH   1   2
ATOM      2  O   UNL     1       6.049  -3.868   2.361  1.00  0.00    -0.458 OA
BRANCH   2   3
ATOM      3  C   UNL     1       5.415  -3.181   1.365  1.00  0.00     0.341 C 
ATOM      4  O   UNL     1       4.943  -3.697   0.355  1.00  0.00    -0.246 OA
BRANCH   3   5
ATOM      5  C   UNL     1       5.265  -1.767   1.661  1.00  0.00     0.102 A 
ATOM      6  O   UNL     1       1.731  -0.269  -1.186  1.00  0.00    -0.275 OA
ATOM      7  C   UNL     1       2.680  -0.043  -0.436  1.00  0.00     0.225 C 
ATOM      8  C   UNL     1       3.220   1.364  -0.214  1.00  0.00     0.115 C 
ATOM      9  N   UNL     1       3.394  -1.071   0.125  1.00  0.00    -0.324 N 
ATOM     10  C   UNL     1       3.796   1.614   1.195  1.00  0.00     0.078 C 
ATOM     11  C   UNL     1       4.348  -0.859   1.091  1.00  0.00     0.078 A 
ATOM     12  H   UNL     1       3.217  -1.992  -0.175  1.00  0.00     0.170 HD
ATOM     13  C   UNL     1       4.509   0.379   1.672  1.00  0.00     0.055 A 
ATOM     14  N   UNL     1       5.506   0.267   2.627  1.00  0.00    -0.317 N 
ATOM     15  C   UNL     1       5.987  -1.030   2.584  1.00  0.00     0.109 A 
BRANCH  10  16
ATOM     16  C   UNL     1       2.710   2.136   2.119  1.00  0.00    -0.035 A 
ATOM     17  C   UNL     1       1.675   1.325   2.606  1.00  0.00     0.005 A 
ATOM     18  C   UNL     1       2.746   3.486   2.510  1.00  0.00     0.050 A 
ATOM     19  C   UNL     1       0.724   1.844   3.489  1.00  0.00     0.004 A 
ATOM     20  C   UNL     1       1.814   3.983   3.413  1.00  0.00     0.115 A 
ATOM     21  C   UNL     1       0.799   3.173   3.905  1.00  0.00     0.046 A 
BRANCH  20  22
ATOM     22  O   UNL     1       1.958   5.275   3.820  1.00  0.00    -0.508 OA
ATOM     23  H   UNL     1       1.349   5.646   4.428  1.00  0.00     0.293 HD
ENDBRANCH  20  22
ENDBRANCH  10  16
BRANCH  14  24
ATOM     24  C   UNL     1       6.018   1.254   3.505  1.00  0.00     0.046 A 
ATOM     25  C   UNL     1       7.403   1.407   3.623  1.00  0.00     0.026 A 
ATOM     26  C   UNL     1       5.158   2.016   4.301  1.00  0.00     0.039 A 
ATOM     27  C   UNL     1       7.922   2.375   4.482  1.00  0.00     0.003 A 
ATOM     28  C   UNL     1       5.673   2.984   5.178  1.00  0.00     0.058 A 
ATOM     29  C   UNL     1       7.063   3.166   5.245  1.00  0.00     0.013 A 
BRANCH  28  30
ATOM     30  C   UNL     1       4.766   3.816   6.053  1.00  0.00     0.416 C 
ATOM     31  F   UNL     1       5.133   3.769   7.366  1.00  0.00    -0.166 F 
ATOM     32  F   UNL     1       4.781   5.135   5.716  1.00  0.00    -0.166 F 
ATOM     33  F   UNL     1       3.459   3.435   6.030  1.00  0.00    -0.166 F 
ENDBRANCH  28  30
ENDBRANCH  14  24
ENDBRANCH   3   5
ENDBRANCH   2   3
ENDBRANCH   1   2
BRANCH   1  34
ATOM     34  C   UNL     1       4.696  -5.831   2.937  1.00  0.00     0.275 C 
BRANCH  34  35
ATOM     35  O   UNL     1       3.527  -5.556   2.161  1.00  0.00    -0.458 OA
BRANCH  35  36
ATOM     36  C   UNL     1       2.845  -4.449   2.531  1.00  0.00     0.338 C 
ATOM     37  O   UNL     1       3.257  -3.517   3.200  1.00  0.00    -0.246 OA
BRANCH  36  38
ATOM     38  C   UNL     1       1.431  -4.608   2.182  1.00  0.00     0.060 A 
ATOM     39  C   UNL     1       0.606  -3.482   2.263  1.00  0.00     0.016 A 
ATOM     40  C   UNL     1       0.903  -5.897   2.022  1.00  0.00     0.016 A 
ATOM     41  C   UNL     1      -0.762  -3.665   2.304  1.00  0.00     0.010 A 
ATOM     42  C   UNL     1      -0.460  -6.079   2.076  1.00  0.00     0.010 A 
ATOM     43  C   UNL     1      -1.278  -4.967   2.272  1.00  0.00    -0.014 A 
BRANCH  43  44
ATOM     44  C   UNL     1      -2.720  -5.136   2.263  1.00  0.00     0.031 A 
ATOM     45  C   UNL     1      -3.342  -4.647   1.006  1.00  0.00     0.074 A 
ATOM     46  C   UNL     1      -3.382  -5.805   3.229  1.00  0.00     0.049 A 
ATOM     47  N   UNL     1      -4.230  -3.720   0.873  1.00  0.00    -0.248 NA
ATOM     48  C   UNL     1      -2.794  -5.140  -0.273  1.00  0.00     0.031 C 
ATOM     49  C   UNL     1      -2.810  -6.552   4.353  1.00  0.00     0.029 A 
ATOM     50  N   UNL     1      -4.716  -6.051   3.354  1.00  0.00    -0.354 N 
ATOM     51  C   UNL     1      -4.507  -3.660  -0.490  1.00  0.00     0.074 A 
ATOM     52  C   UNL     1      -3.479  -4.413  -1.155  1.00  0.00     0.031 C 
ATOM     53  C   UNL     1      -3.762  -7.348   4.892  1.00  0.00     0.029 A 
ATOM     54  C   UNL     1      -5.031  -7.080   4.236  1.00  0.00     0.049 A 
ATOM     55  H   UNL     1      -5.400  -5.543   2.861  1.00  0.00     0.167 HD
ATOM     56  C   UNL     1      -5.721  -3.237  -0.929  1.00  0.00     0.037 A 
ATOM     57  C   UNL     1      -6.230  -7.707   4.358  1.00  0.00     0.037 A 
ATOM     58  C   UNL     1      -6.376  -2.428   0.067  1.00  0.00     0.049 A 
ATOM     59  C   UNL     1      -7.255  -6.843   3.722  1.00  0.00     0.074 A 
ATOM     60  C   UNL     1      -6.058  -1.258   0.729  1.00  0.00     0.029 A 
ATOM     61  N   UNL     1      -7.385  -3.007   0.794  1.00  0.00    -0.354 N 
ATOM     62  N   UNL     1      -7.649  -5.702   4.209  1.00  0.00    -0.248 NA
ATOM     63  C   UNL     1      -7.513  -7.040   2.304  1.00  0.00     0.031 C 
ATOM     64  C   UNL     1      -6.548  -1.438   2.056  1.00  0.00     0.029 A 
ATOM     65  C   UNL     1      -7.199  -2.671   2.109  1.00  0.00     0.049 A 
ATOM     66  H   UNL     1      -8.112  -3.565   0.436  1.00  0.00     0.167 HD
ATOM     67  C   UNL     1      -7.769  -4.876   3.102  1.00  0.00     0.074 A 
ATOM     68  C   UNL     1      -7.765  -5.777   1.952  1.00  0.00     0.031 C 
ATOM     69  C   UNL     1      -7.564  -3.530   3.209  1.00  0.00     0.037 A 
BRANCH  56  70
ATOM     70  C   UNL     1      -6.477  -3.925  -2.043  1.00  0.00     0.057 A 
ATOM     71  C   UNL     1      -7.705  -3.385  -2.463  1.00  0.00     0.134 A 
ATOM     72  C   UNL     1      -6.221  -5.240  -2.489  1.00  0.00     0.134 A 
ATOM     73  F   UNL     1      -8.074  -2.148  -2.096  1.00  0.00    -0.206 F 
ATOM     74  C   UNL     1      -8.644  -4.129  -3.188  1.00  0.00     0.040 A 
ATOM     75  C   UNL     1      -7.130  -5.973  -3.256  1.00  0.00     0.040 A 
ATOM     76  F   UNL     1      -5.135  -5.931  -2.127  1.00  0.00    -0.206 F 
ATOM     77  C   UNL     1      -8.362  -5.432  -3.577  1.00  0.00     0.006 A 
ENDBRANCH  56  70
BRANCH  57  78
ATOM     78  C   UNL     1      -6.520  -9.123   4.695  1.00  0.00     0.057 A 
ATOM     79  C   UNL     1      -7.819  -9.536   5.035  1.00  0.00     0.134 A 
ATOM     80  C   UNL     1      -5.606 -10.151   4.411  1.00  0.00     0.134 A 
ATOM     81  F   UNL     1      -8.778  -8.633   5.286  1.00  0.00    -0.206 F 
ATOM     82  C   UNL     1      -8.193 -10.887   5.058  1.00  0.00     0.040 A 
ATOM     83  C   UNL     1      -5.963 -11.504   4.437  1.00  0.00     0.040 A 
ATOM     84  F   UNL     1      -4.358  -9.877   4.005  1.00  0.00    -0.206 F 
ATOM     85  C   UNL     1      -7.266 -11.876   4.745  1.00  0.00     0.006 A 
ENDBRANCH  57  78
BRANCH  69  86
ATOM     86  C   UNL     1      -7.498  -2.938   4.590  1.00  0.00     0.057 A 
ATOM     87  C   UNL     1      -6.540  -3.275   5.559  1.00  0.00     0.134 A 
ATOM     88  C   UNL     1      -8.374  -1.893   4.904  1.00  0.00     0.134 A 
ATOM     89  F   UNL     1      -5.594  -4.192   5.315  1.00  0.00    -0.206 F 
ATOM     90  C   UNL     1      -6.495  -2.636   6.802  1.00  0.00     0.040 A 
ATOM     91  C   UNL     1      -8.314  -1.222   6.126  1.00  0.00     0.040 A 
ATOM     92  F   UNL     1      -9.282  -1.479   4.007  1.00  0.00    -0.206 F 
ATOM     93  C   UNL     1      -7.381  -1.602   7.087  1.00  0.00     0.006 A 
ENDBRANCH  69  86
ENDBRANCH  43  44
ENDBRANCH  36  38
ENDBRANCH  35  36
ENDBRANCH  34  35
ENDBRANCH   1  34
TORSDOF 15
