REMARK SMILES Cc1ccc(S(=O)(=O)n2cc(C(=O)C(=O)N[C@H](Cc3c[nH]c4ccccc34)C(=O)NCC(=O)OCCOC(=O)c3ccc(-c4c5nc(c(-c6c(F)cccc6F)c6ccc([nH]6)c(-c6c(F)cccc6F)c6nc(c(-c7c(F)cccc7F)c7ccc4[nH]7)C=C6)C=C5)cc3)c3ccccc32)cc1
REMARK SMILES IDX 32 1 33 2 31 3 30 4 28 5 29 6 17 8 16 9 14 10 15 11 12 13
REMARK SMILES IDX 13 14 11 15 9 16 10 17 99 18 94 19 98 20 95 21 97 22 96 23
REMARK SMILES IDX 6 24 7 25 8 26 5 27 1 28 2 29 3 30 101 31 4 32 100 33 18 34
REMARK SMILES IDX 19 35 20 36 27 37 21 38 22 39 26 40 23 42 25 43 24 44 34 45
REMARK SMILES IDX 35 46 36 47 37 48 38 49 39 50 40 51 41 52 93 53 42 54 92 55
REMARK SMILES IDX 43 56 44 57 45 58 86 59 46 60 91 61 85 62 87 63 47 64 90 65
REMARK SMILES IDX 84 66 83 67 48 69 74 70 57 71 73 72 58 73 61 74 72 75 88 76
REMARK SMILES IDX 59 77 60 78 71 80 89 81 62 82 49 83 50 84 55 85 51 86 52 87
REMARK SMILES IDX 54 88 56 89 53 90 75 91 76 92 81 93 77 94 78 95 80 96 82 97
REMARK SMILES IDX 79 98 63 99 64 100 69 101 65 102 66 103 68 104 70 105 67 106
REMARK H PARENT 30 7 16 12 21 41 87 68 61 79
REMARK Flexibility Score: inf
ROOT
ATOM      1  C   UNL     1     -11.117   3.805  -4.508  1.00  0.00     0.325 C 
ATOM      2  O   UNL     1     -11.822   3.853  -5.505  1.00  0.00    -0.250 OA
ENDROOT
BRANCH   1   3
ATOM      3  C   UNL     1     -11.416   2.924  -3.214  1.00  0.00     0.238 C 
BRANCH   3   4
ATOM      4  N   UNL     1     -11.753   1.598  -2.715  1.00  0.00    -0.343 N 
ATOM      5  C   UNL     1     -11.892   1.202  -1.393  1.00  0.00     0.243 C 
ATOM      6  O   UNL     1     -12.674   0.259  -1.198  1.00  0.00    -0.273 OA
ATOM      7  H   UNL     1     -11.899   0.901  -3.395  1.00  0.00     0.164 HD
BRANCH   5   8
ATOM      8  C   UNL     1     -11.130   1.806  -0.108  1.00  0.00     0.176 C 
BRANCH   8   9
ATOM      9  N   UNL     1     -11.928   2.361   1.271  1.00  0.00    -0.337 N 
ATOM     10  C   UNL     1     -12.678   3.435   1.940  1.00  0.00     0.293 C 
ATOM     11  O   UNL     1     -12.714   3.280   3.169  1.00  0.00    -0.265 OA
ATOM     12  H   UNL     1     -11.861   1.632   1.930  1.00  0.00     0.164 HD
BRANCH  10  13
ATOM     13  C   UNL     1     -13.591   4.794   1.281  1.00  0.00     0.252 C 
ATOM     14  O   UNL     1     -14.808   4.659   1.165  1.00  0.00    -0.283 OA
BRANCH  13  15
ATOM     15  C   UNL     1     -12.914   6.344   0.921  1.00  0.00     0.054 A 
ATOM     16  N   UNL     1     -11.107   7.357   3.163  1.00  0.00    -0.240 N 
ATOM     17  C   UNL     1     -12.542   6.300   2.696  1.00  0.00     0.117 A 
ATOM     18  C   UNL     1     -10.061   7.574   1.492  1.00  0.00     0.065 A 
ATOM     19  C   UNL     1     -11.239   7.233   0.022  1.00  0.00     0.012 A 
ATOM     20  C   UNL     1      -8.786   8.105   1.049  1.00  0.00     0.028 A 
ATOM     21  C   UNL     1     -10.972   8.166  -1.069  1.00  0.00     0.011 A 
ATOM     22  C   UNL     1      -8.679   8.700  -0.253  1.00  0.00     0.002 A 
ATOM     23  C   UNL     1      -9.713   8.784  -1.216  1.00  0.00     0.001 A 
BRANCH  16  24
ATOM     24  S   UNL     1     -12.961   8.158   4.175  1.00  0.00     0.268 S 
ATOM     25  O   UNL     1     -12.787   7.396   5.415  1.00  0.00    -0.201 OA
ATOM     26  O   UNL     1     -14.057   7.731   3.317  1.00  0.00    -0.201 OA
BRANCH  24  27
ATOM     27  C   UNL     1     -14.148   9.756   4.896  1.00  0.00     0.088 A 
ATOM     28  C   UNL     1     -15.620  13.370   6.775  1.00  0.00     0.044 C 
ATOM     29  C   UNL     1     -15.552  12.020   6.129  1.00  0.00    -0.051 A 
ATOM     30  C   UNL     1     -15.379  11.999   4.788  1.00  0.00     0.005 A 
ATOM     31  C   UNL     1     -15.421  10.773   6.760  1.00  0.00     0.005 A 
ATOM     32  C   UNL     1     -14.763  10.864   4.226  1.00  0.00     0.022 A 
ATOM     33  C   UNL     1     -14.754   9.639   6.141  1.00  0.00     0.022 A 
ENDBRANCH  24  27
ENDBRANCH  16  24
ENDBRANCH  13  15
ENDBRANCH  10  13
ENDBRANCH   8   9
BRANCH   8  34
ATOM     34  C   UNL     1      -9.607   2.231  -0.252  1.00  0.00     0.072 C 
BRANCH  34  35
ATOM     35  C   UNL     1      -8.860   2.119  -1.544  1.00  0.00    -0.020 A 
ATOM     36  C   UNL     1      -8.252   3.154  -2.243  1.00  0.00     0.087 A 
ATOM     37  C   UNL     1      -8.565   0.934  -2.263  1.00  0.00     0.003 A 
ATOM     38  N   UNL     1      -7.842   2.672  -3.456  1.00  0.00    -0.361 N 
ATOM     39  C   UNL     1      -7.996   1.310  -3.480  1.00  0.00     0.046 A 
ATOM     40  C   UNL     1      -8.771  -0.426  -1.991  1.00  0.00     0.010 A 
ATOM     41  H   UNL     1      -7.491   3.219  -4.196  1.00  0.00     0.166 HD
ATOM     42  C   UNL     1      -7.673   0.388  -4.475  1.00  0.00     0.026 A 
ATOM     43  C   UNL     1      -8.410  -1.365  -2.954  1.00  0.00     0.001 A 
ATOM     44  C   UNL     1      -7.885  -0.962  -4.181  1.00  0.00     0.002 A 
ENDBRANCH  34  35
ENDBRANCH   8  34
ENDBRANCH   5   8
ENDBRANCH   3   4
ENDBRANCH   1   3
BRANCH   1  45
ATOM     45  O   UNL     1     -10.161   4.753  -4.229  1.00  0.00    -0.461 OA
BRANCH  45  46
ATOM     46  C   UNL     1     -10.138   6.133  -4.750  1.00  0.00     0.274 C 
BRANCH  46  47
ATOM     47  C   UNL     1     -11.466   6.916  -5.048  1.00  0.00     0.275 C 
BRANCH  47  48
ATOM     48  O   UNL     1     -12.441   7.224  -4.017  1.00  0.00    -0.458 OA
BRANCH  48  49
ATOM     49  C   UNL     1     -13.286   6.274  -3.565  1.00  0.00     0.338 C 
ATOM     50  O   UNL     1     -14.457   6.136  -3.869  1.00  0.00    -0.246 OA
BRANCH  49  51
ATOM     51  C   UNL     1     -12.653   5.637  -2.406  1.00  0.00     0.060 A 
ATOM     52  C   UNL     1     -13.311   4.772  -1.626  1.00  0.00     0.016 A 
ATOM     53  C   UNL     1     -11.273   5.760  -2.139  1.00  0.00     0.016 A 
ATOM     54  C   UNL     1     -12.498   4.265  -0.616  1.00  0.00     0.010 A 
ATOM     55  C   UNL     1     -10.509   5.246  -1.058  1.00  0.00     0.010 A 
ATOM     56  C   UNL     1     -11.270   4.862  -0.000  1.00  0.00    -0.014 A 
BRANCH  56  57
ATOM     57  C   UNL     1     -11.117   6.064   1.462  1.00  0.00     0.031 A 
ATOM     58  C   UNL     1      -9.852   5.318   2.386  1.00  0.00     0.074 A 
ATOM     59  C   UNL     1     -11.895   7.886   1.573  1.00  0.00     0.049 A 
ATOM     60  N   UNL     1      -9.134   5.927   3.272  1.00  0.00    -0.248 NA
ATOM     61  C   UNL     1      -9.366   3.953   2.274  1.00  0.00     0.031 C 
ATOM     62  C   UNL     1     -10.904   9.421   1.787  1.00  0.00     0.029 A 
ATOM     63  N   UNL     1     -12.844   8.747   0.866  1.00  0.00    -0.354 N 
ATOM     64  C   UNL     1      -7.957   5.241   3.485  1.00  0.00     0.074 A 
ATOM     65  C   UNL     1      -8.180   3.961   2.897  1.00  0.00     0.031 C 
ATOM     66  C   UNL     1     -11.256  10.455   1.043  1.00  0.00     0.029 A 
ATOM     67  C   UNL     1     -12.602  10.149   0.981  1.00  0.00     0.049 A 
ATOM     68  H   UNL     1     -13.598   8.383   0.347  1.00  0.00     0.167 HD
ATOM     69  C   UNL     1      -6.928   5.915   4.068  1.00  0.00     0.037 A 
ATOM     70  C   UNL     1     -13.250  10.774   1.983  1.00  0.00     0.037 A 
ATOM     71  C   UNL     1      -7.373   7.262   4.427  1.00  0.00     0.049 A 
ATOM     72  C   UNL     1     -12.211  10.920   3.532  1.00  0.00     0.074 A 
ATOM     73  C   UNL     1      -7.053   8.510   3.939  1.00  0.00     0.029 A 
ATOM     74  N   UNL     1      -8.488   7.425   5.243  1.00  0.00    -0.354 N 
ATOM     75  N   UNL     1     -11.245  10.071   3.950  1.00  0.00    -0.248 NA
ATOM     76  C   UNL     1     -12.306  11.870   4.700  1.00  0.00     0.031 C 
ATOM     77  C   UNL     1      -8.070   9.402   4.356  1.00  0.00     0.029 A 
ATOM     78  C   UNL     1      -8.962   8.723   5.170  1.00  0.00     0.049 A 
ATOM     79  H   UNL     1      -8.886   6.714   5.796  1.00  0.00     0.167 HD
ATOM     80  C   UNL     1     -10.892  10.137   5.304  1.00  0.00     0.074 A 
ATOM     81  C   UNL     1     -11.695  11.240   5.743  1.00  0.00     0.031 C 
ATOM     82  C   UNL     1     -10.102   9.189   5.956  1.00  0.00     0.037 A 
BRANCH  69  83
ATOM     83  C   UNL     1      -5.472   5.516   4.198  1.00  0.00     0.057 A 
ATOM     84  C   UNL     1      -4.596   6.370   4.911  1.00  0.00     0.134 A 
ATOM     85  C   UNL     1      -4.840   4.407   3.610  1.00  0.00     0.134 A 
ATOM     86  F   UNL     1      -5.043   7.463   5.546  1.00  0.00    -0.206 F 
ATOM     87  C   UNL     1      -3.218   6.160   5.011  1.00  0.00     0.040 A 
ATOM     88  C   UNL     1      -3.458   4.162   3.739  1.00  0.00     0.040 A 
ATOM     89  F   UNL     1      -5.506   3.523   2.859  1.00  0.00    -0.206 F 
ATOM     90  C   UNL     1      -2.641   5.044   4.434  1.00  0.00     0.006 A 
ENDBRANCH  69  83
BRANCH  70  91
ATOM     91  C   UNL     1     -14.825  10.271   1.409  1.00  0.00     0.057 A 
ATOM     92  C   UNL     1     -15.008  10.687   0.064  1.00  0.00     0.134 A 
ATOM     93  C   UNL     1     -15.494   9.027   1.631  1.00  0.00     0.134 A 
ATOM     94  F   UNL     1     -14.590  11.911  -0.290  1.00  0.00    -0.206 F 
ATOM     95  C   UNL     1     -15.349   9.793  -0.987  1.00  0.00     0.040 A 
ATOM     96  C   UNL     1     -15.814   8.100   0.596  1.00  0.00     0.040 A 
ATOM     97  F   UNL     1     -16.047   8.752   2.824  1.00  0.00    -0.206 F 
ATOM     98  C   UNL     1     -15.653   8.460  -0.731  1.00  0.00     0.006 A 
ENDBRANCH  70  91
BRANCH  82  99
ATOM     99  C   UNL     1     -10.178   8.736   7.444  1.00  0.00     0.057 A 
ATOM    100  C   UNL     1     -11.374   8.719   8.174  1.00  0.00     0.134 A 
ATOM    101  C   UNL     1      -9.092   8.143   8.152  1.00  0.00     0.134 A 
ATOM    102  F   UNL     1     -12.522   9.086   7.602  1.00  0.00    -0.206 F 
ATOM    103  C   UNL     1     -11.460   8.304   9.521  1.00  0.00     0.040 A 
ATOM    104  C   UNL     1      -9.169   7.691   9.483  1.00  0.00     0.040 A 
ATOM    105  F   UNL     1      -7.891   7.951   7.588  1.00  0.00    -0.206 F 
ATOM    106  C   UNL     1     -10.347   7.819  10.193  1.00  0.00     0.006 A 
ENDBRANCH  82  99
ENDBRANCH  56  57
ENDBRANCH  49  51
ENDBRANCH  48  49
ENDBRANCH  47  48
ENDBRANCH  46  47
ENDBRANCH  45  46
ENDBRANCH   1  45
TORSDOF 20
