REMARK SMILES O=C(OCCOC(=O)[C@@]1([NH2+]C2CC2)CCC[C@@H]([NH+]2CCS(=O)(=O)CC2)C1)c1ccc(-c2c3nc(c(-c4c(F)cccc4F)c4ccc([nH]4)c(-c4c(F)cccc4F)c4nc(c(-c5c(F)cccc5F)c5ccc2[nH]5)C=C4)C=C3)cc1
REMARK SMILES IDX 4 1 3 2 2 3 1 4 27 5 28 6 80 7 29 8 79 9 30 10 31 11 32 12
REMARK SMILES IDX 73 13 33 14 78 15 72 16 74 17 34 18 77 19 71 20 70 21 35 23
REMARK SMILES IDX 61 24 44 25 60 26 45 27 48 28 59 29 75 30 46 31 47 32 58 34
REMARK SMILES IDX 76 35 49 36 36 37 37 38 42 39 38 40 39 41 41 42 43 43 40 44
REMARK SMILES IDX 62 45 63 46 68 47 64 48 65 49 67 50 69 51 66 52 50 53 51 54
REMARK SMILES IDX 56 55 52 56 53 57 55 58 57 59 54 60 5 61 6 62 7 63 8 64 9 65
REMARK SMILES IDX 14 66 26 67 15 68 17 69 16 70 10 71 11 74 12 75 13 76 18 77
REMARK SMILES IDX 19 78 25 79 20 81 24 82 21 83 22 84 23 85
REMARK H PARENT 74 22 48 33 10 72 10 73 18 80
REMARK Flexibility Score: inf
ROOT
ATOM      1  C   UNL     1       4.600  -0.184  -1.849  1.00  0.00     0.275 C 
ENDROOT
BRANCH   1   2
ATOM      2  O   UNL     1       4.302  -1.357  -1.067  1.00  0.00    -0.458 OA
BRANCH   2   3
ATOM      3  C   UNL     1       4.037  -1.385   0.257  1.00  0.00     0.338 C 
ATOM      4  O   UNL     1       3.227  -2.187   0.711  1.00  0.00    -0.246 OA
BRANCH   3   5
ATOM      5  C   UNL     1       4.729  -0.451   1.189  1.00  0.00     0.060 A 
ATOM      6  C   UNL     1       5.966   0.156   0.958  1.00  0.00     0.016 A 
ATOM      7  C   UNL     1       4.078  -0.188   2.396  1.00  0.00     0.016 A 
ATOM      8  C   UNL     1       6.476   1.108   1.855  1.00  0.00     0.010 A 
ATOM      9  C   UNL     1       4.558   0.792   3.262  1.00  0.00     0.010 A 
ATOM     10  C   UNL     1       5.763   1.457   3.007  1.00  0.00    -0.014 A 
BRANCH  10  11
ATOM     11  C   UNL     1       6.290   2.428   4.003  1.00  0.00     0.031 A 
ATOM     12  C   UNL     1       6.530   1.965   5.417  1.00  0.00     0.074 A 
ATOM     13  C   UNL     1       6.487   3.726   3.690  1.00  0.00     0.049 A 
ATOM     14  N   UNL     1       7.028   2.627   6.430  1.00  0.00    -0.248 NA
ATOM     15  C   UNL     1       6.119   0.590   5.752  1.00  0.00     0.031 C 
ATOM     16  C   UNL     1       6.206   4.352   2.397  1.00  0.00     0.029 A 
ATOM     17  N   UNL     1       6.950   4.767   4.459  1.00  0.00    -0.354 N 
ATOM     18  C   UNL     1       7.026   1.729   7.487  1.00  0.00     0.074 A 
ATOM     19  C   UNL     1       6.292   0.564   7.061  1.00  0.00     0.031 C 
ATOM     20  C   UNL     1       6.473   5.669   2.474  1.00  0.00     0.029 A 
ATOM     21  C   UNL     1       6.970   5.978   3.809  1.00  0.00     0.049 A 
ATOM     22  H   UNL     1       7.241   4.655   5.393  1.00  0.00     0.167 HD
ATOM     23  C   UNL     1       7.695   1.795   8.661  1.00  0.00     0.037 A 
ATOM     24  C   UNL     1       7.375   7.191   4.234  1.00  0.00     0.037 A 
ATOM     25  C   UNL     1       8.464   2.931   9.069  1.00  0.00     0.049 A 
ATOM     26  C   UNL     1       8.050   7.297   5.576  1.00  0.00     0.074 A 
ATOM     27  C   UNL     1       9.276   3.084  10.175  1.00  0.00     0.029 A 
ATOM     28  N   UNL     1       8.502   4.126   8.366  1.00  0.00    -0.354 N 
ATOM     29  N   UNL     1       8.238   6.367   6.481  1.00  0.00    -0.248 NA
ATOM     30  C   UNL     1       8.639   8.598   5.923  1.00  0.00     0.031 C 
ATOM     31  C   UNL     1       9.791   4.387  10.152  1.00  0.00     0.029 A 
ATOM     32  C   UNL     1       9.317   5.030   9.018  1.00  0.00     0.049 A 
ATOM     33  H   UNL     1       8.020   4.303   7.527  1.00  0.00     0.167 HD
ATOM     34  C   UNL     1       9.046   6.941   7.455  1.00  0.00     0.074 A 
ATOM     35  C   UNL     1       9.277   8.312   7.050  1.00  0.00     0.031 C 
ATOM     36  C   UNL     1       9.577   6.372   8.566  1.00  0.00     0.037 A 
BRANCH  23  37
ATOM     37  C   UNL     1       7.684   0.546   9.492  1.00  0.00     0.057 A 
ATOM     38  C   UNL     1       8.322  -0.622   9.038  1.00  0.00     0.134 A 
ATOM     39  C   UNL     1       6.964   0.466  10.686  1.00  0.00     0.134 A 
ATOM     40  F   UNL     1       9.011  -0.615   7.886  1.00  0.00    -0.206 F 
ATOM     41  C   UNL     1       8.184  -1.838   9.704  1.00  0.00     0.040 A 
ATOM     42  C   UNL     1       6.846  -0.741  11.380  1.00  0.00     0.040 A 
ATOM     43  F   UNL     1       6.333   1.543  11.177  1.00  0.00    -0.206 F 
ATOM     44  C   UNL     1       7.440  -1.900  10.879  1.00  0.00     0.006 A 
ENDBRANCH  23  37
BRANCH  24  45
ATOM     45  C   UNL     1       7.262   8.383   3.353  1.00  0.00     0.057 A 
ATOM     46  C   UNL     1       8.386   8.925   2.717  1.00  0.00     0.134 A 
ATOM     47  C   UNL     1       6.039   9.035   3.160  1.00  0.00     0.134 A 
ATOM     48  F   UNL     1       9.589   8.352   2.873  1.00  0.00    -0.206 F 
ATOM     49  C   UNL     1       8.306  10.090   1.951  1.00  0.00     0.040 A 
ATOM     50  C   UNL     1       5.941  10.194   2.385  1.00  0.00     0.040 A 
ATOM     51  F   UNL     1       4.922   8.559   3.729  1.00  0.00    -0.206 F 
ATOM     52  C   UNL     1       7.079  10.730   1.786  1.00  0.00     0.006 A 
ENDBRANCH  24  45
BRANCH  36  53
ATOM     53  C   UNL     1      10.546   7.188   9.363  1.00  0.00     0.057 A 
ATOM     54  C   UNL     1      10.136   8.239  10.189  1.00  0.00     0.134 A 
ATOM     55  C   UNL     1      11.911   6.867   9.344  1.00  0.00     0.134 A 
ATOM     56  F   UNL     1       8.846   8.602  10.237  1.00  0.00    -0.206 F 
ATOM     57  C   UNL     1      11.053   8.952  10.963  1.00  0.00     0.040 A 
ATOM     58  C   UNL     1      12.832   7.555  10.132  1.00  0.00     0.040 A 
ATOM     59  F   UNL     1      12.364   5.865   8.575  1.00  0.00    -0.206 F 
ATOM     60  C   UNL     1      12.403   8.603  10.942  1.00  0.00     0.006 A 
ENDBRANCH  36  53
ENDBRANCH  10  11
ENDBRANCH   3   5
ENDBRANCH   2   3
ENDBRANCH   1   2
BRANCH   1  61
ATOM     61  C   UNL     1       3.502   0.878  -1.889  1.00  0.00     0.274 C 
BRANCH  61  62
ATOM     62  O   UNL     1       3.143   1.417  -0.600  1.00  0.00    -0.457 OA
BRANCH  62  63
ATOM     63  C   UNL     1       1.793   1.598  -0.407  1.00  0.00     0.368 C 
ATOM     64  O   UNL     1       0.941   1.129  -1.156  1.00  0.00    -0.245 OA
BRANCH  63  65
ATOM     65  C   UNL     1       1.488   2.659   0.708  1.00  0.00     0.200 C 
ATOM     66  C   UNL     1       2.439   2.656   1.903  1.00  0.00     0.081 C 
ATOM     67  C   UNL     1       1.677   4.004  -0.037  1.00  0.00     0.146 C 
ATOM     68  C   UNL     1       2.261   3.844   2.842  1.00  0.00     0.013 C 
ATOM     69  C   UNL     1       1.714   5.298   0.800  1.00  0.00     0.191 C 
ATOM     70  C   UNL     1       2.524   5.144   2.103  1.00  0.00     0.065 C 
BRANCH  65  71
ATOM     71  N   UNL     1       0.082   2.560   1.163  1.00  0.00    -0.329 N 
ATOM     72  H   UNL     1      -0.496   2.906   0.397  1.00  0.00     0.347 HD
ATOM     73  H   UNL     1       0.090   3.087   2.036  1.00  0.00     0.347 HD
BRANCH  71  74
ATOM     74  C   UNL     1      -0.492   1.270   1.569  1.00  0.00     0.183 C 
ATOM     75  C   UNL     1       0.254   0.010   1.895  1.00  0.00     0.071 C 
ATOM     76  C   UNL     1      -0.329   0.829   3.005  1.00  0.00     0.071 C 
ENDBRANCH  71  74
ENDBRANCH  65  71
BRANCH  69  77
ATOM     77  N   UNL     1       2.107   6.512   0.035  1.00  0.00    -0.331 N 
ATOM     78  C   UNL     1       1.479   6.706  -1.276  1.00  0.00     0.278 C 
ATOM     79  C   UNL     1       3.510   6.935   0.019  1.00  0.00     0.278 C 
ATOM     80  H   UNL     1       1.668   7.167   0.681  1.00  0.00     0.348 HD
ATOM     81  C   UNL     1       2.093   5.967  -2.459  1.00  0.00     0.198 C 
ATOM     82  C   UNL     1       4.403   6.052  -0.819  1.00  0.00     0.198 C 
ATOM     83  S   UNL     1       3.866   6.063  -2.510  1.00  0.00     0.161 S 
ATOM     84  O   UNL     1       4.353   4.833  -3.115  1.00  0.00    -0.228 OA
ATOM     85  O   UNL     1       4.229   7.349  -3.075  1.00  0.00    -0.228 OA
ENDBRANCH  69  77
ENDBRANCH  63  65
ENDBRANCH  62  63
ENDBRANCH  61  62
ENDBRANCH   1  61
TORSDOF 14
