REMARK SMILES NC(=O)c1c(-c2ccc(Cl)cc2)csc1NC(=O)[C@H]1[C@@H](C(=O)OCCOC(=O)c2ccc(-c3c4nc(c(-c5c(F)cccc5F)c5ccc([nH]5)c(-c5c(F)cccc5F)c5nc(c(-c6c(F)cccc6F)c6ccc3[nH]6)C=C5)C=C4)cc2)[C@@H]2CC[C@H]1O2
REMARK SMILES IDX 24 1 23 2 21 3 22 4 20 5 19 6 86 7 83 8 85 9 87 10 84 11
REMARK SMILES IDX 17 12 16 13 18 15 15 16 4 17 5 18 13 19 14 20 2 21 1 22 3 25
REMARK SMILES IDX 6 26 7 27 12 28 8 29 11 30 9 31 10 32 25 33 26 34 27 35
REMARK SMILES IDX 28 36 29 37 30 38 82 39 31 40 81 41 32 42 33 43 34 44 75 45
REMARK SMILES IDX 35 46 80 47 74 48 76 49 36 50 79 51 73 52 72 53 37 55 63 56
REMARK SMILES IDX 46 57 62 58 47 59 50 60 61 61 77 62 48 63 49 64 60 66 78 67
REMARK SMILES IDX 51 68 38 69 39 70 44 71 40 72 41 73 43 74 45 75 42 76 64 77
REMARK SMILES IDX 65 78 70 79 66 80 67 81 69 82 71 83 68 84 52 85 53 86 58 87
REMARK SMILES IDX 54 88 55 89 57 90 59 91 56 92
REMARK H PARENT 16 14 1 23 1 24 76 54 50 65
REMARK Flexibility Score: inf
ROOT
ATOM      1  C   UNL     1       2.627  -6.056  -5.094  1.00  0.00     0.274 C 
ENDROOT
BRANCH   1   2
ATOM      2  O   UNL     1       1.806  -4.882  -4.968  1.00  0.00    -0.462 OA
BRANCH   2   3
ATOM      3  C   UNL     1       2.351  -3.867  -4.281  1.00  0.00     0.312 C 
ATOM      4  O   UNL     1       3.446  -3.948  -3.720  1.00  0.00    -0.252 OA
BRANCH   3   5
ATOM      5  C   UNL     1       1.543  -2.589  -4.163  1.00  0.00     0.143 C 
ATOM      6  C   UNL     1       0.189  -2.172  -4.804  1.00  0.00     0.124 C 
ATOM      7  C   UNL     1       0.627  -0.956  -5.644  1.00  0.00     0.132 C 
ATOM      8  C   UNL     1       2.491  -1.491  -4.686  1.00  0.00     0.133 C 
ATOM      9  C   UNL     1       0.904   0.265  -4.763  1.00  0.00     0.035 C 
ATOM     10  O   UNL     1       1.976  -1.300  -6.013  1.00  0.00    -0.373 OA
ATOM     11  C   UNL     1       2.193  -0.134  -4.056  1.00  0.00     0.036 C 
BRANCH   6  12
ATOM     12  C   UNL     1      -0.710  -3.081  -5.645  1.00  0.00     0.231 C 
ATOM     13  N   UNL     1      -2.007  -2.770  -5.990  1.00  0.00    -0.317 N 
ATOM     14  H   UNL     1      -2.431  -3.493  -6.508  1.00  0.00     0.170 HD
ATOM     15  O   UNL     1      -0.313  -4.169  -6.066  1.00  0.00    -0.274 OA
BRANCH  13  16
ATOM     16  C   UNL     1      -2.871  -1.696  -5.795  1.00  0.00     0.108 A 
ATOM     17  C   UNL     1      -4.191  -1.580  -6.256  1.00  0.00     0.082 A 
ATOM     18  C   UNL     1      -4.764  -0.299  -5.862  1.00  0.00     0.007 A 
ATOM     19  C   UNL     1      -3.850   0.484  -5.192  1.00  0.00     0.076 A 
ATOM     20  S   UNL     1      -2.406  -0.333  -4.916  1.00  0.00    -0.125 S 
BRANCH  17  21
ATOM     21  C   UNL     1      -4.840  -2.660  -7.005  1.00  0.00     0.252 C 
ATOM     22  N   UNL     1      -5.941  -2.338  -7.744  1.00  0.00    -0.365 N 
ATOM     23  H   UNL     1      -6.407  -3.034  -8.262  1.00  0.00     0.159 HD
ATOM     24  H   UNL     1      -6.269  -1.410  -7.760  1.00  0.00     0.159 HD
ATOM     25  O   UNL     1      -4.412  -3.810  -7.017  1.00  0.00    -0.269 OA
ENDBRANCH  17  21
BRANCH  18  26
ATOM     26  C   UNL     1      -6.127   0.208  -5.948  1.00  0.00    -0.017 A 
ATOM     27  C   UNL     1      -6.404   1.403  -6.629  1.00  0.00     0.010 A 
ATOM     28  C   UNL     1      -7.145  -0.430  -5.228  1.00  0.00     0.010 A 
ATOM     29  C   UNL     1      -7.681   1.966  -6.565  1.00  0.00     0.021 A 
ATOM     30  C   UNL     1      -8.421   0.135  -5.167  1.00  0.00     0.021 A 
ATOM     31  C   UNL     1      -8.681   1.335  -5.827  1.00  0.00     0.041 A 
ATOM     32  Cl  UNL     1     -10.239   2.053  -5.709  1.00  0.00    -0.084 Cl
ENDBRANCH  18  26
ENDBRANCH  13  16
ENDBRANCH   6  12
ENDBRANCH   3   5
ENDBRANCH   2   3
ENDBRANCH   1   2
BRANCH   1  33
ATOM     33  C   UNL     1       3.424  -6.112  -6.405  1.00  0.00     0.275 C 
BRANCH  33  34
ATOM     34  O   UNL     1       3.482  -4.848  -7.080  1.00  0.00    -0.458 OA
BRANCH  34  35
ATOM     35  C   UNL     1       2.603  -4.711  -8.104  1.00  0.00     0.338 C 
ATOM     36  O   UNL     1       1.873  -5.568  -8.571  1.00  0.00    -0.246 OA
BRANCH  35  37
ATOM     37  C   UNL     1       2.581  -3.302  -8.544  1.00  0.00     0.060 A 
ATOM     38  C   UNL     1       1.334  -2.693  -8.697  1.00  0.00     0.016 A 
ATOM     39  C   UNL     1       3.754  -2.582  -8.799  1.00  0.00     0.016 A 
ATOM     40  C   UNL     1       1.259  -1.342  -9.035  1.00  0.00     0.010 A 
ATOM     41  C   UNL     1       3.675  -1.235  -9.178  1.00  0.00     0.010 A 
ATOM     42  C   UNL     1       2.427  -0.598  -9.276  1.00  0.00    -0.014 A 
BRANCH  42  43
ATOM     43  C   UNL     1       2.304   0.820  -9.709  1.00  0.00     0.031 A 
ATOM     44  C   UNL     1       1.738   1.116 -11.068  1.00  0.00     0.074 A 
ATOM     45  C   UNL     1       2.614   1.841  -8.886  1.00  0.00     0.049 A 
ATOM     46  N   UNL     1       1.461   2.270 -11.618  1.00  0.00    -0.248 NA
ATOM     47  C   UNL     1       1.417  -0.048 -11.909  1.00  0.00     0.031 C 
ATOM     48  C   UNL     1       3.096   1.706  -7.514  1.00  0.00     0.029 A 
ATOM     49  N   UNL     1       2.546   3.201  -9.081  1.00  0.00    -0.354 N 
ATOM     50  C   UNL     1       0.910   1.971 -12.855  1.00  0.00     0.074 A 
ATOM     51  C   UNL     1       0.884   0.529 -12.974  1.00  0.00     0.031 C 
ATOM     52  C   UNL     1       3.261   2.930  -6.983  1.00  0.00     0.029 A 
ATOM     53  C   UNL     1       2.939   3.940  -7.989  1.00  0.00     0.049 A 
ATOM     54  H   UNL     1       2.243   3.608  -9.924  1.00  0.00     0.167 HD
ATOM     55  C   UNL     1       0.488   2.817 -13.823  1.00  0.00     0.037 A 
ATOM     56  C   UNL     1       3.045   5.276  -7.830  1.00  0.00     0.037 A 
ATOM     57  C   UNL     1       0.604   4.247 -13.766  1.00  0.00     0.049 A 
ATOM     58  C   UNL     1       2.706   6.189  -8.984  1.00  0.00     0.074 A 
ATOM     59  C   UNL     1       0.296   5.175 -14.745  1.00  0.00     0.029 A 
ATOM     60  N   UNL     1       1.101   4.955 -12.684  1.00  0.00    -0.354 N 
ATOM     61  N   UNL     1       2.184   5.896 -10.150  1.00  0.00    -0.248 NA
ATOM     62  C   UNL     1       2.992   7.622  -8.803  1.00  0.00     0.031 C 
ATOM     63  C   UNL     1       0.659   6.441 -14.275  1.00  0.00     0.029 A 
ATOM     64  C   UNL     1       1.135   6.307 -12.981  1.00  0.00     0.049 A 
ATOM     65  H   UNL     1       1.387   4.556 -11.830  1.00  0.00     0.167 HD
ATOM     66  C   UNL     1       2.061   7.104 -10.829  1.00  0.00     0.074 A 
ATOM     67  C   UNL     1       2.541   8.138  -9.938  1.00  0.00     0.031 C 
ATOM     68  C   UNL     1       1.598   7.333 -12.082  1.00  0.00     0.037 A 
BRANCH  55  69
ATOM     69  C   UNL     1      -0.052   2.186 -15.068  1.00  0.00     0.057 A 
ATOM     70  C   UNL     1      -1.323   1.600 -15.107  1.00  0.00     0.134 A 
ATOM     71  C   UNL     1       0.727   2.134 -16.230  1.00  0.00     0.134 A 
ATOM     72  F   UNL     1      -2.105   1.596 -14.016  1.00  0.00    -0.206 F 
ATOM     73  C   UNL     1      -1.792   0.962 -16.256  1.00  0.00     0.040 A 
ATOM     74  C   UNL     1       0.261   1.516 -17.390  1.00  0.00     0.040 A 
ATOM     75  F   UNL     1       1.956   2.671 -16.250  1.00  0.00    -0.206 F 
ATOM     76  C   UNL     1      -0.999   0.921 -17.402  1.00  0.00     0.006 A 
ENDBRANCH  55  69
BRANCH  56  77
ATOM     77  C   UNL     1       3.533   5.860  -6.551  1.00  0.00     0.057 A 
ATOM     78  C   UNL     1       2.716   6.690  -5.772  1.00  0.00     0.134 A 
ATOM     79  C   UNL     1       4.855   5.680  -6.124  1.00  0.00     0.134 A 
ATOM     80  F   UNL     1       1.450   6.931  -6.143  1.00  0.00    -0.206 F 
ATOM     81  C   UNL     1       3.202   7.341  -4.636  1.00  0.00     0.040 A 
ATOM     82  C   UNL     1       5.345   6.301  -4.973  1.00  0.00     0.040 A 
ATOM     83  F   UNL     1       5.696   4.908  -6.827  1.00  0.00    -0.206 F 
ATOM     84  C   UNL     1       4.521   7.145  -4.232  1.00  0.00     0.006 A 
ENDBRANCH  56  77
BRANCH  68  85
ATOM     85  C   UNL     1       1.549   8.755 -12.565  1.00  0.00     0.057 A 
ATOM     86  C   UNL     1       2.708   9.467 -12.898  1.00  0.00     0.134 A 
ATOM     87  C   UNL     1       0.318   9.394 -12.768  1.00  0.00     0.134 A 
ATOM     88  F   UNL     1       3.919   8.919 -12.717  1.00  0.00    -0.206 F 
ATOM     89  C   UNL     1       2.645  10.768 -13.403  1.00  0.00     0.040 A 
ATOM     90  C   UNL     1       0.242  10.683 -13.298  1.00  0.00     0.040 A 
ATOM     91  F   UNL     1      -0.832   8.766 -12.479  1.00  0.00    -0.206 F 
ATOM     92  C   UNL     1       1.409  11.375 -13.615  1.00  0.00     0.006 A 
ENDBRANCH  68  85
ENDBRANCH  42  43
ENDBRANCH  35  37
ENDBRANCH  34  35
ENDBRANCH  33  34
ENDBRANCH   1  33
TORSDOF 15
