REMARK SMILES Cc1ccc(-c2csc(NC(=O)[C@H]3[C@@H](C(=O)OCCOC(=O)c4ccc(-c5c6nc(c(-c7c(F)cccc7F)c7ccc([nH]7)c(-c7c(F)cccc7F)c7nc(c(-c8c(F)cccc8F)c8ccc5[nH]8)C=C7)C=C6)cc4)[C@H]4C=C[C@@H]3C4)c2C(=O)NC2CC2)cc1
REMARK SMILES IDX 18 1 17 2 15 3 16 4 14 5 13 6 80 7 77 8 79 9 81 10 78 11
REMARK SMILES IDX 11 12 10 13 12 15 9 16 6 17 7 18 82 19 8 20 5 21 1 22 2 23
REMARK SMILES IDX 3 24 90 25 4 26 89 27 83 28 84 29 85 30 86 32 87 33 88 34
REMARK SMILES IDX 19 35 20 36 21 37 22 38 23 39 24 40 76 41 25 42 75 43 26 44
REMARK SMILES IDX 27 45 28 46 69 47 29 48 74 49 68 50 70 51 30 52 73 53 67 54
REMARK SMILES IDX 66 55 31 57 57 58 40 59 56 60 41 61 44 62 55 63 71 64 42 65
REMARK SMILES IDX 43 66 54 68 72 69 45 70 32 71 33 72 38 73 34 74 35 75 37 76
REMARK SMILES IDX 39 77 36 78 58 79 59 80 64 81 60 82 61 83 63 84 65 85 62 86
REMARK SMILES IDX 46 87 47 88 52 89 48 90 49 91 51 92 53 93 50 94
REMARK H PARENT 10 14 85 31 70 56 44 67
REMARK Flexibility Score: inf
ROOT
ATOM      1  C   UNL     1      -4.218   0.256  -1.219  1.00  0.00     0.274 C 
ENDROOT
BRANCH   1   2
ATOM      2  O   UNL     1      -5.361   0.680  -0.434  1.00  0.00    -0.462 OA
BRANCH   2   3
ATOM      3  C   UNL     1      -6.415  -0.150  -0.269  1.00  0.00     0.310 C 
ATOM      4  O   UNL     1      -6.525  -1.188  -0.893  1.00  0.00    -0.252 OA
BRANCH   3   5
ATOM      5  C   UNL     1      -7.316   0.269   0.879  1.00  0.00     0.119 C 
ATOM      6  C   UNL     1      -8.521  -0.687   1.213  1.00  0.00     0.100 C 
ATOM      7  C   UNL     1      -9.657   0.328   1.489  1.00  0.00     0.025 C 
ATOM      8  C   UNL     1      -7.965   1.691   0.933  1.00  0.00     0.027 C 
ATOM      9  C   UNL     1     -10.082   1.056   0.248  1.00  0.00    -0.027 C 
ATOM     10  C   UNL     1      -8.878   1.484   2.149  1.00  0.00     0.017 C 
ATOM     11  C   UNL     1      -9.097   1.910  -0.041  1.00  0.00    -0.027 C 
BRANCH   6  12
ATOM     12  C   UNL     1      -8.721  -1.923   0.304  1.00  0.00     0.229 C 
ATOM     13  N   UNL     1      -9.697  -1.926  -0.657  1.00  0.00    -0.317 N 
ATOM     14  H   UNL     1      -9.433  -1.838  -1.602  1.00  0.00     0.170 HD
ATOM     15  O   UNL     1      -7.972  -2.898   0.422  1.00  0.00    -0.274 OA
BRANCH  13  16
ATOM     16  C   UNL     1     -11.045  -2.048  -0.346  1.00  0.00     0.108 A 
ATOM     17  C   UNL     1     -13.353  -1.935  -0.336  1.00  0.00     0.007 A 
ATOM     18  C   UNL     1     -13.010  -1.712   0.990  1.00  0.00     0.076 A 
ATOM     19  C   UNL     1     -12.168  -2.168  -1.175  1.00  0.00     0.082 A 
ATOM     20  S   UNL     1     -11.456  -2.288   1.293  1.00  0.00    -0.125 S 
BRANCH  17  21
ATOM     21  C   UNL     1     -14.787  -2.079  -0.533  1.00  0.00    -0.017 A 
ATOM     22  C   UNL     1     -18.798  -3.284  -1.410  1.00  0.00     0.044 C 
ATOM     23  C   UNL     1     -17.472  -2.746  -0.964  1.00  0.00    -0.051 A 
ATOM     24  C   UNL     1     -16.698  -3.529  -0.112  1.00  0.00     0.004 A 
ATOM     25  C   UNL     1     -16.933  -1.558  -1.493  1.00  0.00     0.004 A 
ATOM     26  C   UNL     1     -15.378  -3.182   0.117  1.00  0.00     0.009 A 
ATOM     27  C   UNL     1     -15.587  -1.215  -1.274  1.00  0.00     0.009 A 
ENDBRANCH  17  21
BRANCH  19  28
ATOM     28  C   UNL     1     -11.950  -2.322  -2.623  1.00  0.00     0.255 C 
ATOM     29  O   UNL     1     -11.129  -1.583  -3.182  1.00  0.00    -0.269 OA
ATOM     30  N   UNL     1     -12.456  -3.307  -3.445  1.00  0.00    -0.349 N 
ATOM     31  H   UNL     1     -12.093  -3.229  -4.356  1.00  0.00     0.164 HD
BRANCH  30  32
ATOM     32  C   UNL     1     -13.357  -4.403  -3.346  1.00  0.00     0.082 C 
ATOM     33  C   UNL     1     -13.952  -4.950  -2.101  1.00  0.00     0.027 C 
ATOM     34  C   UNL     1     -14.795  -4.134  -3.051  1.00  0.00     0.027 C 
ENDBRANCH  30  32
ENDBRANCH  19  28
ENDBRANCH  13  16
ENDBRANCH   6  12
ENDBRANCH   3   5
ENDBRANCH   2   3
ENDBRANCH   1   2
BRANCH   1  35
ATOM     35  C   UNL     1      -4.158  -0.999  -2.151  1.00  0.00     0.275 C 
BRANCH  35  36
ATOM     36  O   UNL     1      -5.110  -1.423  -3.184  1.00  0.00    -0.458 OA
BRANCH  36  37
ATOM     37  C   UNL     1      -6.221  -0.840  -3.671  1.00  0.00     0.338 C 
ATOM     38  O   UNL     1      -7.143  -1.423  -4.229  1.00  0.00    -0.246 OA
BRANCH  37  39
ATOM     39  C   UNL     1      -6.222   0.597  -3.545  1.00  0.00     0.060 A 
ATOM     40  C   UNL     1      -7.280   1.210  -2.868  1.00  0.00     0.016 A 
ATOM     41  C   UNL     1      -5.087   1.276  -3.990  1.00  0.00     0.016 A 
ATOM     42  C   UNL     1      -7.142   2.533  -2.528  1.00  0.00     0.010 A 
ATOM     43  C   UNL     1      -4.918   2.564  -3.578  1.00  0.00     0.010 A 
ATOM     44  C   UNL     1      -5.963   3.173  -2.872  1.00  0.00    -0.014 A 
BRANCH  44  45
ATOM     45  C   UNL     1      -5.932   4.606  -2.918  1.00  0.00     0.031 A 
ATOM     46  C   UNL     1      -5.441   5.340  -1.744  1.00  0.00     0.074 A 
ATOM     47  C   UNL     1      -6.207   4.972  -4.191  1.00  0.00     0.049 A 
ATOM     48  N   UNL     1      -5.657   6.588  -1.524  1.00  0.00    -0.248 NA
ATOM     49  C   UNL     1      -4.758   4.697  -0.605  1.00  0.00     0.031 C 
ATOM     50  C   UNL     1      -5.840   6.130  -4.971  1.00  0.00     0.029 A 
ATOM     51  N   UNL     1      -6.991   4.251  -5.111  1.00  0.00    -0.354 N 
ATOM     52  C   UNL     1      -4.706   6.961  -0.594  1.00  0.00     0.074 A 
ATOM     53  C   UNL     1      -4.423   5.759   0.141  1.00  0.00     0.031 C 
ATOM     54  C   UNL     1      -6.667   6.195  -6.039  1.00  0.00     0.029 A 
ATOM     55  C   UNL     1      -7.698   5.177  -5.864  1.00  0.00     0.049 A 
ATOM     56  H   UNL     1      -7.030   3.272  -5.203  1.00  0.00     0.167 HD
ATOM     57  C   UNL     1      -4.042   8.137  -0.805  1.00  0.00     0.037 A 
ATOM     58  C   UNL     1      -9.018   5.426  -5.577  1.00  0.00     0.037 A 
ATOM     59  C   UNL     1      -4.602   8.789  -1.996  1.00  0.00     0.049 A 
ATOM     60  C   UNL     1      -9.194   6.785  -4.913  1.00  0.00     0.074 A 
ATOM     61  C   UNL     1      -4.210   8.843  -3.324  1.00  0.00     0.029 A 
ATOM     62  N   UNL     1      -5.930   9.159  -1.978  1.00  0.00    -0.354 N 
ATOM     63  N   UNL     1      -8.226   7.442  -4.332  1.00  0.00    -0.248 NA
ATOM     64  C   UNL     1     -10.473   7.484  -4.808  1.00  0.00     0.031 C 
ATOM     65  C   UNL     1      -5.356   9.208  -4.102  1.00  0.00     0.029 A 
ATOM     66  C   UNL     1      -6.437   9.341  -3.248  1.00  0.00     0.049 A 
ATOM     67  H   UNL     1      -6.456   9.280  -1.155  1.00  0.00     0.167 HD
ATOM     68  C   UNL     1      -8.678   8.648  -3.895  1.00  0.00     0.074 A 
ATOM     69  C   UNL     1     -10.110   8.600  -4.151  1.00  0.00     0.031 C 
ATOM     70  C   UNL     1      -7.861   9.611  -3.376  1.00  0.00     0.037 A 
BRANCH  57  71
ATOM     71  C   UNL     1      -2.723   8.574  -0.196  1.00  0.00     0.057 A 
ATOM     72  C   UNL     1      -2.046   9.688  -0.740  1.00  0.00     0.134 A 
ATOM     73  C   UNL     1      -2.041   7.961   0.871  1.00  0.00     0.134 A 
ATOM     74  F   UNL     1      -2.594  10.443  -1.703  1.00  0.00    -0.206 F 
ATOM     75  C   UNL     1      -0.775  10.100  -0.321  1.00  0.00     0.040 A 
ATOM     76  C   UNL     1      -0.763   8.362   1.299  1.00  0.00     0.040 A 
ATOM     77  F   UNL     1      -2.568   6.962   1.582  1.00  0.00    -0.206 F 
ATOM     78  C   UNL     1      -0.118   9.427   0.694  1.00  0.00     0.006 A 
ENDBRANCH  57  71
BRANCH  58  79
ATOM     79  C   UNL     1      -9.823   4.213  -5.218  1.00  0.00     0.057 A 
ATOM     80  C   UNL     1      -9.858   3.122  -6.110  1.00  0.00     0.134 A 
ATOM     81  C   UNL     1     -10.291   3.974  -3.921  1.00  0.00     0.134 A 
ATOM     82  F   UNL     1      -9.475   3.281  -7.386  1.00  0.00    -0.206 F 
ATOM     83  C   UNL     1     -10.178   1.829  -5.690  1.00  0.00     0.040 A 
ATOM     84  C   UNL     1     -10.649   2.688  -3.499  1.00  0.00     0.040 A 
ATOM     85  F   UNL     1     -10.316   4.953  -3.006  1.00  0.00    -0.206 F 
ATOM     86  C   UNL     1     -10.542   1.607  -4.368  1.00  0.00     0.006 A 
ENDBRANCH  58  79
BRANCH  70  87
ATOM     87  C   UNL     1      -8.379  10.941  -2.939  1.00  0.00     0.057 A 
ATOM     88  C   UNL     1      -9.236  11.700  -3.743  1.00  0.00     0.134 A 
ATOM     89  C   UNL     1      -7.942  11.552  -1.748  1.00  0.00     0.134 A 
ATOM     90  F   UNL     1      -9.647  11.246  -4.937  1.00  0.00    -0.206 F 
ATOM     91  C   UNL     1      -9.688  12.960  -3.351  1.00  0.00     0.040 A 
ATOM     92  C   UNL     1      -8.329  12.838  -1.382  1.00  0.00     0.040 A 
ATOM     93  F   UNL     1      -7.146  10.922  -0.873  1.00  0.00    -0.206 F 
ATOM     94  C   UNL     1      -9.225  13.538  -2.173  1.00  0.00     0.006 A 
ENDBRANCH  70  87
ENDBRANCH  44  45
ENDBRANCH  37  39
ENDBRANCH  36  37
ENDBRANCH  35  36
ENDBRANCH   1  35
TORSDOF 16
