REMARK SMILES CC/C=C/C/C=C/C/C=C/C/C=C/CC/C=C/COCC(=O)OCCOC(=O)c1ccc(-c2c3nc(c(-c4c(F)cccc4F)c4ccc([nH]4)c(-c4c(F)cccc4F)c4nc(c(-c5c(F)cccc5F)c5ccc2[nH]5)C=C4)C=C3)cc1
REMARK SMILES IDX 18 1 17 2 16 3 15 4 14 5 13 6 12 7 11 8 10 9 9 10 8 11 7 12
REMARK SMILES IDX 6 13 5 14 4 15 3 16 2 17 1 18 19 19 20 20 21 21 22 22 23 23
REMARK SMILES IDX 24 24 25 25 26 26 27 27 28 28 29 29 30 30 82 31 31 32 81 33
REMARK SMILES IDX 32 34 33 35 34 36 75 37 35 38 80 39 74 40 76 41 36 42 79 43
REMARK SMILES IDX 73 44 72 45 37 47 63 48 46 49 62 50 47 51 50 52 61 53 77 54
REMARK SMILES IDX 48 55 49 56 60 58 78 59 51 60 38 61 39 62 44 63 40 64 41 65
REMARK SMILES IDX 43 66 45 67 42 68 64 69 65 70 70 71 66 72 67 73 69 74 71 75
REMARK SMILES IDX 68 76 52 77 53 78 58 79 54 80 55 81 57 82 59 83 56 84
REMARK H PARENT 76 46 50 57
REMARK Flexibility Score: inf
ROOT
ATOM      1  C   UNL     1      -8.574 -15.260  -3.408  1.00  0.00     0.188 C 
ENDROOT
BRANCH   1   2
ATOM      2  C   UNL     1      -7.856 -14.214  -4.215  1.00  0.00    -0.003 C 
ATOM      3  C   UNL     1      -6.611 -13.802  -3.919  1.00  0.00    -0.029 C 
BRANCH   3   4
ATOM      4  C   UNL     1      -5.984 -12.540  -4.453  1.00  0.00     0.031 C 
BRANCH   4   5
ATOM      5  C   UNL     1      -6.674 -11.093  -3.766  1.00  0.00     0.031 C 
BRANCH   5   6
ATOM      6  C   UNL     1      -6.201  -9.717  -2.185  1.00  0.00    -0.031 C 
ATOM      7  C   UNL     1      -5.500  -8.535  -1.903  1.00  0.00    -0.027 C 
BRANCH   7   8
ATOM      8  C   UNL     1      -5.046  -8.057  -0.545  1.00  0.00     0.054 C 
BRANCH   8   9
ATOM      9  C   UNL     1      -3.536  -8.086  -0.569  1.00  0.00    -0.027 C 
ATOM     10  C   UNL     1      -2.743  -7.002  -0.614  1.00  0.00    -0.027 C 
BRANCH  10  11
ATOM     11  C   UNL     1      -1.256  -7.071  -0.831  1.00  0.00     0.054 C 
BRANCH  11  12
ATOM     12  C   UNL     1      -0.799  -6.061  -1.848  1.00  0.00    -0.027 C 
ATOM     13  C   UNL     1       0.034  -5.045  -1.564  1.00  0.00    -0.027 C 
BRANCH  13  14
ATOM     14  C   UNL     1       0.506  -4.019  -2.554  1.00  0.00     0.054 C 
BRANCH  14  15
ATOM     15  C   UNL     1       0.060  -2.643  -2.145  1.00  0.00    -0.027 C 
ATOM     16  C   UNL     1       0.892  -1.638  -1.825  1.00  0.00    -0.031 C 
BRANCH  16  17
ATOM     17  C   UNL     1       0.430  -0.270  -1.411  1.00  0.00     0.023 C 
ATOM     18  C   UNL     1       0.923   0.083  -0.016  1.00  0.00     0.008 C 
ENDBRANCH  16  17
ENDBRANCH  14  15
ENDBRANCH  13  14
ENDBRANCH  11  12
ENDBRANCH  10  11
ENDBRANCH   8   9
ENDBRANCH   7   8
ENDBRANCH   5   6
ENDBRANCH   4   5
ENDBRANCH   3   4
ENDBRANCH   1   2
BRANCH   1  19
ATOM     19  O   UNL     1      -9.957 -14.971  -3.191  1.00  0.00    -0.366 OA
BRANCH  19  20
ATOM     20  C   UNL     1     -10.307 -13.690  -2.715  1.00  0.00     0.283 C 
BRANCH  20  21
ATOM     21  C   UNL     1     -10.329 -13.234  -1.249  1.00  0.00     0.332 C 
ATOM     22  O   UNL     1     -10.752 -12.121  -0.939  1.00  0.00    -0.250 OA
BRANCH  21  23
ATOM     23  O   UNL     1      -9.815 -14.129  -0.366  1.00  0.00    -0.460 OA
BRANCH  23  24
ATOM     24  C   UNL     1      -9.677 -13.637   0.990  1.00  0.00     0.274 C 
BRANCH  24  25
ATOM     25  C   UNL     1      -8.246 -13.175   1.258  1.00  0.00     0.275 C 
BRANCH  25  26
ATOM     26  O   UNL     1      -7.878 -12.186   0.284  1.00  0.00    -0.458 OA
BRANCH  26  27
ATOM     27  C   UNL     1      -7.175 -12.698  -0.745  1.00  0.00     0.338 C 
ATOM     28  O   UNL     1      -6.736 -13.829  -0.853  1.00  0.00    -0.246 OA
BRANCH  27  29
ATOM     29  C   UNL     1      -6.921 -11.671  -1.745  1.00  0.00     0.060 A 
ATOM     30  C   UNL     1      -8.169 -10.486  -2.340  1.00  0.00     0.016 A 
ATOM     31  C   UNL     1      -5.206 -11.550  -2.307  1.00  0.00     0.016 A 
ATOM     32  C   UNL     1      -7.707  -9.269  -3.606  1.00  0.00     0.010 A 
ATOM     33  C   UNL     1      -4.744 -10.323  -3.564  1.00  0.00     0.010 A 
ATOM     34  C   UNL     1      -5.990  -9.158  -4.237  1.00  0.00    -0.014 A 
BRANCH  34  35
ATOM     35  C   UNL     1      -5.510  -8.090  -5.168  1.00  0.00     0.031 A 
ATOM     36  C   UNL     1      -4.353  -8.407  -6.082  1.00  0.00     0.074 A 
ATOM     37  C   UNL     1      -5.938  -6.819  -5.011  1.00  0.00     0.049 A 
ATOM     38  N   UNL     1      -3.444  -7.616  -6.590  1.00  0.00    -0.248 NA
ATOM     39  C   UNL     1      -4.128  -9.829  -6.388  1.00  0.00     0.031 C 
ATOM     40  C   UNL     1      -6.984  -6.365  -4.093  1.00  0.00     0.029 A 
ATOM     41  N   UNL     1      -5.482  -5.647  -5.564  1.00  0.00    -0.354 N 
ATOM     42  C   UNL     1      -2.510  -8.456  -7.192  1.00  0.00     0.074 A 
ATOM     43  C   UNL     1      -2.906  -9.811  -6.896  1.00  0.00     0.031 C 
ATOM     44  C   UNL     1      -7.113  -5.036  -4.157  1.00  0.00     0.029 A 
ATOM     45  C   UNL     1      -6.085  -4.525  -5.038  1.00  0.00     0.049 A 
ATOM     46  H   UNL     1      -4.793  -5.612  -6.266  1.00  0.00     0.167 HD
ATOM     47  C   UNL     1      -1.448  -8.124  -7.965  1.00  0.00     0.037 A 
ATOM     48  C   UNL     1      -5.804  -3.220  -5.189  1.00  0.00     0.037 A 
ATOM     49  C   UNL     1      -1.153  -6.760  -8.314  1.00  0.00     0.049 A 
ATOM     50  C   UNL     1      -4.650  -2.865  -6.071  1.00  0.00     0.074 A 
ATOM     51  C   UNL     1      -0.172  -6.266  -9.152  1.00  0.00     0.029 A 
ATOM     52  N   UNL     1      -1.882  -5.668  -7.855  1.00  0.00    -0.354 N 
ATOM     53  N   UNL     1      -3.781  -3.664  -6.643  1.00  0.00    -0.248 NA
ATOM     54  C   UNL     1      -4.445  -1.441  -6.347  1.00  0.00     0.031 C 
ATOM     55  C   UNL     1      -0.287  -4.873  -9.173  1.00  0.00     0.029 A 
ATOM     56  C   UNL     1      -1.377  -4.503  -8.398  1.00  0.00     0.049 A 
ATOM     57  H   UNL     1      -2.645  -5.718  -7.235  1.00  0.00     0.167 HD
ATOM     58  C   UNL     1      -2.956  -2.846  -7.395  1.00  0.00     0.074 A 
ATOM     59  C   UNL     1      -3.428  -1.488  -7.196  1.00  0.00     0.031 C 
ATOM     60  C   UNL     1      -1.911  -3.181  -8.189  1.00  0.00     0.037 A 
BRANCH  47  61
ATOM     61  C   UNL     1      -0.580  -9.234  -8.505  1.00  0.00     0.057 A 
ATOM     62  C   UNL     1      -1.076 -10.208  -9.386  1.00  0.00     0.134 A 
ATOM     63  C   UNL     1       0.772  -9.336  -8.149  1.00  0.00     0.134 A 
ATOM     64  F   UNL     1      -2.360 -10.182  -9.777  1.00  0.00    -0.206 F 
ATOM     65  C   UNL     1      -0.284 -11.265  -9.844  1.00  0.00     0.040 A 
ATOM     66  C   UNL     1       1.586 -10.367  -8.632  1.00  0.00     0.040 A 
ATOM     67  F   UNL     1       1.331  -8.438  -7.324  1.00  0.00    -0.206 F 
ATOM     68  C   UNL     1       1.054 -11.343  -9.470  1.00  0.00     0.006 A 
ENDBRANCH  47  61
BRANCH  48  69
ATOM     69  C   UNL     1      -6.657  -2.192  -4.535  1.00  0.00     0.057 A 
ATOM     70  C   UNL     1      -7.535  -1.412  -5.296  1.00  0.00     0.134 A 
ATOM     71  C   UNL     1      -6.682  -2.010  -3.145  1.00  0.00     0.134 A 
ATOM     72  F   UNL     1      -7.566  -1.542  -6.631  1.00  0.00    -0.206 F 
ATOM     73  C   UNL     1      -8.389  -0.476  -4.708  1.00  0.00     0.040 A 
ATOM     74  C   UNL     1      -7.552  -1.099  -2.540  1.00  0.00     0.040 A 
ATOM     75  F   UNL     1      -5.894  -2.748  -2.350  1.00  0.00    -0.206 F 
ATOM     76  C   UNL     1      -8.403  -0.323  -3.324  1.00  0.00     0.006 A 
ENDBRANCH  48  69
BRANCH  60  77
ATOM     77  C   UNL     1      -1.279  -2.071  -8.964  1.00  0.00     0.057 A 
ATOM     78  C   UNL     1      -0.452  -1.122  -8.359  1.00  0.00     0.134 A 
ATOM     79  C   UNL     1      -1.459  -2.002 -10.351  1.00  0.00     0.134 A 
ATOM     80  F   UNL     1      -0.261  -1.132  -7.031  1.00  0.00    -0.206 F 
ATOM     81  C   UNL     1       0.169  -0.125  -9.109  1.00  0.00     0.040 A 
ATOM     82  C   UNL     1      -0.818  -1.031 -11.115  1.00  0.00     0.040 A 
ATOM     83  F   UNL     1      -2.239  -2.892 -10.984  1.00  0.00    -0.206 F 
ATOM     84  C   UNL     1      -0.004  -0.087 -10.492  1.00  0.00     0.006 A 
ENDBRANCH  60  77
ENDBRANCH  34  35
ENDBRANCH  27  29
ENDBRANCH  26  27
ENDBRANCH  25  26
ENDBRANCH  24  25
ENDBRANCH  23  24
ENDBRANCH  21  23
ENDBRANCH  20  21
ENDBRANCH  19  20
ENDBRANCH   1  19
TORSDOF 24
