REMARK SMILES Cc1ccc2c(c1)C=C(C(=O)OCCOC(=O)c1ccc(-c3c4nc(c(-c5c(F)cccc5F)c5ccc([nH]5)c(-c5c(F)cccc5F)c5nc(c(-c6c(F)cccc6F)c6ccc3[nH]6)C=C5)C=C4)cc1)[C@@H](C(F)(F)F)O2
REMARK SMILES IDX 14 1 13 2 12 3 10 4 11 5 9 6 1 7 2 8 3 9 7 10 4 11 6 12 5 13
REMARK SMILES IDX 8 14 77 15 72 16 73 17 74 18 75 19 76 20 15 21 16 22 17 23
REMARK SMILES IDX 18 24 19 25 71 26 20 27 70 28 21 29 22 30 23 31 64 32 24 33
REMARK SMILES IDX 69 34 63 35 65 36 25 37 68 38 62 39 61 40 26 42 52 43 35 44
REMARK SMILES IDX 51 45 36 46 39 47 50 48 66 49 37 50 38 51 49 53 67 54 40 55
REMARK SMILES IDX 27 56 28 57 33 58 29 59 30 60 32 61 34 62 31 63 53 64 54 65
REMARK SMILES IDX 59 66 55 67 56 68 58 69 60 70 57 71 41 72 42 73 47 74 43 75
REMARK SMILES IDX 44 76 46 77 48 78 45 79
REMARK H PARENT 65 41 39 52
REMARK Flexibility Score: inf
ROOT
ATOM      1  C   UNL     1      -1.362   1.087   9.559  1.00  0.00     0.275 C 
ENDROOT
BRANCH   1   2
ATOM      2  C   UNL     1      -2.159  -0.123   9.074  1.00  0.00     0.275 C 
BRANCH   2   3
ATOM      3  O   UNL     1      -1.505  -0.767   7.959  1.00  0.00    -0.459 OA
BRANCH   3   4
ATOM      4  C   UNL     1      -2.026  -0.495   6.741  1.00  0.00     0.338 C 
ATOM      5  O   UNL     1      -2.981   0.226   6.499  1.00  0.00    -0.246 OA
BRANCH   4   6
ATOM      6  C   UNL     1      -1.251  -1.176   5.687  1.00  0.00     0.087 C 
ATOM      7  C   UNL     1       1.130  -0.243   0.078  1.00  0.00     0.044 C 
ATOM      8  C   UNL     1       0.739  -1.024   1.298  1.00  0.00    -0.050 A 
ATOM      9  C   UNL     1       0.973  -2.402   1.369  1.00  0.00     0.007 A 
ATOM     10  C   UNL     1       0.159  -0.382   2.396  1.00  0.00     0.015 A 
ATOM     11  C   UNL     1       0.623  -3.126   2.516  1.00  0.00     0.047 A 
ATOM     12  C   UNL     1      -0.208  -1.111   3.534  1.00  0.00     0.017 A 
ATOM     13  C   UNL     1       0.029  -2.481   3.599  1.00  0.00     0.128 A 
ATOM     14  C   UNL     1      -0.864  -0.444   4.638  1.00  0.00     0.027 C 
ATOM     15  O   UNL     1      -0.278  -3.252   4.686  1.00  0.00    -0.475 OA
ATOM     16  C   UNL     1      -1.044  -2.662   5.776  1.00  0.00     0.316 C 
BRANCH  16  17
ATOM     17  C   UNL     1      -2.384  -3.405   5.896  1.00  0.00     0.430 C 
ATOM     18  F   UNL     1      -2.204  -4.746   5.952  1.00  0.00    -0.167 F 
ATOM     19  F   UNL     1      -3.043  -3.059   7.029  1.00  0.00    -0.167 F 
ATOM     20  F   UNL     1      -3.208  -3.148   4.856  1.00  0.00    -0.167 F 
ENDBRANCH  16  17
ENDBRANCH   4   6
ENDBRANCH   3   4
ENDBRANCH   2   3
ENDBRANCH   1   2
BRANCH   1  21
ATOM     21  O   UNL     1      -1.387   2.124   8.561  1.00  0.00    -0.458 OA
BRANCH  21  22
ATOM     22  C   UNL     1      -0.201   2.405   7.974  1.00  0.00     0.338 C 
ATOM     23  O   UNL     1       0.888   1.920   8.219  1.00  0.00    -0.246 OA
BRANCH  22  24
ATOM     24  C   UNL     1      -0.414   3.398   6.910  1.00  0.00     0.060 A 
ATOM     25  C   UNL     1       0.201   4.644   6.964  1.00  0.00     0.016 A 
ATOM     26  C   UNL     1      -1.143   3.028   5.784  1.00  0.00     0.016 A 
ATOM     27  C   UNL     1       0.061   5.524   5.883  1.00  0.00     0.010 A 
ATOM     28  C   UNL     1      -1.164   3.845   4.658  1.00  0.00     0.010 A 
ATOM     29  C   UNL     1      -0.595   5.122   4.703  1.00  0.00    -0.014 A 
BRANCH  29  30
ATOM     30  C   UNL     1      -0.716   6.026   3.524  1.00  0.00     0.031 A 
ATOM     31  C   UNL     1      -2.073   6.367   2.953  1.00  0.00     0.074 A 
ATOM     32  C   UNL     1       0.394   6.501   2.922  1.00  0.00     0.049 A 
ATOM     33  N   UNL     1      -2.372   7.087   1.899  1.00  0.00    -0.248 NA
ATOM     34  C   UNL     1      -3.247   5.787   3.625  1.00  0.00     0.031 C 
ATOM     35  C   UNL     1       1.771   6.186   3.309  1.00  0.00     0.029 A 
ATOM     36  N   UNL     1       0.538   7.356   1.857  1.00  0.00    -0.354 N 
ATOM     37  C   UNL     1      -3.755   7.010   1.766  1.00  0.00     0.074 A 
ATOM     38  C   UNL     1      -4.229   6.124   2.804  1.00  0.00     0.031 C 
ATOM     39  C   UNL     1       2.617   6.885   2.535  1.00  0.00     0.029 A 
ATOM     40  C   UNL     1       1.847   7.664   1.572  1.00  0.00     0.049 A 
ATOM     41  H   UNL     1      -0.223   7.713   1.347  1.00  0.00     0.167 HD
ATOM     42  C   UNL     1      -4.565   7.646   0.886  1.00  0.00     0.037 A 
ATOM     43  C   UNL     1       2.367   8.489   0.644  1.00  0.00     0.037 A 
ATOM     44  C   UNL     1      -4.107   8.586  -0.102  1.00  0.00     0.049 A 
ATOM     45  C   UNL     1       1.447   9.225  -0.287  1.00  0.00     0.074 A 
ATOM     46  C   UNL     1      -4.855   9.361  -0.971  1.00  0.00     0.029 A 
ATOM     47  N   UNL     1      -2.775   8.885  -0.342  1.00  0.00    -0.354 N 
ATOM     48  N   UNL     1       0.138   9.197  -0.349  1.00  0.00    -0.248 NA
ATOM     49  C   UNL     1       2.079  10.106  -1.280  1.00  0.00     0.031 C 
ATOM     50  C   UNL     1      -3.973  10.112  -1.756  1.00  0.00     0.029 A 
ATOM     51  C   UNL     1      -2.678   9.824  -1.356  1.00  0.00     0.049 A 
ATOM     52  H   UNL     1      -2.011   8.490   0.137  1.00  0.00     0.167 HD
ATOM     53  C   UNL     1      -0.211  10.060  -1.380  1.00  0.00     0.074 A 
ATOM     54  C   UNL     1       1.023  10.617  -1.896  1.00  0.00     0.031 C 
ATOM     55  C   UNL     1      -1.441  10.358  -1.861  1.00  0.00     0.037 A 
BRANCH  42  56
ATOM     56  C   UNL     1      -6.038   7.363   0.975  1.00  0.00     0.057 A 
ATOM     57  C   UNL     1      -6.693   6.642  -0.031  1.00  0.00     0.134 A 
ATOM     58  C   UNL     1      -6.812   7.816   2.052  1.00  0.00     0.134 A 
ATOM     59  F   UNL     1      -6.015   6.187  -1.096  1.00  0.00    -0.206 F 
ATOM     60  C   UNL     1      -8.062   6.372   0.037  1.00  0.00     0.040 A 
ATOM     61  C   UNL     1      -8.175   7.528   2.146  1.00  0.00     0.040 A 
ATOM     62  F   UNL     1      -6.245   8.504   3.055  1.00  0.00    -0.206 F 
ATOM     63  C   UNL     1      -8.805   6.807   1.133  1.00  0.00     0.006 A 
ENDBRANCH  42  56
BRANCH  43  64
ATOM     64  C   UNL     1       3.835   8.695   0.572  1.00  0.00     0.057 A 
ATOM     65  C   UNL     1       4.694   7.706   0.080  1.00  0.00     0.134 A 
ATOM     66  C   UNL     1       4.409   9.902   0.988  1.00  0.00     0.134 A 
ATOM     67  F   UNL     1       4.205   6.526  -0.329  1.00  0.00    -0.206 F 
ATOM     68  C   UNL     1       6.073   7.907   0.010  1.00  0.00     0.040 A 
ATOM     69  C   UNL     1       5.784  10.126   0.903  1.00  0.00     0.040 A 
ATOM     70  F   UNL     1       3.633  10.894   1.449  1.00  0.00    -0.206 F 
ATOM     71  C   UNL     1       6.621   9.123   0.416  1.00  0.00     0.006 A 
ENDBRANCH  43  64
BRANCH  55  72
ATOM     72  C   UNL     1      -1.506  11.329  -3.001  1.00  0.00     0.057 A 
ATOM     73  C   UNL     1      -1.956  12.640  -2.803  1.00  0.00     0.134 A 
ATOM     74  C   UNL     1      -1.140  10.956  -4.300  1.00  0.00     0.134 A 
ATOM     75  F   UNL     1      -2.325  13.057  -1.583  1.00  0.00    -0.206 F 
ATOM     76  C   UNL     1      -2.040  13.547  -3.860  1.00  0.00     0.040 A 
ATOM     77  C   UNL     1      -1.200  11.860  -5.361  1.00  0.00     0.040 A 
ATOM     78  F   UNL     1      -0.686   9.718  -4.549  1.00  0.00    -0.206 F 
ATOM     79  C   UNL     1      -1.656  13.159  -5.142  1.00  0.00     0.006 A 
ENDBRANCH  55  72
ENDBRANCH  29  30
ENDBRANCH  22  24
ENDBRANCH  21  22
ENDBRANCH   1  21
TORSDOF 12
