REMARK SMILES C[C@H]1[C@H](C(=O)OCCOC(=O)c2ccc(-c3c4nc(c(-c5c(F)cccc5F)c5ccc([nH]5)c(-c5c(F)cccc5F)c5nc(c(-c6c(F)cccc6F)c6ccc3[nH]6)C=C5)C=C4)cc2)CCN1C(=O)[C@H]1CC=CCC1
REMARK SMILES IDX 7 1 6 2 4 3 5 4 3 5 1 6 2 7 68 8 66 9 67 10 69 11 70 12
REMARK SMILES IDX 71 13 72 14 76 15 73 16 75 17 74 18 8 19 9 20 10 21 11 22
REMARK SMILES IDX 12 23 13 24 65 25 14 26 64 27 15 28 16 29 17 30 58 31 18 32
REMARK SMILES IDX 63 33 57 34 59 35 19 36 62 37 56 38 55 39 20 41 46 42 29 43
REMARK SMILES IDX 45 44 30 45 33 46 44 47 60 48 31 49 32 50 43 52 61 53 34 54
REMARK SMILES IDX 21 55 22 56 27 57 23 58 24 59 26 60 28 61 25 62 47 63 48 64
REMARK SMILES IDX 53 65 49 66 50 67 52 68 54 69 51 70 35 71 36 72 41 73 37 74
REMARK SMILES IDX 38 75 40 76 42 77 39 78
REMARK H PARENT 59 40 33 51
REMARK Flexibility Score: inf
ROOT
ATOM      1  C   UNL     1      -0.554   2.784   3.257  1.00  0.00     0.274 C 
ENDROOT
BRANCH   1   2
ATOM      2  O   UNL     1      -0.515   1.742   2.260  1.00  0.00    -0.462 OA
BRANCH   2   3
ATOM      3  C   UNL     1      -0.858   2.111   1.000  1.00  0.00     0.311 C 
ATOM      4  O   UNL     1      -1.204   3.242   0.676  1.00  0.00    -0.252 OA
BRANCH   3   5
ATOM      5  C   UNL     1      -0.838   0.972   0.008  1.00  0.00     0.123 C 
ATOM      6  C   UNL     1       1.246   0.117  -1.097  1.00  0.00     0.032 C 
ATOM      7  C   UNL     1       0.343  -0.022   0.135  1.00  0.00     0.096 C 
ATOM      8  N   UNL     1      -0.291  -1.344   0.178  1.00  0.00    -0.339 N 
ATOM      9  C   UNL     1      -2.103   0.126   0.124  1.00  0.00     0.039 C 
ATOM     10  C   UNL     1      -1.649  -1.247  -0.328  1.00  0.00     0.121 C 
BRANCH   8  11
ATOM     11  C   UNL     1       0.175  -2.562   0.612  1.00  0.00     0.226 C 
ATOM     12  O   UNL     1      -0.512  -3.575   0.412  1.00  0.00    -0.275 OA
BRANCH  11  13
ATOM     13  C   UNL     1       1.487  -2.751   1.392  1.00  0.00     0.083 C 
ATOM     14  C   UNL     1       2.780  -2.561   0.600  1.00  0.00     0.040 C 
ATOM     15  C   UNL     1       1.484  -2.184   2.818  1.00  0.00     0.018 C 
ATOM     16  C   UNL     1       3.616  -1.388   1.003  1.00  0.00    -0.030 C 
ATOM     17  C   UNL     1       2.265  -0.892   3.052  1.00  0.00     0.028 C 
ATOM     18  C   UNL     1       3.386  -0.649   2.094  1.00  0.00    -0.031 C 
ENDBRANCH  11  13
ENDBRANCH   8  11
ENDBRANCH   3   5
ENDBRANCH   2   3
ENDBRANCH   1   2
BRANCH   1  19
ATOM     19  C   UNL     1       0.826   3.401   3.510  1.00  0.00     0.275 C 
BRANCH  19  20
ATOM     20  O   UNL     1       1.291   4.172   2.386  1.00  0.00    -0.458 OA
BRANCH  20  21
ATOM     21  C   UNL     1       2.016   3.475   1.486  1.00  0.00     0.338 C 
ATOM     22  O   UNL     1       2.326   2.296   1.540  1.00  0.00    -0.246 OA
BRANCH  21  23
ATOM     23  C   UNL     1       2.312   4.297   0.310  1.00  0.00     0.060 A 
ATOM     24  C   UNL     1       1.734   3.928  -0.907  1.00  0.00     0.016 A 
ATOM     25  C   UNL     1       3.245   5.330   0.376  1.00  0.00     0.016 A 
ATOM     26  C   UNL     1       2.112   4.566  -2.081  1.00  0.00     0.010 A 
ATOM     27  C   UNL     1       3.608   5.988  -0.801  1.00  0.00     0.010 A 
ATOM     28  C   UNL     1       3.055   5.598  -2.034  1.00  0.00    -0.014 A 
BRANCH  28  29
ATOM     29  C   UNL     1       3.477   6.267  -3.282  1.00  0.00     0.031 A 
ATOM     30  C   UNL     1       4.826   5.981  -3.864  1.00  0.00     0.074 A 
ATOM     31  C   UNL     1       2.641   7.135  -3.878  1.00  0.00     0.049 A 
ATOM     32  N   UNL     1       5.447   6.587  -4.841  1.00  0.00    -0.248 NA
ATOM     33  C   UNL     1       5.577   4.865  -3.267  1.00  0.00     0.031 C 
ATOM     34  C   UNL     1       1.280   7.438  -3.434  1.00  0.00     0.029 A 
ATOM     35  N   UNL     1       2.824   7.934  -4.976  1.00  0.00    -0.354 N 
ATOM     36  C   UNL     1       6.674   5.949  -4.960  1.00  0.00     0.074 A 
ATOM     37  C   UNL     1       6.708   4.904  -3.958  1.00  0.00     0.031 C 
ATOM     38  C   UNL     1       0.755   8.371  -4.244  1.00  0.00     0.029 A 
ATOM     39  C   UNL     1       1.762   8.767  -5.223  1.00  0.00     0.049 A 
ATOM     40  H   UNL     1       3.636   7.912  -5.532  1.00  0.00     0.167 HD
ATOM     41  C   UNL     1       7.679   6.220  -5.825  1.00  0.00     0.037 A 
ATOM     42  C   UNL     1       1.635   9.771  -6.110  1.00  0.00     0.037 A 
ATOM     43  C   UNL     1       7.626   7.254  -6.824  1.00  0.00     0.049 A 
ATOM     44  C   UNL     1       2.788  10.096  -7.015  1.00  0.00     0.074 A 
ATOM     45  C   UNL     1       8.593   7.616  -7.746  1.00  0.00     0.029 A 
ATOM     46  N   UNL     1       6.539   8.089  -7.034  1.00  0.00    -0.354 N 
ATOM     47  N   UNL     1       3.961   9.517  -7.095  1.00  0.00    -0.248 NA
ATOM     48  C   UNL     1       2.607  11.223  -7.940  1.00  0.00     0.031 C 
ATOM     49  C   UNL     1       8.100   8.688  -8.497  1.00  0.00     0.029 A 
ATOM     50  C   UNL     1       6.815   8.974  -8.062  1.00  0.00     0.049 A 
ATOM     51  H   UNL     1       5.696   8.057  -6.527  1.00  0.00     0.167 HD
ATOM     52  C   UNL     1       4.653  10.195  -8.087  1.00  0.00     0.074 A 
ATOM     53  C   UNL     1       3.766  11.228  -8.585  1.00  0.00     0.031 C 
ATOM     54  C   UNL     1       5.911   9.984  -8.545  1.00  0.00     0.037 A 
BRANCH  41  55
ATOM     55  C   UNL     1       8.932   5.412  -5.700  1.00  0.00     0.057 A 
ATOM     56  C   UNL     1       9.017   4.100  -6.181  1.00  0.00     0.134 A 
ATOM     57  C   UNL     1      10.079   5.965  -5.117  1.00  0.00     0.134 A 
ATOM     58  F   UNL     1       7.948   3.509  -6.735  1.00  0.00    -0.206 F 
ATOM     59  C   UNL     1      10.197   3.362  -6.076  1.00  0.00     0.040 A 
ATOM     60  C   UNL     1      11.269   5.243  -5.021  1.00  0.00     0.040 A 
ATOM     61  F   UNL     1      10.061   7.218  -4.637  1.00  0.00    -0.206 F 
ATOM     62  C   UNL     1      11.329   3.936  -5.499  1.00  0.00     0.006 A 
ENDBRANCH  41  55
BRANCH  42  63
ATOM     63  C   UNL     1       0.384  10.562  -6.147  1.00  0.00     0.057 A 
ATOM     64  C   UNL     1      -0.527  10.424  -7.198  1.00  0.00     0.134 A 
ATOM     65  C   UNL     1       0.060  11.457  -5.120  1.00  0.00     0.134 A 
ATOM     66  F   UNL     1      -0.261   9.596  -8.218  1.00  0.00    -0.206 F 
ATOM     67  C   UNL     1      -1.718  11.152  -7.229  1.00  0.00     0.040 A 
ATOM     68  C   UNL     1      -1.135  12.176  -5.128  1.00  0.00     0.040 A 
ATOM     69  F   UNL     1       0.894  11.629  -4.083  1.00  0.00    -0.206 F 
ATOM     70  C   UNL     1      -2.027  12.027  -6.188  1.00  0.00     0.006 A 
ENDBRANCH  42  63
BRANCH  54  71
ATOM     71  C   UNL     1       6.386  10.863  -9.658  1.00  0.00     0.057 A 
ATOM     72  C   UNL     1       6.843  12.164  -9.420  1.00  0.00     0.134 A 
ATOM     73  C   UNL     1       6.435  10.383 -10.972  1.00  0.00     0.134 A 
ATOM     74  F   UNL     1       6.807  12.682  -8.183  1.00  0.00    -0.206 F 
ATOM     75  C   UNL     1       7.327  12.963 -10.456  1.00  0.00     0.040 A 
ATOM     76  C   UNL     1       6.932  11.166 -12.013  1.00  0.00     0.040 A 
ATOM     77  F   UNL     1       6.015   9.142 -11.259  1.00  0.00    -0.206 F 
ATOM     78  C   UNL     1       7.379  12.461 -11.756  1.00  0.00     0.006 A 
ENDBRANCH  54  71
ENDBRANCH  28  29
ENDBRANCH  21  23
ENDBRANCH  20  21
ENDBRANCH  19  20
ENDBRANCH   1  19
TORSDOF 13
