REMARK SMILES C[C@@H](Oc1ccc2c(c1)OCO2)C(=O)N1CCn2nc(C(=O)OCCOC(=O)c3ccc(-c4c5nc(c(-c6c(F)cccc6F)c6ccc([nH]6)c(-c6c(F)cccc6F)c6nc(c(-c7c(F)cccc7F)c7ccc4[nH]7)C=C6)C=C5)cc3)cc2C1
REMARK SMILES IDX 24 1 23 2 21 3 22 4 20 5 15 6 16 7 85 8 17 9 84 10 18 11
REMARK SMILES IDX 83 12 19 13 13 14 14 15 2 16 1 17 3 18 4 19 5 20 9 21 6 22
REMARK SMILES IDX 8 23 7 24 10 25 12 26 11 27 25 28 26 29 27 30 28 31 29 32
REMARK SMILES IDX 30 33 82 34 31 35 81 36 32 37 33 38 34 39 75 40 35 41 80 42
REMARK SMILES IDX 74 43 76 44 36 45 79 46 73 47 72 48 37 50 63 51 46 52 62 53
REMARK SMILES IDX 47 54 50 55 61 56 77 57 48 58 49 59 60 61 78 62 51 63 38 64
REMARK SMILES IDX 39 65 44 66 40 67 41 68 43 69 45 70 42 71 64 72 65 73 70 74
REMARK SMILES IDX 66 75 67 76 69 77 71 78 68 79 52 80 53 81 58 82 54 83 55 84
REMARK SMILES IDX 57 85 59 86 56 87
REMARK H PARENT 76 49 50 60
REMARK Flexibility Score: inf
ROOT
ATOM      1  C   UNL     1      -8.066   5.519   2.889  1.00  0.00     0.275 C 
ENDROOT
BRANCH   1   2
ATOM      2  O   UNL     1      -7.096   4.509   2.577  1.00  0.00    -0.457 OA
BRANCH   2   3
ATOM      3  C   UNL     1      -6.529   4.601   1.325  1.00  0.00     0.358 C 
ATOM      4  O   UNL     1      -6.942   5.330   0.445  1.00  0.00    -0.244 OA
BRANCH   3   5
ATOM      5  C   UNL     1      -5.333   3.748   1.216  1.00  0.00     0.170 A 
ATOM      6  N   UNL     1      -1.713   0.888   1.196  1.00  0.00    -0.332 N 
ATOM      7  C   UNL     1      -1.318   1.847   0.159  1.00  0.00     0.143 C 
ATOM      8  C   UNL     1      -2.972   1.011   1.919  1.00  0.00     0.175 C 
ATOM      9  C   UNL     1      -2.309   2.906  -0.307  1.00  0.00     0.166 C 
ATOM     10  C   UNL     1      -3.782   2.181   1.549  1.00  0.00     0.059 A 
ATOM     11  N   UNL     1      -3.490   2.984   0.500  1.00  0.00    -0.265 N 
ATOM     12  C   UNL     1      -4.930   2.707   2.096  1.00  0.00     0.063 A 
ATOM     13  N   UNL     1      -4.437   3.890   0.217  1.00  0.00    -0.165 NA
BRANCH   6  14
ATOM     14  C   UNL     1      -0.911  -0.181   1.614  1.00  0.00     0.263 C 
ATOM     15  O   UNL     1      -1.389  -1.104   2.284  1.00  0.00    -0.271 OA
BRANCH  14  16
ATOM     16  C   UNL     1       0.598  -0.193   1.296  1.00  0.00     0.259 C 
ATOM     17  C   UNL     1       0.894  -0.389  -0.187  1.00  0.00     0.064 C 
BRANCH  16  18
ATOM     18  O   UNL     1       1.124   1.040   1.811  1.00  0.00    -0.481 OA
BRANCH  18  19
ATOM     19  C   UNL     1       2.446   0.979   2.148  1.00  0.00     0.124 A 
ATOM     20  C   UNL     1       3.415   1.196   1.155  1.00  0.00     0.050 A 
ATOM     21  C   UNL     1       2.804   0.876   3.494  1.00  0.00     0.097 A 
ATOM     22  C   UNL     1       4.766   1.279   1.490  1.00  0.00     0.054 A 
ATOM     23  C   UNL     1       4.146   0.979   3.798  1.00  0.00     0.169 A 
ATOM     24  C   UNL     1       5.099   1.173   2.823  1.00  0.00     0.166 A 
ATOM     25  O   UNL     1       4.691   0.939   5.045  1.00  0.00    -0.453 OA
ATOM     26  O   UNL     1       6.355   1.276   3.331  1.00  0.00    -0.454 OA
ATOM     27  C   UNL     1       6.084   1.165   4.743  1.00  0.00     0.468 C 
ENDBRANCH  18  19
ENDBRANCH  16  18
ENDBRANCH  14  16
ENDBRANCH   6  14
ENDBRANCH   3   5
ENDBRANCH   2   3
ENDBRANCH   1   2
BRANCH   1  28
ATOM     28  C   UNL     1      -7.398   6.760   3.463  1.00  0.00     0.275 C 
BRANCH  28  29
ATOM     29  O   UNL     1      -6.659   7.466   2.467  1.00  0.00    -0.458 OA
BRANCH  29  30
ATOM     30  C   UNL     1      -5.330   7.217   2.446  1.00  0.00     0.338 C 
ATOM     31  O   UNL     1      -4.751   6.265   2.944  1.00  0.00    -0.246 OA
BRANCH  30  32
ATOM     32  C   UNL     1      -4.639   8.412   1.949  1.00  0.00     0.060 A 
ATOM     33  C   UNL     1      -3.263   8.329   1.714  1.00  0.00     0.016 A 
ATOM     34  C   UNL     1      -5.307   9.646   1.980  1.00  0.00     0.016 A 
ATOM     35  C   UNL     1      -2.532   9.499   1.643  1.00  0.00     0.010 A 
ATOM     36  C   UNL     1      -4.577  10.808   1.930  1.00  0.00     0.010 A 
ATOM     37  C   UNL     1      -3.191  10.722   1.822  1.00  0.00    -0.014 A 
BRANCH  37  38
ATOM     38  C   UNL     1      -2.415  11.944   1.771  1.00  0.00     0.031 A 
ATOM     39  C   UNL     1      -1.973  12.296   0.402  1.00  0.00     0.074 A 
ATOM     40  C   UNL     1      -2.277  12.757   2.837  1.00  0.00     0.049 A 
ATOM     41  N   UNL     1      -0.766  12.380  -0.047  1.00  0.00    -0.248 NA
ATOM     42  C   UNL     1      -3.012  12.433  -0.634  1.00  0.00     0.031 C 
ATOM     43  C   UNL     1      -2.957  12.651   4.132  1.00  0.00     0.029 A 
ATOM     44  N   UNL     1      -1.584  13.924   2.946  1.00  0.00    -0.354 N 
ATOM     45  C   UNL     1      -0.892  12.789  -1.371  1.00  0.00     0.074 A 
ATOM     46  C   UNL     1      -2.274  12.620  -1.728  1.00  0.00     0.031 C 
ATOM     47  C   UNL     1      -2.821  13.818   4.801  1.00  0.00     0.029 A 
ATOM     48  C   UNL     1      -1.941  14.693   4.046  1.00  0.00     0.049 A 
ATOM     49  H   UNL     1      -0.892  14.198   2.303  1.00  0.00     0.167 HD
ATOM     50  C   UNL     1       0.090  13.512  -1.970  1.00  0.00     0.037 A 
ATOM     51  C   UNL     1      -1.590  15.983   4.272  1.00  0.00     0.037 A 
ATOM     52  C   UNL     1       1.333  13.393  -1.251  1.00  0.00     0.049 A 
ATOM     53  C   UNL     1      -0.413  16.281   3.424  1.00  0.00     0.074 A 
ATOM     54  C   UNL     1       2.214  12.375  -0.955  1.00  0.00     0.029 A 
ATOM     55  N   UNL     1       1.624  14.424  -0.398  1.00  0.00    -0.354 N 
ATOM     56  N   UNL     1       0.769  15.760   3.598  1.00  0.00    -0.248 NA
ATOM     57  C   UNL     1      -0.631  16.904   2.127  1.00  0.00     0.031 C 
ATOM     58  C   UNL     1       2.765  12.707   0.319  1.00  0.00     0.029 A 
ATOM     59  C   UNL     1       2.226  13.928   0.726  1.00  0.00     0.049 A 
ATOM     60  H   UNL     1       1.430  15.374  -0.567  1.00  0.00     0.167 HD
ATOM     61  C   UNL     1       1.270  15.594   2.317  1.00  0.00     0.074 A 
ATOM     62  C   UNL     1       0.448  16.459   1.478  1.00  0.00     0.031 C 
ATOM     63  C   UNL     1       2.102  14.550   2.027  1.00  0.00     0.037 A 
BRANCH  50  64
ATOM     64  C   UNL     1      -0.181  14.683  -2.891  1.00  0.00     0.057 A 
ATOM     65  C   UNL     1       0.905  15.311  -3.525  1.00  0.00     0.134 A 
ATOM     66  C   UNL     1      -1.391  15.409  -2.925  1.00  0.00     0.134 A 
ATOM     67  F   UNL     1       2.117  14.735  -3.545  1.00  0.00    -0.206 F 
ATOM     68  C   UNL     1       0.814  16.596  -4.077  1.00  0.00     0.040 A 
ATOM     69  C   UNL     1      -1.506  16.668  -3.520  1.00  0.00     0.040 A 
ATOM     70  F   UNL     1      -2.499  15.001  -2.296  1.00  0.00    -0.206 F 
ATOM     71  C   UNL     1      -0.394  17.282  -4.068  1.00  0.00     0.006 A 
ENDBRANCH  50  64
BRANCH  51  72
ATOM     72  C   UNL     1      -2.373  17.055   4.928  1.00  0.00     0.057 A 
ATOM     73  C   UNL     1      -1.761  18.246   5.345  1.00  0.00     0.134 A 
ATOM     74  C   UNL     1      -3.779  17.062   4.901  1.00  0.00     0.134 A 
ATOM     75  F   UNL     1      -0.424  18.353   5.368  1.00  0.00    -0.206 F 
ATOM     76  C   UNL     1      -2.501  19.387   5.683  1.00  0.00     0.040 A 
ATOM     77  C   UNL     1      -4.530  18.191   5.244  1.00  0.00     0.040 A 
ATOM     78  F   UNL     1      -4.469  16.004   4.451  1.00  0.00    -0.206 F 
ATOM     79  C   UNL     1      -3.891  19.365   5.620  1.00  0.00     0.006 A 
ENDBRANCH  51  72
BRANCH  63  80
ATOM     80  C   UNL     1       2.777  13.866   3.183  1.00  0.00     0.057 A 
ATOM     81  C   UNL     1       2.110  13.159   4.194  1.00  0.00     0.134 A 
ATOM     82  C   UNL     1       4.176  13.844   3.214  1.00  0.00     0.134 A 
ATOM     83  F   UNL     1       0.775  13.043   4.198  1.00  0.00    -0.206 F 
ATOM     84  C   UNL     1       2.805  12.506   5.216  1.00  0.00     0.040 A 
ATOM     85  C   UNL     1       4.883  13.164   4.207  1.00  0.00     0.040 A 
ATOM     86  F   UNL     1       4.883  14.456   2.250  1.00  0.00    -0.206 F 
ATOM     87  C   UNL     1       4.197  12.503   5.222  1.00  0.00     0.006 A 
ENDBRANCH  63  80
ENDBRANCH  37  38
ENDBRANCH  30  32
ENDBRANCH  29  30
ENDBRANCH  28  29
ENDBRANCH   1  28
TORSDOF 15
