REMARK SMILES C[C@H]1C[C@@H]1c1nc(-c2ccccc2)c(CC(=O)OCCOC(=O)c2ccc(-c3c4nc(c(-c5c(F)cccc5F)c5ccc([nH]5)c(-c5c(F)cccc5F)c5nc(c(-c6c(F)cccc6F)c6ccc3[nH]6)C=C5)C=C4)cc2)s1
REMARK SMILES IDX 19 1 18 2 16 3 17 4 15 5 14 6 5 7 6 8 78 9 7 10 4 11 1 12
REMARK SMILES IDX 2 13 3 14 8 15 9 16 13 17 10 18 12 19 11 20 20 21 21 22
REMARK SMILES IDX 22 23 23 24 24 25 25 26 77 27 26 28 76 29 27 30 28 31 29 32
REMARK SMILES IDX 70 33 30 34 75 35 69 36 71 37 31 38 74 39 68 40 67 41 32 43
REMARK SMILES IDX 58 44 41 45 57 46 42 47 45 48 56 49 72 50 43 51 44 52 55 54
REMARK SMILES IDX 73 55 46 56 33 57 34 58 39 59 35 60 36 61 38 62 40 63 37 64
REMARK SMILES IDX 59 65 60 66 65 67 61 68 62 69 64 70 66 71 63 72 47 73 48 74
REMARK SMILES IDX 53 75 49 76 50 77 52 78 54 79 51 80
REMARK H PARENT 71 42 45 53
REMARK Flexibility Score: inf
ROOT
ATOM      1  C   UNL     1      -1.423   5.469   5.139  1.00  0.00     0.274 C 
ENDROOT
BRANCH   1   2
ATOM      2  O   UNL     1      -0.241   5.111   4.394  1.00  0.00    -0.462 OA
BRANCH   2   3
ATOM      3  C   UNL     1       0.810   4.674   5.136  1.00  0.00     0.311 C 
ATOM      4  O   UNL     1       0.823   4.635   6.364  1.00  0.00    -0.252 OA
BRANCH   3   5
ATOM      5  C   UNL     1       2.017   4.247   4.334  1.00  0.00     0.171 C 
BRANCH   5   6
ATOM      6  C   UNL     1       1.778   4.074   2.867  1.00  0.00     0.044 A 
ATOM      7  C   UNL     1       1.111   3.339   0.659  1.00  0.00     0.097 A 
ATOM      8  N   UNL     1       1.698   4.512   0.567  1.00  0.00    -0.241 NA
ATOM      9  S   UNL     1       0.997   2.679   2.237  1.00  0.00    -0.122 S 
ATOM     10  C   UNL     1       2.180   4.876   1.810  1.00  0.00     0.085 A 
BRANCH   7  11
ATOM     11  C   UNL     1       0.557   2.645  -0.585  1.00  0.00     0.052 C 
ATOM     12  C   UNL     1      -0.602   0.447  -1.388  1.00  0.00     0.008 C 
ATOM     13  C   UNL     1       0.532   1.139  -0.712  1.00  0.00    -0.004 C 
ATOM     14  C   UNL     1       1.512   1.958  -1.524  1.00  0.00     0.015 C 
ENDBRANCH   7  11
BRANCH  10  15
ATOM     15  C   UNL     1       3.041   6.029   1.998  1.00  0.00     0.001 A 
ATOM     16  C   UNL     1       4.318   5.861   2.560  1.00  0.00     0.010 A 
ATOM     17  C   UNL     1       2.580   7.312   1.705  1.00  0.00     0.010 A 
ATOM     18  C   UNL     1       5.094   6.970   2.894  1.00  0.00     0.001 A 
ATOM     19  C   UNL     1       3.365   8.421   2.029  1.00  0.00     0.001 A 
ATOM     20  C   UNL     1       4.610   8.250   2.637  1.00  0.00     0.000 A 
ENDBRANCH  10  15
ENDBRANCH   5   6
ENDBRANCH   3   5
ENDBRANCH   2   3
ENDBRANCH   1   2
BRANCH   1  21
ATOM     21  C   UNL     1      -2.397   4.295   5.208  1.00  0.00     0.275 C 
BRANCH  21  22
ATOM     22  O   UNL     1      -1.748   3.158   5.805  1.00  0.00    -0.458 OA
BRANCH  22  23
ATOM     23  C   UNL     1      -1.800   2.010   5.094  1.00  0.00     0.338 C 
ATOM     24  O   UNL     1      -2.392   1.801   4.051  1.00  0.00    -0.246 OA
BRANCH  23  25
ATOM     25  C   UNL     1      -1.020   0.975   5.793  1.00  0.00     0.060 A 
ATOM     26  C   UNL     1       0.363   1.108   5.928  1.00  0.00     0.016 A 
ATOM     27  C   UNL     1      -1.663  -0.182   6.227  1.00  0.00     0.016 A 
ATOM     28  C   UNL     1       1.119   0.068   6.464  1.00  0.00     0.010 A 
ATOM     29  C   UNL     1      -0.912  -1.204   6.812  1.00  0.00     0.010 A 
ATOM     30  C   UNL     1       0.486  -1.098   6.912  1.00  0.00    -0.014 A 
BRANCH  30  31
ATOM     31  C   UNL     1       1.280  -2.234   7.440  1.00  0.00     0.031 A 
ATOM     32  C   UNL     1       1.338  -3.522   6.669  1.00  0.00     0.074 A 
ATOM     33  C   UNL     1       1.935  -2.119   8.610  1.00  0.00     0.049 A 
ATOM     34  N   UNL     1       1.826  -4.681   7.028  1.00  0.00    -0.248 NA
ATOM     35  C   UNL     1       0.763  -3.503   5.315  1.00  0.00     0.031 C 
ATOM     36  C   UNL     1       1.998  -0.909   9.431  1.00  0.00     0.029 A 
ATOM     37  N   UNL     1       2.664  -3.041   9.317  1.00  0.00    -0.354 N 
ATOM     38  C   UNL     1       1.585  -5.539   5.963  1.00  0.00     0.074 A 
ATOM     39  C   UNL     1       0.901  -4.769   4.946  1.00  0.00     0.031 C 
ATOM     40  C   UNL     1       2.728  -1.163  10.529  1.00  0.00     0.029 A 
ATOM     41  C   UNL     1       3.131  -2.566  10.518  1.00  0.00     0.049 A 
ATOM     42  H   UNL     1       2.835  -3.956   8.995  1.00  0.00     0.167 HD
ATOM     43  C   UNL     1       1.905  -6.849   5.846  1.00  0.00     0.037 A 
ATOM     44  C   UNL     1       3.777  -3.200  11.514  1.00  0.00     0.037 A 
ATOM     45  C   UNL     1       2.610  -7.605   6.847  1.00  0.00     0.049 A 
ATOM     46  C   UNL     1       4.077  -4.666  11.382  1.00  0.00     0.074 A 
ATOM     47  C   UNL     1       2.988  -8.936   6.818  1.00  0.00     0.029 A 
ATOM     48  N   UNL     1       3.049  -7.090   8.057  1.00  0.00    -0.354 N 
ATOM     49  N   UNL     1       3.815  -5.476  10.386  1.00  0.00    -0.248 NA
ATOM     50  C   UNL     1       4.750  -5.309  12.519  1.00  0.00     0.031 C 
ATOM     51  C   UNL     1       3.633  -9.234   8.024  1.00  0.00     0.029 A 
ATOM     52  C   UNL     1       3.685  -8.079   8.788  1.00  0.00     0.049 A 
ATOM     53  H   UNL     1       2.928  -6.159   8.353  1.00  0.00     0.167 HD
ATOM     54  C   UNL     1       4.304  -6.718  10.767  1.00  0.00     0.074 A 
ATOM     55  C   UNL     1       4.891  -6.552  12.081  1.00  0.00     0.031 C 
ATOM     56  C   UNL     1       4.267  -7.893  10.092  1.00  0.00     0.037 A 
BRANCH  43  57
ATOM     57  C   UNL     1       1.468  -7.556   4.598  1.00  0.00     0.057 A 
ATOM     58  C   UNL     1       2.109  -7.356   3.370  1.00  0.00     0.134 A 
ATOM     59  C   UNL     1       0.407  -8.470   4.634  1.00  0.00     0.134 A 
ATOM     60  F   UNL     1       3.121  -6.481   3.266  1.00  0.00    -0.206 F 
ATOM     61  C   UNL     1       1.699  -8.027   2.216  1.00  0.00     0.040 A 
ATOM     62  C   UNL     1       0.002  -9.163   3.493  1.00  0.00     0.040 A 
ATOM     63  F   UNL     1      -0.247  -8.709   5.781  1.00  0.00    -0.206 F 
ATOM     64  C   UNL     1       0.646  -8.939   2.278  1.00  0.00     0.006 A 
ENDBRANCH  43  57
BRANCH  44  65
ATOM     65  C   UNL     1       4.158  -2.456  12.739  1.00  0.00     0.057 A 
ATOM     66  C   UNL     1       5.496  -2.157  13.016  1.00  0.00     0.134 A 
ATOM     67  C   UNL     1       3.195  -2.029  13.662  1.00  0.00     0.134 A 
ATOM     68  F   UNL     1       6.464  -2.562  12.181  1.00  0.00    -0.206 F 
ATOM     69  C   UNL     1       5.866  -1.467  14.171  1.00  0.00     0.040 A 
ATOM     70  C   UNL     1       3.548  -1.318  14.809  1.00  0.00     0.040 A 
ATOM     71  F   UNL     1       1.895  -2.285  13.452  1.00  0.00    -0.206 F 
ATOM     72  C   UNL     1       4.888  -1.040  15.069  1.00  0.00     0.006 A 
ENDBRANCH  44  65
BRANCH  56  73
ATOM     73  C   UNL     1       4.906  -9.077  10.751  1.00  0.00     0.057 A 
ATOM     74  C   UNL     1       4.285  -9.754  11.807  1.00  0.00     0.134 A 
ATOM     75  C   UNL     1       6.140  -9.563  10.302  1.00  0.00     0.134 A 
ATOM     76  F   UNL     1       3.109  -9.327  12.290  1.00  0.00    -0.206 F 
ATOM     77  C   UNL     1       4.880 -10.864  12.408  1.00  0.00     0.040 A 
ATOM     78  C   UNL     1       6.735 -10.684  10.882  1.00  0.00     0.040 A 
ATOM     79  F   UNL     1       6.782  -8.960   9.290  1.00  0.00    -0.206 F 
ATOM     80  C   UNL     1       6.106 -11.335  11.941  1.00  0.00     0.006 A 
ENDBRANCH  56  73
ENDBRANCH  30  31
ENDBRANCH  23  25
ENDBRANCH  22  23
ENDBRANCH  21  22
ENDBRANCH   1  21
TORSDOF 14
