REMARK SMILES Cc1cc(=O)cc(C)n1-c1ccc(Cl)cc1C(=O)OCCOC(=O)c1ccc(-c2c3nc(c(-c4c(F)cccc4F)c4ccc([nH]4)c(-c4c(F)cccc4F)c4nc(c(-c5c(F)cccc5F)c5ccc2[nH]5)C=C4)C=C3)cc1
REMARK SMILES IDX 21 1 20 2 19 3 17 4 18 5 16 6 10 7 11 8 12 9 15 10 13 11
REMARK SMILES IDX 14 12 9 13 1 14 2 15 3 16 4 17 7 18 5 19 6 20 8 21 22 22
REMARK SMILES IDX 23 23 24 24 25 25 26 26 78 27 27 28 77 29 28 30 29 31 30 32
REMARK SMILES IDX 71 33 31 34 76 35 70 36 72 37 32 38 75 39 69 40 68 41 33 43
REMARK SMILES IDX 59 44 42 45 58 46 43 47 46 48 57 49 73 50 44 51 45 52 56 54
REMARK SMILES IDX 74 55 47 56 34 57 35 58 40 59 36 60 37 61 39 62 41 63 38 64
REMARK SMILES IDX 60 65 61 66 66 67 62 68 63 69 65 70 67 71 64 72 48 73 49 74
REMARK SMILES IDX 54 75 50 76 51 77 53 78 55 79 52 80
REMARK H PARENT 72 42 46 53
REMARK Flexibility Score: inf
ROOT
ATOM      1  C   UNL     1      -3.752  -0.981  -0.438  1.00  0.00     0.275 C 
ENDROOT
BRANCH   1   2
ATOM      2  C   UNL     1      -2.229  -0.955  -0.386  1.00  0.00     0.275 C 
BRANCH   2   3
ATOM      3  O   UNL     1      -1.769  -0.172   0.735  1.00  0.00    -0.458 OA
BRANCH   3   4
ATOM      4  C   UNL     1      -1.117   0.975   0.438  1.00  0.00     0.340 C 
ATOM      5  O   UNL     1      -1.004   1.489  -0.665  1.00  0.00    -0.246 OA
BRANCH   4   6
ATOM      6  C   UNL     1      -0.555   1.609   1.650  1.00  0.00     0.085 A 
ATOM      7  C   UNL     1       0.219   0.898   2.589  1.00  0.00     0.060 A 
ATOM      8  C   UNL     1       0.760   1.615   3.678  1.00  0.00     0.029 A 
ATOM      9  C   UNL     1       0.514   2.980   3.846  1.00  0.00     0.023 A 
ATOM     10  C   UNL     1      -0.758   2.991   1.799  1.00  0.00     0.038 A 
ATOM     11  C   UNL     1      -0.247   3.661   2.905  1.00  0.00     0.042 A 
ATOM     12  Cl  UNL     1      -0.557   5.341   3.101  1.00  0.00    -0.084 Cl
BRANCH   7  13
ATOM     13  N   UNL     1       0.484  -0.505   2.479  1.00  0.00    -0.317 N 
ATOM     14  C   UNL     1       1.916  -0.121   0.393  1.00  0.00     0.065 C 
ATOM     15  C   UNL     1       1.231  -1.027   1.393  1.00  0.00     0.024 A 
ATOM     16  C   UNL     1       1.384  -2.351   1.206  1.00  0.00     0.073 A 
ATOM     17  C   UNL     1       0.764  -3.300   2.147  1.00  0.00     0.182 A 
ATOM     18  C   UNL     1      -0.088  -1.402   3.419  1.00  0.00     0.024 A 
ATOM     19  O   UNL     1       0.856  -4.510   1.983  1.00  0.00    -0.290 OA
ATOM     20  C   UNL     1       0.028  -2.737   3.292  1.00  0.00     0.073 A 
ATOM     21  C   UNL     1      -0.905  -0.884   4.584  1.00  0.00     0.065 C 
ENDBRANCH   7  13
ENDBRANCH   4   6
ENDBRANCH   3   4
ENDBRANCH   2   3
ENDBRANCH   1   2
BRANCH   1  22
ATOM     22  O   UNL     1      -4.235   0.347  -0.698  1.00  0.00    -0.458 OA
BRANCH  22  23
ATOM     23  C   UNL     1      -4.895   0.938   0.322  1.00  0.00     0.338 C 
ATOM     24  O   UNL     1      -5.229   0.451   1.387  1.00  0.00    -0.246 OA
BRANCH  23  25
ATOM     25  C   UNL     1      -5.114   2.352  -0.012  1.00  0.00     0.060 A 
ATOM     26  C   UNL     1      -4.010   3.197  -0.088  1.00  0.00     0.016 A 
ATOM     27  C   UNL     1      -6.403   2.866  -0.115  1.00  0.00     0.016 A 
ATOM     28  C   UNL     1      -4.185   4.574  -0.169  1.00  0.00     0.010 A 
ATOM     29  C   UNL     1      -6.577   4.242  -0.294  1.00  0.00     0.010 A 
ATOM     30  C   UNL     1      -5.472   5.114  -0.281  1.00  0.00    -0.014 A 
BRANCH  30  31
ATOM     31  C   UNL     1      -5.665   6.589  -0.317  1.00  0.00     0.031 A 
ATOM     32  C   UNL     1      -6.474   7.263   0.760  1.00  0.00     0.074 A 
ATOM     33  C   UNL     1      -5.093   7.335  -1.282  1.00  0.00     0.049 A 
ATOM     34  N   UNL     1      -6.916   8.494   0.816  1.00  0.00    -0.248 NA
ATOM     35  C   UNL     1      -6.844   6.440   1.923  1.00  0.00     0.031 C 
ATOM     36  C   UNL     1      -4.224   6.828  -2.345  1.00  0.00     0.029 A 
ATOM     37  N   UNL     1      -5.145   8.688  -1.516  1.00  0.00    -0.354 N 
ATOM     38  C   UNL     1      -7.659   8.576   1.987  1.00  0.00     0.074 A 
ATOM     39  C   UNL     1      -7.612   7.272   2.611  1.00  0.00     0.031 C 
ATOM     40  C   UNL     1      -3.786   7.858  -3.085  1.00  0.00     0.029 A 
ATOM     41  C   UNL     1      -4.414   9.086  -2.608  1.00  0.00     0.049 A 
ATOM     42  H   UNL     1      -5.658   9.312  -0.954  1.00  0.00     0.167 HD
ATOM     43  C   UNL     1      -8.319   9.644   2.494  1.00  0.00     0.037 A 
ATOM     44  C   UNL     1      -4.291  10.295  -3.188  1.00  0.00     0.037 A 
ATOM     45  C   UNL     1      -8.314  10.955   1.900  1.00  0.00     0.049 A 
ATOM     46  C   UNL     1      -5.069  11.455  -2.636  1.00  0.00     0.074 A 
ATOM     47  C   UNL     1      -8.961  12.100   2.331  1.00  0.00     0.029 A 
ATOM     48  N   UNL     1      -7.603  11.301   0.761  1.00  0.00    -0.354 N 
ATOM     49  N   UNL     1      -5.849  11.498  -1.584  1.00  0.00    -0.248 NA
ATOM     50  C   UNL     1      -4.976  12.725  -3.369  1.00  0.00     0.031 C 
ATOM     51  C   UNL     1      -8.662  13.133   1.437  1.00  0.00     0.029 A 
ATOM     52  C   UNL     1      -7.801  12.640   0.471  1.00  0.00     0.049 A 
ATOM     53  H   UNL     1      -7.041  10.685   0.236  1.00  0.00     0.167 HD
ATOM     54  C   UNL     1      -6.338  12.796  -1.526  1.00  0.00     0.074 A 
ATOM     55  C   UNL     1      -5.750  13.516  -2.637  1.00  0.00     0.031 C 
ATOM     56  C   UNL     1      -7.205  13.339  -0.638  1.00  0.00     0.037 A 
BRANCH  43  57
ATOM     57  C   UNL     1      -9.126   9.437   3.740  1.00  0.00     0.057 A 
ATOM     58  C   UNL     1      -8.528   9.302   4.999  1.00  0.00     0.134 A 
ATOM     59  C   UNL     1     -10.526   9.419   3.683  1.00  0.00     0.134 A 
ATOM     60  F   UNL     1      -7.192   9.295   5.119  1.00  0.00    -0.206 F 
ATOM     61  C   UNL     1      -9.294   9.145   6.156  1.00  0.00     0.040 A 
ATOM     62  C   UNL     1     -11.303   9.285   4.835  1.00  0.00     0.040 A 
ATOM     63  F   UNL     1     -11.161   9.547   2.509  1.00  0.00    -0.206 F 
ATOM     64  C   UNL     1     -10.686   9.144   6.076  1.00  0.00     0.006 A 
ENDBRANCH  43  57
BRANCH  44  65
ATOM     65  C   UNL     1      -3.421  10.458  -4.379  1.00  0.00     0.057 A 
ATOM     66  C   UNL     1      -2.223  11.176  -4.302  1.00  0.00     0.134 A 
ATOM     67  C   UNL     1      -3.752   9.884  -5.613  1.00  0.00     0.134 A 
ATOM     68  F   UNL     1      -1.864  11.770  -3.155  1.00  0.00    -0.206 F 
ATOM     69  C   UNL     1      -1.382  11.316  -5.408  1.00  0.00     0.040 A 
ATOM     70  C   UNL     1      -2.909   9.995  -6.720  1.00  0.00     0.040 A 
ATOM     71  F   UNL     1      -4.887   9.185  -5.752  1.00  0.00    -0.206 F 
ATOM     72  C   UNL     1      -1.721  10.715  -6.620  1.00  0.00     0.006 A 
ENDBRANCH  44  65
BRANCH  56  73
ATOM     73  C   UNL     1      -7.561  14.782  -0.821  1.00  0.00     0.057 A 
ATOM     74  C   UNL     1      -8.458  15.194  -1.814  1.00  0.00     0.134 A 
ATOM     75  C   UNL     1      -7.051  15.759   0.042  1.00  0.00     0.134 A 
ATOM     76  F   UNL     1      -8.971  14.306  -2.678  1.00  0.00    -0.206 F 
ATOM     77  C   UNL     1      -8.828  16.533  -1.948  1.00  0.00     0.040 A 
ATOM     78  C   UNL     1      -7.429  17.098  -0.070  1.00  0.00     0.040 A 
ATOM     79  F   UNL     1      -6.194  15.425   1.019  1.00  0.00    -0.206 F 
ATOM     80  C   UNL     1      -8.319  17.487  -1.069  1.00  0.00     0.006 A 
ENDBRANCH  56  73
ENDBRANCH  30  31
ENDBRANCH  23  25
ENDBRANCH  22  23
ENDBRANCH   1  22
TORSDOF 12
