REMARK SMILES CCOC(=O)[C@@]1(C)C/C(=N/c2cccc(C(=O)OCCOC(=O)c3ccc(-c4c5nc(c(-c6c(F)cccc6F)c6ccc([nH]6)c(-c6c(F)cccc6F)c6nc(c(-c7c(F)cccc7F)c7ccc4[nH]7)C=C6)C=C5)cc3)c2)C(=O)N1c1ccccc1
REMARK SMILES IDX 19 1 18 2 16 3 17 4 15 5 11 6 12 7 78 8 13 9 14 10 10 11
REMARK SMILES IDX 6 12 7 13 8 14 81 15 9 16 79 17 80 18 4 19 5 20 3 21 2 22
REMARK SMILES IDX 1 23 82 24 83 25 87 26 84 27 86 28 85 29 20 30 21 31 22 32
REMARK SMILES IDX 23 33 24 34 25 35 77 36 26 37 76 38 27 39 28 40 29 41 70 42
REMARK SMILES IDX 30 43 75 44 69 45 71 46 31 47 74 48 68 49 67 50 32 52 58 53
REMARK SMILES IDX 41 54 57 55 42 56 45 57 56 58 72 59 43 60 44 61 55 63 73 64
REMARK SMILES IDX 46 65 33 66 34 67 39 68 35 69 36 70 38 71 40 72 37 73 59 74
REMARK SMILES IDX 60 75 65 76 61 77 62 78 64 79 66 80 63 81 47 82 48 83 53 84
REMARK SMILES IDX 49 85 50 86 52 87 54 88 51 89
REMARK H PARENT 71 51 45 62
REMARK Flexibility Score: inf
ROOT
ATOM      1  C   UNL     1       6.461   4.287  -8.343  1.00  0.00     0.275 C 
ENDROOT
BRANCH   1   2
ATOM      2  O   UNL     1       5.931   4.949  -7.178  1.00  0.00    -0.458 OA
BRANCH   2   3
ATOM      3  C   UNL     1       6.737   5.886  -6.612  1.00  0.00     0.338 C 
ATOM      4  O   UNL     1       7.889   6.139  -6.928  1.00  0.00    -0.246 OA
BRANCH   3   5
ATOM      5  C   UNL     1       5.997   6.651  -5.578  1.00  0.00     0.062 A 
ATOM      6  C   UNL     1       4.191   6.865  -3.974  1.00  0.00     0.064 A 
ATOM      7  C   UNL     1       4.698   8.101  -3.572  1.00  0.00     0.028 A 
ATOM      8  C   UNL     1       4.813   6.168  -5.016  1.00  0.00     0.044 A 
ATOM      9  C   UNL     1       5.861   8.608  -4.154  1.00  0.00     0.003 A 
ATOM     10  C   UNL     1       6.522   7.873  -5.139  1.00  0.00     0.016 A 
BRANCH   6  11
ATOM     11  N   UNL     1       3.076   6.316  -3.324  1.00  0.00    -0.248 NA
ATOM     12  C   UNL     1       2.737   3.057  -2.158  1.00  0.00     0.148 C 
ATOM     13  C   UNL     1       2.280   2.495  -3.519  1.00  0.00     0.048 C 
ATOM     14  C   UNL     1       2.153   4.486  -2.002  1.00  0.00     0.103 C 
ATOM     15  N   UNL     1       4.212   3.221  -2.108  1.00  0.00    -0.290 N 
ATOM     16  C   UNL     1       3.271   5.276  -2.571  1.00  0.00     0.109 C 
ATOM     17  C   UNL     1       4.562   4.559  -2.261  1.00  0.00     0.273 C 
ATOM     18  O   UNL     1       5.629   5.133  -2.198  1.00  0.00    -0.267 OA
BRANCH  12  19
ATOM     19  C   UNL     1       2.209   2.294  -0.928  1.00  0.00     0.332 C 
ATOM     20  O   UNL     1       2.686   2.386   0.197  1.00  0.00    -0.249 OA
BRANCH  19  21
ATOM     21  O   UNL     1       1.077   1.596  -1.228  1.00  0.00    -0.464 OA
BRANCH  21  22
ATOM     22  C   UNL     1       0.443   0.925  -0.128  1.00  0.00     0.229 C 
ATOM     23  C   UNL     1       0.981  -0.488  -0.013  1.00  0.00     0.049 C 
ENDBRANCH  21  22
ENDBRANCH  19  21
ENDBRANCH  12  19
BRANCH  15  24
ATOM     24  C   UNL     1       5.157   2.153  -1.972  1.00  0.00     0.045 A 
ATOM     25  C   UNL     1       6.524   2.412  -1.775  1.00  0.00     0.026 A 
ATOM     26  C   UNL     1       4.777   0.805  -2.053  1.00  0.00     0.026 A 
ATOM     27  C   UNL     1       7.468   1.381  -1.687  1.00  0.00     0.002 A 
ATOM     28  C   UNL     1       5.721  -0.230  -1.983  1.00  0.00     0.002 A 
ATOM     29  C   UNL     1       7.067   0.058  -1.802  1.00  0.00     0.000 A 
ENDBRANCH  15  24
ENDBRANCH   6  11
ENDBRANCH   3   5
ENDBRANCH   2   3
ENDBRANCH   1   2
BRANCH   1  30
ATOM     30  C   UNL     1       6.030   5.033  -9.605  1.00  0.00     0.275 C 
BRANCH  30  31
ATOM     31  O   UNL     1       6.564   6.361  -9.540  1.00  0.00    -0.458 OA
BRANCH  31  32
ATOM     32  C   UNL     1       6.387   7.139 -10.629  1.00  0.00     0.338 C 
ATOM     33  O   UNL     1       5.857   6.813 -11.676  1.00  0.00    -0.246 OA
BRANCH  32  34
ATOM     34  C   UNL     1       6.994   8.467 -10.359  1.00  0.00     0.060 A 
ATOM     35  C   UNL     1       7.115   8.963  -9.053  1.00  0.00     0.016 A 
ATOM     36  C   UNL     1       7.451   9.231 -11.436  1.00  0.00     0.016 A 
ATOM     37  C   UNL     1       7.704  10.205  -8.821  1.00  0.00     0.010 A 
ATOM     38  C   UNL     1       8.059  10.468 -11.203  1.00  0.00     0.010 A 
ATOM     39  C   UNL     1       8.189  10.962  -9.895  1.00  0.00    -0.014 A 
BRANCH  39  40
ATOM     40  C   UNL     1       8.806  12.287  -9.660  1.00  0.00     0.031 A 
ATOM     41  C   UNL     1       8.043  13.533  -9.993  1.00  0.00     0.074 A 
ATOM     42  C   UNL     1      10.045  12.377  -9.143  1.00  0.00     0.049 A 
ATOM     43  N   UNL     1       8.457  14.773 -10.018  1.00  0.00    -0.248 NA
ATOM     44  C   UNL     1       6.625  13.360 -10.344  1.00  0.00     0.031 C 
ATOM     45  C   UNL     1      10.875  11.248  -8.722  1.00  0.00     0.029 A 
ATOM     46  N   UNL     1      10.817  13.479  -8.880  1.00  0.00    -0.354 N 
ATOM     47  C   UNL     1       7.367  15.524 -10.430  1.00  0.00     0.074 A 
ATOM     48  C   UNL     1       6.263  14.606 -10.618  1.00  0.00     0.031 C 
ATOM     49  C   UNL     1      12.034  11.718  -8.231  1.00  0.00     0.029 A 
ATOM     50  C   UNL     1      12.043  13.174  -8.344  1.00  0.00     0.049 A 
ATOM     51  H   UNL     1      10.520  14.401  -9.057  1.00  0.00     0.167 HD
ATOM     52  C   UNL     1       7.298  16.858 -10.649  1.00  0.00     0.037 A 
ATOM     53  C   UNL     1      13.065  13.980  -8.003  1.00  0.00     0.037 A 
ATOM     54  C   UNL     1       8.384  17.777 -10.445  1.00  0.00     0.049 A 
ATOM     55  C   UNL     1      12.963  15.457  -8.246  1.00  0.00     0.074 A 
ATOM     56  C   UNL     1       8.432  19.135 -10.709  1.00  0.00     0.029 A 
ATOM     57  N   UNL     1       9.610  17.430  -9.902  1.00  0.00    -0.354 N 
ATOM     58  N   UNL     1      11.966  16.143  -8.746  1.00  0.00    -0.248 NA
ATOM     59  C   UNL     1      14.141  16.267  -7.901  1.00  0.00     0.031 C 
ATOM     60  C   UNL     1       9.690  19.612 -10.320  1.00  0.00     0.029 A 
ATOM     61  C   UNL     1      10.418  18.550  -9.807  1.00  0.00     0.049 A 
ATOM     62  H   UNL     1       9.869  16.521  -9.626  1.00  0.00     0.167 HD
ATOM     63  C   UNL     1      12.399  17.461  -8.793  1.00  0.00     0.074 A 
ATOM     64  C   UNL     1      13.741  17.484  -8.247  1.00  0.00     0.031 C 
ATOM     65  C   UNL     1      11.748  18.551  -9.263  1.00  0.00     0.037 A 
BRANCH  52  66
ATOM     66  C   UNL     1       6.004  17.387 -11.175  1.00  0.00     0.057 A 
ATOM     67  C   UNL     1       4.945  17.713 -10.322  1.00  0.00     0.134 A 
ATOM     68  C   UNL     1       5.819  17.573 -12.550  1.00  0.00     0.134 A 
ATOM     69  F   UNL     1       5.061  17.536  -8.997  1.00  0.00    -0.206 F 
ATOM     70  C   UNL     1       3.737  18.200 -10.822  1.00  0.00     0.040 A 
ATOM     71  C   UNL     1       4.619  18.066 -13.061  1.00  0.00     0.040 A 
ATOM     72  F   UNL     1       6.799  17.269 -13.415  1.00  0.00    -0.206 F 
ATOM     73  C   UNL     1       3.573  18.380 -12.195  1.00  0.00     0.006 A 
ENDBRANCH  52  66
BRANCH  53  74
ATOM     74  C   UNL     1      14.292  13.402  -7.413  1.00  0.00     0.057 A 
ATOM     75  C   UNL     1      14.513  13.452  -6.034  1.00  0.00     0.134 A 
ATOM     76  C   UNL     1      15.269  12.797  -8.210  1.00  0.00     0.134 A 
ATOM     77  F   UNL     1      13.617  14.039  -5.228  1.00  0.00    -0.206 F 
ATOM     78  C   UNL     1      15.669  12.920  -5.463  1.00  0.00     0.040 A 
ATOM     79  C   UNL     1      16.426  12.253  -7.652  1.00  0.00     0.040 A 
ATOM     80  F   UNL     1      15.111  12.729  -9.540  1.00  0.00    -0.206 F 
ATOM     81  C   UNL     1      16.629  12.315  -6.274  1.00  0.00     0.006 A 
ENDBRANCH  53  74
BRANCH  65  82
ATOM     82  C   UNL     1      12.484  19.851  -9.215  1.00  0.00     0.057 A 
ATOM     83  C   UNL     1      13.362  20.221 -10.240  1.00  0.00     0.134 A 
ATOM     84  C   UNL     1      12.295  20.747  -8.158  1.00  0.00     0.134 A 
ATOM     85  F   UNL     1      13.588  19.395 -11.272  1.00  0.00    -0.206 F 
ATOM     86  C   UNL     1      14.033  21.444 -10.213  1.00  0.00     0.040 A 
ATOM     87  C   UNL     1      12.957  21.974  -8.122  1.00  0.00     0.040 A 
ATOM     88  F   UNL     1      11.470  20.441  -7.146  1.00  0.00    -0.206 F 
ATOM     89  C   UNL     1      13.828  22.326  -9.152  1.00  0.00     0.006 A 
ENDBRANCH  65  82
ENDBRANCH  39  40
ENDBRANCH  32  34
ENDBRANCH  31  32
ENDBRANCH  30  31
ENDBRANCH   1  30
TORSDOF 16
