REMARK SMILES C[C@@H]1CN(S(=O)(=O)N[C@H](C(=O)OCCOC(=O)c2ccc(-c3c4nc(c(-c5c(F)cccc5F)c5ccc([nH]5)c(-c5c(F)cccc5F)c5nc(c(-c6c(F)cccc6F)c6ccc3[nH]6)C=C5)C=C4)cc2)[C@@H](C)O)C[C@@H](C)O1
REMARK SMILES IDX 13 1 12 2 10 3 11 4 9 5 8 6 5 8 6 9 7 10 4 11 1 12 2 13 3 14
REMARK SMILES IDX 78 15 76 16 75 17 77 18 72 19 73 20 74 21 14 23 15 24 16 25
REMARK SMILES IDX 17 26 18 27 19 28 71 29 20 30 70 31 21 32 22 33 23 34 64 35
REMARK SMILES IDX 24 36 69 37 63 38 65 39 25 40 68 41 62 42 61 43 26 45 52 46
REMARK SMILES IDX 35 47 51 48 36 49 39 50 50 51 66 52 37 53 38 54 49 56 67 57
REMARK SMILES IDX 40 58 27 59 28 60 33 61 29 62 30 63 32 64 34 65 31 66 53 67
REMARK SMILES IDX 54 68 59 69 55 70 56 71 58 72 60 73 57 74 41 75 42 76 47 77
REMARK SMILES IDX 43 78 44 79 46 80 48 81 45 82
REMARK H PARENT 8 7 74 22 65 44 39 55
REMARK Flexibility Score: inf
ROOT
ATOM      1  C   UNL     1       0.812  -4.186  -5.979  1.00  0.00     0.274 C 
ENDROOT
BRANCH   1   2
ATOM      2  O   UNL     1       0.783  -4.978  -4.774  1.00  0.00    -0.461 OA
BRANCH   2   3
ATOM      3  C   UNL     1       1.553  -4.491  -3.772  1.00  0.00     0.327 C 
ATOM      4  O   UNL     1       2.246  -3.479  -3.864  1.00  0.00    -0.250 OA
BRANCH   3   5
ATOM      5  C   UNL     1       1.501  -5.291  -2.488  1.00  0.00     0.208 C 
BRANCH   5   6
ATOM      6  N   UNL     1       0.129  -5.747  -2.050  1.00  0.00    -0.185 NA
ATOM      7  H   UNL     1       0.096  -5.588  -1.044  1.00  0.00     0.143 HD
BRANCH   6   8
ATOM      8  S   UNL     1      -0.477  -7.282  -2.280  1.00  0.00     0.280 S 
ATOM      9  O   UNL     1       0.345  -7.966  -3.242  1.00  0.00    -0.195 OA
ATOM     10  O   UNL     1      -1.901  -7.134  -2.485  1.00  0.00    -0.195 OA
BRANCH   8  11
ATOM     11  N   UNL     1      -0.286  -8.014  -0.733  1.00  0.00    -0.184 NA
ATOM     12  C   UNL     1       1.223  -8.172   2.359  1.00  0.00     0.040 C 
ATOM     13  C   UNL     1       1.512  -8.742   0.977  1.00  0.00     0.130 C 
ATOM     14  C   UNL     1       1.086  -7.866  -0.198  1.00  0.00     0.135 C 
ATOM     15  O   UNL     1       1.061 -10.087   0.856  1.00  0.00    -0.373 OA
ATOM     16  C   UNL     1      -0.341 -10.172   0.569  1.00  0.00     0.130 C 
ATOM     17  C   UNL     1      -0.694  -9.464  -0.754  1.00  0.00     0.135 C 
ATOM     18  C   UNL     1      -0.644 -11.663   0.503  1.00  0.00     0.040 C 
ENDBRANCH   8  11
ENDBRANCH   6   8
ENDBRANCH   5   6
BRANCH   5  19
ATOM     19  C   UNL     1       2.735  -6.218  -2.366  1.00  0.00     0.140 C 
ATOM     20  C   UNL     1       3.996  -5.724  -3.077  1.00  0.00     0.040 C 
BRANCH  19  21
ATOM     21  O   UNL     1       3.154  -6.323  -0.988  1.00  0.00    -0.391 OA
ATOM     22  H   UNL     1       3.445  -5.453  -0.671  1.00  0.00     0.211 HD
ENDBRANCH  19  21
ENDBRANCH   5  19
ENDBRANCH   3   5
ENDBRANCH   2   3
ENDBRANCH   1   2
BRANCH   1  23
ATOM     23  C   UNL     1      -0.293  -3.118  -6.017  1.00  0.00     0.275 C 
BRANCH  23  24
ATOM     24  O   UNL     1      -0.153  -2.093  -5.010  1.00  0.00    -0.458 OA
BRANCH  24  25
ATOM     25  C   UNL     1      -0.668  -2.400  -3.796  1.00  0.00     0.338 C 
ATOM     26  O   UNL     1      -1.204  -3.449  -3.468  1.00  0.00    -0.246 OA
BRANCH  25  27
ATOM     27  C   UNL     1      -0.320  -1.371  -2.800  1.00  0.00     0.060 A 
ATOM     28  C   UNL     1       0.330  -1.805  -1.642  1.00  0.00     0.016 A 
ATOM     29  C   UNL     1      -0.703  -0.038  -2.929  1.00  0.00     0.016 A 
ATOM     30  C   UNL     1       0.604  -0.927  -0.605  1.00  0.00     0.010 A 
ATOM     31  C   UNL     1      -0.433   0.852  -1.880  1.00  0.00     0.010 A 
ATOM     32  C   UNL     1       0.213   0.409  -0.710  1.00  0.00    -0.014 A 
BRANCH  32  33
ATOM     33  C   UNL     1       0.424   1.306   0.448  1.00  0.00     0.031 A 
ATOM     34  C   UNL     1      -0.752   1.745   1.270  1.00  0.00     0.074 A 
ATOM     35  C   UNL     1       1.671   1.680   0.788  1.00  0.00     0.049 A 
ATOM     36  N   UNL     1      -0.795   2.590   2.267  1.00  0.00    -0.248 NA
ATOM     37  C   UNL     1      -2.054   1.154   0.922  1.00  0.00     0.031 C 
ATOM     38  C   UNL     1       2.895   1.256   0.107  1.00  0.00     0.029 A 
ATOM     39  N   UNL     1       2.114   2.503   1.792  1.00  0.00    -0.354 N 
ATOM     40  C   UNL     1      -2.130   2.654   2.648  1.00  0.00     0.074 A 
ATOM     41  C   UNL     1      -2.866   1.778   1.763  1.00  0.00     0.031 C 
ATOM     42  C   UNL     1       3.950   1.827   0.709  1.00  0.00     0.029 A 
ATOM     43  C   UNL     1       3.473   2.700   1.777  1.00  0.00     0.049 A 
ATOM     44  H   UNL     1       1.516   2.913   2.458  1.00  0.00     0.167 HD
ATOM     45  C   UNL     1      -2.684   3.379   3.648  1.00  0.00     0.037 A 
ATOM     46  C   UNL     1       4.240   3.523   2.516  1.00  0.00     0.037 A 
ATOM     47  C   UNL     1      -1.937   4.241   4.528  1.00  0.00     0.049 A 
ATOM     48  C   UNL     1       3.587   4.383   3.563  1.00  0.00     0.074 A 
ATOM     49  C   UNL     1      -2.402   5.013   5.578  1.00  0.00     0.029 A 
ATOM     50  N   UNL     1      -0.567   4.447   4.457  1.00  0.00    -0.354 N 
ATOM     51  N   UNL     1       2.325   4.446   3.913  1.00  0.00    -0.248 NA
ATOM     52  C   UNL     1       4.465   5.289   4.317  1.00  0.00     0.031 C 
ATOM     53  C   UNL     1      -1.323   5.732   6.103  1.00  0.00     0.029 A 
ATOM     54  C   UNL     1      -0.174   5.357   5.425  1.00  0.00     0.049 A 
ATOM     55  H   UNL     1       0.037   4.012   3.813  1.00  0.00     0.167 HD
ATOM     56  C   UNL     1       2.261   5.371   4.947  1.00  0.00     0.074 A 
ATOM     57  C   UNL     1       3.615   5.833   5.175  1.00  0.00     0.031 C 
ATOM     58  C   UNL     1       1.181   5.799   5.646  1.00  0.00     0.037 A 
BRANCH  45  59
ATOM     59  C   UNL     1      -4.175   3.306   3.815  1.00  0.00     0.057 A 
ATOM     60  C   UNL     1      -4.819   2.153   4.284  1.00  0.00     0.134 A 
ATOM     61  C   UNL     1      -4.976   4.419   3.527  1.00  0.00     0.134 A 
ATOM     62  F   UNL     1      -4.114   1.047   4.566  1.00  0.00    -0.206 F 
ATOM     63  C   UNL     1      -6.207   2.102   4.435  1.00  0.00     0.040 A 
ATOM     64  C   UNL     1      -6.361   4.390   3.702  1.00  0.00     0.040 A 
ATOM     65  F   UNL     1      -4.426   5.557   3.078  1.00  0.00    -0.206 F 
ATOM     66  C   UNL     1      -6.981   3.226   4.150  1.00  0.00     0.006 A 
ENDBRANCH  45  59
BRANCH  46  67
ATOM     67  C   UNL     1       5.703   3.599   2.271  1.00  0.00     0.057 A 
ATOM     68  C   UNL     1       6.624   3.164   3.230  1.00  0.00     0.134 A 
ATOM     69  C   UNL     1       6.217   4.125   1.078  1.00  0.00     0.134 A 
ATOM     70  F   UNL     1       6.197   2.670   4.401  1.00  0.00    -0.206 F 
ATOM     71  C   UNL     1       8.001   3.268   3.022  1.00  0.00     0.040 A 
ATOM     72  C   UNL     1       7.590   4.206   0.844  1.00  0.00     0.040 A 
ATOM     73  F   UNL     1       5.388   4.556   0.115  1.00  0.00    -0.206 F 
ATOM     74  C   UNL     1       8.487   3.785   1.823  1.00  0.00     0.006 A 
ENDBRANCH  46  67
BRANCH  58  75
ATOM     75  C   UNL     1       1.424   6.780   6.757  1.00  0.00     0.057 A 
ATOM     76  C   UNL     1       1.793   8.108   6.512  1.00  0.00     0.134 A 
ATOM     77  C   UNL     1       1.250   6.394   8.093  1.00  0.00     0.134 A 
ATOM     78  F   UNL     1       1.990   8.539   5.256  1.00  0.00    -0.206 F 
ATOM     79  C   UNL     1       2.004   9.011   7.556  1.00  0.00     0.040 A 
ATOM     80  C   UNL     1       1.426   7.296   9.143  1.00  0.00     0.040 A 
ATOM     81  F   UNL     1       0.888   5.139   8.399  1.00  0.00    -0.206 F 
ATOM     82  C   UNL     1       1.813   8.607   8.876  1.00  0.00     0.006 A 
ENDBRANCH  58  75
ENDBRANCH  32  33
ENDBRANCH  25  27
ENDBRANCH  24  25
ENDBRANCH  23  24
ENDBRANCH   1  23
TORSDOF 16
