REMARK SMILES C/C(=C\C(=O)c1c(O)n(C)c2ccccc2c1=O)Nc1ccc(C(=O)OCCOC(=O)c2ccc(-c3c4nc(c(-c5c(F)cccc5F)c5ccc([nH]5)c(-c5c(F)cccc5F)c5nc(c(-c6c(F)cccc6F)c6ccc3[nH]6)C=C5)C=C4)cc2)cc1
REMARK SMILES IDX 26 1 24 2 25 3 23 4 20 5 21 6 87 7 22 8 86 9 19 10 2 12 1 13
REMARK SMILES IDX 3 14 4 15 5 16 6 17 7 18 17 19 9 20 16 21 18 22 10 23 11 24
REMARK SMILES IDX 15 25 12 26 14 27 13 28 8 29 27 31 28 32 29 33 30 34 31 35
REMARK SMILES IDX 32 36 33 37 85 38 34 39 84 40 35 41 36 42 37 43 78 44 38 45
REMARK SMILES IDX 83 46 77 47 79 48 39 49 82 50 76 51 75 52 40 54 66 55 49 56
REMARK SMILES IDX 65 57 50 58 53 59 64 60 80 61 51 62 52 63 63 65 81 66 54 67
REMARK SMILES IDX 41 68 42 69 47 70 43 71 44 72 46 73 48 74 45 75 67 76 68 77
REMARK SMILES IDX 73 78 69 79 70 80 72 81 74 82 71 83 55 84 56 85 61 86 57 87
REMARK SMILES IDX 58 88 60 89 62 90 59 91
REMARK H PARENT 19 11 8 30 79 53 53 64
REMARK Flexibility Score: inf
ROOT
ATOM      1  O   UNL     1       3.342  -1.297  -6.360  1.00  0.00    -0.458 OA
ENDROOT
BRANCH   1   2
ATOM      2  C   UNL     1       4.134  -1.600  -5.304  1.00  0.00     0.338 C 
ATOM      3  O   UNL     1       5.344  -1.435  -5.242  1.00  0.00    -0.246 OA
BRANCH   2   4
ATOM      4  C   UNL     1       3.326  -2.062  -4.144  1.00  0.00     0.060 A 
ATOM      5  C   UNL     1       1.841  -2.595  -1.806  1.00  0.00     0.038 A 
ATOM      6  C   UNL     1       3.225  -2.409  -1.745  1.00  0.00     0.027 A 
ATOM      7  C   UNL     1       1.222  -2.596  -3.063  1.00  0.00     0.027 A 
ATOM      8  C   UNL     1       3.964  -2.146  -2.900  1.00  0.00     0.018 A 
ATOM      9  C   UNL     1       1.955  -2.328  -4.227  1.00  0.00     0.018 A 
BRANCH   5  10
ATOM     10  N   UNL     1       1.053  -2.671  -0.642  1.00  0.00    -0.359 N 
ATOM     11  H   UNL     1       0.615  -3.534  -0.460  1.00  0.00     0.166 HD
BRANCH  10  12
ATOM     12  C   UNL     1       0.829  -1.644   0.287  1.00  0.00     0.016 C 
ATOM     13  C   UNL     1       1.734  -0.430   0.225  1.00  0.00     0.064 C 
ATOM     14  C   UNL     1      -0.198  -1.758   1.160  1.00  0.00     0.074 C 
BRANCH  14  15
ATOM     15  C   UNL     1      -0.818  -0.805   2.139  1.00  0.00     0.196 C 
ATOM     16  O   UNL     1      -1.638  -1.241   2.945  1.00  0.00    -0.289 OA
BRANCH  15  17
ATOM     17  C   UNL     1      -0.585   0.649   2.012  1.00  0.00     0.130 A 
ATOM     18  C   UNL     1      -0.880   1.315   0.877  1.00  0.00     0.206 A 
ATOM     19  C   UNL     1       0.052   1.396   3.123  1.00  0.00     0.204 A 
ATOM     20  N   UNL     1      -0.507   2.634   0.644  1.00  0.00    -0.315 N 
ATOM     21  C   UNL     1       0.232   2.855   2.957  1.00  0.00     0.047 A 
ATOM     22  O   UNL     1       0.442   0.831   4.140  1.00  0.00    -0.288 OA
ATOM     23  C   UNL     1      -0.478   3.206  -0.706  1.00  0.00     0.153 C 
ATOM     24  C   UNL     1      -0.032   3.439   1.704  1.00  0.00     0.055 A 
ATOM     25  C   UNL     1       0.696   3.615   4.042  1.00  0.00     0.014 A 
ATOM     26  C   UNL     1       0.181   4.822   1.585  1.00  0.00     0.027 A 
ATOM     27  C   UNL     1       0.897   4.984   3.892  1.00  0.00     0.001 A 
ATOM     28  C   UNL     1       0.637   5.585   2.665  1.00  0.00     0.002 A 
BRANCH  18  29
ATOM     29  O   UNL     1      -1.558   0.714  -0.170  1.00  0.00    -0.494 OA
ATOM     30  H   UNL     1      -1.845  -0.175  -0.093  1.00  0.00     0.295 HD
ENDBRANCH  18  29
ENDBRANCH  15  17
ENDBRANCH  14  15
ENDBRANCH  10  12
ENDBRANCH   5  10
ENDBRANCH   2   4
ENDBRANCH   1   2
BRANCH   1  31
ATOM     31  C   UNL     1       3.978  -0.617  -7.458  1.00  0.00     0.275 C 
BRANCH  31  32
ATOM     32  C   UNL     1       3.592   0.865  -7.481  1.00  0.00     0.275 C 
BRANCH  32  33
ATOM     33  O   UNL     1       4.158   1.585  -6.368  1.00  0.00    -0.458 OA
BRANCH  33  34
ATOM     34  C   UNL     1       3.364   1.688  -5.275  1.00  0.00     0.338 C 
ATOM     35  O   UNL     1       2.230   1.262  -5.143  1.00  0.00    -0.246 OA
BRANCH  34  36
ATOM     36  C   UNL     1       4.116   2.323  -4.175  1.00  0.00     0.060 A 
ATOM     37  C   UNL     1       4.745   3.560  -4.339  1.00  0.00     0.016 A 
ATOM     38  C   UNL     1       4.140   1.679  -2.934  1.00  0.00     0.016 A 
ATOM     39  C   UNL     1       5.423   4.136  -3.258  1.00  0.00     0.010 A 
ATOM     40  C   UNL     1       4.814   2.257  -1.857  1.00  0.00     0.010 A 
ATOM     41  C   UNL     1       5.470   3.487  -2.010  1.00  0.00    -0.014 A 
BRANCH  41  42
ATOM     42  C   UNL     1       6.184   4.109  -0.865  1.00  0.00     0.031 A 
ATOM     43  C   UNL     1       7.490   3.549  -0.373  1.00  0.00     0.074 A 
ATOM     44  C   UNL     1       5.644   5.177  -0.248  1.00  0.00     0.049 A 
ATOM     45  N   UNL     1       8.293   4.014   0.553  1.00  0.00    -0.248 NA
ATOM     46  C   UNL     1       7.945   2.293  -0.986  1.00  0.00     0.031 C 
ATOM     47  C   UNL     1       4.348   5.775  -0.572  1.00  0.00     0.029 A 
ATOM     48  N   UNL     1       6.124   5.954   0.777  1.00  0.00    -0.354 N 
ATOM     49  C   UNL     1       9.347   3.113   0.631  1.00  0.00     0.074 A 
ATOM     50  C   UNL     1       9.055   2.046  -0.304  1.00  0.00     0.031 C 
ATOM     51  C   UNL     1       4.154   6.849   0.212  1.00  0.00     0.029 A 
ATOM     52  C   UNL     1       5.305   7.008   1.097  1.00  0.00     0.049 A 
ATOM     53  H   UNL     1       6.974   5.772   1.238  1.00  0.00     0.167 HD
ATOM     54  C   UNL     1      10.467   3.177   1.394  1.00  0.00     0.037 A 
ATOM     55  C   UNL     1       5.475   8.004   1.986  1.00  0.00     0.037 A 
ATOM     56  C   UNL     1      10.762   4.237   2.325  1.00  0.00     0.049 A 
ATOM     57  C   UNL     1       6.735   8.069   2.800  1.00  0.00     0.074 A 
ATOM     58  C   UNL     1      11.894   4.417   3.102  1.00  0.00     0.029 A 
ATOM     59  N   UNL     1       9.911   5.293   2.613  1.00  0.00    -0.354 N 
ATOM     60  N   UNL     1       7.765   7.260   2.798  1.00  0.00    -0.248 NA
ATOM     61  C   UNL     1       6.857   9.200   3.732  1.00  0.00     0.031 C 
ATOM     62  C   UNL     1      11.716   5.566   3.882  1.00  0.00     0.029 A 
ATOM     63  C   UNL     1      10.489   6.123   3.562  1.00  0.00     0.049 A 
ATOM     64  H   UNL     1       9.027   5.434   2.203  1.00  0.00     0.167 HD
ATOM     65  C   UNL     1       8.668   7.795   3.708  1.00  0.00     0.074 A 
ATOM     66  C   UNL     1       8.070   9.007   4.229  1.00  0.00     0.031 C 
ATOM     67  C   UNL     1       9.884   7.324   4.077  1.00  0.00     0.037 A 
BRANCH  54  68
ATOM     68  C   UNL     1      11.468   2.068   1.239  1.00  0.00     0.057 A 
ATOM     69  C   UNL     1      11.681   1.140   2.266  1.00  0.00     0.134 A 
ATOM     70  C   UNL     1      12.245   1.938   0.080  1.00  0.00     0.134 A 
ATOM     71  F   UNL     1      10.981   1.212   3.407  1.00  0.00    -0.206 F 
ATOM     72  C   UNL     1      12.626   0.119   2.142  1.00  0.00     0.040 A 
ATOM     73  C   UNL     1      13.174   0.907  -0.066  1.00  0.00     0.040 A 
ATOM     74  F   UNL     1      12.086   2.791  -0.944  1.00  0.00    -0.206 F 
ATOM     75  C   UNL     1      13.370  -0.004   0.970  1.00  0.00     0.006 A 
ENDBRANCH  54  68
BRANCH  55  76
ATOM     76  C   UNL     1       4.446   9.062   2.121  1.00  0.00     0.057 A 
ATOM     77  C   UNL     1       3.240   8.823   2.787  1.00  0.00     0.134 A 
ATOM     78  C   UNL     1       4.662  10.347   1.610  1.00  0.00     0.134 A 
ATOM     79  F   UNL     1       2.988   7.617   3.312  1.00  0.00    -0.206 F 
ATOM     80  C   UNL     1       2.275   9.821   2.929  1.00  0.00     0.040 A 
ATOM     81  C   UNL     1       3.717  11.362   1.766  1.00  0.00     0.040 A 
ATOM     82  F   UNL     1       5.814  10.642   0.990  1.00  0.00    -0.206 F 
ATOM     83  C   UNL     1       2.516  11.097   2.422  1.00  0.00     0.006 A 
ENDBRANCH  55  76
BRANCH  67  84
ATOM     84  C   UNL     1      10.655   8.144   5.070  1.00  0.00     0.057 A 
ATOM     85  C   UNL     1      11.776   8.880   4.669  1.00  0.00     0.134 A 
ATOM     86  C   UNL     1      10.286   8.210   6.420  1.00  0.00     0.134 A 
ATOM     87  F   UNL     1      12.186   8.857   3.392  1.00  0.00    -0.206 F 
ATOM     88  C   UNL     1      12.499   9.660   5.573  1.00  0.00     0.040 A 
ATOM     89  C   UNL     1      10.986   9.005   7.329  1.00  0.00     0.040 A 
ATOM     90  F   UNL     1       9.210   7.542   6.864  1.00  0.00    -0.206 F 
ATOM     91  C   UNL     1      12.098   9.731   6.906  1.00  0.00     0.006 A 
ENDBRANCH  67  84
ENDBRANCH  41  42
ENDBRANCH  34  36
ENDBRANCH  33  34
ENDBRANCH  32  33
ENDBRANCH  31  32
ENDBRANCH   1  31
TORSDOF 16
