REMARK SMILES O=C(OCCOC(=O)[C@@H](Cc1c[nH]c2ccccc12)Nc1ncnc2ccccc12)c1ccc(-c2c3nc(c(-c4c(F)cccc4F)c4ccc([nH]4)c(-c4c(F)cccc4F)c4nc(c(-c5c(F)cccc5F)c5ccc2[nH]5)C=C4)C=C3)cc1
REMARK SMILES IDX 4 1 3 2 2 3 1 4 31 5 32 6 84 7 33 8 83 9 34 10 35 11 36 12
REMARK SMILES IDX 77 13 37 14 82 15 76 16 78 17 38 18 81 19 75 20 74 21 39 23
REMARK SMILES IDX 65 24 48 25 64 26 49 27 52 28 63 29 79 30 50 31 51 32 62 34
REMARK SMILES IDX 80 35 53 36 40 37 41 38 46 39 42 40 43 41 45 42 47 43 44 44
REMARK SMILES IDX 66 45 67 46 72 47 68 48 69 49 71 50 73 51 70 52 54 53 55 54
REMARK SMILES IDX 60 55 56 56 57 57 59 58 61 59 58 60 5 61 6 62 7 63 8 64 9 65
REMARK SMILES IDX 10 66 11 67 12 68 19 69 13 70 14 71 18 72 15 74 17 75 16 76
REMARK SMILES IDX 20 77 21 79 22 80 30 81 23 82 25 83 29 84 24 85 26 86 28 87
REMARK SMILES IDX 27 88
REMARK H PARENT 78 22 52 33 13 73 20 78
REMARK Flexibility Score: inf
ROOT
ATOM      1  C   UNL     1       3.941  -2.089   0.435  1.00  0.00     0.275 C 
ENDROOT
BRANCH   1   2
ATOM      2  O   UNL     1       3.098  -1.244   1.200  1.00  0.00    -0.458 OA
BRANCH   2   3
ATOM      3  C   UNL     1       2.635  -0.150   0.590  1.00  0.00     0.338 C 
ATOM      4  O   UNL     1       1.481   0.239   0.749  1.00  0.00    -0.246 OA
BRANCH   3   5
ATOM      5  C   UNL     1       3.547   0.744  -0.180  1.00  0.00     0.060 A 
ATOM      6  C   UNL     1       4.248   0.626  -1.903  1.00  0.00     0.016 A 
ATOM      7  C   UNL     1       3.189   2.368   0.493  1.00  0.00     0.016 A 
ATOM      8  C   UNL     1       4.643   2.163  -2.830  1.00  0.00     0.010 A 
ATOM      9  C   UNL     1       3.431   3.822  -0.512  1.00  0.00     0.010 A 
ATOM     10  C   UNL     1       4.261   3.777  -2.095  1.00  0.00    -0.014 A 
BRANCH  10  11
ATOM     11  C   UNL     1       4.720   5.074  -2.704  1.00  0.00     0.031 A 
ATOM     12  C   UNL     1       5.338   6.193  -1.863  1.00  0.00     0.074 A 
ATOM     13  C   UNL     1       4.691   5.200  -4.043  1.00  0.00     0.049 A 
ATOM     14  N   UNL     1       6.174   7.143  -2.224  1.00  0.00    -0.248 NA
ATOM     15  C   UNL     1       5.031   6.266  -0.429  1.00  0.00     0.031 C 
ATOM     16  C   UNL     1       4.071   4.250  -4.965  1.00  0.00     0.029 A 
ATOM     17  N   UNL     1       5.215   6.160  -4.871  1.00  0.00    -0.354 N 
ATOM     18  C   UNL     1       6.539   7.812  -1.052  1.00  0.00     0.074 A 
ATOM     19  C   UNL     1       5.857   7.181   0.034  1.00  0.00     0.031 C 
ATOM     20  C   UNL     1       4.355   4.599  -6.225  1.00  0.00     0.029 A 
ATOM     21  C   UNL     1       5.068   5.868  -6.208  1.00  0.00     0.049 A 
ATOM     22  H   UNL     1       5.653   6.977  -4.542  1.00  0.00     0.167 HD
ATOM     23  C   UNL     1       7.288   8.923  -0.864  1.00  0.00     0.037 A 
ATOM     24  C   UNL     1       5.433   6.565  -7.300  1.00  0.00     0.037 A 
ATOM     25  C   UNL     1       7.677   9.765  -1.950  1.00  0.00     0.049 A 
ATOM     26  C   UNL     1       6.131   7.876  -7.087  1.00  0.00     0.074 A 
ATOM     27  C   UNL     1       8.259  11.016  -1.912  1.00  0.00     0.029 A 
ATOM     28  N   UNL     1       7.406   9.473  -3.280  1.00  0.00    -0.354 N 
ATOM     29  N   UNL     1       6.522   8.425  -5.960  1.00  0.00    -0.248 NA
ATOM     30  C   UNL     1       6.408   8.681  -8.280  1.00  0.00     0.031 C 
ATOM     31  C   UNL     1       8.244  11.524  -3.215  1.00  0.00     0.029 A 
ATOM     32  C   UNL     1       7.754  10.546  -4.072  1.00  0.00     0.049 A 
ATOM     33  H   UNL     1       7.022   8.628  -3.607  1.00  0.00     0.167 HD
ATOM     34  C   UNL     1       7.094   9.640  -6.305  1.00  0.00     0.074 A 
ATOM     35  C   UNL     1       7.011   9.738  -7.751  1.00  0.00     0.031 C 
ATOM     36  C   UNL     1       7.637  10.592  -5.507  1.00  0.00     0.037 A 
BRANCH  23  37
ATOM     37  C   UNL     1       7.524   9.348   0.565  1.00  0.00     0.057 A 
ATOM     38  C   UNL     1       8.352   8.609   1.426  1.00  0.00     0.134 A 
ATOM     39  C   UNL     1       6.820  10.423   1.125  1.00  0.00     0.134 A 
ATOM     40  F   UNL     1       9.017   7.534   0.973  1.00  0.00    -0.206 F 
ATOM     41  C   UNL     1       8.448   8.907   2.790  1.00  0.00     0.040 A 
ATOM     42  C   UNL     1       6.923  10.741   2.482  1.00  0.00     0.040 A 
ATOM     43  F   UNL     1       5.982  11.152   0.374  1.00  0.00    -0.206 F 
ATOM     44  C   UNL     1       7.730   9.976   3.321  1.00  0.00     0.006 A 
ENDBRANCH  23  37
BRANCH  24  45
ATOM     45  C   UNL     1       5.080   6.048  -8.651  1.00  0.00     0.057 A 
ATOM     46  C   UNL     1       6.052   5.639  -9.570  1.00  0.00     0.134 A 
ATOM     47  C   UNL     1       3.737   5.878  -9.026  1.00  0.00     0.134 A 
ATOM     48  F   UNL     1       7.354   5.793  -9.292  1.00  0.00    -0.206 F 
ATOM     49  C   UNL     1       5.704   5.064 -10.798  1.00  0.00     0.040 A 
ATOM     50  C   UNL     1       3.376   5.271 -10.229  1.00  0.00     0.040 A 
ATOM     51  F   UNL     1       2.752   6.252  -8.196  1.00  0.00    -0.206 F 
ATOM     52  C   UNL     1       4.362   4.863 -11.121  1.00  0.00     0.006 A 
ENDBRANCH  24  45
BRANCH  36  53
ATOM     53  C   UNL     1       8.214  11.797  -6.177  1.00  0.00     0.057 A 
ATOM     54  C   UNL     1       7.408  12.799  -6.725  1.00  0.00     0.134 A 
ATOM     55  C   UNL     1       9.601  11.993  -6.174  1.00  0.00     0.134 A 
ATOM     56  F   UNL     1       6.074  12.663  -6.753  1.00  0.00    -0.206 F 
ATOM     57  C   UNL     1       7.967  13.956  -7.266  1.00  0.00     0.040 A 
ATOM     58  C   UNL     1      10.167  13.158  -6.683  1.00  0.00     0.040 A 
ATOM     59  F   UNL     1      10.418  11.071  -5.642  1.00  0.00    -0.206 F 
ATOM     60  C   UNL     1       9.349  14.141  -7.235  1.00  0.00     0.006 A 
ENDBRANCH  36  53
ENDBRANCH  10  11
ENDBRANCH   3   5
ENDBRANCH   2   3
ENDBRANCH   1   2
BRANCH   1  61
ATOM     61  C   UNL     1       3.228  -2.589  -0.843  1.00  0.00     0.274 C 
BRANCH  61  62
ATOM     62  O   UNL     1       3.007  -1.509  -1.796  1.00  0.00    -0.461 OA
BRANCH  62  63
ATOM     63  C   UNL     1       1.817  -0.845  -1.946  1.00  0.00     0.329 C 
ATOM     64  O   UNL     1       0.741  -1.390  -1.736  1.00  0.00    -0.250 OA
BRANCH  63  65
ATOM     65  C   UNL     1       1.981   0.717  -2.445  1.00  0.00     0.195 C 
BRANCH  65  66
ATOM     66  C   UNL     1       2.952   2.077  -1.611  1.00  0.00     0.074 C 
BRANCH  66  67
ATOM     67  C   UNL     1       4.941   2.175  -0.780  1.00  0.00    -0.020 A 
ATOM     68  C   UNL     1       5.706   3.105   0.052  1.00  0.00     0.087 A 
ATOM     69  C   UNL     1       6.334   1.158  -0.924  1.00  0.00     0.003 A 
ATOM     70  N   UNL     1       7.050   3.127  -0.278  1.00  0.00    -0.361 N 
ATOM     71  C   UNL     1       7.474   1.938  -0.781  1.00  0.00     0.046 A 
ATOM     72  C   UNL     1       6.629  -0.211  -1.296  1.00  0.00     0.010 A 
ATOM     73  H   UNL     1       7.631   3.913  -0.163  1.00  0.00     0.166 HD
ATOM     74  C   UNL     1       8.775   1.510  -1.118  1.00  0.00     0.026 A 
ATOM     75  C   UNL     1       7.908  -0.670  -1.620  1.00  0.00     0.001 A 
ATOM     76  C   UNL     1       8.971   0.201  -1.562  1.00  0.00     0.002 A 
ENDBRANCH  66  67
ENDBRANCH  65  66
BRANCH  65  77
ATOM     77  N   UNL     1       2.244   0.754  -3.905  1.00  0.00    -0.356 N 
ATOM     78  H   UNL     1       3.144   0.455  -4.168  1.00  0.00     0.163 HD
BRANCH  77  79
ATOM     79  C   UNL     1       1.441   1.134  -4.945  1.00  0.00     0.137 A 
ATOM     80  N   UNL     1       1.739   0.410  -6.040  1.00  0.00    -0.219 NA
ATOM     81  C   UNL     1       0.465   2.154  -4.976  1.00  0.00     0.043 A 
ATOM     82  C   UNL     1       1.025   0.644  -7.144  1.00  0.00     0.224 A 
ATOM     83  C   UNL     1      -0.226   2.276  -6.198  1.00  0.00     0.076 A 
ATOM     84  C   UNL     1       0.144   3.083  -3.948  1.00  0.00     0.014 A 
ATOM     85  N   UNL     1       0.039   1.530  -7.270  1.00  0.00    -0.236 NA
ATOM     86  C   UNL     1      -1.229   3.230  -6.330  1.00  0.00     0.029 A 
ATOM     87  C   UNL     1      -0.846   4.054  -4.112  1.00  0.00     0.001 A 
ATOM     88  C   UNL     1      -1.549   4.116  -5.303  1.00  0.00     0.002 A 
ENDBRANCH  77  79
ENDBRANCH  65  77
ENDBRANCH  63  65
ENDBRANCH  62  63
ENDBRANCH  61  62
ENDBRANCH   1  61
TORSDOF 15
