REMARK SMILES CCCc1cc2c(cc1Cl)C=C(C(=O)OCCOC(=O)c1ccc(-c3c4nc(c(-c5c(F)cccc5F)c5ccc([nH]5)c(-c5c(F)cccc5F)c5nc(c(-c6c(F)cccc6F)c6ccc3[nH]6)C=C5)C=C4)cc1)[C@@H](C(F)(F)F)O2
REMARK SMILES IDX 16 1 15 2 13 3 14 4 12 5 4 6 5 7 9 8 6 9 8 10 10 11 7 12
REMARK SMILES IDX 80 13 11 14 75 15 3 16 2 17 1 18 76 19 77 20 78 21 79 22
REMARK SMILES IDX 17 23 18 24 19 25 20 26 21 27 22 28 74 29 23 30 73 31 24 32
REMARK SMILES IDX 25 33 26 34 67 35 27 36 72 37 66 38 68 39 28 40 71 41 65 42
REMARK SMILES IDX 64 43 29 45 55 46 38 47 54 48 39 49 42 50 53 51 69 52 40 53
REMARK SMILES IDX 41 54 52 56 70 57 43 58 30 59 31 60 36 61 32 62 33 63 35 64
REMARK SMILES IDX 37 65 34 66 56 67 57 68 62 69 58 70 59 71 61 72 63 73 60 74
REMARK SMILES IDX 44 75 45 76 50 77 46 78 47 79 49 80 51 81 48 82
REMARK H PARENT 68 44 42 55
REMARK Flexibility Score: inf
ROOT
ATOM      1  C   UNL     1      -2.018   3.763  -8.520  1.00  0.00     0.275 C 
ENDROOT
BRANCH   1   2
ATOM      2  O   UNL     1      -1.735   3.256  -7.197  1.00  0.00    -0.459 OA
BRANCH   2   3
ATOM      3  C   UNL     1      -0.628   3.751  -6.596  1.00  0.00     0.338 C 
ATOM      4  O   UNL     1       0.137   4.583  -7.062  1.00  0.00    -0.246 OA
BRANCH   3   5
ATOM      5  C   UNL     1      -0.501   3.219  -5.220  1.00  0.00     0.087 C 
ATOM      6  C   UNL     1       0.453   2.601  -0.310  1.00  0.00    -0.026 A 
ATOM      7  C   UNL     1      -0.188   1.828  -1.296  1.00  0.00     0.052 A 
ATOM      8  C   UNL     1       0.805   3.923  -0.641  1.00  0.00     0.045 A 
ATOM      9  C   UNL     1      -0.337   2.300  -2.602  1.00  0.00     0.128 A 
ATOM     10  C   UNL     1       0.640   4.402  -1.941  1.00  0.00     0.032 A 
ATOM     11  Cl  UNL     1       1.470   5.015   0.523  1.00  0.00    -0.084 Cl
ATOM     12  C   UNL     1       0.124   3.568  -2.933  1.00  0.00     0.019 A 
ATOM     13  O   UNL     1      -0.952   1.466  -3.493  1.00  0.00    -0.475 OA
ATOM     14  C   UNL     1       0.058   4.021  -4.305  1.00  0.00     0.027 C 
ATOM     15  C   UNL     1      -0.909   1.805  -4.910  1.00  0.00     0.316 C 
BRANCH   6  16
ATOM     16  C   UNL     1       0.794   2.053   1.062  1.00  0.00     0.037 C 
BRANCH  16  17
ATOM     17  C   UNL     1       0.551   0.565   1.343  1.00  0.00     0.001 C 
ATOM     18  C   UNL     1       1.491  -0.366   0.586  1.00  0.00     0.004 C 
ENDBRANCH  16  17
ENDBRANCH   6  16
BRANCH  15  19
ATOM     19  C   UNL     1       0.042   0.828  -5.622  1.00  0.00     0.430 C 
ATOM     20  F   UNL     1      -0.257  -0.460  -5.337  1.00  0.00    -0.167 F 
ATOM     21  F   UNL     1      -0.027   0.957  -6.969  1.00  0.00    -0.167 F 
ATOM     22  F   UNL     1       1.334   1.031  -5.268  1.00  0.00    -0.167 F 
ENDBRANCH  15  19
ENDBRANCH   3   5
ENDBRANCH   2   3
ENDBRANCH   1   2
BRANCH   1  23
ATOM     23  C   UNL     1      -3.181   4.763  -8.516  1.00  0.00     0.275 C 
BRANCH  23  24
ATOM     24  O   UNL     1      -2.825   5.995  -7.859  1.00  0.00    -0.458 OA
BRANCH  24  25
ATOM     25  C   UNL     1      -3.234   6.096  -6.573  1.00  0.00     0.338 C 
ATOM     26  O   UNL     1      -3.865   5.274  -5.931  1.00  0.00    -0.246 OA
BRANCH  25  27
ATOM     27  C   UNL     1      -2.634   7.288  -5.954  1.00  0.00     0.060 A 
ATOM     28  C   UNL     1      -3.170   8.564  -6.063  1.00  0.00     0.016 A 
ATOM     29  C   UNL     1      -1.543   7.065  -5.122  1.00  0.00     0.016 A 
ATOM     30  C   UNL     1      -2.566   9.614  -5.354  1.00  0.00     0.010 A 
ATOM     31  C   UNL     1      -0.985   8.087  -4.364  1.00  0.00     0.010 A 
ATOM     32  C   UNL     1      -1.469   9.389  -4.491  1.00  0.00    -0.014 A 
BRANCH  32  33
ATOM     33  C   UNL     1      -0.854  10.501  -3.711  1.00  0.00     0.031 A 
ATOM     34  C   UNL     1       0.605  10.863  -3.867  1.00  0.00     0.074 A 
ATOM     35  C   UNL     1      -1.612  11.183  -2.829  1.00  0.00     0.049 A 
ATOM     36  N   UNL     1       1.261  11.882  -3.364  1.00  0.00    -0.248 NA
ATOM     37  C   UNL     1       1.449   9.948  -4.652  1.00  0.00     0.031 C 
ATOM     38  C   UNL     1      -2.995  10.857  -2.475  1.00  0.00     0.029 A 
ATOM     39  N   UNL     1      -1.339  12.309  -2.093  1.00  0.00    -0.354 N 
ATOM     40  C   UNL     1       2.581  11.727  -3.775  1.00  0.00     0.074 A 
ATOM     41  C   UNL     1       2.654  10.472  -4.486  1.00  0.00     0.031 C 
ATOM     42  C   UNL     1      -3.479  11.812  -1.665  1.00  0.00     0.029 A 
ATOM     43  C   UNL     1      -2.434  12.800  -1.421  1.00  0.00     0.049 A 
ATOM     44  H   UNL     1      -0.447  12.723  -2.050  1.00  0.00     0.167 HD
ATOM     45  C   UNL     1       3.630  12.573  -3.619  1.00  0.00     0.037 A 
ATOM     46  C   UNL     1      -2.587  13.939  -0.719  1.00  0.00     0.037 A 
ATOM     47  C   UNL     1       3.553  13.835  -2.932  1.00  0.00     0.049 A 
ATOM     48  C   UNL     1      -1.428  14.889  -0.603  1.00  0.00     0.074 A 
ATOM     49  C   UNL     1       4.533  14.800  -2.775  1.00  0.00     0.029 A 
ATOM     50  N   UNL     1       2.421  14.305  -2.282  1.00  0.00    -0.354 N 
ATOM     51  N   UNL     1      -0.220  14.790  -1.103  1.00  0.00    -0.248 NA
ATOM     52  C   UNL     1      -1.662  16.121   0.164  1.00  0.00     0.031 C 
ATOM     53  C   UNL     1       4.004  15.839  -2.000  1.00  0.00     0.029 A 
ATOM     54  C   UNL     1       2.681  15.542  -1.714  1.00  0.00     0.049 A 
ATOM     55  H   UNL     1       1.560  13.831  -2.232  1.00  0.00     0.167 HD
ATOM     56  C   UNL     1       0.441  15.954  -0.734  1.00  0.00     0.074 A 
ATOM     57  C   UNL     1      -0.510  16.756   0.007  1.00  0.00     0.031 C 
ATOM     58  C   UNL     1       1.721  16.327  -0.983  1.00  0.00     0.037 A 
BRANCH  45  59
ATOM     59  C   UNL     1       4.942  12.168  -4.237  1.00  0.00     0.057 A 
ATOM     60  C   UNL     1       6.052  11.856  -3.444  1.00  0.00     0.134 A 
ATOM     61  C   UNL     1       5.108  12.100  -5.629  1.00  0.00     0.134 A 
ATOM     62  F   UNL     1       5.973  11.912  -2.106  1.00  0.00    -0.206 F 
ATOM     63  C   UNL     1       7.273  11.479  -4.010  1.00  0.00     0.040 A 
ATOM     64  C   UNL     1       6.314  11.695  -6.205  1.00  0.00     0.040 A 
ATOM     65  F   UNL     1       4.085  12.381  -6.450  1.00  0.00    -0.206 F 
ATOM     66  C   UNL     1       7.403  11.386  -5.394  1.00  0.00     0.006 A 
ENDBRANCH  45  59
BRANCH  46  67
ATOM     67  C   UNL     1      -3.908  14.285  -0.133  1.00  0.00     0.057 A 
ATOM     68  C   UNL     1      -4.436  13.581   0.954  1.00  0.00     0.134 A 
ATOM     69  C   UNL     1      -4.664  15.351  -0.638  1.00  0.00     0.134 A 
ATOM     70  F   UNL     1      -3.769  12.541   1.477  1.00  0.00    -0.206 F 
ATOM     71  C   UNL     1      -5.665  13.925   1.520  1.00  0.00     0.040 A 
ATOM     72  C   UNL     1      -5.880  15.724  -0.064  1.00  0.00     0.040 A 
ATOM     73  F   UNL     1      -4.205  16.074  -1.671  1.00  0.00    -0.206 F 
ATOM     74  C   UNL     1      -6.385  15.007   1.018  1.00  0.00     0.006 A 
ENDBRANCH  46  67
BRANCH  58  75
ATOM     75  C   UNL     1       2.147  17.673  -0.474  1.00  0.00     0.057 A 
ATOM     76  C   UNL     1       2.390  18.726  -1.366  1.00  0.00     0.134 A 
ATOM     77  C   UNL     1       2.321  17.929   0.892  1.00  0.00     0.134 A 
ATOM     78  F   UNL     1       2.252  18.546  -2.688  1.00  0.00    -0.206 F 
ATOM     79  C   UNL     1       2.784  19.986  -0.915  1.00  0.00     0.040 A 
ATOM     80  C   UNL     1       2.685  19.194   1.356  1.00  0.00     0.040 A 
ATOM     81  F   UNL     1       2.090  16.967   1.799  1.00  0.00    -0.206 F 
ATOM     82  C   UNL     1       2.922  20.226   0.450  1.00  0.00     0.006 A 
ENDBRANCH  58  75
ENDBRANCH  32  33
ENDBRANCH  25  27
ENDBRANCH  24  25
ENDBRANCH  23  24
ENDBRANCH   1  23
TORSDOF 14
