REMARK SMILES C[C@H]1CCCCN1S(=O)(=O)c1ccc(Br)c(C(=O)OCCOC(=O)c2ccc(-c3c4nc(c(-c5c(F)cccc5F)c5ccc([nH]5)c(-c5c(F)cccc5F)c5nc(c(-c6c(F)cccc6F)c6ccc3[nH]6)C=C5)C=C4)cc2)c1
REMARK SMILES IDX 20 1 19 2 17 3 18 4 16 5 11 6 12 7 79 8 13 9 14 10 15 11
REMARK SMILES IDX 8 12 9 13 10 14 7 15 1 16 2 17 3 18 4 19 6 20 5 21 21 22
REMARK SMILES IDX 22 23 23 24 24 25 25 26 26 27 78 28 27 29 77 30 28 31 29 32
REMARK SMILES IDX 30 33 71 34 31 35 76 36 70 37 72 38 32 39 75 40 69 41 68 42
REMARK SMILES IDX 33 44 59 45 42 46 58 47 43 48 46 49 57 50 73 51 44 52 45 53
REMARK SMILES IDX 56 55 74 56 47 57 34 58 35 59 40 60 36 61 37 62 39 63 41 64
REMARK SMILES IDX 38 65 60 66 61 67 66 68 62 69 63 70 65 71 67 72 64 73 48 74
REMARK SMILES IDX 49 75 54 76 50 77 51 78 53 79 55 80 52 81
REMARK H PARENT 72 43 46 54
REMARK Flexibility Score: inf
ROOT
ATOM      1  C   UNL     1       6.881  -5.147  -3.729  1.00  0.00     0.275 C 
ENDROOT
BRANCH   1   2
ATOM      2  O   UNL     1       6.423  -4.214  -2.730  1.00  0.00    -0.458 OA
BRANCH   2   3
ATOM      3  C   UNL     1       5.288  -3.511  -2.959  1.00  0.00     0.339 C 
ATOM      4  O   UNL     1       4.551  -3.612  -3.924  1.00  0.00    -0.246 OA
BRANCH   3   5
ATOM      5  C   UNL     1       4.952  -2.711  -1.749  1.00  0.00     0.075 A 
ATOM      6  C   UNL     1       3.260  -2.138  -0.091  1.00  0.00     0.083 A 
ATOM      7  C   UNL     1       4.263  -1.647   0.749  1.00  0.00     0.023 A 
ATOM      8  C   UNL     1       3.601  -2.680  -1.336  1.00  0.00     0.038 A 
ATOM      9  C   UNL     1       5.574  -1.549   0.283  1.00  0.00     0.018 A 
ATOM     10  C   UNL     1       5.920  -2.061  -0.971  1.00  0.00     0.032 A 
ATOM     11  Br  UNL     1       7.696  -1.724  -1.562  1.00  0.00    -0.050 Br
BRANCH   6  12
ATOM     12  S   UNL     1       1.599  -2.276   0.537  1.00  0.00     0.243 S 
ATOM     13  O   UNL     1       1.654  -2.067   1.972  1.00  0.00    -0.207 OA
ATOM     14  O   UNL     1       1.072  -3.512   0.000  1.00  0.00    -0.207 OA
BRANCH  12  15
ATOM     15  N   UNL     1       0.647  -0.971  -0.129  1.00  0.00    -0.195 NA
ATOM     16  C   UNL     1       2.374   0.871  -0.270  1.00  0.00     0.026 C 
ATOM     17  C   UNL     1       1.024   0.436   0.297  1.00  0.00     0.070 C 
ATOM     18  C   UNL     1       0.004   1.464  -0.233  1.00  0.00     0.020 C 
ATOM     19  C   UNL     1      -1.418   1.145   0.178  1.00  0.00     0.003 C 
ATOM     20  C   UNL     1      -0.805  -1.272   0.219  1.00  0.00     0.103 C 
ATOM     21  C   UNL     1      -1.773  -0.236  -0.331  1.00  0.00     0.017 C 
ENDBRANCH  12  15
ENDBRANCH   6  12
ENDBRANCH   3   5
ENDBRANCH   2   3
ENDBRANCH   1   2
BRANCH   1  22
ATOM     22  C   UNL     1       6.988  -6.549  -3.125  1.00  0.00     0.275 C 
BRANCH  22  23
ATOM     23  O   UNL     1       5.673  -7.082  -2.886  1.00  0.00    -0.458 OA
BRANCH  23  24
ATOM     24  C   UNL     1       5.207  -6.894  -1.632  1.00  0.00     0.338 C 
ATOM     25  O   UNL     1       5.795  -6.422  -0.674  1.00  0.00    -0.246 OA
BRANCH  24  26
ATOM     26  C   UNL     1       3.777  -7.211  -1.599  1.00  0.00     0.060 A 
ATOM     27  C   UNL     1       2.892  -6.167  -1.840  1.00  0.00     0.016 A 
ATOM     28  C   UNL     1       3.307  -8.454  -1.187  1.00  0.00     0.016 A 
ATOM     29  C   UNL     1       1.542  -6.320  -1.560  1.00  0.00     0.010 A 
ATOM     30  C   UNL     1       1.930  -8.635  -1.004  1.00  0.00     0.010 A 
ATOM     31  C   UNL     1       1.034  -7.557  -1.145  1.00  0.00    -0.014 A 
BRANCH  31  32
ATOM     32  C   UNL     1      -0.417  -7.695  -0.823  1.00  0.00     0.031 A 
ATOM     33  C   UNL     1      -0.853  -8.173   0.538  1.00  0.00     0.074 A 
ATOM     34  C   UNL     1      -1.354  -7.365  -1.735  1.00  0.00     0.049 A 
ATOM     35  N   UNL     1      -2.047  -8.517   0.956  1.00  0.00    -0.248 NA
ATOM     36  C   UNL     1       0.196  -8.301   1.559  1.00  0.00     0.031 C 
ATOM     37  C   UNL     1      -1.087  -6.825  -3.070  1.00  0.00     0.029 A 
ATOM     38  N   UNL     1      -2.725  -7.423  -1.673  1.00  0.00    -0.354 N 
ATOM     39  C   UNL     1      -1.881  -8.956   2.264  1.00  0.00     0.074 A 
ATOM     40  C   UNL     1      -0.468  -8.853   2.564  1.00  0.00     0.031 C 
ATOM     41  C   UNL     1      -2.250  -6.555  -3.678  1.00  0.00     0.029 A 
ATOM     42  C   UNL     1      -3.344  -7.001  -2.825  1.00  0.00     0.049 A 
ATOM     43  H   UNL     1      -3.217  -7.737  -0.880  1.00  0.00     0.167 HD
ATOM     44  C   UNL     1      -2.819  -9.402   3.135  1.00  0.00     0.037 A 
ATOM     45  C   UNL     1      -4.642  -7.012  -3.182  1.00  0.00     0.037 A 
ATOM     46  C   UNL     1      -4.231  -9.454   2.846  1.00  0.00     0.049 A 
ATOM     47  C   UNL     1      -5.657  -7.573  -2.229  1.00  0.00     0.074 A 
ATOM     48  C   UNL     1      -5.266  -9.868   3.667  1.00  0.00     0.029 A 
ATOM     49  N   UNL     1      -4.808  -9.070   1.643  1.00  0.00    -0.354 N 
ATOM     50  N   UNL     1      -5.486  -8.032  -1.014  1.00  0.00    -0.248 NA
ATOM     51  C   UNL     1      -7.045  -7.635  -2.707  1.00  0.00     0.031 C 
ATOM     52  C   UNL     1      -6.460  -9.792   2.941  1.00  0.00     0.029 A 
ATOM     53  C   UNL     1      -6.180  -9.267   1.690  1.00  0.00     0.049 A 
ATOM     54  H   UNL     1      -4.315  -8.711   0.870  1.00  0.00     0.167 HD
ATOM     55  C   UNL     1      -6.743  -8.418  -0.572  1.00  0.00     0.074 A 
ATOM     56  C   UNL     1      -7.671  -8.123  -1.645  1.00  0.00     0.031 C 
ATOM     57  C   UNL     1      -7.096  -8.968   0.616  1.00  0.00     0.037 A 
BRANCH  44  58
ATOM     58  C   UNL     1      -2.341  -9.922   4.464  1.00  0.00     0.057 A 
ATOM     59  C   UNL     1      -1.785  -9.090   5.446  1.00  0.00     0.134 A 
ATOM     60  C   UNL     1      -2.443 -11.287   4.766  1.00  0.00     0.134 A 
ATOM     61  F   UNL     1      -1.649  -7.774   5.225  1.00  0.00    -0.206 F 
ATOM     62  C   UNL     1      -1.307  -9.602   6.655  1.00  0.00     0.040 A 
ATOM     63  C   UNL     1      -2.002 -11.806   5.985  1.00  0.00     0.040 A 
ATOM     64  F   UNL     1      -2.978 -12.143   3.881  1.00  0.00    -0.206 F 
ATOM     65  C   UNL     1      -1.420 -10.964   6.929  1.00  0.00     0.006 A 
ENDBRANCH  44  58
BRANCH  45  66
ATOM     66  C   UNL     1      -5.042  -6.506  -4.520  1.00  0.00     0.057 A 
ATOM     67  C   UNL     1      -5.798  -5.337  -4.653  1.00  0.00     0.134 A 
ATOM     68  C   UNL     1      -4.660  -7.164  -5.697  1.00  0.00     0.134 A 
ATOM     69  F   UNL     1      -6.216  -4.675  -3.564  1.00  0.00    -0.206 F 
ATOM     70  C   UNL     1      -6.161  -4.840  -5.907  1.00  0.00     0.040 A 
ATOM     71  C   UNL     1      -4.988  -6.661  -6.956  1.00  0.00     0.040 A 
ATOM     72  F   UNL     1      -3.933  -8.290  -5.639  1.00  0.00    -0.206 F 
ATOM     73  C   UNL     1      -5.746  -5.498  -7.063  1.00  0.00     0.006 A 
ENDBRANCH  45  66
BRANCH  57  74
ATOM     74  C   UNL     1      -8.555  -9.245   0.835  1.00  0.00     0.057 A 
ATOM     75  C   UNL     1      -9.229 -10.271   0.158  1.00  0.00     0.134 A 
ATOM     76  C   UNL     1      -9.291  -8.489   1.757  1.00  0.00     0.134 A 
ATOM     77  F   UNL     1      -8.588 -11.022  -0.750  1.00  0.00    -0.206 F 
ATOM     78  C   UNL     1     -10.587 -10.515   0.371  1.00  0.00     0.040 A 
ATOM     79  C   UNL     1     -10.641  -8.745   2.001  1.00  0.00     0.040 A 
ATOM     80  F   UNL     1      -8.707  -7.496   2.445  1.00  0.00    -0.206 F 
ATOM     81  C   UNL     1     -11.295  -9.756   1.300  1.00  0.00     0.006 A 
ENDBRANCH  57  74
ENDBRANCH  31  32
ENDBRANCH  24  26
ENDBRANCH  23  24
ENDBRANCH  22  23
ENDBRANCH   1  22
TORSDOF 13
