REMARK SMILES CO[C@H]1C[C@H](C(=O)OCCOC(=O)c2ccc(-c3c4nc(c(-c5c(F)cccc5F)c5ccc([nH]5)c(-c5c(F)cccc5F)c5nc(c(-c6c(F)cccc6F)c6ccc3[nH]6)C=C5)C=C4)cc2)N(C(=O)CCSCC(N)=O)C1
REMARK SMILES IDX 6 1 7 2 5 3 3 4 4 5 78 6 68 7 2 8 1 9 69 10 70 11 71 12
REMARK SMILES IDX 72 13 73 14 74 15 75 16 76 17 77 18 8 21 9 22 10 23 11 24
REMARK SMILES IDX 12 25 13 26 14 27 15 28 67 29 16 30 66 31 17 32 18 33 19 34
REMARK SMILES IDX 60 35 20 36 65 37 59 38 61 39 21 40 64 41 58 42 57 43 22 45
REMARK SMILES IDX 48 46 31 47 47 48 32 49 35 50 46 51 62 52 33 53 34 54 45 56
REMARK SMILES IDX 63 57 36 58 23 59 24 60 29 61 25 62 26 63 28 64 30 65 27 66
REMARK SMILES IDX 49 67 50 68 55 69 51 70 52 71 54 72 56 73 53 74 37 75 38 76
REMARK SMILES IDX 43 77 39 78 40 79 42 80 44 81 41 82
REMARK H PARENT 76 19 76 20 61 44 35 55
REMARK Flexibility Score: inf
ROOT
ATOM      1  C   UNL     1       0.676   2.125   0.587  1.00  0.00     0.329 C 
ATOM      2  O   UNL     1       0.402   2.913   1.485  1.00  0.00    -0.250 OA
ENDROOT
BRANCH   1   3
ATOM      3  C   UNL     1       1.528   2.541  -0.623  1.00  0.00     0.197 C 
ATOM      4  C   UNL     1       1.087   1.127  -2.509  1.00  0.00     0.140 C 
ATOM      5  C   UNL     1       2.136   1.406  -1.429  1.00  0.00     0.071 C 
ATOM      6  C   UNL     1       0.479   2.514  -2.774  1.00  0.00     0.152 C 
ATOM      7  N   UNL     1       0.776   3.323  -1.599  1.00  0.00    -0.326 N 
BRANCH   4   8
ATOM      8  O   UNL     1       1.521   0.552  -3.737  1.00  0.00    -0.380 OA
ATOM      9  C   UNL     1       2.853   0.069  -3.792  1.00  0.00     0.195 C 
ENDBRANCH   4   8
BRANCH   7  10
ATOM     10  C   UNL     1       0.457   4.662  -1.562  1.00  0.00     0.224 C 
ATOM     11  O   UNL     1      -0.091   5.204  -2.525  1.00  0.00    -0.275 OA
BRANCH  10  12
ATOM     12  C   UNL     1       0.747   5.466  -0.306  1.00  0.00     0.111 C 
BRANCH  12  13
ATOM     13  C   UNL     1      -0.483   6.195   0.246  1.00  0.00     0.080 C 
BRANCH  13  14
ATOM     14  S   UNL     1      -1.818   5.211   1.042  1.00  0.00    -0.152 SA
BRANCH  14  15
ATOM     15  C   UNL     1      -2.223   4.077  -0.301  1.00  0.00     0.169 C 
BRANCH  15  16
ATOM     16  C   UNL     1      -3.587   3.433  -0.216  1.00  0.00     0.227 C 
ATOM     17  N   UNL     1      -4.152   3.208  -1.447  1.00  0.00    -0.369 N 
ATOM     18  O   UNL     1      -4.141   3.044   0.804  1.00  0.00    -0.274 OA
ATOM     19  H   UNL     1      -3.699   3.525  -2.262  1.00  0.00     0.159 HD
ATOM     20  H   UNL     1      -5.010   2.730  -1.515  1.00  0.00     0.159 HD
ENDBRANCH  15  16
ENDBRANCH  14  15
ENDBRANCH  13  14
ENDBRANCH  12  13
ENDBRANCH  10  12
ENDBRANCH   7  10
ENDBRANCH   1   3
BRANCH   1  21
ATOM     21  O   UNL     1       0.203   0.855   0.531  1.00  0.00    -0.461 OA
BRANCH  21  22
ATOM     22  C   UNL     1      -0.644   0.466   1.637  1.00  0.00     0.274 C 
BRANCH  22  23
ATOM     23  C   UNL     1       0.140  -0.216   2.768  1.00  0.00     0.275 C 
BRANCH  23  24
ATOM     24  O   UNL     1       1.002   0.697   3.476  1.00  0.00    -0.458 OA
BRANCH  24  25
ATOM     25  C   UNL     1       2.231   0.855   2.944  1.00  0.00     0.338 C 
ATOM     26  O   UNL     1       2.697   0.265   1.972  1.00  0.00    -0.246 OA
BRANCH  25  27
ATOM     27  C   UNL     1       2.904   2.018   3.538  1.00  0.00     0.060 A 
ATOM     28  C   UNL     1       3.284   3.039   2.663  1.00  0.00     0.016 A 
ATOM     29  C   UNL     1       3.247   2.085   4.886  1.00  0.00     0.016 A 
ATOM     30  C   UNL     1       4.005   4.132   3.105  1.00  0.00     0.010 A 
ATOM     31  C   UNL     1       4.007   3.171   5.335  1.00  0.00     0.010 A 
ATOM     32  C   UNL     1       4.406   4.181   4.438  1.00  0.00    -0.014 A 
BRANCH  32  33
ATOM     33  C   UNL     1       5.415   5.189   4.811  1.00  0.00     0.031 A 
ATOM     34  C   UNL     1       6.848   4.754   4.900  1.00  0.00     0.074 A 
ATOM     35  C   UNL     1       5.071   6.479   4.959  1.00  0.00     0.049 A 
ATOM     36  N   UNL     1       7.896   5.423   5.298  1.00  0.00    -0.248 NA
ATOM     37  C   UNL     1       7.137   3.373   4.475  1.00  0.00     0.031 C 
ATOM     38  C   UNL     1       3.727   7.023   4.768  1.00  0.00     0.029 A 
ATOM     39  N   UNL     1       5.831   7.565   5.303  1.00  0.00    -0.354 N 
ATOM     40  C   UNL     1       8.961   4.537   5.206  1.00  0.00     0.074 A 
ATOM     41  C   UNL     1       8.435   3.281   4.720  1.00  0.00     0.031 C 
ATOM     42  C   UNL     1       3.754   8.343   5.019  1.00  0.00     0.029 A 
ATOM     43  C   UNL     1       5.101   8.719   5.438  1.00  0.00     0.049 A 
ATOM     44  H   UNL     1       6.805   7.522   5.440  1.00  0.00     0.167 HD
ATOM     45  C   UNL     1      10.261   4.757   5.509  1.00  0.00     0.037 A 
ATOM     46  C   UNL     1       5.479   9.927   5.896  1.00  0.00     0.037 A 
ATOM     47  C   UNL     1      10.762   6.020   5.982  1.00  0.00     0.049 A 
ATOM     48  C   UNL     1       6.911  10.122   6.318  1.00  0.00     0.074 A 
ATOM     49  C   UNL     1      12.053   6.356   6.345  1.00  0.00     0.029 A 
ATOM     50  N   UNL     1       9.985   7.157   6.155  1.00  0.00    -0.354 N 
ATOM     51  N   UNL     1       7.909   9.270   6.281  1.00  0.00    -0.248 NA
ATOM     52  C   UNL     1       7.269  11.443   6.851  1.00  0.00     0.031 C 
ATOM     53  C   UNL     1      12.047   7.684   6.784  1.00  0.00     0.029 A 
ATOM     54  C   UNL     1      10.765   8.193   6.637  1.00  0.00     0.049 A 
ATOM     55  H   UNL     1       9.021   7.217   5.964  1.00  0.00     0.167 HD
ATOM     56  C   UNL     1       9.018   9.960   6.754  1.00  0.00     0.074 A 
ATOM     57  C   UNL     1       8.570  11.303   7.061  1.00  0.00     0.031 C 
ATOM     58  C   UNL     1      10.292   9.526   6.918  1.00  0.00     0.037 A 
BRANCH  45  59
ATOM     59  C   UNL     1      11.201   3.595   5.396  1.00  0.00     0.057 A 
ATOM     60  C   UNL     1      11.587   3.059   4.160  1.00  0.00     0.134 A 
ATOM     61  C   UNL     1      11.727   2.998   6.549  1.00  0.00     0.134 A 
ATOM     62  F   UNL     1      11.100   3.566   3.017  1.00  0.00    -0.206 F 
ATOM     63  C   UNL     1      12.441   1.957   4.077  1.00  0.00     0.040 A 
ATOM     64  C   UNL     1      12.603   1.914   6.478  1.00  0.00     0.040 A 
ATOM     65  F   UNL     1      11.396   3.458   7.765  1.00  0.00    -0.206 F 
ATOM     66  C   UNL     1      12.956   1.385   5.239  1.00  0.00     0.006 A 
ENDBRANCH  45  59
BRANCH  46  67
ATOM     67  C   UNL     1       4.485  11.023   6.023  1.00  0.00     0.057 A 
ATOM     68  C   UNL     1       4.568  12.177   5.235  1.00  0.00     0.134 A 
ATOM     69  C   UNL     1       3.437  10.952   6.950  1.00  0.00     0.134 A 
ATOM     70  F   UNL     1       5.560  12.316   4.344  1.00  0.00    -0.206 F 
ATOM     71  C   UNL     1       3.658  13.226   5.378  1.00  0.00     0.040 A 
ATOM     72  C   UNL     1       2.504  11.980   7.083  1.00  0.00     0.040 A 
ATOM     73  F   UNL     1       3.300   9.874   7.737  1.00  0.00    -0.206 F 
ATOM     74  C   UNL     1       2.618  13.127   6.301  1.00  0.00     0.006 A 
ENDBRANCH  46  67
BRANCH  58  75
ATOM     75  C   UNL     1      11.300  10.529   7.396  1.00  0.00     0.057 A 
ATOM     76  C   UNL     1      11.314  11.001   8.714  1.00  0.00     0.134 A 
ATOM     77  C   UNL     1      12.299  10.994   6.529  1.00  0.00     0.134 A 
ATOM     78  F   UNL     1      10.378  10.603   9.589  1.00  0.00    -0.206 F 
ATOM     79  C   UNL     1      12.271  11.920   9.147  1.00  0.00     0.040 A 
ATOM     80  C   UNL     1      13.278  11.889   6.959  1.00  0.00     0.040 A 
ATOM     81  F   UNL     1      12.348  10.572   5.257  1.00  0.00    -0.206 F 
ATOM     82  C   UNL     1      13.261  12.360   8.270  1.00  0.00     0.006 A 
ENDBRANCH  58  75
ENDBRANCH  32  33
ENDBRANCH  25  27
ENDBRANCH  24  25
ENDBRANCH  23  24
ENDBRANCH  22  23
ENDBRANCH  21  22
ENDBRANCH   1  21
TORSDOF 18
