REMARK SMILES C#CC[C@]1(C(=O)OCCOC(=O)c2ccc(-c3c4nc(c(-c5c(F)cccc5F)c5ccc([nH]5)c(-c5c(F)cccc5F)c5nc(c(-c6c(F)cccc6F)c6ccc3[nH]6)C=C5)C=C4)cc2)CCCN(C(=O)OC(C)(C)C)C1
REMARK SMILES IDX 8 1 7 2 5 3 6 4 4 5 67 6 78 7 68 8 70 9 69 10 3 11 2 12 1 13
REMARK SMILES IDX 71 14 72 15 73 16 74 17 75 18 76 19 77 20 9 21 10 22 11 23
REMARK SMILES IDX 12 24 13 25 14 26 66 27 15 28 65 29 16 30 17 31 18 32 59 33
REMARK SMILES IDX 19 34 64 35 58 36 60 37 20 38 63 39 57 40 56 41 21 43 47 44
REMARK SMILES IDX 30 45 46 46 31 47 34 48 45 49 61 50 32 51 33 52 44 54 62 55
REMARK SMILES IDX 35 56 22 57 23 58 28 59 24 60 25 61 27 62 29 63 26 64 48 65
REMARK SMILES IDX 49 66 54 67 50 68 51 69 53 70 55 71 52 72 36 73 37 74 42 75
REMARK SMILES IDX 38 76 39 77 41 78 43 79 40 80
REMARK H PARENT 60 42 34 53
REMARK Flexibility Score: inf
ROOT
ATOM      1  C   UNL     1      -2.740  -1.462   4.310  1.00  0.00     0.274 C 
ENDROOT
BRANCH   1   2
ATOM      2  O   UNL     1      -2.418  -1.743   2.932  1.00  0.00    -0.462 OA
BRANCH   2   3
ATOM      3  C   UNL     1      -2.829  -0.825   2.018  1.00  0.00     0.314 C 
ATOM      4  O   UNL     1      -3.466   0.184   2.300  1.00  0.00    -0.252 OA
BRANCH   3   5
ATOM      5  C   UNL     1      -2.479  -1.205   0.580  1.00  0.00     0.097 C 
ATOM      6  C   UNL     1      -1.657  -2.519   0.470  1.00  0.00     0.023 C 
ATOM      7  C   UNL     1      -3.856  -1.463  -0.085  1.00  0.00     0.142 C 
ATOM      8  C   UNL     1      -1.557  -3.040  -0.969  1.00  0.00     0.023 C 
ATOM      9  N   UNL     1      -3.696  -1.957  -1.451  1.00  0.00    -0.307 N 
ATOM     10  C   UNL     1      -2.941  -3.195  -1.595  1.00  0.00     0.123 C 
BRANCH   5  11
ATOM     11  C   UNL     1      -1.811   0.029  -0.095  1.00  0.00     0.110 C 
BRANCH  11  12
ATOM     12  C   UNL     1      -0.291   0.029  -0.095  1.00  0.00    -0.105 C 
ATOM     13  C   UNL     1       1.012   0.029  -0.095  1.00  0.00     0.004 C 
ENDBRANCH  11  12
ENDBRANCH   5  11
BRANCH   9  14
ATOM     14  C   UNL     1      -4.123  -1.172  -2.511  1.00  0.00     0.410 C 
ATOM     15  O   UNL     1      -4.691  -0.103  -2.362  1.00  0.00    -0.224 OA
BRANCH  14  16
ATOM     16  O   UNL     1      -3.797  -1.708  -3.716  1.00  0.00    -0.444 OA
BRANCH  16  17
ATOM     17  C   UNL     1      -4.082  -0.987  -4.942  1.00  0.00     0.106 C 
ATOM     18  C   UNL     1      -5.588  -0.762  -5.125  1.00  0.00     0.056 C 
ATOM     19  C   UNL     1      -3.292   0.326  -5.011  1.00  0.00     0.056 C 
ATOM     20  C   UNL     1      -3.587  -1.913  -6.063  1.00  0.00     0.056 C 
ENDBRANCH  16  17
ENDBRANCH  14  16
ENDBRANCH   9  14
ENDBRANCH   3   5
ENDBRANCH   2   3
ENDBRANCH   1   2
BRANCH   1  21
ATOM     21  C   UNL     1      -1.501  -0.966   5.047  1.00  0.00     0.275 C 
BRANCH  21  22
ATOM     22  O   UNL     1      -1.059   0.270   4.459  1.00  0.00    -0.458 OA
BRANCH  22  23
ATOM     23  C   UNL     1       0.165   0.240   3.883  1.00  0.00     0.338 C 
ATOM     24  O   UNL     1       0.958  -0.687   3.881  1.00  0.00    -0.246 OA
BRANCH  23  25
ATOM     25  C   UNL     1       0.438   1.520   3.201  1.00  0.00     0.060 A 
ATOM     26  C   UNL     1      -0.514   2.088   2.359  1.00  0.00     0.016 A 
ATOM     27  C   UNL     1       1.717   2.067   3.269  1.00  0.00     0.016 A 
ATOM     28  C   UNL     1      -0.142   3.098   1.470  1.00  0.00     0.010 A 
ATOM     29  C   UNL     1       2.038   3.177   2.481  1.00  0.00     0.010 A 
ATOM     30  C   UNL     1       1.131   3.680   1.530  1.00  0.00    -0.014 A 
BRANCH  30  31
ATOM     31  C   UNL     1       1.548   4.785   0.613  1.00  0.00     0.031 A 
ATOM     32  C   UNL     1       2.868   4.703  -0.116  1.00  0.00     0.074 A 
ATOM     33  C   UNL     1       0.790   5.889   0.449  1.00  0.00     0.049 A 
ATOM     34  N   UNL     1       3.596   5.661  -0.633  1.00  0.00    -0.248 NA
ATOM     35  C   UNL     1       3.458   3.363  -0.261  1.00  0.00     0.031 C 
ATOM     36  C   UNL     1      -0.547   6.105   1.004  1.00  0.00     0.029 A 
ATOM     37  N   UNL     1       1.056   7.059  -0.225  1.00  0.00    -0.354 N 
ATOM     38  C   UNL     1       4.763   5.053  -1.082  1.00  0.00     0.074 A 
ATOM     39  C   UNL     1       4.639   3.639  -0.797  1.00  0.00     0.031 C 
ATOM     40  C   UNL     1      -0.993   7.312   0.632  1.00  0.00     0.029 A 
ATOM     41  C   UNL     1       0.074   8.008  -0.074  1.00  0.00     0.049 A 
ATOM     42  H   UNL     1       1.869   7.201  -0.762  1.00  0.00     0.167 HD
ATOM     43  C   UNL     1       5.844   5.628  -1.663  1.00  0.00     0.037 A 
ATOM     44  C   UNL     1       0.053   9.318  -0.385  1.00  0.00     0.037 A 
ATOM     45  C   UNL     1       5.926   7.024  -2.012  1.00  0.00     0.049 A 
ATOM     46  C   UNL     1       1.272   9.951  -0.987  1.00  0.00     0.074 A 
ATOM     47  C   UNL     1       6.974   7.708  -2.604  1.00  0.00     0.029 A 
ATOM     48  N   UNL     1       4.905   7.943  -1.825  1.00  0.00    -0.354 N 
ATOM     49  N   UNL     1       2.420   9.400  -1.297  1.00  0.00    -0.248 NA
ATOM     50  C   UNL     1       1.203  11.394  -1.254  1.00  0.00     0.031 C 
ATOM     51  C   UNL     1       6.596   9.047  -2.752  1.00  0.00     0.029 A 
ATOM     52  C   UNL     1       5.298   9.187  -2.290  1.00  0.00     0.049 A 
ATOM     53  H   UNL     1       4.030   7.741  -1.422  1.00  0.00     0.167 HD
ATOM     54  C   UNL     1       3.203  10.422  -1.813  1.00  0.00     0.074 A 
ATOM     55  C   UNL     1       2.397  11.626  -1.782  1.00  0.00     0.031 C 
ATOM     56  C   UNL     1       4.477  10.369  -2.269  1.00  0.00     0.037 A 
BRANCH  43  57
ATOM     57  C   UNL     1       7.047   4.767  -1.921  1.00  0.00     0.057 A 
ATOM     58  C   UNL     1       7.086   3.816  -2.946  1.00  0.00     0.134 A 
ATOM     59  C   UNL     1       8.210   4.935  -1.154  1.00  0.00     0.134 A 
ATOM     60  F   UNL     1       6.005   3.595  -3.710  1.00  0.00    -0.206 F 
ATOM     61  C   UNL     1       8.229   3.050  -3.189  1.00  0.00     0.040 A 
ATOM     62  C   UNL     1       9.366   4.194  -1.403  1.00  0.00     0.040 A 
ATOM     63  F   UNL     1       8.246   5.835  -0.160  1.00  0.00    -0.206 F 
ATOM     64  C   UNL     1       9.376   3.244  -2.421  1.00  0.00     0.006 A 
ENDBRANCH  43  57
BRANCH  44  65
ATOM     65  C   UNL     1      -1.146  10.130  -0.057  1.00  0.00     0.057 A 
ATOM     66  C   UNL     1      -1.981  10.623  -1.065  1.00  0.00     0.134 A 
ATOM     67  C   UNL     1      -1.500  10.408   1.270  1.00  0.00     0.134 A 
ATOM     68  F   UNL     1      -1.680  10.411  -2.354  1.00  0.00    -0.206 F 
ATOM     69  C   UNL     1      -3.126  11.363  -0.766  1.00  0.00     0.040 A 
ATOM     70  C   UNL     1      -2.657  11.121   1.584  1.00  0.00     0.040 A 
ATOM     71  F   UNL     1      -0.741   9.961   2.282  1.00  0.00    -0.206 F 
ATOM     72  C   UNL     1      -3.472  11.604   0.563  1.00  0.00     0.006 A 
ENDBRANCH  44  65
BRANCH  56  73
ATOM     73  C   UNL     1       5.055  11.633  -2.828  1.00  0.00     0.057 A 
ATOM     74  C   UNL     1       5.485  12.678  -2.002  1.00  0.00     0.134 A 
ATOM     75  C   UNL     1       5.213  11.788  -4.210  1.00  0.00     0.134 A 
ATOM     76  F   UNL     1       5.345  12.594  -0.670  1.00  0.00    -0.206 F 
ATOM     77  C   UNL     1       6.037  13.844  -2.534  1.00  0.00     0.040 A 
ATOM     78  C   UNL     1       5.783  12.940  -4.753  1.00  0.00     0.040 A 
ATOM     79  F   UNL     1       4.825  10.819  -5.053  1.00  0.00    -0.206 F 
ATOM     80  C   UNL     1       6.193  13.974  -3.914  1.00  0.00     0.006 A 
ENDBRANCH  56  73
ENDBRANCH  30  31
ENDBRANCH  23  25
ENDBRANCH  22  23
ENDBRANCH  21  22
ENDBRANCH   1  21
TORSDOF 16
