REMARK SMILES Cc1cc(C)n2ncc(C(=O)N(C)CCCC(=O)OCCOC(=O)c3ccc(-c4c5nc(c(-c6c(F)cccc6F)c6ccc([nH]6)c(-c6c(F)cccc6F)c6nc(c(-c7c(F)cccc7F)c7ccc4[nH]7)C=C6)C=C5)cc3)c2n1
REMARK SMILES IDX 19 1 17 2 18 3 16 4 15 5 14 6 12 7 13 8 10 9 11 10 9 11 1 12
REMARK SMILES IDX 2 13 3 14 80 15 4 16 79 17 5 18 6 19 7 20 8 21 20 22 21 23
REMARK SMILES IDX 22 24 23 25 24 26 25 27 26 28 78 29 27 30 77 31 28 32 29 33
REMARK SMILES IDX 30 34 71 35 31 36 76 37 70 38 72 39 32 40 75 41 69 42 68 43
REMARK SMILES IDX 33 45 59 46 42 47 58 48 43 49 46 50 57 51 73 52 44 53 45 54
REMARK SMILES IDX 56 56 74 57 47 58 34 59 35 60 40 61 36 62 37 63 39 64 41 65
REMARK SMILES IDX 38 66 60 67 61 68 66 69 62 70 63 71 65 72 67 73 64 74 48 75
REMARK SMILES IDX 49 76 54 77 50 78 51 79 53 80 55 81 52 82
REMARK H PARENT 72 44 46 55
REMARK Flexibility Score: inf
ROOT
ATOM      1  O   UNL     1      -0.977   5.680   2.197  1.00  0.00    -0.462 OA
ENDROOT
BRANCH   1   2
ATOM      2  C   UNL     1       0.352   5.531   2.022  1.00  0.00     0.305 C 
ATOM      3  O   UNL     1       0.928   5.588   0.941  1.00  0.00    -0.252 OA
BRANCH   2   4
ATOM      4  C   UNL     1       1.070   5.238   3.326  1.00  0.00     0.124 C 
BRANCH   4   5
ATOM      5  C   UNL     1       0.492   5.829   4.619  1.00  0.00     0.033 C 
BRANCH   5   6
ATOM      6  C   UNL     1      -0.914   5.390   5.060  1.00  0.00     0.120 C 
BRANCH   6   7
ATOM      7  N   UNL     1      -0.993   3.981   5.465  1.00  0.00    -0.342 N 
ATOM      8  C   UNL     1      -1.102   3.773   6.897  1.00  0.00     0.147 C 
BRANCH   7   9
ATOM      9  C   UNL     1      -1.143   3.022   4.450  1.00  0.00     0.259 C 
ATOM     10  O   UNL     1      -1.446   3.383   3.314  1.00  0.00    -0.269 OA
BRANCH   9  11
ATOM     11  C   UNL     1      -0.907   1.602   4.676  1.00  0.00     0.104 A 
ATOM     12  C   UNL     1       0.878   0.189   0.296  1.00  0.00     0.067 C 
ATOM     13  C   UNL     1       0.380  -0.038   1.702  1.00  0.00     0.042 A 
ATOM     14  C   UNL     1       0.274  -1.460   2.155  1.00  0.00     0.047 A 
ATOM     15  N   UNL     1       0.098   0.996   2.439  1.00  0.00    -0.233 NA
ATOM     16  C   UNL     1      -0.133  -1.653   3.422  1.00  0.00     0.043 A 
ATOM     17  C   UNL     1      -0.377   0.756   3.704  1.00  0.00     0.168 A 
ATOM     18  C   UNL     1      -0.297  -3.014   4.022  1.00  0.00     0.067 C 
ATOM     19  N   UNL     1      -0.454  -0.542   4.216  1.00  0.00    -0.219 N 
ATOM     20  N   UNL     1      -0.897  -0.542   5.497  1.00  0.00    -0.174 NA
ATOM     21  C   UNL     1      -1.212   0.731   5.736  1.00  0.00     0.151 A 
ENDBRANCH   9  11
ENDBRANCH   7   9
ENDBRANCH   6   7
ENDBRANCH   5   6
ENDBRANCH   4   5
ENDBRANCH   2   4
ENDBRANCH   1   2
BRANCH   1  22
ATOM     22  C   UNL     1      -1.820   5.846   1.053  1.00  0.00     0.274 C 
BRANCH  22  23
ATOM     23  C   UNL     1      -2.262   7.294   0.968  1.00  0.00     0.275 C 
BRANCH  23  24
ATOM     24  O   UNL     1      -1.164   8.131   0.606  1.00  0.00    -0.458 OA
BRANCH  24  25
ATOM     25  C   UNL     1      -0.440   8.609   1.641  1.00  0.00     0.338 C 
ATOM     26  O   UNL     1      -0.524   8.311   2.819  1.00  0.00    -0.246 OA
BRANCH  25  27
ATOM     27  C   UNL     1       0.391   9.718   1.168  1.00  0.00     0.060 A 
ATOM     28  C   UNL     1       1.399  10.184   2.016  1.00  0.00     0.016 A 
ATOM     29  C   UNL     1       0.018  10.415   0.010  1.00  0.00     0.016 A 
ATOM     30  C   UNL     1       1.952  11.423   1.763  1.00  0.00     0.010 A 
ATOM     31  C   UNL     1       0.568  11.651  -0.239  1.00  0.00     0.010 A 
ATOM     32  C   UNL     1       1.486  12.168   0.672  1.00  0.00    -0.014 A 
BRANCH  32  33
ATOM     33  C   UNL     1       2.037  13.492   0.478  1.00  0.00     0.031 A 
ATOM     34  C   UNL     1       3.465  13.522   0.088  1.00  0.00     0.074 A 
ATOM     35  C   UNL     1       1.297  14.613   0.530  1.00  0.00     0.049 A 
ATOM     36  N   UNL     1       4.448  14.050   0.737  1.00  0.00    -0.248 NA
ATOM     37  C   UNL     1       3.859  12.800  -1.129  1.00  0.00     0.031 C 
ATOM     38  C   UNL     1      -0.160  14.742   0.599  1.00  0.00     0.029 A 
ATOM     39  N   UNL     1       1.722  15.899   0.417  1.00  0.00    -0.354 N 
ATOM     40  C   UNL     1       5.570  13.880  -0.067  1.00  0.00     0.074 A 
ATOM     41  C   UNL     1       5.176  13.002  -1.138  1.00  0.00     0.031 C 
ATOM     42  C   UNL     1      -0.500  16.016   0.302  1.00  0.00     0.029 A 
ATOM     43  C   UNL     1       0.712  16.806   0.149  1.00  0.00     0.049 A 
ATOM     44  H   UNL     1       2.665  16.162   0.516  1.00  0.00     0.167 HD
ATOM     45  C   UNL     1       6.681  14.645   0.104  1.00  0.00     0.037 A 
ATOM     46  C   UNL     1       0.881  18.089  -0.252  1.00  0.00     0.037 A 
ATOM     47  C   UNL     1       6.715  15.248   1.411  1.00  0.00     0.049 A 
ATOM     48  C   UNL     1       2.254  18.503   0.140  1.00  0.00     0.074 A 
ATOM     49  C   UNL     1       6.670  14.761   2.705  1.00  0.00     0.029 A 
ATOM     50  N   UNL     1       6.466  16.595   1.518  1.00  0.00    -0.354 N 
ATOM     51  N   UNL     1       2.644  18.690   1.371  1.00  0.00    -0.248 NA
ATOM     52  C   UNL     1       3.326  18.316  -0.829  1.00  0.00     0.031 C 
ATOM     53  C   UNL     1       5.908  15.720   3.433  1.00  0.00     0.029 A 
ATOM     54  C   UNL     1       5.574  16.745   2.546  1.00  0.00     0.049 A 
ATOM     55  H   UNL     1       6.854  17.311   0.965  1.00  0.00     0.167 HD
ATOM     56  C   UNL     1       3.950  18.224   1.403  1.00  0.00     0.074 A 
ATOM     57  C   UNL     1       4.349  18.108   0.004  1.00  0.00     0.031 C 
ATOM     58  C   UNL     1       4.496  17.705   2.542  1.00  0.00     0.037 A 
BRANCH  45  59
ATOM     59  C   UNL     1       7.541  15.139  -1.031  1.00  0.00     0.057 A 
ATOM     60  C   UNL     1       8.731  15.829  -0.735  1.00  0.00     0.134 A 
ATOM     61  C   UNL     1       7.100  15.246  -2.365  1.00  0.00     0.134 A 
ATOM     62  F   UNL     1       9.250  15.808   0.502  1.00  0.00    -0.206 F 
ATOM     63  C   UNL     1       9.375  16.646  -1.671  1.00  0.00     0.040 A 
ATOM     64  C   UNL     1       7.767  16.016  -3.321  1.00  0.00     0.040 A 
ATOM     65  F   UNL     1       5.953  14.704  -2.790  1.00  0.00    -0.206 F 
ATOM     66  C   UNL     1       8.886  16.751  -2.966  1.00  0.00     0.006 A 
ENDBRANCH  45  59
BRANCH  46  67
ATOM     67  C   UNL     1       0.048  18.868  -1.197  1.00  0.00     0.057 A 
ATOM     68  C   UNL     1       0.233  20.250  -1.348  1.00  0.00     0.134 A 
ATOM     69  C   UNL     1      -0.769  18.251  -2.162  1.00  0.00     0.134 A 
ATOM     70  F   UNL     1       1.029  20.927  -0.507  1.00  0.00    -0.206 F 
ATOM     71  C   UNL     1      -0.338  20.969  -2.406  1.00  0.00     0.040 A 
ATOM     72  C   UNL     1      -1.357  18.959  -3.215  1.00  0.00     0.040 A 
ATOM     73  F   UNL     1      -0.957  16.924  -2.175  1.00  0.00    -0.206 F 
ATOM     74  C   UNL     1      -1.129  20.321  -3.349  1.00  0.00     0.006 A 
ENDBRANCH  46  67
BRANCH  58  75
ATOM     75  C   UNL     1       3.770  17.888   3.843  1.00  0.00     0.057 A 
ATOM     76  C   UNL     1       2.505  17.346   4.112  1.00  0.00     0.134 A 
ATOM     77  C   UNL     1       4.463  18.450   4.923  1.00  0.00     0.134 A 
ATOM     78  F   UNL     1       1.810  16.699   3.167  1.00  0.00    -0.206 F 
ATOM     79  C   UNL     1       1.945  17.389   5.392  1.00  0.00     0.040 A 
ATOM     80  C   UNL     1       3.928  18.469   6.213  1.00  0.00     0.040 A 
ATOM     81  F   UNL     1       5.703  18.936   4.752  1.00  0.00    -0.206 F 
ATOM     82  C   UNL     1       2.662  17.941   6.449  1.00  0.00     0.006 A 
ENDBRANCH  58  75
ENDBRANCH  32  33
ENDBRANCH  25  27
ENDBRANCH  24  25
ENDBRANCH  23  24
ENDBRANCH  22  23
ENDBRANCH   1  22
TORSDOF 16
