REMARK SMILES C[C@H](NC(=O)NCCc1ccccc1F)C(=O)OCCOC(=O)c1ccc(-c2c3nc(c(-c4c(F)cccc4F)c4ccc([nH]4)c(-c4c(F)cccc4F)c4nc(c(-c5c(F)cccc5F)c5ccc2[nH]5)C=C4)C=C3)cc1
REMARK SMILES IDX 19 1 18 2 16 3 17 4 2 5 1 6 3 7 4 8 5 10 6 11 7 13 8 14 9 15
REMARK SMILES IDX 10 16 14 17 11 18 13 19 15 20 12 21 20 22 21 23 22 24 23 25
REMARK SMILES IDX 24 26 25 27 77 28 26 29 76 30 27 31 28 32 29 33 70 34 30 35
REMARK SMILES IDX 75 36 69 37 71 38 31 39 74 40 68 41 67 42 32 44 58 45 41 46
REMARK SMILES IDX 57 47 42 48 45 49 56 50 72 51 43 52 44 53 55 55 73 56 46 57
REMARK SMILES IDX 33 58 34 59 39 60 35 61 36 62 38 63 40 64 37 65 59 66 60 67
REMARK SMILES IDX 65 68 61 69 62 70 64 71 66 72 63 73 47 74 48 75 53 76 49 77
REMARK SMILES IDX 50 78 52 79 54 80 51 81
REMARK H PARENT 3 9 6 12 71 43 45 54
REMARK Flexibility Score: inf
ROOT
ATOM      1  C   UNL     1      -3.350  -0.340  -0.776  1.00  0.00     0.274 C 
ENDROOT
BRANCH   1   2
ATOM      2  O   UNL     1      -1.929  -0.503  -0.947  1.00  0.00    -0.461 OA
BRANCH   2   3
ATOM      3  C   UNL     1      -1.371   0.214  -1.959  1.00  0.00     0.328 C 
ATOM      4  O   UNL     1      -2.000   0.869  -2.784  1.00  0.00    -0.250 OA
BRANCH   3   5
ATOM      5  C   UNL     1       0.156   0.070  -2.024  1.00  0.00     0.190 C 
ATOM      6  C   UNL     1       0.498  -0.795  -3.235  1.00  0.00     0.043 C 
BRANCH   5   7
ATOM      7  N   UNL     1       0.788  -0.444  -0.813  1.00  0.00    -0.325 N 
ATOM      8  C   UNL     1       2.054  -0.434  -0.366  1.00  0.00     0.315 C 
ATOM      9  H   UNL     1       0.159  -0.888  -0.200  1.00  0.00     0.166 HD
ATOM     10  O   UNL     1       2.305  -0.984   0.708  1.00  0.00    -0.249 OA
ATOM     11  N   UNL     1       3.074   0.143  -1.025  1.00  0.00    -0.338 N 
ATOM     12  H   UNL     1       3.934   0.056  -0.554  1.00  0.00     0.165 HD
BRANCH  11  13
ATOM     13  C   UNL     1       3.182   0.867  -2.280  1.00  0.00     0.122 C 
BRANCH  13  14
ATOM     14  C   UNL     1       4.405   1.786  -2.365  1.00  0.00     0.060 C 
BRANCH  14  15
ATOM     15  C   UNL     1       5.749   1.191  -2.701  1.00  0.00    -0.010 A 
ATOM     16  C   UNL     1       6.021  -0.180  -2.768  1.00  0.00     0.007 A 
ATOM     17  C   UNL     1       6.798   2.084  -2.971  1.00  0.00     0.126 A 
ATOM     18  C   UNL     1       7.303  -0.631  -3.105  1.00  0.00     0.000 A 
ATOM     19  C   UNL     1       8.074   1.643  -3.306  1.00  0.00     0.039 A 
ATOM     20  F   UNL     1       6.571   3.405  -2.918  1.00  0.00    -0.207 F 
ATOM     21  C   UNL     1       8.328   0.278  -3.375  1.00  0.00     0.003 A 
ENDBRANCH  14  15
ENDBRANCH  13  14
ENDBRANCH  11  13
ENDBRANCH   5   7
ENDBRANCH   3   5
ENDBRANCH   2   3
ENDBRANCH   1   2
BRANCH   1  22
ATOM     22  C   UNL     1      -3.665   0.497   0.467  1.00  0.00     0.275 C 
BRANCH  22  23
ATOM     23  O   UNL     1      -3.148   1.839   0.370  1.00  0.00    -0.458 OA
BRANCH  23  24
ATOM     24  C   UNL     1      -1.873   1.990   0.798  1.00  0.00     0.338 C 
ATOM     25  O   UNL     1      -1.134   1.111   1.223  1.00  0.00    -0.246 OA
BRANCH  24  26
ATOM     26  C   UNL     1      -1.419   3.374   0.591  1.00  0.00     0.060 A 
ATOM     27  C   UNL     1      -0.175   3.577  -0.018  1.00  0.00     0.016 A 
ATOM     28  C   UNL     1      -2.160   4.461   1.062  1.00  0.00     0.016 A 
ATOM     29  C   UNL     1       0.332   4.868  -0.155  1.00  0.00     0.010 A 
ATOM     30  C   UNL     1      -1.646   5.755   0.930  1.00  0.00     0.010 A 
ATOM     31  C   UNL     1      -0.392   5.966   0.331  1.00  0.00    -0.014 A 
BRANCH  31  32
ATOM     32  C   UNL     1       0.184   7.330   0.251  1.00  0.00     0.031 A 
ATOM     33  C   UNL     1       0.766   7.975   1.476  1.00  0.00     0.074 A 
ATOM     34  C   UNL     1       0.203   7.983  -0.925  1.00  0.00     0.049 A 
ATOM     35  N   UNL     1       1.259   9.178   1.621  1.00  0.00    -0.248 NA
ATOM     36  C   UNL     1       0.798   7.158   2.699  1.00  0.00     0.031 C 
ATOM     37  C   UNL     1      -0.293   7.448  -2.193  1.00  0.00     0.029 A 
ATOM     38  N   UNL     1       0.658   9.238  -1.244  1.00  0.00    -0.354 N 
ATOM     39  C   UNL     1       1.654   9.267   2.950  1.00  0.00     0.074 A 
ATOM     40  C   UNL     1       1.323   8.004   3.575  1.00  0.00     0.031 C 
ATOM     41  C   UNL     1      -0.108   8.367  -3.155  1.00  0.00     0.029 A 
ATOM     42  C   UNL     1       0.478   9.568  -2.564  1.00  0.00     0.049 A 
ATOM     43  H   UNL     1       1.073   9.844  -0.588  1.00  0.00     0.167 HD
ATOM     44  C   UNL     1       2.246  10.306   3.586  1.00  0.00     0.037 A 
ATOM     45  C   UNL     1       0.737  10.716  -3.221  1.00  0.00     0.037 A 
ATOM     46  C   UNL     1       2.585  11.558   2.961  1.00  0.00     0.049 A 
ATOM     47  C   UNL     1       1.331  11.879  -2.476  1.00  0.00     0.074 A 
ATOM     48  C   UNL     1       3.197  12.664   3.527  1.00  0.00     0.029 A 
ATOM     49  N   UNL     1       2.344  11.870   1.633  1.00  0.00    -0.354 N 
ATOM     50  N   UNL     1       1.690  11.956  -1.218  1.00  0.00    -0.248 NA
ATOM     51  C   UNL     1       1.546  13.118  -3.238  1.00  0.00     0.031 C 
ATOM     52  C   UNL     1       3.288  13.661   2.551  1.00  0.00     0.029 A 
ATOM     53  C   UNL     1       2.775  13.160   1.366  1.00  0.00     0.049 A 
ATOM     54  H   UNL     1       1.929  11.266   0.976  1.00  0.00     0.167 HD
ATOM     55  C   UNL     1       2.189  13.240  -1.041  1.00  0.00     0.074 A 
ATOM     56  C   UNL     1       2.097  13.906  -2.323  1.00  0.00     0.031 C 
ATOM     57  C   UNL     1       2.679  13.812   0.085  1.00  0.00     0.037 A 
BRANCH  44  58
ATOM     58  C   UNL     1       2.556  10.144   5.044  1.00  0.00     0.057 A 
ATOM     59  C   UNL     1       1.825  10.845   6.011  1.00  0.00     0.134 A 
ATOM     60  C   UNL     1       3.620   9.348   5.487  1.00  0.00     0.134 A 
ATOM     61  F   UNL     1       0.798  11.630   5.652  1.00  0.00    -0.206 F 
ATOM     62  C   UNL     1       2.147  10.769   7.367  1.00  0.00     0.040 A 
ATOM     63  C   UNL     1       3.938   9.247   6.843  1.00  0.00     0.040 A 
ATOM     64  F   UNL     1       4.353   8.645   4.611  1.00  0.00    -0.206 F 
ATOM     65  C   UNL     1       3.206   9.966   7.786  1.00  0.00     0.006 A 
ENDBRANCH  44  58
BRANCH  45  66
ATOM     66  C   UNL     1       0.427  10.818  -4.668  1.00  0.00     0.057 A 
ATOM     67  C   UNL     1      -0.895  10.858  -5.129  1.00  0.00     0.134 A 
ATOM     68  C   UNL     1       1.447  10.858  -5.624  1.00  0.00     0.134 A 
ATOM     69  F   UNL     1      -1.916  10.823  -4.261  1.00  0.00    -0.206 F 
ATOM     70  C   UNL     1      -1.192  10.912  -6.491  1.00  0.00     0.040 A 
ATOM     71  C   UNL     1       1.165  10.935  -6.989  1.00  0.00     0.040 A 
ATOM     72  F   UNL     1       2.732  10.847  -5.241  1.00  0.00    -0.206 F 
ATOM     73  C   UNL     1      -0.159  10.953  -7.426  1.00  0.00     0.006 A 
ENDBRANCH  45  66
BRANCH  57  74
ATOM     74  C   UNL     1       3.173  15.226  -0.012  1.00  0.00     0.057 A 
ATOM     75  C   UNL     1       4.543  15.509   0.049  1.00  0.00     0.134 A 
ATOM     76  C   UNL     1       2.289  16.309  -0.087  1.00  0.00     0.134 A 
ATOM     77  F   UNL     1       5.441  14.516   0.132  1.00  0.00    -0.206 F 
ATOM     78  C   UNL     1       5.017  16.822   0.053  1.00  0.00     0.040 A 
ATOM     79  C   UNL     1       2.752  17.626  -0.106  1.00  0.00     0.040 A 
ATOM     80  F   UNL     1       0.965  16.103  -0.158  1.00  0.00    -0.206 F 
ATOM     81  C   UNL     1       4.119  17.885  -0.026  1.00  0.00     0.006 A 
ENDBRANCH  57  74
ENDBRANCH  31  32
ENDBRANCH  24  26
ENDBRANCH  23  24
ENDBRANCH  22  23
ENDBRANCH   1  22
TORSDOF 15
