REMARK SMILES CC[C@@H](NC(=O)N[C@H]1CCCCC[C@@H]1C(=O)OCCOC(=O)c1ccc(-c2c3nc(c(-c4c(F)cccc4F)c4ccc([nH]4)c(-c4c(F)cccc4F)c4nc(c(-c5c(F)cccc5F)c5ccc2[nH]5)C=C4)C=C3)cc1)C(C)C
REMARK SMILES IDX 18 1 17 2 15 3 16 4 14 5 8 6 7 7 4 8 5 9 6 11 3 13 2 14 1 15
REMARK SMILES IDX 77 16 78 17 79 18 9 19 10 20 11 21 13 23 12 24 19 26 20 27
REMARK SMILES IDX 21 28 22 29 23 30 24 31 76 32 25 33 75 34 26 35 27 36 28 37
REMARK SMILES IDX 69 38 29 39 74 40 68 41 70 42 30 43 73 44 67 45 66 46 31 48
REMARK SMILES IDX 57 49 40 50 56 51 41 52 44 53 55 54 71 55 42 56 43 57 54 59
REMARK SMILES IDX 72 60 45 61 32 62 33 63 38 64 34 65 35 66 37 67 39 68 36 69
REMARK SMILES IDX 58 70 59 71 64 72 60 73 61 74 63 75 65 76 62 77 46 78 47 79
REMARK SMILES IDX 52 80 48 81 49 82 51 83 53 84 50 85
REMARK H PARENT 4 10 7 12 70 47 44 58
REMARK Flexibility Score: 90.00
ROOT
ATOM      1  C   UNL     1       1.415  -0.697   2.733  1.00  0.00     0.274 C 
ENDROOT
BRANCH   1   2
ATOM      2  O   UNL     1       1.407  -1.870   1.848  1.00  0.00    -0.462 OA
BRANCH   2   3
ATOM      3  C   UNL     1       2.354  -2.856   1.974  1.00  0.00     0.311 C 
ATOM      4  O   UNL     1       3.088  -2.909   2.956  1.00  0.00    -0.252 OA
BRANCH   3   5
ATOM      5  C   UNL     1       2.526  -3.812   0.698  1.00  0.00     0.121 C 
BRANCH   5   6
ATOM      6  C   UNL     1       1.315  -4.706   0.254  1.00  0.00     0.098 C 
BRANCH   6   7
ATOM      7  N   UNL     1       0.999  -4.714  -1.205  1.00  0.00    -0.335 N 
ATOM      8  N   UNL     1      -0.907  -3.363  -1.693  1.00  0.00    -0.335 N 
ATOM      9  C   UNL     1      -0.070  -4.377  -1.962  1.00  0.00     0.315 C 
ATOM     10  H   UNL     1      -1.672  -3.299  -2.309  1.00  0.00     0.165 HD
ATOM     11  O   UNL     1      -0.254  -4.994  -3.013  1.00  0.00    -0.249 OA
ATOM     12  H   UNL     1       1.751  -5.045  -1.747  1.00  0.00     0.165 HD
BRANCH   8  13
ATOM     13  C   UNL     1      -0.891  -2.333  -0.652  1.00  0.00     0.086 C 
BRANCH  13  14
ATOM     14  C   UNL     1       0.458  -1.591  -0.860  1.00  0.00     0.022 C 
ATOM     15  C   UNL     1       0.424  -0.079  -1.053  1.00  0.00     0.006 C 
ENDBRANCH  13  14
BRANCH  13  16
ATOM     16  C   UNL     1      -1.578  -3.052   0.579  1.00  0.00     0.005 C 
ATOM     17  C   UNL     1      -1.064  -3.106   1.997  1.00  0.00     0.009 C 
ATOM     18  C   UNL     1      -3.072  -2.659   0.687  1.00  0.00     0.009 C 
ENDBRANCH  13  16
ENDBRANCH   8  13
ENDBRANCH   6   7
BRANCH   6  19
ATOM     19  C   UNL     1       1.320  -6.166   0.793  1.00  0.00     0.026 C 
BRANCH  19  20
ATOM     20  C   UNL     1       2.163  -7.190   0.021  1.00  0.00     0.002 C 
BRANCH  20  21
ATOM     21  C   UNL     1       3.671  -7.028   0.145  1.00  0.00     0.000 CG0
ATOM     22  G   UNL     1       4.190  -5.624  -0.145  1.00  0.00     0.000 G0
ENDBRANCH  20  21
ENDBRANCH  19  20
ENDBRANCH   6  19
ENDBRANCH   5   6
BRANCH   5  23
ATOM     23  C   UNL     1       3.818  -4.625   0.947  1.00  0.00     0.017 C 
BRANCH  23  24
ATOM     24  C   UNL     1       4.190  -5.624  -0.145  1.00  0.00     0.001 CG0
ATOM     25  G   UNL     1       3.671  -7.028   0.145  1.00  0.00     0.000 G0
ENDBRANCH  23  24
ENDBRANCH   5  23
ENDBRANCH   3   5
ENDBRANCH   2   3
ENDBRANCH   1   2
BRANCH   1  26
ATOM     26  C   UNL     1       0.035   0.040   2.836  1.00  0.00     0.275 C 
BRANCH  26  27
ATOM     27  O   UNL     1      -0.682  -0.453   4.000  1.00  0.00    -0.458 OA
BRANCH  27  28
ATOM     28  C   UNL     1      -2.045  -0.570   3.959  1.00  0.00     0.338 C 
ATOM     29  O   UNL     1      -2.802   0.092   3.276  1.00  0.00    -0.246 OA
BRANCH  28  30
ATOM     30  C   UNL     1      -2.429  -1.842   4.676  1.00  0.00     0.060 A 
ATOM     31  C   UNL     1      -1.408  -2.719   5.037  1.00  0.00     0.016 A 
ATOM     32  C   UNL     1      -3.751  -2.313   4.735  1.00  0.00     0.016 A 
ATOM     33  C   UNL     1      -1.688  -4.056   5.291  1.00  0.00     0.010 A 
ATOM     34  C   UNL     1      -4.031  -3.629   5.194  1.00  0.00     0.010 A 
ATOM     35  C   UNL     1      -2.993  -4.529   5.493  1.00  0.00    -0.014 A 
BRANCH  35  36
ATOM     36  C   UNL     1      -3.176  -5.913   6.069  1.00  0.00     0.031 A 
ATOM     37  C   UNL     1      -4.184  -6.912   5.548  1.00  0.00     0.074 A 
ATOM     38  C   UNL     1      -2.370  -6.330   7.078  1.00  0.00     0.049 A 
ATOM     39  N   UNL     1      -4.617  -8.013   6.121  1.00  0.00    -0.248 NA
ATOM     40  C   UNL     1      -4.777  -6.662   4.228  1.00  0.00     0.031 C 
ATOM     41  C   UNL     1      -1.297  -5.543   7.696  1.00  0.00     0.029 A 
ATOM     42  N   UNL     1      -2.295  -7.533   7.745  1.00  0.00    -0.354 N 
ATOM     43  C   UNL     1      -5.586  -8.543   5.276  1.00  0.00     0.074 A 
ATOM     44  C   UNL     1      -5.646  -7.664   4.123  1.00  0.00     0.031 C 
ATOM     45  C   UNL     1      -0.594  -6.313   8.529  1.00  0.00     0.029 A 
ATOM     46  C   UNL     1      -1.303  -7.569   8.698  1.00  0.00     0.049 A 
ATOM     47  H   UNL     1      -2.893  -8.293   7.559  1.00  0.00     0.167 HD
ATOM     48  C   UNL     1      -6.363  -9.642   5.460  1.00  0.00     0.037 A 
ATOM     49  C   UNL     1      -1.034  -8.431   9.696  1.00  0.00     0.037 A 
ATOM     50  C   UNL     1      -6.251 -10.561   6.571  1.00  0.00     0.049 A 
ATOM     51  C   UNL     1      -1.944  -9.589   9.928  1.00  0.00     0.074 A 
ATOM     52  C   UNL     1      -7.025 -11.678   6.852  1.00  0.00     0.029 A 
ATOM     53  N   UNL     1      -5.289 -10.494   7.566  1.00  0.00    -0.354 N 
ATOM     54  N   UNL     1      -2.985  -9.966   9.232  1.00  0.00    -0.248 NA
ATOM     55  C   UNL     1      -1.675 -10.408  11.117  1.00  0.00     0.031 C 
ATOM     56  C   UNL     1      -6.547 -12.270   8.028  1.00  0.00     0.029 A 
ATOM     57  C   UNL     1      -5.450 -11.546   8.459  1.00  0.00     0.049 A 
ATOM     58  H   UNL     1      -4.592  -9.801   7.631  1.00  0.00     0.167 HD
ATOM     59  C   UNL     1      -3.506 -11.060   9.903  1.00  0.00     0.074 A 
ATOM     60  C   UNL     1      -2.649 -11.304  11.045  1.00  0.00     0.031 C 
ATOM     61  C   UNL     1      -4.607 -11.787   9.599  1.00  0.00     0.037 A 
BRANCH  48  62
ATOM     62  C   UNL     1      -7.468  -9.900   4.473  1.00  0.00     0.057 A 
ATOM     63  C   UNL     1      -7.240 -10.455   3.210  1.00  0.00     0.134 A 
ATOM     64  C   UNL     1      -8.803  -9.676   4.848  1.00  0.00     0.134 A 
ATOM     65  F   UNL     1      -5.990 -10.694   2.788  1.00  0.00    -0.206 F 
ATOM     66  C   UNL     1      -8.298 -10.770   2.351  1.00  0.00     0.040 A 
ATOM     67  C   UNL     1      -9.867 -10.006   4.007  1.00  0.00     0.040 A 
ATOM     68  F   UNL     1      -9.094  -9.164   6.053  1.00  0.00    -0.206 F 
ATOM     69  C   UNL     1      -9.616 -10.554   2.752  1.00  0.00     0.006 A 
ENDBRANCH  48  62
BRANCH  49  70
ATOM     70  C   UNL     1       0.068  -8.121  10.643  1.00  0.00     0.057 A 
ATOM     71  C   UNL     1       1.237  -8.883  10.674  1.00  0.00     0.134 A 
ATOM     72  C   UNL     1      -0.008  -7.012  11.500  1.00  0.00     0.134 A 
ATOM     73  F   UNL     1       1.354  -9.973   9.901  1.00  0.00    -0.206 F 
ATOM     74  C   UNL     1       2.302  -8.544  11.511  1.00  0.00     0.040 A 
ATOM     75  C   UNL     1       1.062  -6.640  12.310  1.00  0.00     0.040 A 
ATOM     76  F   UNL     1      -1.105  -6.240  11.513  1.00  0.00    -0.206 F 
ATOM     77  C   UNL     1       2.222  -7.410  12.318  1.00  0.00     0.006 A 
ENDBRANCH  49  70
BRANCH  61  78
ATOM     78  C   UNL     1      -4.914 -12.939  10.504  1.00  0.00     0.057 A 
ATOM     79  C   UNL     1      -5.459 -12.749  11.780  1.00  0.00     0.134 A 
ATOM     80  C   UNL     1      -4.624 -14.251  10.111  1.00  0.00     0.134 A 
ATOM     81  F   UNL     1      -5.734 -11.513  12.225  1.00  0.00    -0.206 F 
ATOM     82  C   UNL     1      -5.679 -13.823  12.645  1.00  0.00     0.040 A 
ATOM     83  C   UNL     1      -4.857 -15.334  10.959  1.00  0.00     0.040 A 
ATOM     84  F   UNL     1      -4.096 -14.498   8.902  1.00  0.00    -0.206 F 
ATOM     85  C   UNL     1      -5.379 -15.120  12.233  1.00  0.00     0.006 A 
ENDBRANCH  61  78
ENDBRANCH  35  36
ENDBRANCH  28  30
ENDBRANCH  27  28
ENDBRANCH  26  27
ENDBRANCH   1  26
TORSDOF 15
