REMARK SMILES COc1ccc2c(CC(=O)OCCOC(=O)c3ccc(-c4c5nc(c(-c6c(F)cccc6F)c6ccc([nH]6)c(-c6c(F)cccc6F)c6nc(c(-c7c(F)cccc7F)c7ccc4[nH]7)C=C6)C=C5)cc3)c(C(=O)c3cc(C)ccn3)[nH]c2c1
REMARK SMILES IDX 12 1 11 2 9 3 10 4 8 5 7 6 3 7 4 8 83 9 5 10 82 11 6 12
REMARK SMILES IDX 81 13 71 14 2 16 1 17 72 18 73 19 74 20 75 21 80 22 76 23
REMARK SMILES IDX 79 24 77 25 78 26 13 27 14 28 15 29 16 30 17 31 18 32 70 33
REMARK SMILES IDX 19 34 69 35 20 36 21 37 22 38 63 39 23 40 68 41 62 42 64 43
REMARK SMILES IDX 24 44 67 45 61 46 60 47 25 49 51 50 34 51 50 52 35 53 38 54
REMARK SMILES IDX 49 55 65 56 36 57 37 58 48 60 66 61 39 62 26 63 27 64 32 65
REMARK SMILES IDX 28 66 29 67 31 68 33 69 30 70 52 71 53 72 58 73 54 74 55 75
REMARK SMILES IDX 57 76 59 77 56 78 40 79 41 80 46 81 42 82 43 83 45 84 47 85
REMARK SMILES IDX 44 86
REMARK H PARENT 81 15 64 48 38 59
REMARK Flexibility Score: inf
ROOT
ATOM      1  C   UNL     1       3.673   3.478  -8.326  1.00  0.00     0.274 C 
ENDROOT
BRANCH   1   2
ATOM      2  O   UNL     1       3.009   3.571  -7.048  1.00  0.00    -0.462 OA
BRANCH   2   3
ATOM      3  C   UNL     1       3.614   4.376  -6.135  1.00  0.00     0.310 C 
ATOM      4  O   UNL     1       4.680   4.958  -6.328  1.00  0.00    -0.252 OA
BRANCH   3   5
ATOM      5  C   UNL     1       2.863   4.548  -4.834  1.00  0.00     0.161 C 
BRANCH   5   6
ATOM      6  C   UNL     1       1.638   3.707  -4.628  1.00  0.00     0.000 A 
ATOM      7  C   UNL     1       0.866   0.372  -2.223  1.00  0.00     0.120 A 
ATOM      8  C   UNL     1       2.214   0.692  -2.366  1.00  0.00     0.047 A 
ATOM      9  C   UNL     1      -0.117   1.003  -2.990  1.00  0.00     0.073 A 
ATOM     10  C   UNL     1       2.604   1.739  -3.206  1.00  0.00     0.014 A 
ATOM     11  C   UNL     1       0.291   2.074  -3.793  1.00  0.00     0.050 A 
ATOM     12  C   UNL     1       1.617   2.482  -3.886  1.00  0.00     0.004 A 
ATOM     13  N   UNL     1      -0.444   2.928  -4.580  1.00  0.00    -0.351 N 
ATOM     14  C   UNL     1       0.309   4.039  -4.899  1.00  0.00     0.093 A 
ATOM     15  H   UNL     1      -1.371   2.770  -4.872  1.00  0.00     0.167 HD
BRANCH   7  16
ATOM     16  O   UNL     1       0.441  -0.584  -1.336  1.00  0.00    -0.497 OA
ATOM     17  C   UNL     1       0.837  -0.260   0.000  1.00  0.00     0.278 C 
ENDBRANCH   7  16
BRANCH  14  18
ATOM     18  C   UNL     1      -0.254   5.315  -5.312  1.00  0.00     0.227 C 
ATOM     19  O   UNL     1       0.310   6.389  -5.117  1.00  0.00    -0.285 OA
BRANCH  18  20
ATOM     20  C   UNL     1      -1.630   5.362  -5.861  1.00  0.00     0.113 A 
ATOM     21  C   UNL     1      -2.674   5.790  -5.048  1.00  0.00     0.036 A 
ATOM     22  N   UNL     1      -1.772   5.013  -7.159  1.00  0.00    -0.253 NA
ATOM     23  C   UNL     1      -3.952   5.874  -5.605  1.00  0.00    -0.047 A 
ATOM     24  C   UNL     1      -3.001   5.169  -7.691  1.00  0.00     0.112 A 
ATOM     25  C   UNL     1      -5.135   6.289  -4.783  1.00  0.00     0.044 C 
ATOM     26  C   UNL     1      -4.107   5.585  -6.964  1.00  0.00     0.023 A 
ENDBRANCH  18  20
ENDBRANCH  14  18
ENDBRANCH   5   6
ENDBRANCH   3   5
ENDBRANCH   2   3
ENDBRANCH   1   2
BRANCH   1  27
ATOM     27  C   UNL     1       2.996   4.379  -9.356  1.00  0.00     0.275 C 
BRANCH  27  28
ATOM     28  O   UNL     1       2.862   5.707  -8.823  1.00  0.00    -0.458 OA
BRANCH  28  29
ATOM     29  C   UNL     1       1.601   6.195  -8.800  1.00  0.00     0.338 C 
ATOM     30  O   UNL     1       0.606   5.677  -9.289  1.00  0.00    -0.246 OA
BRANCH  29  31
ATOM     31  C   UNL     1       1.572   7.515  -8.144  1.00  0.00     0.060 A 
ATOM     32  C   UNL     1       2.247   7.749  -6.946  1.00  0.00     0.016 A 
ATOM     33  C   UNL     1       0.770   8.514  -8.697  1.00  0.00     0.016 A 
ATOM     34  C   UNL     1       2.044   8.945  -6.256  1.00  0.00     0.010 A 
ATOM     35  C   UNL     1       0.650   9.749  -8.056  1.00  0.00     0.010 A 
ATOM     36  C   UNL     1       1.261   9.968  -6.811  1.00  0.00    -0.014 A 
BRANCH  36  37
ATOM     37  C   UNL     1       1.091  11.265  -6.100  1.00  0.00     0.031 A 
ATOM     38  C   UNL     1      -0.276  11.753  -5.697  1.00  0.00     0.074 A 
ATOM     39  C   UNL     1       2.171  12.021  -5.826  1.00  0.00     0.049 A 
ATOM     40  N   UNL     1      -0.627  12.919  -5.213  1.00  0.00    -0.248 NA
ATOM     41  C   UNL     1      -1.397  10.817  -5.874  1.00  0.00     0.031 C 
ATOM     42  C   UNL     1       3.556  11.667  -6.144  1.00  0.00     0.029 A 
ATOM     43  N   UNL     1       2.275  13.245  -5.213  1.00  0.00    -0.354 N 
ATOM     44  C   UNL     1      -2.009  12.876  -5.077  1.00  0.00     0.074 A 
ATOM     45  C   UNL     1      -2.435  11.568  -5.529  1.00  0.00     0.031 C 
ATOM     46  C   UNL     1       4.372  12.628  -5.687  1.00  0.00     0.029 A 
ATOM     47  C   UNL     1       3.567  13.699  -5.111  1.00  0.00     0.049 A 
ATOM     48  H   UNL     1       1.499  13.749  -4.878  1.00  0.00     0.167 HD
ATOM     49  C   UNL     1      -2.843  13.840  -4.617  1.00  0.00     0.037 A 
ATOM     50  C   UNL     1       4.056  14.859  -4.636  1.00  0.00     0.037 A 
ATOM     51  C   UNL     1      -2.417  15.122  -4.114  1.00  0.00     0.049 A 
ATOM     52  C   UNL     1       3.112  15.903  -4.121  1.00  0.00     0.074 A 
ATOM     53  C   UNL     1      -3.193  16.154  -3.611  1.00  0.00     0.029 A 
ATOM     54  N   UNL     1      -1.098  15.540  -4.031  1.00  0.00    -0.354 N 
ATOM     55  N   UNL     1       1.805  15.866  -4.043  1.00  0.00    -0.248 NA
ATOM     56  C   UNL     1       3.711  17.156  -3.642  1.00  0.00     0.031 C 
ATOM     57  C   UNL     1      -2.344  17.204  -3.243  1.00  0.00     0.029 A 
ATOM     58  C   UNL     1      -1.038  16.814  -3.488  1.00  0.00     0.049 A 
ATOM     59  H   UNL     1      -0.318  15.010  -4.316  1.00  0.00     0.167 HD
ATOM     60  C   UNL     1       1.424  17.085  -3.502  1.00  0.00     0.074 A 
ATOM     61  C   UNL     1       2.639  17.832  -3.252  1.00  0.00     0.031 C 
ATOM     62  C   UNL     1       0.177  17.546  -3.244  1.00  0.00     0.037 A 
BRANCH  49  63
ATOM     63  C   UNL     1      -4.316  13.560  -4.653  1.00  0.00     0.057 A 
ATOM     64  C   UNL     1      -4.935  12.718  -3.722  1.00  0.00     0.134 A 
ATOM     65  C   UNL     1      -5.134  14.191  -5.600  1.00  0.00     0.134 A 
ATOM     66  F   UNL     1      -4.207  12.075  -2.797  1.00  0.00    -0.206 F 
ATOM     67  C   UNL     1      -6.315  12.505  -3.737  1.00  0.00     0.040 A 
ATOM     68  C   UNL     1      -6.517  14.001  -5.613  1.00  0.00     0.040 A 
ATOM     69  F   UNL     1      -4.605  15.016  -6.516  1.00  0.00    -0.206 F 
ATOM     70  C   UNL     1      -7.111  13.154  -4.680  1.00  0.00     0.006 A 
ENDBRANCH  49  63
BRANCH  50  71
ATOM     71  C   UNL     1       5.519  15.093  -4.644  1.00  0.00     0.057 A 
ATOM     72  C   UNL     1       6.258  15.069  -3.457  1.00  0.00     0.134 A 
ATOM     73  C   UNL     1       6.215  15.319  -5.838  1.00  0.00     0.134 A 
ATOM     74  F   UNL     1       5.641  14.878  -2.281  1.00  0.00    -0.206 F 
ATOM     75  C   UNL     1       7.639  15.264  -3.455  1.00  0.00     0.040 A 
ATOM     76  C   UNL     1       7.598  15.493  -5.853  1.00  0.00     0.040 A 
ATOM     77  F   UNL     1       5.560  15.348  -7.008  1.00  0.00    -0.206 F 
ATOM     78  C   UNL     1       8.314  15.469  -4.657  1.00  0.00     0.006 A 
ENDBRANCH  50  71
BRANCH  62  79
ATOM     79  C   UNL     1       0.074  18.913  -2.642  1.00  0.00     0.057 A 
ATOM     80  C   UNL     1       0.259  20.069  -3.410  1.00  0.00     0.134 A 
ATOM     81  C   UNL     1      -0.218  19.074  -1.282  1.00  0.00     0.134 A 
ATOM     82  F   UNL     1       0.557  19.978  -4.715  1.00  0.00    -0.206 F 
ATOM     83  C   UNL     1       0.179  21.341  -2.840  1.00  0.00     0.040 A 
ATOM     84  C   UNL     1      -0.319  20.341  -0.705  1.00  0.00     0.040 A 
ATOM     85  F   UNL     1      -0.409  18.005  -0.495  1.00  0.00    -0.206 F 
ATOM     86  C   UNL     1      -0.114  21.479  -1.484  1.00  0.00     0.006 A 
ENDBRANCH  62  79
ENDBRANCH  36  37
ENDBRANCH  29  31
ENDBRANCH  28  29
ENDBRANCH  27  28
ENDBRANCH   1  27
TORSDOF 15
