REMARK SMILES O=C1CC[C@@H](CC(=O)N2CCC(Oc3ccccc3)(C(=O)OCCOC(=O)c3ccc(-c4c5nc(c(-c6c(F)cccc6F)c6ccc([nH]6)c(-c6c(F)cccc6F)c6nc(c(-c7c(F)cccc7F)c7ccc4[nH]7)C=C6)C=C5)cc3)CC2)N1
REMARK SMILES IDX 23 1 22 2 20 3 21 4 12 5 7 6 8 7 9 8 10 9 83 10 11 11 82 12
REMARK SMILES IDX 6 13 5 14 1 15 2 16 3 17 84 18 4 19 13 21 14 22 15 23 19 24
REMARK SMILES IDX 16 25 18 26 17 27 24 28 25 29 26 30 27 31 28 32 29 33 81 34
REMARK SMILES IDX 30 35 80 36 31 37 32 38 33 39 74 40 34 41 79 42 73 43 75 44
REMARK SMILES IDX 35 45 78 46 72 47 71 48 36 50 62 51 45 52 61 53 46 54 49 55
REMARK SMILES IDX 60 56 76 57 47 58 48 59 59 61 77 62 50 63 37 64 38 65 43 66
REMARK SMILES IDX 39 67 40 68 42 69 44 70 41 71 63 72 64 73 69 74 65 75 66 76
REMARK SMILES IDX 68 77 70 78 67 79 51 80 52 81 57 82 53 83 54 84 56 85 58 86
REMARK SMILES IDX 55 87
REMARK H PARENT 84 20 75 49 49 60
REMARK Flexibility Score: inf
ROOT
ATOM      1  C   UNL     1       0.506   3.533  -5.789  1.00  0.00     0.274 C 
ENDROOT
BRANCH   1   2
ATOM      2  O   UNL     1       0.653   2.104  -5.622  1.00  0.00    -0.459 OA
BRANCH   2   3
ATOM      3  C   UNL     1       1.380   1.705  -4.543  1.00  0.00     0.350 C 
ATOM      4  O   UNL     1       1.806   2.483  -3.692  1.00  0.00    -0.247 OA
BRANCH   3   5
ATOM      5  C   UNL     1       1.647   0.181  -4.497  1.00  0.00     0.209 C 
ATOM      6  C   UNL     1      -1.226  -2.260  -2.718  1.00  0.00     0.224 C 
ATOM      7  O   UNL     1      -1.503  -3.223  -3.439  1.00  0.00    -0.275 OA
ATOM      8  N   UNL     1      -0.644  -1.118  -3.244  1.00  0.00    -0.342 N 
ATOM      9  C   UNL     1      -0.723  -0.834  -4.677  1.00  0.00     0.124 C 
ATOM     10  C   UNL     1       0.162  -0.178  -2.505  1.00  0.00     0.124 C 
ATOM     11  C   UNL     1       0.653  -0.670  -5.319  1.00  0.00     0.082 C 
ATOM     12  C   UNL     1       1.596  -0.227  -3.007  1.00  0.00     0.082 C 
BRANCH   6  13
ATOM     13  C   UNL     1      -1.726  -2.260  -1.271  1.00  0.00     0.125 C 
BRANCH  13  14
ATOM     14  C   UNL     1      -0.785  -2.367  -0.066  1.00  0.00     0.091 C 
ATOM     15  O   UNL     1       2.661  -2.029   0.481  1.00  0.00    -0.275 OA
ATOM     16  C   UNL     1       1.457  -1.906   0.468  1.00  0.00     0.220 C 
ATOM     17  C   UNL     1       0.656  -0.932   1.291  1.00  0.00     0.102 C 
ATOM     18  N   UNL     1       0.593  -2.636  -0.326  1.00  0.00    -0.353 N 
ATOM     19  C   UNL     1      -0.771  -1.102   0.787  1.00  0.00     0.035 C 
ATOM     20  H   UNL     1       0.899  -3.280  -1.005  1.00  0.00     0.163 HD
ENDBRANCH  13  14
ENDBRANCH   6  13
BRANCH   5  21
ATOM     21  O   UNL     1       2.977   0.141  -5.099  1.00  0.00    -0.475 OA
BRANCH  21  22
ATOM     22  C   UNL     1       3.725  -0.961  -4.791  1.00  0.00     0.121 A 
ATOM     23  C   UNL     1       4.622  -0.900  -3.726  1.00  0.00     0.046 A 
ATOM     24  C   UNL     1       3.625  -2.116  -5.561  1.00  0.00     0.046 A 
ATOM     25  C   UNL     1       5.338  -2.041  -3.362  1.00  0.00     0.004 A 
ATOM     26  C   UNL     1       4.333  -3.259  -5.192  1.00  0.00     0.004 A 
ATOM     27  C   UNL     1       5.179  -3.225  -4.083  1.00  0.00     0.000 A 
ENDBRANCH  21  22
ENDBRANCH   5  21
ENDBRANCH   3   5
ENDBRANCH   2   3
ENDBRANCH   1   2
BRANCH   1  28
ATOM     28  C   UNL     1      -0.878   4.004  -5.347  1.00  0.00     0.275 C 
BRANCH  28  29
ATOM     29  O   UNL     1      -0.985   3.941  -3.911  1.00  0.00    -0.458 OA
BRANCH  29  30
ATOM     30  C   UNL     1      -2.005   3.205  -3.413  1.00  0.00     0.338 C 
ATOM     31  O   UNL     1      -2.860   2.610  -4.047  1.00  0.00    -0.246 OA
BRANCH  30  32
ATOM     32  C   UNL     1      -1.930   3.145  -1.935  1.00  0.00     0.060 A 
ATOM     33  C   UNL     1      -0.710   2.910  -1.315  1.00  0.00     0.016 A 
ATOM     34  C   UNL     1      -3.097   3.132  -1.167  1.00  0.00     0.016 A 
ATOM     35  C   UNL     1      -0.685   2.499   0.018  1.00  0.00     0.010 A 
ATOM     36  C   UNL     1      -3.040   2.865   0.215  1.00  0.00     0.010 A 
ATOM     37  C   UNL     1      -1.840   2.474   0.830  1.00  0.00    -0.014 A 
BRANCH  37  38
ATOM     38  C   UNL     1      -1.763   1.974   2.256  1.00  0.00     0.031 A 
ATOM     39  C   UNL     1      -2.711   0.909   2.800  1.00  0.00     0.074 A 
ATOM     40  C   UNL     1      -0.736   2.341   3.060  1.00  0.00     0.049 A 
ATOM     41  N   UNL     1      -2.735   0.361   3.996  1.00  0.00    -0.248 NA
ATOM     42  C   UNL     1      -3.711   0.337   1.882  1.00  0.00     0.031 C 
ATOM     43  C   UNL     1       0.327   3.282   2.705  1.00  0.00     0.029 A 
ATOM     44  N   UNL     1      -0.386   1.929   4.330  1.00  0.00    -0.354 N 
ATOM     45  C   UNL     1      -3.725  -0.617   3.966  1.00  0.00     0.074 A 
ATOM     46  C   UNL     1      -4.300  -0.581   2.639  1.00  0.00     0.031 C 
ATOM     47  C   UNL     1       1.257   3.288   3.667  1.00  0.00     0.029 A 
ATOM     48  C   UNL     1       0.774   2.505   4.796  1.00  0.00     0.049 A 
ATOM     49  H   UNL     1      -0.915   1.285   4.853  1.00  0.00     0.167 HD
ATOM     50  C   UNL     1      -4.123  -1.478   4.937  1.00  0.00     0.037 A 
ATOM     51  C   UNL     1       1.361   2.501   6.011  1.00  0.00     0.037 A 
ATOM     52  C   UNL     1      -3.611  -1.517   6.284  1.00  0.00     0.049 A 
ATOM     53  C   UNL     1       0.723   1.762   7.148  1.00  0.00     0.074 A 
ATOM     54  C   UNL     1      -4.035  -2.306   7.343  1.00  0.00     0.029 A 
ATOM     55  N   UNL     1      -2.583  -0.730   6.768  1.00  0.00    -0.354 N 
ATOM     56  N   UNL     1      -0.276   0.918   7.123  1.00  0.00    -0.248 NA
ATOM     57  C   UNL     1       1.262   2.019   8.492  1.00  0.00     0.031 C 
ATOM     58  C   UNL     1      -3.317  -1.938   8.486  1.00  0.00     0.029 A 
ATOM     59  C   UNL     1      -2.405  -0.963   8.124  1.00  0.00     0.049 A 
ATOM     60  H   UNL     1      -2.055  -0.097   6.230  1.00  0.00     0.167 HD
ATOM     61  C   UNL     1      -0.493   0.553   8.445  1.00  0.00     0.074 A 
ATOM     62  C   UNL     1       0.500   1.236   9.243  1.00  0.00     0.031 C 
ATOM     63  C   UNL     1      -1.448  -0.269   8.944  1.00  0.00     0.037 A 
BRANCH  50  64
ATOM     64  C   UNL     1      -5.231  -2.436   4.608  1.00  0.00     0.057 A 
ATOM     65  C   UNL     1      -5.001  -3.620   3.897  1.00  0.00     0.134 A 
ATOM     66  C   UNL     1      -6.525  -2.213   5.096  1.00  0.00     0.134 A 
ATOM     67  F   UNL     1      -3.786  -3.887   3.394  1.00  0.00    -0.206 F 
ATOM     68  C   UNL     1      -6.022  -4.550   3.685  1.00  0.00     0.040 A 
ATOM     69  C   UNL     1      -7.548  -3.141   4.905  1.00  0.00     0.040 A 
ATOM     70  F   UNL     1      -6.804  -1.101   5.793  1.00  0.00    -0.206 F 
ATOM     71  C   UNL     1      -7.298  -4.315   4.198  1.00  0.00     0.006 A 
ENDBRANCH  50  64
BRANCH  51  72
ATOM     72  C   UNL     1       2.551   3.363   6.253  1.00  0.00     0.057 A 
ATOM     73  C   UNL     1       3.791   2.828   6.615  1.00  0.00     0.134 A 
ATOM     74  C   UNL     1       2.462   4.758   6.135  1.00  0.00     0.134 A 
ATOM     75  F   UNL     1       3.932   1.506   6.793  1.00  0.00    -0.206 F 
ATOM     76  C   UNL     1       4.900   3.648   6.835  1.00  0.00     0.040 A 
ATOM     77  C   UNL     1       3.570   5.584   6.310  1.00  0.00     0.040 A 
ATOM     78  F   UNL     1       1.295   5.338   5.815  1.00  0.00    -0.206 F 
ATOM     79  C   UNL     1       4.794   5.028   6.666  1.00  0.00     0.006 A 
ENDBRANCH  51  72
BRANCH  63  80
ATOM     80  C   UNL     1      -1.482  -0.465  10.430  1.00  0.00     0.057 A 
ATOM     81  C   UNL     1      -1.912   0.554  11.291  1.00  0.00     0.134 A 
ATOM     82  C   UNL     1      -1.098  -1.679  11.012  1.00  0.00     0.134 A 
ATOM     83  F   UNL     1      -2.279   1.748  10.800  1.00  0.00    -0.206 F 
ATOM     84  C   UNL     1      -1.934   0.381  12.677  1.00  0.00     0.040 A 
ATOM     85  C   UNL     1      -1.139  -1.873  12.395  1.00  0.00     0.040 A 
ATOM     86  F   UNL     1      -0.682  -2.700  10.248  1.00  0.00    -0.206 F 
ATOM     87  C   UNL     1      -1.552  -0.838  13.232  1.00  0.00     0.006 A 
ENDBRANCH  63  80
ENDBRANCH  37  38
ENDBRANCH  30  32
ENDBRANCH  29  30
ENDBRANCH  28  29
ENDBRANCH   1  28
TORSDOF 15
