REMARK SMILES CC(C)[C@@H](NC(=O)[C@H]1CCCO1)C(=O)OCCOC(=O)c1ccc(-c2c3nc(c(-c4c(F)cccc4F)c4ccc([nH]4)c(-c4c(F)cccc4F)c4nc(c(-c5c(F)cccc5F)c5ccc2[nH]5)C=C4)C=C3)cc1
REMARK SMILES IDX 16 1 15 2 13 3 14 4 4 5 2 6 1 7 3 8 5 9 6 10 7 12 8 13 9 14
REMARK SMILES IDX 12 15 10 16 11 17 17 18 18 19 19 20 20 21 21 22 22 23 74 24
REMARK SMILES IDX 23 25 73 26 24 27 25 28 26 29 67 30 27 31 72 32 66 33 68 34
REMARK SMILES IDX 28 35 71 36 65 37 64 38 29 40 55 41 38 42 54 43 39 44 42 45
REMARK SMILES IDX 53 46 69 47 40 48 41 49 52 51 70 52 43 53 30 54 31 55 36 56
REMARK SMILES IDX 32 57 33 58 35 59 37 60 34 61 56 62 57 63 62 64 58 65 59 66
REMARK SMILES IDX 61 67 63 68 60 69 44 70 45 71 50 72 46 73 47 74 49 75 51 76
REMARK SMILES IDX 48 77
REMARK H PARENT 5 11 68 39 42 50
REMARK Flexibility Score: inf
ROOT
ATOM      1  C   UNL     1      -0.560  -2.957  -3.604  1.00  0.00     0.274 C 
ENDROOT
BRANCH   1   2
ATOM      2  O   UNL     1      -0.658  -2.953  -2.157  1.00  0.00    -0.461 OA
BRANCH   2   3
ATOM      3  C   UNL     1       0.188  -3.667  -1.386  1.00  0.00     0.329 C 
ATOM      4  O   UNL     1       1.188  -4.227  -1.815  1.00  0.00    -0.250 OA
BRANCH   3   5
ATOM      5  C   UNL     1      -0.330  -3.847   0.068  1.00  0.00     0.194 C 
BRANCH   5   6
ATOM      6  C   UNL     1       0.848  -3.681   1.092  1.00  0.00     0.017 C 
ATOM      7  C   UNL     1       0.427  -4.080   2.517  1.00  0.00     0.010 C 
ATOM      8  C   UNL     1       2.104  -4.503   0.755  1.00  0.00     0.010 C 
ENDBRANCH   5   6
BRANCH   5   9
ATOM      9  N   UNL     1      -1.474  -2.996   0.481  1.00  0.00    -0.340 N 
ATOM     10  C   UNL     1      -2.811  -3.025   0.191  1.00  0.00     0.249 C 
ATOM     11  H   UNL     1      -1.220  -2.263   1.087  1.00  0.00     0.164 HD
ATOM     12  O   UNL     1      -3.555  -2.500   1.025  1.00  0.00    -0.272 OA
BRANCH  10  13
ATOM     13  C   UNL     1      -3.348  -3.553  -1.156  1.00  0.00     0.207 C 
ATOM     14  C   UNL     1      -3.079  -5.024  -1.441  1.00  0.00     0.044 C 
ATOM     15  O   UNL     1      -4.761  -3.379  -1.353  1.00  0.00    -0.368 OA
ATOM     16  C   UNL     1      -4.372  -5.559  -2.022  1.00  0.00     0.032 C 
ATOM     17  C   UNL     1      -5.142  -4.310  -2.367  1.00  0.00     0.161 C 
ENDBRANCH  10  13
ENDBRANCH   5   9
ENDBRANCH   3   5
ENDBRANCH   2   3
ENDBRANCH   1   2
BRANCH   1  18
ATOM     18  C   UNL     1       0.144  -4.133  -4.294  1.00  0.00     0.275 C 
BRANCH  18  19
ATOM     19  O   UNL     1      -0.306  -5.390  -3.755  1.00  0.00    -0.458 OA
BRANCH  19  20
ATOM     20  C   UNL     1       0.526  -6.423  -4.056  1.00  0.00     0.338 C 
ATOM     21  O   UNL     1       1.421  -6.407  -4.883  1.00  0.00    -0.246 OA
BRANCH  20  22
ATOM     22  C   UNL     1       0.199  -7.628  -3.251  1.00  0.00     0.060 A 
ATOM     23  C   UNL     1      -0.219  -7.545  -1.918  1.00  0.00     0.016 A 
ATOM     24  C   UNL     1       0.416  -8.883  -3.824  1.00  0.00     0.016 A 
ATOM     25  C   UNL     1      -0.393  -8.707  -1.155  1.00  0.00     0.010 A 
ATOM     26  C   UNL     1       0.206 -10.046  -3.075  1.00  0.00     0.010 A 
ATOM     27  C   UNL     1      -0.175  -9.971  -1.725  1.00  0.00    -0.014 A 
BRANCH  27  28
ATOM     28  C   UNL     1      -0.277 -11.220  -0.920  1.00  0.00     0.031 A 
ATOM     29  C   UNL     1       0.958 -12.041  -0.646  1.00  0.00     0.074 A 
ATOM     30  C   UNL     1      -1.469 -11.653  -0.469  1.00  0.00     0.049 A 
ATOM     31  N   UNL     1       1.065 -13.229  -0.105  1.00  0.00    -0.248 NA
ATOM     32  C   UNL     1       2.242 -11.446  -1.046  1.00  0.00     0.031 C 
ATOM     33  C   UNL     1      -2.744 -10.957  -0.640  1.00  0.00     0.029 A 
ATOM     34  N   UNL     1      -1.803 -12.800   0.212  1.00  0.00    -0.354 N 
ATOM     35  C   UNL     1       2.420 -13.538  -0.128  1.00  0.00     0.074 A 
ATOM     36  C   UNL     1       3.094 -12.419  -0.753  1.00  0.00     0.031 C 
ATOM     37  C   UNL     1      -3.721 -11.691  -0.081  1.00  0.00     0.029 A 
ATOM     38  C   UNL     1      -3.150 -12.929   0.443  1.00  0.00     0.049 A 
ATOM     39  H   UNL     1      -1.139 -13.465   0.505  1.00  0.00     0.167 HD
ATOM     40  C   UNL     1       3.049 -14.647   0.332  1.00  0.00     0.037 A 
ATOM     41  C   UNL     1      -3.853 -13.941   0.989  1.00  0.00     0.037 A 
ATOM     42  C   UNL     1       2.388 -15.756   0.973  1.00  0.00     0.049 A 
ATOM     43  C   UNL     1      -3.137 -15.176   1.465  1.00  0.00     0.074 A 
ATOM     44  C   UNL     1       2.946 -16.916   1.485  1.00  0.00     0.029 A 
ATOM     45  N   UNL     1       1.022 -15.842   1.195  1.00  0.00    -0.354 N 
ATOM     46  N   UNL     1      -1.857 -15.457   1.433  1.00  0.00    -0.248 NA
ATOM     47  C   UNL     1      -3.969 -16.236   2.055  1.00  0.00     0.031 C 
ATOM     48  C   UNL     1       1.914 -17.718   1.986  1.00  0.00     0.029 A 
ATOM     49  C   UNL     1       0.719 -17.037   1.827  1.00  0.00     0.049 A 
ATOM     50  H   UNL     1       0.365 -15.154   0.941  1.00  0.00     0.167 HD
ATOM     51  C   UNL     1      -1.727 -16.708   2.023  1.00  0.00     0.074 A 
ATOM     52  C   UNL     1      -3.056 -17.127   2.415  1.00  0.00     0.031 C 
ATOM     53  C   UNL     1      -0.605 -17.443   2.223  1.00  0.00     0.037 A 
BRANCH  40  54
ATOM     54  C   UNL     1       4.536 -14.729   0.138  1.00  0.00     0.057 A 
ATOM     55  C   UNL     1       5.425 -13.943   0.882  1.00  0.00     0.134 A 
ATOM     56  C   UNL     1       5.087 -15.631  -0.782  1.00  0.00     0.134 A 
ATOM     57  F   UNL     1       4.963 -13.050   1.772  1.00  0.00    -0.206 F 
ATOM     58  C   UNL     1       6.806 -14.032   0.701  1.00  0.00     0.040 A 
ATOM     59  C   UNL     1       6.467 -15.748  -0.954  1.00  0.00     0.040 A 
ATOM     60  F   UNL     1       4.292 -16.420  -1.521  1.00  0.00    -0.206 F 
ATOM     61  C   UNL     1       7.331 -14.942  -0.215  1.00  0.00     0.006 A 
ENDBRANCH  40  54
BRANCH  41  62
ATOM     62  C   UNL     1      -5.328 -13.836   1.114  1.00  0.00     0.057 A 
ATOM     63  C   UNL     1      -5.938 -13.693   2.366  1.00  0.00     0.134 A 
ATOM     64  C   UNL     1      -6.163 -13.893  -0.009  1.00  0.00     0.134 A 
ATOM     65  F   UNL     1      -5.192 -13.659   3.479  1.00  0.00    -0.206 F 
ATOM     66  C   UNL     1      -7.325 -13.624   2.499  1.00  0.00     0.040 A 
ATOM     67  C   UNL     1      -7.550 -13.800   0.108  1.00  0.00     0.040 A 
ATOM     68  F   UNL     1      -5.639 -14.029  -1.236  1.00  0.00    -0.206 F 
ATOM     69  C   UNL     1      -8.136 -13.672   1.366  1.00  0.00     0.006 A 
ENDBRANCH  41  62
BRANCH  53  70
ATOM     70  C   UNL     1      -0.763 -18.752   2.942  1.00  0.00     0.057 A 
ATOM     71  C   UNL     1      -1.359 -19.866   2.338  1.00  0.00     0.134 A 
ATOM     72  C   UNL     1      -0.301 -18.900   4.257  1.00  0.00     0.134 A 
ATOM     73  F   UNL     1      -1.834 -19.787   1.085  1.00  0.00    -0.206 F 
ATOM     74  C   UNL     1      -1.519 -21.071   3.025  1.00  0.00     0.040 A 
ATOM     75  C   UNL     1      -0.433 -20.107   4.946  1.00  0.00     0.040 A 
ATOM     76  F   UNL     1       0.287 -17.876   4.892  1.00  0.00    -0.206 F 
ATOM     77  C   UNL     1      -1.052 -21.194   4.332  1.00  0.00     0.006 A 
ENDBRANCH  53  70
ENDBRANCH  27  28
ENDBRANCH  20  22
ENDBRANCH  19  20
ENDBRANCH  18  19
ENDBRANCH   1  18
TORSDOF 14
