REMARK SMILES CC1(C)[C@H](C(=O)Nc2ccc(C(F)(F)F)nc2)[C@@H]1C(=O)OCCOC(=O)c1ccc(-c2c3nc(c(-c4c(F)cccc4F)c4ccc([nH]4)c(-c4c(F)cccc4F)c4nc(c(-c5c(F)cccc5F)c5ccc2[nH]5)C=C4)C=C3)cc1
REMARK SMILES IDX 22 1 21 2 19 3 20 4 18 5 1 6 2 7 3 8 4 9 5 10 6 11 7 12 8 14
REMARK SMILES IDX 9 15 17 16 10 17 16 18 11 19 12 20 13 21 14 22 15 23 23 24
REMARK SMILES IDX 24 25 25 26 26 27 27 28 28 29 80 30 29 31 79 32 30 33 31 34
REMARK SMILES IDX 32 35 73 36 33 37 78 38 72 39 74 40 34 41 77 42 71 43 70 44
REMARK SMILES IDX 35 46 61 47 44 48 60 49 45 50 48 51 59 52 75 53 46 54 47 55
REMARK SMILES IDX 58 57 76 58 49 59 36 60 37 61 42 62 38 63 39 64 41 65 43 66
REMARK SMILES IDX 40 67 62 68 63 69 68 70 64 71 65 72 67 73 69 74 66 75 50 76
REMARK SMILES IDX 51 77 56 78 52 79 53 80 55 81 57 82 54 83
REMARK H PARENT 7 13 74 45 48 56
REMARK Flexibility Score: inf
ROOT
ATOM      1  C   UNL     1      -3.190   2.554   2.354  1.00  0.00     0.274 C 
ENDROOT
BRANCH   1   2
ATOM      2  O   UNL     1      -2.795   1.603   1.345  1.00  0.00    -0.462 OA
BRANCH   2   3
ATOM      3  C   UNL     1      -1.473   1.289   1.300  1.00  0.00     0.310 C 
ATOM      4  O   UNL     1      -0.601   1.772   2.019  1.00  0.00    -0.252 OA
BRANCH   3   5
ATOM      5  C   UNL     1      -1.220   0.146   0.401  1.00  0.00     0.118 C 
ATOM      6  C   UNL     1       0.504  -1.679  -0.304  1.00  0.00     0.013 C 
ATOM      7  C   UNL     1       0.135  -0.207  -0.235  1.00  0.00    -0.009 C 
ATOM      8  C   UNL     1       1.365   0.634  -0.034  1.00  0.00     0.013 C 
ATOM      9  C   UNL     1      -1.057   0.227  -1.088  1.00  0.00     0.100 C 
BRANCH   9  10
ATOM     10  C   UNL     1      -1.237   1.405  -1.999  1.00  0.00     0.228 C 
ATOM     11  O   UNL     1      -1.323   1.167  -3.202  1.00  0.00    -0.274 OA
ATOM     12  N   UNL     1      -1.675   2.625  -1.538  1.00  0.00    -0.324 N 
ATOM     13  H   UNL     1      -2.588   2.885  -1.797  1.00  0.00     0.169 HD
BRANCH  12  14
ATOM     14  C   UNL     1      -0.974   3.540  -0.743  1.00  0.00     0.059 A 
ATOM     15  C   UNL     1       0.405   3.536  -0.644  1.00  0.00     0.030 A 
ATOM     16  C   UNL     1      -1.665   4.462   0.028  1.00  0.00     0.137 A 
ATOM     17  C   UNL     1       1.019   4.222   0.402  1.00  0.00     0.035 A 
ATOM     18  N   UNL     1      -1.104   5.147   1.053  1.00  0.00    -0.250 NA
ATOM     19  C   UNL     1       0.223   4.930   1.300  1.00  0.00     0.144 A 
BRANCH  19  20
ATOM     20  C   UNL     1       0.830   5.393   2.620  1.00  0.00     0.433 C 
ATOM     21  F   UNL     1       1.177   6.710   2.616  1.00  0.00    -0.165 F 
ATOM     22  F   UNL     1      -0.003   5.224   3.688  1.00  0.00    -0.165 F 
ATOM     23  F   UNL     1       1.974   4.718   2.947  1.00  0.00    -0.165 F 
ENDBRANCH  19  20
ENDBRANCH  12  14
ENDBRANCH   9  10
ENDBRANCH   3   5
ENDBRANCH   2   3
ENDBRANCH   1   2
BRANCH   1  24
ATOM     24  C   UNL     1      -3.647   1.882   3.652  1.00  0.00     0.275 C 
BRANCH  24  25
ATOM     25  O   UNL     1      -2.545   1.286   4.361  1.00  0.00    -0.458 OA
BRANCH  25  26
ATOM     26  C   UNL     1      -2.273   0.007   4.013  1.00  0.00     0.338 C 
ATOM     27  O   UNL     1      -2.909  -0.695   3.243  1.00  0.00    -0.246 OA
BRANCH  26  28
ATOM     28  C   UNL     1      -0.972  -0.407   4.567  1.00  0.00     0.060 A 
ATOM     29  C   UNL     1      -0.069  -1.022   3.694  1.00  0.00     0.016 A 
ATOM     30  C   UNL     1      -0.664  -0.269   5.921  1.00  0.00     0.016 A 
ATOM     31  C   UNL     1       1.133  -1.528   4.168  1.00  0.00     0.010 A 
ATOM     32  C   UNL     1       0.543  -0.787   6.402  1.00  0.00     0.010 A 
ATOM     33  C   UNL     1       1.433  -1.442   5.532  1.00  0.00    -0.014 A 
BRANCH  33  34
ATOM     34  C   UNL     1       2.630  -2.145   6.043  1.00  0.00     0.031 A 
ATOM     35  C   UNL     1       2.462  -3.453   6.761  1.00  0.00     0.074 A 
ATOM     36  C   UNL     1       3.857  -1.649   5.804  1.00  0.00     0.049 A 
ATOM     37  N   UNL     1       3.370  -4.231   7.290  1.00  0.00    -0.248 NA
ATOM     38  C   UNL     1       1.085  -3.952   6.901  1.00  0.00     0.031 C 
ATOM     39  C   UNL     1       4.139  -0.415   5.071  1.00  0.00     0.029 A 
ATOM     40  N   UNL     1       5.094  -2.129   6.148  1.00  0.00    -0.354 N 
ATOM     41  C   UNL     1       2.677  -5.304   7.834  1.00  0.00     0.074 A 
ATOM     42  C   UNL     1       1.270  -5.064   7.598  1.00  0.00     0.031 C 
ATOM     43  C   UNL     1       5.470  -0.234   5.022  1.00  0.00     0.029 A 
ATOM     44  C   UNL     1       6.126  -1.317   5.750  1.00  0.00     0.049 A 
ATOM     45  H   UNL     1       5.229  -2.974   6.635  1.00  0.00     0.167 HD
ATOM     46  C   UNL     1       3.172  -6.394   8.467  1.00  0.00     0.037 A 
ATOM     47  C   UNL     1       7.450  -1.427   5.969  1.00  0.00     0.037 A 
ATOM     48  C   UNL     1       4.575  -6.626   8.695  1.00  0.00     0.049 A 
ATOM     49  C   UNL     1       7.969  -2.614   6.735  1.00  0.00     0.074 A 
ATOM     50  C   UNL     1       5.181  -7.702   9.319  1.00  0.00     0.029 A 
ATOM     51  N   UNL     1       5.590  -5.761   8.311  1.00  0.00    -0.354 N 
ATOM     52  N   UNL     1       7.308  -3.630   7.236  1.00  0.00    -0.248 NA
ATOM     53  C   UNL     1       9.419  -2.672   6.962  1.00  0.00     0.031 C 
ATOM     54  C   UNL     1       6.559  -7.463   9.360  1.00  0.00     0.029 A 
ATOM     55  C   UNL     1       6.817  -6.269   8.706  1.00  0.00     0.049 A 
ATOM     56  H   UNL     1       5.458  -4.913   7.829  1.00  0.00     0.167 HD
ATOM     57  C   UNL     1       8.262  -4.461   7.809  1.00  0.00     0.074 A 
ATOM     58  C   UNL     1       9.549  -3.837   7.581  1.00  0.00     0.031 C 
ATOM     59  C   UNL     1       8.090  -5.637   8.462  1.00  0.00     0.037 A 
BRANCH  46  60
ATOM     60  C   UNL     1       2.186  -7.401   8.986  1.00  0.00     0.057 A 
ATOM     61  C   UNL     1       1.450  -8.232   8.131  1.00  0.00     0.134 A 
ATOM     62  C   UNL     1       1.990  -7.558  10.364  1.00  0.00     0.134 A 
ATOM     63  F   UNL     1       1.578  -8.123   6.800  1.00  0.00    -0.206 F 
ATOM     64  C   UNL     1       0.538  -9.165   8.627  1.00  0.00     0.040 A 
ATOM     65  C   UNL     1       1.102  -8.507  10.873  1.00  0.00     0.040 A 
ATOM     66  F   UNL     1       2.664  -6.797  11.240  1.00  0.00    -0.206 F 
ATOM     67  C   UNL     1       0.367  -9.309  10.003  1.00  0.00     0.006 A 
ENDBRANCH  46  60
BRANCH  47  68
ATOM     68  C   UNL     1       8.376  -0.380   5.468  1.00  0.00     0.057 A 
ATOM     69  C   UNL     1       9.300  -0.651   4.452  1.00  0.00     0.134 A 
ATOM     70  C   UNL     1       8.371   0.913   6.006  1.00  0.00     0.134 A 
ATOM     71  F   UNL     1       9.368  -1.876   3.910  1.00  0.00    -0.206 F 
ATOM     72  C   UNL     1      10.197   0.320   4.002  1.00  0.00     0.040 A 
ATOM     73  C   UNL     1       9.243   1.901   5.547  1.00  0.00     0.040 A 
ATOM     74  F   UNL     1       7.509   1.237   6.981  1.00  0.00    -0.206 F 
ATOM     75  C   UNL     1      10.166   1.602   4.547  1.00  0.00     0.006 A 
ENDBRANCH  47  68
BRANCH  59  76
ATOM     76  C   UNL     1       9.326  -6.349   8.932  1.00  0.00     0.057 A 
ATOM     77  C   UNL     1      10.098  -5.874  10.000  1.00  0.00     0.134 A 
ATOM     78  C   UNL     1       9.730  -7.546   8.325  1.00  0.00     0.134 A 
ATOM     79  F   UNL     1       9.774  -4.728  10.617  1.00  0.00    -0.206 F 
ATOM     80  C   UNL     1      11.243  -6.548  10.428  1.00  0.00     0.040 A 
ATOM     81  C   UNL     1      10.855  -8.245   8.764  1.00  0.00     0.040 A 
ATOM     82  F   UNL     1       9.029  -8.062   7.304  1.00  0.00    -0.206 F 
ATOM     83  C   UNL     1      11.620  -7.741   9.813  1.00  0.00     0.006 A 
ENDBRANCH  59  76
ENDBRANCH  33  34
ENDBRANCH  26  28
ENDBRANCH  25  26
ENDBRANCH  24  25
ENDBRANCH   1  24
TORSDOF 14
