REMARK SMILES O=C(OCCOC(=O)c1ccc(-c2c3nc(c(-c4c(F)cccc4F)c4ccc([nH]4)c(-c4c(F)cccc4F)c4nc(c(-c5c(F)cccc5F)c5ccc2[nH]5)C=C4)C=C3)cc1)C1=Cc2cc(S(F)(F)(F)(F)F)ccc2O[C@@H]1C(F)(F)F
REMARK SMILES IDX 5 1 4 2 3 3 2 4 1 5 63 6 64 7 78 8 65 9 77 10 66 11 76 12
REMARK SMILES IDX 67 13 75 14 74 15 79 16 80 17 81 18 82 19 68 20 69 21 70 22
REMARK SMILES IDX 71 23 72 24 73 25 6 26 7 27 8 28 9 29 10 30 62 31 11 32
REMARK SMILES IDX 61 33 12 34 13 35 14 36 55 37 15 38 60 39 54 40 56 41 16 42
REMARK SMILES IDX 59 43 53 44 52 45 17 47 43 48 26 49 42 50 27 51 30 52 41 53
REMARK SMILES IDX 57 54 28 55 29 56 40 58 58 59 31 60 18 61 19 62 24 63 20 64
REMARK SMILES IDX 21 65 23 66 25 67 22 68 44 69 45 70 50 71 46 72 47 73 49 74
REMARK SMILES IDX 51 75 48 76 32 77 33 78 38 79 34 80 35 81 37 82 39 83 36 84
REMARK H PARENT 56 46 30 57
REMARK Flexibility Score: inf
ROOT
ATOM      1  C   UNL     1       4.831   0.032  -1.316  1.00  0.00     0.275 C 
ENDROOT
BRANCH   1   2
ATOM      2  C   UNL     1       4.324  -1.162  -0.522  1.00  0.00     0.275 C 
BRANCH   2   3
ATOM      3  O   UNL     1       2.904  -1.162  -0.522  1.00  0.00    -0.459 OA
BRANCH   3   4
ATOM      4  C   UNL     1       2.194  -0.060   0.024  1.00  0.00     0.338 C 
ATOM      5  O   UNL     1       0.923  -0.060   0.024  1.00  0.00    -0.246 OA
BRANCH   4   6
ATOM      6  C   UNL     1       2.954   1.120   0.608  1.00  0.00     0.087 C 
ATOM      7  C   UNL     1       4.315   1.120   0.608  1.00  0.00     0.027 C 
ATOM      8  C   UNL     1       2.194   2.299   1.193  1.00  0.00     0.316 C 
ATOM      9  C   UNL     1       5.075  -0.060   0.024  1.00  0.00     0.019 A 
ATOM     10  O   UNL     1       3.593  -0.190  -1.830  1.00  0.00    -0.475 OA
ATOM     11  C   UNL     1       6.106  -0.558   0.803  1.00  0.00     0.036 A 
ATOM     12  C   UNL     1       4.753  -0.623  -1.135  1.00  0.00     0.128 A 
ATOM     13  C   UNL     1       6.935  -1.487   0.131  1.00  0.00     0.107 A 
ATOM     14  C   UNL     1       5.533  -1.621  -1.668  1.00  0.00     0.048 A 
ATOM     15  C   UNL     1       6.603  -2.121  -0.980  1.00  0.00     0.028 A 
BRANCH   8  16
ATOM     16  C   UNL     1       2.562   3.564   0.435  1.00  0.00     0.430 C 
ATOM     17  F   UNL     1       2.240   3.422  -0.848  1.00  0.00    -0.167 F 
ATOM     18  F   UNL     1       1.897   4.596   0.947  1.00  0.00    -0.167 F 
ATOM     19  F   UNL     1       3.869   3.782   0.543  1.00  0.00    -0.167 F 
ENDBRANCH   8  16
BRANCH  13  20
ATOM     20  S   UNL     1       8.563  -1.832   0.842  1.00  0.00     0.310 S 
ATOM     21  F   UNL     1       7.986  -1.784   2.319  1.00  0.00    -0.094 F 
ATOM     22  F   UNL     1       8.812  -0.281   0.963  1.00  0.00    -0.094 F 
ATOM     23  F   UNL     1       9.957  -2.133   1.462  1.00  0.00    -0.094 F 
ATOM     24  F   UNL     1       8.238  -3.378   0.844  1.00  0.00    -0.094 F 
ATOM     25  F   UNL     1       7.101  -1.540   0.317  1.00  0.00    -0.094 F 
ENDBRANCH  13  20
ENDBRANCH   4   6
ENDBRANCH   3   4
ENDBRANCH   2   3
ENDBRANCH   1   2
BRANCH   1  26
ATOM     26  O   UNL     1       4.358   1.231  -0.722  1.00  0.00    -0.458 OA
BRANCH  26  27
ATOM     27  C   UNL     1       2.962   1.464  -0.606  1.00  0.00     0.338 C 
ATOM     28  O   UNL     1       2.136   0.598  -1.035  1.00  0.00    -0.246 OA
BRANCH  27  29
ATOM     29  C   UNL     1       2.455   2.748   0.030  1.00  0.00     0.060 A 
ATOM     30  C   UNL     1       1.340   2.655   0.847  1.00  0.00     0.016 A 
ATOM     31  C   UNL     1       2.984   3.925  -0.283  1.00  0.00     0.016 A 
ATOM     32  C   UNL     1       0.676   3.888   1.052  1.00  0.00     0.010 A 
ATOM     33  C   UNL     1       2.350   5.092   0.067  1.00  0.00     0.010 A 
ATOM     34  C   UNL     1       1.211   5.074   0.824  1.00  0.00    -0.014 A 
BRANCH  34  35
ATOM     35  C   UNL     1       0.594   6.350   1.373  1.00  0.00     0.031 A 
ATOM     36  C   UNL     1       0.162   7.373   0.528  1.00  0.00     0.074 A 
ATOM     37  C   UNL     1       0.431   6.361   2.748  1.00  0.00     0.049 A 
ATOM     38  N   UNL     1      -0.490   8.487   0.866  1.00  0.00    -0.248 NA
ATOM     39  C   UNL     1       0.363   7.380  -0.929  1.00  0.00     0.031 C 
ATOM     40  C   UNL     1       0.857   5.328   3.606  1.00  0.00     0.029 A 
ATOM     41  N   UNL     1      -0.151   7.339   3.522  1.00  0.00    -0.354 N 
ATOM     42  C   UNL     1      -0.751   9.217  -0.220  1.00  0.00     0.074 A 
ATOM     43  C   UNL     1      -0.201   8.518  -1.390  1.00  0.00     0.031 C 
ATOM     44  C   UNL     1       0.545   5.683   4.880  1.00  0.00     0.029 A 
ATOM     45  C   UNL     1      -0.080   6.944   4.840  1.00  0.00     0.049 A 
ATOM     46  H   UNL     1      -0.550   8.176   3.191  1.00  0.00     0.167 HD
ATOM     47  C   UNL     1      -1.428  10.436  -0.282  1.00  0.00     0.037 A 
ATOM     48  C   UNL     1      -0.528   7.630   5.957  1.00  0.00     0.037 A 
ATOM     49  C   UNL     1      -1.914  11.102   0.832  1.00  0.00     0.049 A 
ATOM     50  C   UNL     1      -1.154   8.878   5.901  1.00  0.00     0.074 A 
ATOM     51  C   UNL     1      -2.606  12.328   0.786  1.00  0.00     0.029 A 
ATOM     52  N   UNL     1      -1.821  10.719   2.151  1.00  0.00    -0.354 N 
ATOM     53  N   UNL     1      -1.450   9.588   4.811  1.00  0.00    -0.248 NA
ATOM     54  C   UNL     1      -1.603   9.630   7.080  1.00  0.00     0.031 C 
ATOM     55  C   UNL     1      -2.917  12.684   2.061  1.00  0.00     0.029 A 
ATOM     56  C   UNL     1      -2.424  11.686   2.924  1.00  0.00     0.049 A 
ATOM     57  H   UNL     1      -1.397   9.895   2.485  1.00  0.00     0.167 HD
ATOM     58  C   UNL     1      -2.064  10.722   5.154  1.00  0.00     0.074 A 
ATOM     59  C   UNL     1      -2.165  10.768   6.620  1.00  0.00     0.031 C 
ATOM     60  C   UNL     1      -2.548  11.718   4.304  1.00  0.00     0.037 A 
BRANCH  47  61
ATOM     61  C   UNL     1      -1.643  11.068  -1.647  1.00  0.00     0.057 A 
ATOM     62  C   UNL     1      -2.460  10.384  -2.533  1.00  0.00     0.134 A 
ATOM     63  C   UNL     1      -1.160  12.269  -1.943  1.00  0.00     0.134 A 
ATOM     64  F   UNL     1      -3.165   9.311  -2.188  1.00  0.00    -0.206 F 
ATOM     65  C   UNL     1      -2.475  10.931  -3.838  1.00  0.00     0.040 A 
ATOM     66  C   UNL     1      -1.329  12.801  -3.199  1.00  0.00     0.040 A 
ATOM     67  F   UNL     1      -0.506  12.963  -1.016  1.00  0.00    -0.206 F 
ATOM     68  C   UNL     1      -2.074  12.152  -4.143  1.00  0.00     0.006 A 
ENDBRANCH  47  61
BRANCH  48  69
ATOM     69  C   UNL     1      -0.327   6.990   7.321  1.00  0.00     0.057 A 
ATOM     70  C   UNL     1      -1.404   6.802   8.172  1.00  0.00     0.134 A 
ATOM     71  C   UNL     1       0.913   6.720   7.710  1.00  0.00     0.134 A 
ATOM     72  F   UNL     1      -2.667   6.814   7.756  1.00  0.00    -0.206 F 
ATOM     73  C   UNL     1      -1.038   6.598   9.523  1.00  0.00     0.040 A 
ATOM     74  C   UNL     1       1.181   6.395   9.018  1.00  0.00     0.040 A 
ATOM     75  F   UNL     1       1.906   6.766   6.827  1.00  0.00    -0.206 F 
ATOM     76  C   UNL     1       0.170   6.250   9.928  1.00  0.00     0.006 A 
ENDBRANCH  48  69
BRANCH  60  77
ATOM     77  C   UNL     1      -3.254  12.910   4.931  1.00  0.00     0.057 A 
ATOM     78  C   UNL     1      -2.551  13.614   5.895  1.00  0.00     0.134 A 
ATOM     79  C   UNL     1      -4.514  13.210   4.641  1.00  0.00     0.134 A 
ATOM     80  F   UNL     1      -1.232  13.524   6.041  1.00  0.00    -0.206 F 
ATOM     81  C   UNL     1      -3.364  14.437   6.710  1.00  0.00     0.040 A 
ATOM     82  C   UNL     1      -5.207  14.124   5.397  1.00  0.00     0.040 A 
ATOM     83  F   UNL     1      -5.112  12.619   3.611  1.00  0.00    -0.206 F 
ATOM     84  C   UNL     1      -4.592  14.814   6.404  1.00  0.00     0.006 A 
ENDBRANCH  60  77
ENDBRANCH  34  35
ENDBRANCH  27  29
ENDBRANCH  26  27
ENDBRANCH   1  26
TORSDOF 13
