REMARK SMILES CCOC(=O)CS[C@H]1CC(=O)N(c2ccc(C(=O)OCCOC(=O)c3ccc(-c4c5nc(c(-c6c(F)cccc6F)c6ccc([nH]6)c(-c6c(F)cccc6F)c6nc(c(-c7c(F)cccc7F)c7ccc4[nH]7)C=C6)C=C5)cc3)c(O)c2)C1=O
REMARK SMILES IDX 17 1 18 2 16 3 13 4 14 5 81 6 15 7 79 8 12 9 8 10 9 11 82 12
REMARK SMILES IDX 10 13 83 14 11 15 7 16 6 17 4 18 5 19 3 20 2 21 1 22 80 23
REMARK SMILES IDX 19 25 20 26 21 27 22 28 23 29 24 30 25 31 26 32 78 33 27 34
REMARK SMILES IDX 77 35 28 36 29 37 30 38 71 39 31 40 76 41 70 42 72 43 32 44
REMARK SMILES IDX 75 45 69 46 68 47 33 49 59 50 42 51 58 52 43 53 46 54 57 55
REMARK SMILES IDX 73 56 44 57 45 58 56 60 74 61 47 62 34 63 35 64 40 65 36 66
REMARK SMILES IDX 37 67 39 68 41 69 38 70 60 71 61 72 66 73 62 74 63 75 65 76
REMARK SMILES IDX 67 77 64 78 48 79 49 80 54 81 50 82 51 83 53 84 55 85 52 86
REMARK H PARENT 80 24 72 48 46 59
REMARK Flexibility Score: inf
ROOT
ATOM      1  C   UNL     1       7.189  -0.220  -2.221  1.00  0.00     0.342 C 
ATOM      2  O   UNL     1       8.339   0.106  -2.002  1.00  0.00    -0.246 OA
ENDROOT
BRANCH   1   3
ATOM      3  C   UNL     1       6.183  -0.364  -1.141  1.00  0.00     0.101 A 
ATOM      4  C   UNL     1       4.410  -0.502   1.044  1.00  0.00     0.055 A 
ATOM      5  C   UNL     1       5.393   0.485   0.985  1.00  0.00     0.028 A 
ATOM      6  C   UNL     1       4.314  -1.426  -0.004  1.00  0.00     0.074 A 
ATOM      7  C   UNL     1       6.321   0.494  -0.047  1.00  0.00     0.022 A 
ATOM      8  C   UNL     1       5.154  -1.310  -1.125  1.00  0.00     0.132 A 
BRANCH   4   9
ATOM      9  N   UNL     1       3.571  -0.544   2.178  1.00  0.00    -0.249 N 
ATOM     10  C   UNL     1       2.477  -1.276   4.100  1.00  0.00     0.146 C 
ATOM     11  C   UNL     1       2.313   0.228   3.996  1.00  0.00     0.125 C 
ATOM     12  C   UNL     1       3.388  -1.662   2.961  1.00  0.00     0.247 C 
ATOM     13  C   UNL     1       2.982   0.579   2.707  1.00  0.00     0.235 C 
ATOM     14  O   UNL     1       3.874  -2.772   2.798  1.00  0.00    -0.273 OA
ATOM     15  O   UNL     1       2.971   1.711   2.241  1.00  0.00    -0.274 OA
BRANCH  10  16
ATOM     16  S   UNL     1       2.927  -1.770   5.797  1.00  0.00    -0.136 SA
BRANCH  16  17
ATOM     17  C   UNL     1       4.714  -2.092   5.758  1.00  0.00     0.192 C 
BRANCH  17  18
ATOM     18  C   UNL     1       5.583  -0.858   5.728  1.00  0.00     0.315 C 
ATOM     19  O   UNL     1       6.087  -0.344   6.718  1.00  0.00    -0.251 OA
BRANCH  18  20
ATOM     20  O   UNL     1       5.798  -0.447   4.447  1.00  0.00    -0.465 OA
BRANCH  20  21
ATOM     21  C   UNL     1       6.892   0.467   4.268  1.00  0.00     0.229 C 
ATOM     22  C   UNL     1       6.457   1.905   4.474  1.00  0.00     0.049 C 
ENDBRANCH  20  21
ENDBRANCH  18  20
ENDBRANCH  17  18
ENDBRANCH  16  17
ENDBRANCH  10  16
ENDBRANCH   4   9
BRANCH   8  23
ATOM     23  O   UNL     1       4.914  -2.168  -2.162  1.00  0.00    -0.507 OA
ATOM     24  H   UNL     1       5.445  -2.132  -2.933  1.00  0.00     0.293 HD
ENDBRANCH   8  23
ENDBRANCH   1   3
BRANCH   1  25
ATOM     25  O   UNL     1       6.618  -0.394  -3.444  1.00  0.00    -0.458 OA
BRANCH  25  26
ATOM     26  C   UNL     1       7.494  -0.144  -4.569  1.00  0.00     0.275 C 
BRANCH  26  27
ATOM     27  C   UNL     1       7.283   1.253  -5.157  1.00  0.00     0.275 C 
BRANCH  27  28
ATOM     28  O   UNL     1       7.725   2.261  -4.228  1.00  0.00    -0.458 OA
BRANCH  28  29
ATOM     29  C   UNL     1       6.803   3.186  -3.881  1.00  0.00     0.338 C 
ATOM     30  O   UNL     1       5.657   3.281  -4.286  1.00  0.00    -0.246 OA
BRANCH  29  31
ATOM     31  C   UNL     1       7.340   4.071  -2.833  1.00  0.00     0.060 A 
ATOM     32  C   UNL     1       7.555   3.529  -1.572  1.00  0.00     0.016 A 
ATOM     33  C   UNL     1       7.433   5.447  -3.018  1.00  0.00     0.016 A 
ATOM     34  C   UNL     1       7.728   4.354  -0.464  1.00  0.00     0.010 A 
ATOM     35  C   UNL     1       7.720   6.273  -1.921  1.00  0.00     0.010 A 
ATOM     36  C   UNL     1       7.806   5.745  -0.617  1.00  0.00    -0.014 A 
BRANCH  36  37
ATOM     37  C   UNL     1       7.872   6.632   0.587  1.00  0.00     0.031 A 
ATOM     38  C   UNL     1       6.809   7.683   0.813  1.00  0.00     0.074 A 
ATOM     39  C   UNL     1       8.836   6.475   1.518  1.00  0.00     0.049 A 
ATOM     40  N   UNL     1       6.761   8.636   1.712  1.00  0.00    -0.248 NA
ATOM     41  C   UNL     1       5.656   7.669  -0.100  1.00  0.00     0.031 C 
ATOM     42  C   UNL     1       9.904   5.475   1.478  1.00  0.00     0.029 A 
ATOM     43  N   UNL     1       9.061   7.147   2.697  1.00  0.00    -0.354 N 
ATOM     44  C   UNL     1       5.611   9.367   1.432  1.00  0.00     0.074 A 
ATOM     45  C   UNL     1       4.996   8.755   0.274  1.00  0.00     0.031 C 
ATOM     46  C   UNL     1      10.634   5.563   2.601  1.00  0.00     0.029 A 
ATOM     47  C   UNL     1      10.145   6.681   3.402  1.00  0.00     0.049 A 
ATOM     48  H   UNL     1       8.498   7.893   3.007  1.00  0.00     0.167 HD
ATOM     49  C   UNL     1       5.105  10.445   2.080  1.00  0.00     0.037 A 
ATOM     50  C   UNL     1      10.709   7.119   4.544  1.00  0.00     0.037 A 
ATOM     51  C   UNL     1       5.665  11.014   3.278  1.00  0.00     0.049 A 
ATOM     52  C   UNL     1      10.145   8.329   5.234  1.00  0.00     0.074 A 
ATOM     53  C   UNL     1       5.212  12.098   4.013  1.00  0.00     0.029 A 
ATOM     54  N   UNL     1       6.787  10.531   3.933  1.00  0.00    -0.354 N 
ATOM     55  N   UNL     1       9.097   9.049   4.917  1.00  0.00    -0.248 NA
ATOM     56  C   UNL     1      10.857   8.800   6.431  1.00  0.00     0.031 C 
ATOM     57  C   UNL     1       6.076  12.287   5.097  1.00  0.00     0.029 A 
ATOM     58  C   UNL     1       7.045  11.298   5.058  1.00  0.00     0.049 A 
ATOM     59  H   UNL     1       7.321   9.756   3.642  1.00  0.00     0.167 HD
ATOM     60  C   UNL     1       9.020  10.050   5.877  1.00  0.00     0.074 A 
ATOM     61  C   UNL     1      10.110   9.830   6.803  1.00  0.00     0.031 C 
ATOM     62  C   UNL     1       8.130  11.067   5.975  1.00  0.00     0.037 A 
BRANCH  49  63
ATOM     63  C   UNL     1       3.889  11.101   1.492  1.00  0.00     0.057 A 
ATOM     64  C   UNL     1       2.618  10.520   1.564  1.00  0.00     0.134 A 
ATOM     65  C   UNL     1       3.993  12.354   0.871  1.00  0.00     0.134 A 
ATOM     66  F   UNL     1       2.452   9.317   2.134  1.00  0.00    -0.206 F 
ATOM     67  C   UNL     1       1.496  11.149   1.019  1.00  0.00     0.040 A 
ATOM     68  C   UNL     1       2.875  13.004   0.345  1.00  0.00     0.040 A 
ATOM     69  F   UNL     1       5.180  12.970   0.775  1.00  0.00    -0.206 F 
ATOM     70  C   UNL     1       1.623  12.398   0.413  1.00  0.00     0.006 A 
ENDBRANCH  49  63
BRANCH  50  71
ATOM     71  C   UNL     1      11.906   6.433   5.096  1.00  0.00     0.057 A 
ATOM     72  C   UNL     1      11.842   5.721   6.299  1.00  0.00     0.134 A 
ATOM     73  C   UNL     1      13.145   6.490   4.446  1.00  0.00     0.134 A 
ATOM     74  F   UNL     1      10.691   5.653   6.983  1.00  0.00    -0.206 F 
ATOM     75  C   UNL     1      12.969   5.101   6.843  1.00  0.00     0.040 A 
ATOM     76  C   UNL     1      14.273   5.851   4.963  1.00  0.00     0.040 A 
ATOM     77  F   UNL     1      13.274   7.158   3.291  1.00  0.00    -0.206 F 
ATOM     78  C   UNL     1      14.188   5.160   6.169  1.00  0.00     0.006 A 
ENDBRANCH  50  71
BRANCH  62  79
ATOM     79  C   UNL     1       8.286  12.001   7.138  1.00  0.00     0.057 A 
ATOM     80  C   UNL     1       9.317  12.948   7.189  1.00  0.00     0.134 A 
ATOM     81  C   UNL     1       7.386  11.966   8.210  1.00  0.00     0.134 A 
ATOM     82  F   UNL     1      10.221  13.023   6.200  1.00  0.00    -0.206 F 
ATOM     83  C   UNL     1       9.461  13.811   8.276  1.00  0.00     0.040 A 
ATOM     84  C   UNL     1       7.505  12.839   9.292  1.00  0.00     0.040 A 
ATOM     85  F   UNL     1       6.372  11.086   8.219  1.00  0.00    -0.206 F 
ATOM     86  C   UNL     1       8.550  13.761   9.330  1.00  0.00     0.006 A 
ENDBRANCH  62  79
ENDBRANCH  36  37
ENDBRANCH  29  31
ENDBRANCH  28  29
ENDBRANCH  27  28
ENDBRANCH  26  27
ENDBRANCH  25  26
ENDBRANCH   1  25
TORSDOF 18
