REMARK SMILES O=C(OCCOC(=O)c1cn(Cc2ccc(N3CCCC3=O)cc2)c2cc(F)c(F)cc2c1=O)c1ccc(-c2c3nc(c(-c4c(F)cccc4F)c4ccc([nH]4)c(-c4c(F)cccc4F)c4nc(c(-c5c(F)cccc5F)c5ccc2[nH]5)C=C4)C=C3)cc1
REMARK SMILES IDX 5 1 4 2 3 3 2 4 1 5 35 6 36 7 88 8 37 9 87 10 38 11 39 12
REMARK SMILES IDX 40 13 81 14 41 15 86 16 80 17 82 18 42 19 85 20 79 21 78 22
REMARK SMILES IDX 43 24 69 25 52 26 68 27 53 28 56 29 67 30 83 31 54 32 55 33
REMARK SMILES IDX 66 35 84 36 57 37 44 38 45 39 50 40 46 41 47 42 49 43 51 44
REMARK SMILES IDX 48 45 70 46 71 47 76 48 72 49 73 50 75 51 77 52 74 53 58 54
REMARK SMILES IDX 59 55 64 56 60 57 61 58 63 59 65 60 62 61 6 62 7 63 8 64
REMARK SMILES IDX 9 65 10 66 33 67 11 68 32 69 34 70 25 71 31 72 26 73 29 74
REMARK SMILES IDX 27 75 30 76 28 77 12 78 13 79 14 80 24 81 15 82 23 83 16 84
REMARK SMILES IDX 17 85 18 86 21 87 19 88 20 89 22 90
REMARK H PARENT 82 23 56 34
REMARK Flexibility Score: inf
ROOT
ATOM      1  C   UNL     1       3.806  -1.720  -1.366  1.00  0.00     0.275 C 
ENDROOT
BRANCH   1   2
ATOM      2  C   UNL     1       4.188  -1.482   0.100  1.00  0.00     0.275 C 
BRANCH   2   3
ATOM      3  O   UNL     1       3.285  -0.631   0.825  1.00  0.00    -0.458 OA
BRANCH   3   4
ATOM      4  C   UNL     1       3.411   0.706   1.013  1.00  0.00     0.338 C 
ATOM      5  O   UNL     1       2.864   1.256   1.965  1.00  0.00    -0.246 OA
BRANCH   4   6
ATOM      6  C   UNL     1       4.006   1.567  -0.049  1.00  0.00     0.060 A 
ATOM      7  C   UNL     1       3.263   2.693  -0.411  1.00  0.00     0.016 A 
ATOM      8  C   UNL     1       5.236   1.354  -0.680  1.00  0.00     0.016 A 
ATOM      9  C   UNL     1       3.684   3.502  -1.468  1.00  0.00     0.010 A 
ATOM     10  C   UNL     1       5.653   2.164  -1.750  1.00  0.00     0.010 A 
ATOM     11  C   UNL     1       4.865   3.231  -2.182  1.00  0.00    -0.014 A 
BRANCH  11  12
ATOM     12  C   UNL     1       5.317   4.171  -3.245  1.00  0.00     0.031 A 
ATOM     13  C   UNL     1       5.456   3.787  -4.701  1.00  0.00     0.074 A 
ATOM     14  C   UNL     1       5.573   5.441  -2.877  1.00  0.00     0.049 A 
ATOM     15  N   UNL     1       5.506   4.587  -5.741  1.00  0.00    -0.248 NA
ATOM     16  C   UNL     1       5.462   2.361  -5.066  1.00  0.00     0.031 C 
ATOM     17  C   UNL     1       5.543   5.948  -1.500  1.00  0.00     0.029 A 
ATOM     18  N   UNL     1       5.946   6.528  -3.621  1.00  0.00    -0.354 N 
ATOM     19  C   UNL     1       5.380   3.778  -6.867  1.00  0.00     0.074 A 
ATOM     20  C   UNL     1       5.388   2.411  -6.396  1.00  0.00     0.031 C 
ATOM     21  C   UNL     1       5.940   7.227  -1.494  1.00  0.00     0.029 A 
ATOM     22  C   UNL     1       6.289   7.613  -2.854  1.00  0.00     0.049 A 
ATOM     23  H   UNL     1       5.965   6.531  -4.605  1.00  0.00     0.167 HD
ATOM     24  C   UNL     1       5.178   4.176  -8.148  1.00  0.00     0.037 A 
ATOM     25  C   UNL     1       6.894   8.761  -3.203  1.00  0.00     0.037 A 
ATOM     26  C   UNL     1       5.415   5.520  -8.608  1.00  0.00     0.049 A 
ATOM     27  C   UNL     1       7.138   9.032  -4.655  1.00  0.00     0.074 A 
ATOM     28  C   UNL     1       5.307   6.029  -9.892  1.00  0.00     0.029 A 
ATOM     29  N   UNL     1       5.923   6.533  -7.817  1.00  0.00    -0.354 N 
ATOM     30  N   UNL     1       6.729   8.348  -5.696  1.00  0.00    -0.248 NA
ATOM     31  C   UNL     1       7.920  10.227  -4.989  1.00  0.00     0.031 C 
ATOM     32  C   UNL     1       5.857   7.316  -9.893  1.00  0.00     0.029 A 
ATOM     33  C   UNL     1       6.258   7.619  -8.603  1.00  0.00     0.049 A 
ATOM     34  H   UNL     1       6.030   6.488  -6.839  1.00  0.00     0.167 HD
ATOM     35  C   UNL     1       7.155   9.060  -6.807  1.00  0.00     0.074 A 
ATOM     36  C   UNL     1       7.868  10.219  -6.314  1.00  0.00     0.031 C 
ATOM     37  C   UNL     1       6.954   8.780  -8.117  1.00  0.00     0.037 A 
BRANCH  24  38
ATOM     38  C   UNL     1       4.655   3.204  -9.165  1.00  0.00     0.057 A 
ATOM     39  C   UNL     1       5.480   2.344  -9.889  1.00  0.00     0.134 A 
ATOM     40  C   UNL     1       3.309   3.286  -9.559  1.00  0.00     0.134 A 
ATOM     41  F   UNL     1       6.786   2.258  -9.601  1.00  0.00    -0.206 F 
ATOM     42  C   UNL     1       4.982   1.581 -10.952  1.00  0.00     0.040 A 
ATOM     43  C   UNL     1       2.794   2.520 -10.607  1.00  0.00     0.040 A 
ATOM     44  F   UNL     1       2.492   4.173  -8.976  1.00  0.00    -0.206 F 
ATOM     45  C   UNL     1       3.635   1.665 -11.311  1.00  0.00     0.006 A 
ENDBRANCH  24  38
BRANCH  25  46
ATOM     46  C   UNL     1       7.411   9.666  -2.149  1.00  0.00     0.057 A 
ATOM     47  C   UNL     1       8.428   9.236  -1.283  1.00  0.00     0.134 A 
ATOM     48  C   UNL     1       6.954  10.978  -2.004  1.00  0.00     0.134 A 
ATOM     49  F   UNL     1       8.912   7.987  -1.371  1.00  0.00    -0.206 F 
ATOM     50  C   UNL     1       8.968  10.074  -0.310  1.00  0.00     0.040 A 
ATOM     51  C   UNL     1       7.508  11.839  -1.055  1.00  0.00     0.040 A 
ATOM     52  F   UNL     1       5.996  11.452  -2.814  1.00  0.00    -0.206 F 
ATOM     53  C   UNL     1       8.516  11.386  -0.204  1.00  0.00     0.006 A 
ENDBRANCH  25  46
BRANCH  37  54
ATOM     54  C   UNL     1       7.473   9.760  -9.120  1.00  0.00     0.057 A 
ATOM     55  C   UNL     1       6.590  10.550  -9.866  1.00  0.00     0.134 A 
ATOM     56  C   UNL     1       8.842   9.890  -9.381  1.00  0.00     0.134 A 
ATOM     57  F   UNL     1       5.265  10.464  -9.669  1.00  0.00    -0.206 F 
ATOM     58  C   UNL     1       7.049  11.425 -10.849  1.00  0.00     0.040 A 
ATOM     59  C   UNL     1       9.316  10.786 -10.339  1.00  0.00     0.040 A 
ATOM     60  F   UNL     1       9.738   9.172  -8.686  1.00  0.00    -0.206 F 
ATOM     61  C   UNL     1       8.417  11.548 -11.083  1.00  0.00     0.006 A 
ENDBRANCH  37  54
ENDBRANCH  11  12
ENDBRANCH   4   6
ENDBRANCH   3   4
ENDBRANCH   2   3
ENDBRANCH   1   2
BRANCH   1  62
ATOM     62  O   UNL     1       3.261  -0.551  -2.003  1.00  0.00    -0.458 OA
BRANCH  62  63
ATOM     63  C   UNL     1       1.905  -0.554  -2.184  1.00  0.00     0.343 C 
ATOM     64  O   UNL     1       1.171  -1.502  -2.001  1.00  0.00    -0.246 OA
BRANCH  63  65
ATOM     65  C   UNL     1       1.454   0.795  -2.589  1.00  0.00     0.124 A 
ATOM     66  C   UNL     1       2.006   1.440  -3.627  1.00  0.00     0.106 A 
ATOM     67  C   UNL     1       0.379   1.501  -1.855  1.00  0.00     0.204 A 
ATOM     68  N   UNL     1       1.722   2.743  -4.029  1.00  0.00    -0.342 N 
ATOM     69  C   UNL     1       0.140   2.931  -2.183  1.00  0.00     0.050 A 
ATOM     70  O   UNL     1      -0.244   0.974  -0.941  1.00  0.00    -0.288 OA
ATOM     71  C   UNL     1       0.876   3.537  -3.223  1.00  0.00     0.055 A 
ATOM     72  C   UNL     1      -0.749   3.671  -1.390  1.00  0.00     0.056 A 
ATOM     73  C   UNL     1       0.774   4.933  -3.353  1.00  0.00     0.069 A 
ATOM     74  C   UNL     1      -0.882   5.035  -1.607  1.00  0.00     0.159 A 
ATOM     75  C   UNL     1      -0.109   5.665  -2.567  1.00  0.00     0.160 A 
ATOM     76  F   UNL     1      -1.732   5.746  -0.856  1.00  0.00    -0.204 F 
ATOM     77  F   UNL     1      -0.191   6.991  -2.743  1.00  0.00    -0.204 F 
BRANCH  68  78
ATOM     78  C   UNL     1       2.214   3.299  -5.302  1.00  0.00     0.157 C 
BRANCH  78  79
ATOM     79  C   UNL     1       1.145   3.352  -6.357  1.00  0.00    -0.028 A 
ATOM     80  C   UNL     1       0.449   4.530  -6.632  1.00  0.00     0.008 A 
ATOM     81  C   UNL     1       0.848   2.206  -7.097  1.00  0.00     0.008 A 
ATOM     82  C   UNL     1      -0.571   4.546  -7.583  1.00  0.00     0.027 A 
ATOM     83  C   UNL     1      -0.163   2.230  -8.055  1.00  0.00     0.027 A 
ATOM     84  C   UNL     1      -0.912   3.388  -8.290  1.00  0.00     0.044 A 
BRANCH  84  85
ATOM     85  N   UNL     1      -1.996   3.387  -9.201  1.00  0.00    -0.312 N 
ATOM     86  C   UNL     1      -2.599   4.596  -9.711  1.00  0.00     0.126 C 
ATOM     87  C   UNL     1      -2.601   2.250  -9.754  1.00  0.00     0.227 C 
ATOM     88  C   UNL     1      -3.945   4.143 -10.229  1.00  0.00     0.032 C 
ATOM     89  C   UNL     1      -3.693   2.719 -10.680  1.00  0.00     0.102 C 
ATOM     90  O   UNL     1      -2.338   1.069  -9.586  1.00  0.00    -0.275 OA
ENDBRANCH  84  85
ENDBRANCH  78  79
ENDBRANCH  68  78
ENDBRANCH  63  65
ENDBRANCH  62  63
ENDBRANCH   1  62
TORSDOF 14
