REMARK SMILES O=C(Cn1nc(-c2ccccc2)ccc1=O)N[C@@H](C(=O)OCCOC(=O)c1ccc(-c2c3nc(c(-c4c(F)cccc4F)c4ccc([nH]4)c(-c4c(F)cccc4F)c4nc(c(-c5c(F)cccc5F)c5ccc2[nH]5)C=C4)C=C3)cc1)c1ccccc1
REMARK SMILES IDX 22 1 21 2 19 3 20 4 18 5 17 6 1 7 2 8 3 10 4 11 5 12 15 13
REMARK SMILES IDX 6 14 14 15 16 16 13 17 7 18 8 19 12 20 9 21 11 22 10 23
REMARK SMILES IDX 81 24 82 25 86 26 83 27 85 28 84 29 23 30 24 31 25 32 26 33
REMARK SMILES IDX 27 34 28 35 80 36 29 37 79 38 30 39 31 40 32 41 73 42 33 43
REMARK SMILES IDX 78 44 72 45 74 46 34 47 77 48 71 49 70 50 35 52 61 53 44 54
REMARK SMILES IDX 60 55 45 56 48 57 59 58 75 59 46 60 47 61 58 63 76 64 49 65
REMARK SMILES IDX 36 66 37 67 42 68 38 69 39 70 41 71 43 72 40 73 62 74 63 75
REMARK SMILES IDX 68 76 64 77 65 78 67 79 69 80 66 81 50 82 51 83 56 84 52 85
REMARK SMILES IDX 53 86 55 87 57 88 54 89
REMARK H PARENT 17 9 74 51 48 62
REMARK Flexibility Score: inf
ROOT
ATOM      1  C   UNL     1       2.856  -4.900   0.267  1.00  0.00     0.274 C 
ENDROOT
BRANCH   1   2
ATOM      2  O   UNL     1       2.558  -3.512   0.516  1.00  0.00    -0.460 OA
BRANCH   2   3
ATOM      3  C   UNL     1       1.904  -3.213   1.682  1.00  0.00     0.333 C 
ATOM      4  O   UNL     1       1.468  -4.077   2.437  1.00  0.00    -0.249 OA
BRANCH   3   5
ATOM      5  C   UNL     1       1.698  -1.680   1.861  1.00  0.00     0.223 C 
BRANCH   5   6
ATOM      6  N   UNL     1       2.517  -0.930   0.897  1.00  0.00    -0.337 N 
ATOM      7  O   UNL     1       0.749   0.142  -0.078  1.00  0.00    -0.273 OA
ATOM      8  C   UNL     1       1.962  -0.049  -0.003  1.00  0.00     0.242 C 
ATOM      9  H   UNL     1       3.492  -1.062   0.896  1.00  0.00     0.164 HD
BRANCH   8  10
ATOM     10  C   UNL     1       2.951   0.670  -0.915  1.00  0.00     0.248 C 
BRANCH  10  11
ATOM     11  N   UNL     1       3.720   1.686  -0.204  1.00  0.00    -0.220 N 
ATOM     12  N   UNL     1       3.216   2.971  -0.213  1.00  0.00    -0.169 NA
ATOM     13  C   UNL     1       4.915   1.334   0.402  1.00  0.00     0.267 A 
ATOM     14  C   UNL     1       3.947   3.905   0.310  1.00  0.00     0.091 A 
ATOM     15  C   UNL     1       5.715   2.437   0.968  1.00  0.00     0.075 A 
ATOM     16  O   UNL     1       5.341   0.186   0.481  1.00  0.00    -0.268 OA
ATOM     17  C   UNL     1       5.275   3.694   0.921  1.00  0.00     0.036 A 
BRANCH  14  18
ATOM     18  C   UNL     1       3.447   5.297   0.340  1.00  0.00     0.002 A 
ATOM     19  C   UNL     1       2.230   5.563   0.974  1.00  0.00     0.010 A 
ATOM     20  C   UNL     1       4.176   6.330  -0.260  1.00  0.00     0.010 A 
ATOM     21  C   UNL     1       1.754   6.873   1.030  1.00  0.00     0.001 A 
ATOM     22  C   UNL     1       3.687   7.636  -0.211  1.00  0.00     0.001 A 
ATOM     23  C   UNL     1       2.481   7.907   0.438  1.00  0.00     0.000 A 
ENDBRANCH  14  18
ENDBRANCH  10  11
ENDBRANCH   8  10
ENDBRANCH   5   6
BRANCH   5  24
ATOM     24  C   UNL     1       1.882  -1.122   3.283  1.00  0.00    -0.014 A 
ATOM     25  C   UNL     1       2.174   0.246   3.473  1.00  0.00     0.006 A 
ATOM     26  C   UNL     1       1.667  -1.889   4.442  1.00  0.00     0.006 A 
ATOM     27  C   UNL     1       2.312   0.801   4.749  1.00  0.00     0.000 A 
ATOM     28  C   UNL     1       1.797  -1.332   5.720  1.00  0.00     0.000 A 
ATOM     29  C   UNL     1       2.132   0.008   5.875  1.00  0.00     0.000 A 
ENDBRANCH   5  24
ENDBRANCH   3   5
ENDBRANCH   2   3
ENDBRANCH   1   2
BRANCH   1  30
ATOM     30  C   UNL     1       4.364  -5.154   0.340  1.00  0.00     0.275 C 
BRANCH  30  31
ATOM     31  O   UNL     1       4.868  -4.944   1.672  1.00  0.00    -0.458 OA
BRANCH  31  32
ATOM     32  C   UNL     1       5.212  -3.660   1.950  1.00  0.00     0.338 C 
ATOM     33  O   UNL     1       5.176  -2.723   1.176  1.00  0.00    -0.246 OA
BRANCH  32  34
ATOM     34  C   UNL     1       5.481  -3.503   3.397  1.00  0.00     0.060 A 
ATOM     35  C   UNL     1       6.003  -4.532   4.188  1.00  0.00     0.016 A 
ATOM     36  C   UNL     1       5.175  -2.266   3.973  1.00  0.00     0.016 A 
ATOM     37  C   UNL     1       6.185  -4.328   5.561  1.00  0.00     0.010 A 
ATOM     38  C   UNL     1       5.329  -2.073   5.343  1.00  0.00     0.010 A 
ATOM     39  C   UNL     1       5.829  -3.105   6.148  1.00  0.00    -0.014 A 
BRANCH  39  40
ATOM     40  C   UNL     1       6.044  -2.859   7.590  1.00  0.00     0.031 A 
ATOM     41  C   UNL     1       4.989  -3.192   8.601  1.00  0.00     0.074 A 
ATOM     42  C   UNL     1       7.184  -2.261   7.976  1.00  0.00     0.049 A 
ATOM     43  N   UNL     1       5.034  -3.088   9.905  1.00  0.00    -0.248 NA
ATOM     44  C   UNL     1       3.709  -3.687   8.078  1.00  0.00     0.031 C 
ATOM     45  C   UNL     1       8.254  -1.830   7.075  1.00  0.00     0.029 A 
ATOM     46  N   UNL     1       7.624  -1.899   9.222  1.00  0.00    -0.354 N 
ATOM     47  C   UNL     1       3.796  -3.518  10.364  1.00  0.00     0.074 A 
ATOM     48  C   UNL     1       3.004  -3.838   9.193  1.00  0.00     0.031 C 
ATOM     49  C   UNL     1       9.227  -1.255   7.799  1.00  0.00     0.029 A 
ATOM     50  C   UNL     1       8.852  -1.288   9.210  1.00  0.00     0.049 A 
ATOM     51  H   UNL     1       7.109  -2.062  10.045  1.00  0.00     0.167 HD
ATOM     52  C   UNL     1       3.371  -3.649  11.646  1.00  0.00     0.037 A 
ATOM     53  C   UNL     1       9.599  -0.823  10.226  1.00  0.00     0.037 A 
ATOM     54  C   UNL     1       4.167  -3.318  12.803  1.00  0.00     0.049 A 
ATOM     55  C   UNL     1       9.114  -0.995  11.637  1.00  0.00     0.074 A 
ATOM     56  C   UNL     1       3.864  -3.499  14.143  1.00  0.00     0.029 A 
ATOM     57  N   UNL     1       5.418  -2.720  12.760  1.00  0.00    -0.354 N 
ATOM     58  N   UNL     1       7.995  -1.523  12.069  1.00  0.00    -0.248 NA
ATOM     59  C   UNL     1      10.014  -0.532  12.702  1.00  0.00     0.031 C 
ATOM     60  C   UNL     1       4.909  -2.969  14.908  1.00  0.00     0.029 A 
ATOM     61  C   UNL     1       5.888  -2.502  14.046  1.00  0.00     0.049 A 
ATOM     62  H   UNL     1       5.902  -2.484  11.935  1.00  0.00     0.167 HD
ATOM     63  C   UNL     1       8.068  -1.484  13.455  1.00  0.00     0.074 A 
ATOM     64  C   UNL     1       9.349  -0.896  13.789  1.00  0.00     0.031 C 
ATOM     65  C   UNL     1       7.158  -1.903  14.369  1.00  0.00     0.037 A 
BRANCH  52  66
ATOM     66  C   UNL     1       1.986  -4.188  11.873  1.00  0.00     0.057 A 
ATOM     67  C   UNL     1       0.984  -3.387  12.435  1.00  0.00     0.134 A 
ATOM     68  C   UNL     1       1.663  -5.524  11.599  1.00  0.00     0.134 A 
ATOM     69  F   UNL     1       1.226  -2.102  12.735  1.00  0.00    -0.206 F 
ATOM     70  C   UNL     1      -0.286  -3.895  12.720  1.00  0.00     0.040 A 
ATOM     71  C   UNL     1       0.389  -6.037  11.855  1.00  0.00     0.040 A 
ATOM     72  F   UNL     1       2.574  -6.348  11.060  1.00  0.00    -0.206 F 
ATOM     73  C   UNL     1      -0.587  -5.222  12.425  1.00  0.00     0.006 A 
ENDBRANCH  52  66
BRANCH  53  74
ATOM     74  C   UNL     1      10.921  -0.217   9.946  1.00  0.00     0.057 A 
ATOM     75  C   UNL     1      11.037   1.052   9.369  1.00  0.00     0.134 A 
ATOM     76  C   UNL     1      12.102  -0.906  10.247  1.00  0.00     0.134 A 
ATOM     77  F   UNL     1       9.941   1.753   9.047  1.00  0.00    -0.206 F 
ATOM     78  C   UNL     1      12.285   1.617   9.101  1.00  0.00     0.040 A 
ATOM     79  C   UNL     1      13.355  -0.344  10.004  1.00  0.00     0.040 A 
ATOM     80  F   UNL     1      12.049  -2.120  10.812  1.00  0.00    -0.206 F 
ATOM     81  C   UNL     1      13.448   0.920   9.426  1.00  0.00     0.006 A 
ENDBRANCH  53  74
BRANCH  65  82
ATOM     82  C   UNL     1       7.535  -1.756  15.815  1.00  0.00     0.057 A 
ATOM     83  C   UNL     1       7.840  -2.881  16.593  1.00  0.00     0.134 A 
ATOM     84  C   UNL     1       7.604  -0.503  16.438  1.00  0.00     0.134 A 
ATOM     85  F   UNL     1       7.787  -4.112  16.061  1.00  0.00    -0.206 F 
ATOM     86  C   UNL     1       8.209  -2.763  17.934  1.00  0.00     0.040 A 
ATOM     87  C   UNL     1       7.999  -0.371  17.771  1.00  0.00     0.040 A 
ATOM     88  F   UNL     1       7.340   0.616  15.746  1.00  0.00    -0.206 F 
ATOM     89  C   UNL     1       8.299  -1.504  18.523  1.00  0.00     0.006 A 
ENDBRANCH  65  82
ENDBRANCH  39  40
ENDBRANCH  32  34
ENDBRANCH  31  32
ENDBRANCH  30  31
ENDBRANCH   1  30
TORSDOF 16
