REMARK SMILES Cc1nc(CCNc2nccc(-c3cc(C(=O)OCCOC(=O)c4ccc(-c5c6nc(c(-c7c(F)cccc7F)c7ccc([nH]7)c(-c7c(F)cccc7F)c7nc(c(-c8c(F)cccc8F)c8ccc5[nH]8)C=C7)C=C6)cc4)ccn3)n2)cc(=O)[nH]1
REMARK SMILES IDX 18 1 16 2 17 3 15 4 13 5 14 6 80 7 79 8 78 9 12 10 8 11 9 12
REMARK SMILES IDX 81 13 10 14 11 15 7 16 6 18 5 19 4 20 1 21 2 22 3 23 85 24
REMARK SMILES IDX 83 25 82 27 84 28 19 29 20 30 21 31 22 32 23 33 24 34 25 35
REMARK SMILES IDX 77 36 26 37 76 38 27 39 28 40 29 41 70 42 30 43 75 44 69 45
REMARK SMILES IDX 71 46 31 47 74 48 68 49 67 50 32 52 58 53 41 54 57 55 42 56
REMARK SMILES IDX 45 57 56 58 72 59 43 60 44 61 55 63 73 64 46 65 33 66 34 67
REMARK SMILES IDX 39 68 35 69 36 70 38 71 40 72 37 73 59 74 60 75 65 76 61 77
REMARK SMILES IDX 62 78 64 79 66 80 63 81 47 82 48 83 53 84 49 85 50 86 52 87
REMARK SMILES IDX 54 88 51 89
REMARK H PARENT 7 17 85 26 71 51 45 62
REMARK Flexibility Score: inf
ROOT
ATOM      1  O   UNL     1       2.909  11.554   1.836  1.00  0.00    -0.458 OA
ENDROOT
BRANCH   1   2
ATOM      2  C   UNL     1       3.541  11.284   3.005  1.00  0.00     0.338 C 
ATOM      3  O   UNL     1       4.109  12.078   3.730  1.00  0.00    -0.246 OA
BRANCH   2   4
ATOM      4  C   UNL     1       3.367   9.855   3.355  1.00  0.00     0.063 A 
ATOM      5  C   UNL     1       3.188   7.559   2.775  1.00  0.00     0.090 A 
ATOM      6  C   UNL     1       3.330   8.876   2.369  1.00  0.00     0.046 A 
ATOM      7  N   UNL     1       3.022   7.208   4.079  1.00  0.00    -0.255 NA
ATOM      8  C   UNL     1       3.052   8.170   5.010  1.00  0.00     0.112 A 
ATOM      9  C   UNL     1       3.278   9.491   4.701  1.00  0.00     0.036 A 
BRANCH   5  10
ATOM     10  C   UNL     1       3.331   6.431   1.855  1.00  0.00     0.094 A 
ATOM     11  C   UNL     1       2.549   4.356   1.314  1.00  0.00     0.223 A 
ATOM     12  N   UNL     1       3.664   4.041   0.642  1.00  0.00    -0.222 NA
ATOM     13  N   UNL     1       2.323   5.539   1.875  1.00  0.00    -0.211 NA
ATOM     14  C   UNL     1       4.606   4.994   0.547  1.00  0.00     0.117 A 
ATOM     15  C   UNL     1       4.501   6.217   1.155  1.00  0.00     0.051 A 
BRANCH  11  16
ATOM     16  N   UNL     1       1.647   3.352   1.511  1.00  0.00    -0.354 N 
ATOM     17  H   UNL     1       1.963   2.457   1.773  1.00  0.00     0.163 HD
BRANCH  16  18
ATOM     18  C   UNL     1       0.228   3.590   1.339  1.00  0.00     0.122 C 
BRANCH  18  19
ATOM     19  C   UNL     1      -0.250   3.074  -0.030  1.00  0.00     0.077 C 
BRANCH  19  20
ATOM     20  C   UNL     1      -0.142   1.565  -0.154  1.00  0.00     0.050 A 
ATOM     21  C   UNL     1      -2.463  -1.281   0.137  1.00  0.00     0.087 C 
ATOM     22  C   UNL     1      -1.236  -0.430  -0.005  1.00  0.00     0.105 A 
ATOM     23  N   UNL     1      -1.309   0.861   0.039  1.00  0.00    -0.240 NA
ATOM     24  N   UNL     1      -0.070  -1.116  -0.188  1.00  0.00    -0.311 N 
ATOM     25  C   UNL     1       1.115  -0.480  -0.390  1.00  0.00     0.251 A 
ATOM     26  H   UNL     1      -0.087  -2.101  -0.172  1.00  0.00     0.171 HD
ATOM     27  C   UNL     1       1.034   0.983  -0.440  1.00  0.00     0.095 A 
ATOM     28  O   UNL     1       2.183  -1.070  -0.499  1.00  0.00    -0.270 OA
ENDBRANCH  19  20
ENDBRANCH  18  19
ENDBRANCH  16  18
ENDBRANCH  11  16
ENDBRANCH   5  10
ENDBRANCH   2   4
ENDBRANCH   1   2
BRANCH   1  29
ATOM     29  C   UNL     1       2.887  12.934   1.422  1.00  0.00     0.275 C 
BRANCH  29  30
ATOM     30  C   UNL     1       1.516  13.569   1.665  1.00  0.00     0.275 C 
BRANCH  30  31
ATOM     31  O   UNL     1       1.261  13.716   3.075  1.00  0.00    -0.458 OA
BRANCH  31  32
ATOM     32  C   UNL     1       0.430  12.790   3.602  1.00  0.00     0.338 C 
ATOM     33  O   UNL     1      -0.143  11.884   3.019  1.00  0.00    -0.246 OA
BRANCH  32  34
ATOM     34  C   UNL     1       0.391  12.918   5.065  1.00  0.00     0.060 A 
ATOM     35  C   UNL     1       1.372  12.247   5.781  1.00  0.00     0.016 A 
ATOM     36  C   UNL     1      -0.681  13.500   5.731  1.00  0.00     0.016 A 
ATOM     37  C   UNL     1       1.233  12.030   7.145  1.00  0.00     0.010 A 
ATOM     38  C   UNL     1      -0.753  13.395   7.128  1.00  0.00     0.010 A 
ATOM     39  C   UNL     1       0.180  12.622   7.849  1.00  0.00    -0.014 A 
BRANCH  39  40
ATOM     40  C   UNL     1       0.053  12.404   9.320  1.00  0.00     0.031 A 
ATOM     41  C   UNL     1      -1.218  11.836   9.898  1.00  0.00     0.074 A 
ATOM     42  C   UNL     1       1.083  12.692  10.143  1.00  0.00     0.049 A 
ATOM     43  N   UNL     1      -1.589  11.741  11.150  1.00  0.00    -0.248 NA
ATOM     44  C   UNL     1      -2.210  11.320   8.941  1.00  0.00     0.031 C 
ATOM     45  C   UNL     1       2.394  13.194   9.723  1.00  0.00     0.029 A 
ATOM     46  N   UNL     1       1.193  12.600  11.510  1.00  0.00    -0.354 N 
ATOM     47  C   UNL     1      -2.875  11.212  11.128  1.00  0.00     0.074 A 
ATOM     48  C   UNL     1      -3.225  11.018   9.737  1.00  0.00     0.031 C 
ATOM     49  C   UNL     1       3.183  13.328  10.797  1.00  0.00     0.029 A 
ATOM     50  C   UNL     1       2.406  13.030  11.993  1.00  0.00     0.049 A 
ATOM     51  H   UNL     1       0.472  12.260  12.088  1.00  0.00     0.167 HD
ATOM     52  C   UNL     1      -3.687  10.916  12.172  1.00  0.00     0.037 A 
ATOM     53  C   UNL     1       2.835  13.223  13.254  1.00  0.00     0.037 A 
ATOM     54  C   UNL     1      -3.313  11.069  13.556  1.00  0.00     0.049 A 
ATOM     55  C   UNL     1       1.896  12.948  14.393  1.00  0.00     0.074 A 
ATOM     56  C   UNL     1      -4.056  10.780  14.687  1.00  0.00     0.029 A 
ATOM     57  N   UNL     1      -2.086  11.543  13.996  1.00  0.00    -0.354 N 
ATOM     58  N   UNL     1       0.668  12.490  14.358  1.00  0.00    -0.248 NA
ATOM     59  C   UNL     1       2.395  13.231  15.744  1.00  0.00     0.031 C 
ATOM     60  C   UNL     1      -3.300  11.132  15.810  1.00  0.00     0.029 A 
ATOM     61  C   UNL     1      -2.061  11.579  15.381  1.00  0.00     0.049 A 
ATOM     62  H   UNL     1      -1.342  11.815  13.411  1.00  0.00     0.167 HD
ATOM     63  C   UNL     1       0.256  12.408  15.681  1.00  0.00     0.074 A 
ATOM     64  C   UNL     1       1.373  12.846  16.494  1.00  0.00     0.031 C 
ATOM     65  C   UNL     1      -0.940  12.009  16.178  1.00  0.00     0.037 A 
BRANCH  52  66
ATOM     66  C   UNL     1      -5.078  10.437  11.862  1.00  0.00     0.057 A 
ATOM     67  C   UNL     1      -5.333   9.175  11.310  1.00  0.00     0.134 A 
ATOM     68  C   UNL     1      -6.186  11.245  12.156  1.00  0.00     0.134 A 
ATOM     69  F   UNL     1      -4.321   8.354  10.993  1.00  0.00    -0.206 F 
ATOM     70  C   UNL     1      -6.635   8.747  11.034  1.00  0.00     0.040 A 
ATOM     71  C   UNL     1      -7.492  10.815  11.915  1.00  0.00     0.040 A 
ATOM     72  F   UNL     1      -6.018  12.462  12.696  1.00  0.00    -0.206 F 
ATOM     73  C   UNL     1      -7.719   9.566  11.345  1.00  0.00     0.006 A 
ENDBRANCH  52  66
BRANCH  53  74
ATOM     74  C   UNL     1       4.202  13.754  13.504  1.00  0.00     0.057 A 
ATOM     75  C   UNL     1       5.179  12.975  14.133  1.00  0.00     0.134 A 
ATOM     76  C   UNL     1       4.562  15.053  13.123  1.00  0.00     0.134 A 
ATOM     77  F   UNL     1       4.890  11.731  14.543  1.00  0.00    -0.206 F 
ATOM     78  C   UNL     1       6.458  13.473  14.389  1.00  0.00     0.040 A 
ATOM     79  C   UNL     1       5.847  15.552  13.341  1.00  0.00     0.040 A 
ATOM     80  F   UNL     1       3.675  15.852  12.512  1.00  0.00    -0.206 F 
ATOM     81  C   UNL     1       6.797  14.763  13.984  1.00  0.00     0.006 A 
ENDBRANCH  53  74
BRANCH  65  82
ATOM     82  C   UNL     1      -1.084  11.979  17.672  1.00  0.00     0.057 A 
ATOM     83  C   UNL     1      -1.160  13.151  18.435  1.00  0.00     0.134 A 
ATOM     84  C   UNL     1      -1.174  10.757  18.351  1.00  0.00     0.134 A 
ATOM     85  F   UNL     1      -1.064  14.353  17.848  1.00  0.00    -0.206 F 
ATOM     86  C   UNL     1      -1.293  13.108  19.824  1.00  0.00     0.040 A 
ATOM     87  C   UNL     1      -1.339  10.702  19.735  1.00  0.00     0.040 A 
ATOM     88  F   UNL     1      -1.116   9.597  17.679  1.00  0.00    -0.206 F 
ATOM     89  C   UNL     1      -1.390  11.880  20.477  1.00  0.00     0.006 A 
ENDBRANCH  65  82
ENDBRANCH  39  40
ENDBRANCH  32  34
ENDBRANCH  31  32
ENDBRANCH  30  31
ENDBRANCH  29  30
ENDBRANCH   1  29
TORSDOF 16
