REMARK SMILES O=C(CNc1nc(-c2ccccc2)c(-c2ccccc2)s1)OCCOC(=O)c1ccc(-c2c3nc(c(-c4c(F)cccc4F)c4ccc([nH]4)c(-c4c(F)cccc4F)c4nc(c(-c5c(F)cccc5F)c5ccc2[nH]5)C=C4)C=C3)cc1
REMARK SMILES IDX 23 1 22 2 2 3 1 4 3 5 4 6 5 8 6 9 21 10 7 11 14 12 8 13 9 14
REMARK SMILES IDX 13 15 10 16 12 17 11 18 15 19 16 20 20 21 17 22 19 23 18 24
REMARK SMILES IDX 24 25 25 26 26 27 27 28 28 29 29 30 81 31 30 32 80 33 31 34
REMARK SMILES IDX 32 35 33 36 74 37 34 38 79 39 73 40 75 41 35 42 78 43 72 44
REMARK SMILES IDX 71 45 36 47 62 48 45 49 61 50 46 51 49 52 60 53 76 54 47 55
REMARK SMILES IDX 48 56 59 58 77 59 50 60 37 61 38 62 43 63 39 64 40 65 42 66
REMARK SMILES IDX 44 67 41 68 63 69 64 70 69 71 65 72 66 73 68 74 70 75 67 76
REMARK SMILES IDX 51 77 52 78 57 79 53 80 54 81 56 82 58 83 55 84
REMARK H PARENT 4 7 75 46 49 57
REMARK Flexibility Score: inf
ROOT
ATOM      1  C   UNL     1       4.375   0.024  -0.985  1.00  0.00     0.274 C 
ENDROOT
BRANCH   1   2
ATOM      2  O   UNL     1       3.022  -0.392  -0.701  1.00  0.00    -0.461 OA
BRANCH   2   3
ATOM      3  C   UNL     1       2.505  -0.654   0.524  1.00  0.00     0.325 C 
ATOM      4  O   UNL     1       1.365  -1.111   0.617  1.00  0.00    -0.250 OA
BRANCH   3   5
ATOM      5  C   UNL     1       3.331  -0.381   1.778  1.00  0.00     0.238 C 
BRANCH   5   6
ATOM      6  N   UNL     1       4.401  -1.345   1.962  1.00  0.00    -0.351 N 
ATOM      7  H   UNL     1       4.195  -2.307   1.960  1.00  0.00     0.163 HD
BRANCH   6   8
ATOM      8  C   UNL     1       5.671  -0.933   2.135  1.00  0.00     0.184 A 
ATOM      9  N   UNL     1       6.042   0.293   2.426  1.00  0.00    -0.220 NA
ATOM     10  S   UNL     1       6.953  -2.036   1.847  1.00  0.00    -0.096 S 
ATOM     11  C   UNL     1       7.424   0.400   2.379  1.00  0.00     0.091 A 
ATOM     12  C   UNL     1       8.089  -0.761   2.017  1.00  0.00     0.064 A 
BRANCH  11  13
ATOM     13  C   UNL     1       8.103   1.639   2.741  1.00  0.00     0.002 A 
ATOM     14  C   UNL     1       9.046   2.233   1.891  1.00  0.00     0.010 A 
ATOM     15  C   UNL     1       7.874   2.200   4.004  1.00  0.00     0.010 A 
ATOM     16  C   UNL     1       9.790   3.335   2.321  1.00  0.00     0.001 A 
ATOM     17  C   UNL     1       8.621   3.300   4.434  1.00  0.00     0.001 A 
ATOM     18  C   UNL     1       9.587   3.858   3.597  1.00  0.00     0.000 A 
ENDBRANCH  11  13
BRANCH  12  19
ATOM     19  C   UNL     1       9.507  -1.052   1.841  1.00  0.00    -0.006 A 
ATOM     20  C   UNL     1      10.008  -1.401   0.579  1.00  0.00     0.009 A 
ATOM     21  C   UNL     1      10.385  -0.971   2.928  1.00  0.00     0.009 A 
ATOM     22  C   UNL     1      11.364  -1.681   0.411  1.00  0.00     0.001 A 
ATOM     23  C   UNL     1      11.740  -1.253   2.759  1.00  0.00     0.001 A 
ATOM     24  C   UNL     1      12.228  -1.611   1.503  1.00  0.00     0.000 A 
ENDBRANCH  12  19
ENDBRANCH   6   8
ENDBRANCH   5   6
ENDBRANCH   3   5
ENDBRANCH   2   3
ENDBRANCH   1   2
BRANCH   1  25
ATOM     25  C   UNL     1       4.496   1.528  -1.221  1.00  0.00     0.275 C 
BRANCH  25  26
ATOM     26  O   UNL     1       4.047   2.257  -0.070  1.00  0.00    -0.458 OA
BRANCH  26  27
ATOM     27  C   UNL     1       2.763   2.684  -0.127  1.00  0.00     0.338 C 
ATOM     28  O   UNL     1       2.017   2.632  -1.090  1.00  0.00    -0.246 OA
BRANCH  27  29
ATOM     29  C   UNL     1       2.314   3.060   1.231  1.00  0.00     0.060 A 
ATOM     30  C   UNL     1       1.009   2.713   1.599  1.00  0.00     0.016 A 
ATOM     31  C   UNL     1       3.152   3.716   2.140  1.00  0.00     0.016 A 
ATOM     32  C   UNL     1       0.524   3.064   2.857  1.00  0.00     0.010 A 
ATOM     33  C   UNL     1       2.663   4.065   3.403  1.00  0.00     0.010 A 
ATOM     34  C   UNL     1       1.337   3.768   3.756  1.00  0.00    -0.014 A 
BRANCH  34  35
ATOM     35  C   UNL     1       0.745   4.286   5.013  1.00  0.00     0.031 A 
ATOM     36  C   UNL     1       0.284   5.716   5.072  1.00  0.00     0.074 A 
ATOM     37  C   UNL     1       0.567   3.478   6.073  1.00  0.00     0.049 A 
ATOM     38  N   UNL     1      -0.349   6.344   6.030  1.00  0.00    -0.248 NA
ATOM     39  C   UNL     1       0.575   6.548   3.894  1.00  0.00     0.031 C 
ATOM     40  C   UNL     1       0.974   2.077   6.148  1.00  0.00     0.029 A 
ATOM     41  N   UNL     1      -0.011   3.728   7.293  1.00  0.00    -0.354 N 
ATOM     42  C   UNL     1      -0.558   7.633   5.560  1.00  0.00     0.074 A 
ATOM     43  C   UNL     1       0.067   7.717   4.258  1.00  0.00     0.031 C 
ATOM     44  C   UNL     1       0.633   1.589   7.354  1.00  0.00     0.029 A 
ATOM     45  C   UNL     1      -0.010   2.644   8.135  1.00  0.00     0.049 A 
ATOM     46  H   UNL     1      -0.390   4.603   7.540  1.00  0.00     0.167 HD
ATOM     47  C   UNL     1      -1.233   8.650   6.147  1.00  0.00     0.037 A 
ATOM     48  C   UNL     1      -0.480   2.519   9.391  1.00  0.00     0.037 A 
ATOM     49  C   UNL     1      -1.837   8.583   7.451  1.00  0.00     0.049 A 
ATOM     50  C   UNL     1      -1.181   3.681  10.043  1.00  0.00     0.074 A 
ATOM     51  C   UNL     1      -2.540   9.564   8.129  1.00  0.00     0.029 A 
ATOM     52  N   UNL     1      -1.800   7.472   8.280  1.00  0.00    -0.354 N 
ATOM     53  N   UNL     1      -1.425   4.877   9.565  1.00  0.00    -0.248 NA
ATOM     54  C   UNL     1      -1.687   3.468  11.408  1.00  0.00     0.031 C 
ATOM     55  C   UNL     1      -2.897   9.059   9.384  1.00  0.00     0.029 A 
ATOM     56  C   UNL     1      -2.453   7.749   9.470  1.00  0.00     0.049 A 
ATOM     57  H   UNL     1      -1.373   6.614   8.056  1.00  0.00     0.167 HD
ATOM     58  C   UNL     1      -2.136   5.546  10.555  1.00  0.00     0.074 A 
ATOM     59  C   UNL     1      -2.298   4.617  11.654  1.00  0.00     0.031 C 
ATOM     60  C   UNL     1      -2.612   6.815  10.555  1.00  0.00     0.037 A 
BRANCH  47  61
ATOM     61  C   UNL     1      -1.355   9.927   5.371  1.00  0.00     0.057 A 
ATOM     62  C   UNL     1      -2.202  10.027   4.259  1.00  0.00     0.134 A 
ATOM     63  C   UNL     1      -0.646  11.072   5.750  1.00  0.00     0.134 A 
ATOM     64  F   UNL     1      -2.897   8.960   3.837  1.00  0.00    -0.206 F 
ATOM     65  C   UNL     1      -2.326  11.216   3.541  1.00  0.00     0.040 A 
ATOM     66  C   UNL     1      -0.779  12.274   5.053  1.00  0.00     0.040 A 
ATOM     67  F   UNL     1       0.180  11.044   6.807  1.00  0.00    -0.206 F 
ATOM     68  C   UNL     1      -1.617  12.347   3.942  1.00  0.00     0.006 A 
ENDBRANCH  47  61
BRANCH  48  69
ATOM     69  C   UNL     1      -0.317   1.238  10.122  1.00  0.00     0.057 A 
ATOM     70  C   UNL     1      -1.414   0.420  10.413  1.00  0.00     0.134 A 
ATOM     71  C   UNL     1       0.938   0.825  10.585  1.00  0.00     0.134 A 
ATOM     72  F   UNL     1      -2.645   0.775  10.017  1.00  0.00    -0.206 F 
ATOM     73  C   UNL     1      -1.275  -0.750  11.161  1.00  0.00     0.040 A 
ATOM     74  C   UNL     1       1.095  -0.354  11.314  1.00  0.00     0.040 A 
ATOM     75  F   UNL     1       2.028   1.566  10.339  1.00  0.00    -0.206 F 
ATOM     76  C   UNL     1      -0.015  -1.141  11.612  1.00  0.00     0.006 A 
ENDBRANCH  48  69
BRANCH  60  77
ATOM     77  C   UNL     1      -3.376   7.263  11.767  1.00  0.00     0.057 A 
ATOM     78  C   UNL     1      -2.741   7.519  12.989  1.00  0.00     0.134 A 
ATOM     79  C   UNL     1      -4.761   7.466  11.703  1.00  0.00     0.134 A 
ATOM     80  F   UNL     1      -1.418   7.333  13.120  1.00  0.00    -0.206 F 
ATOM     81  C   UNL     1      -3.459   7.932  14.112  1.00  0.00     0.040 A 
ATOM     82  C   UNL     1      -5.486   7.904  12.812  1.00  0.00     0.040 A 
ATOM     83  F   UNL     1      -5.430   7.250  10.561  1.00  0.00    -0.206 F 
ATOM     84  C   UNL     1      -4.836   8.131  14.024  1.00  0.00     0.006 A 
ENDBRANCH  60  77
ENDBRANCH  34  35
ENDBRANCH  27  29
ENDBRANCH  26  27
ENDBRANCH  25  26
ENDBRANCH   1  25
TORSDOF 15
