REMARK SMILES Cc1coc2cc3c(cc12)[C@@H](C)[C@H](CCC(=O)N[C@@H](Cc1c[nH]c2ccccc12)C(=O)OCCOC(=O)c1ccc(-c2c4nc(c(-c5c(F)cccc5F)c5ccc([nH]5)c(-c5c(F)cccc5F)c5nc(c(-c6c(F)cccc6F)c6ccc2[nH]6)C=C5)C=C4)cc1)C(=O)O3
REMARK SMILES IDX 33 1 32 2 30 3 31 4 19 5 18 6 16 7 17 8 15 10 14 11 13 12
REMARK SMILES IDX 1 13 2 14 3 15 10 16 4 17 5 18 9 19 6 20 8 21 7 22 11 23
REMARK SMILES IDX 94 24 12 25 92 26 93 27 20 28 21 29 22 30 29 31 23 32 24 33
REMARK SMILES IDX 28 34 25 36 27 37 26 38 34 39 35 40 36 41 37 42 38 43 39 44
REMARK SMILES IDX 91 45 40 46 90 47 41 48 42 49 43 50 84 51 44 52 89 53 83 54
REMARK SMILES IDX 85 55 45 56 88 57 82 58 81 59 46 61 72 62 55 63 71 64 56 65
REMARK SMILES IDX 59 66 70 67 86 68 57 69 58 70 69 72 87 73 60 74 47 75 48 76
REMARK SMILES IDX 53 77 49 78 50 79 52 80 54 81 51 82 73 83 74 84 79 85 75 86
REMARK SMILES IDX 76 87 78 88 80 89 77 90 61 91 62 92 67 93 63 94 64 95 66 96
REMARK SMILES IDX 68 97 65 98
REMARK H PARENT 18 9 23 35 85 60 59 71
REMARK Flexibility Score: inf
ROOT
ATOM      1  C   UNL     1      -3.876  -6.411  -4.854  1.00  0.00     0.274 C 
ENDROOT
BRANCH   1   2
ATOM      2  O   UNL     1      -2.703  -5.777  -4.322  1.00  0.00    -0.461 OA
BRANCH   2   3
ATOM      3  C   UNL     1      -2.071  -6.514  -3.380  1.00  0.00     0.329 C 
ATOM      4  O   UNL     1      -2.559  -7.480  -2.800  1.00  0.00    -0.250 OA
BRANCH   3   5
ATOM      5  C   UNL     1      -0.716  -5.935  -3.013  1.00  0.00     0.196 C 
BRANCH   5   6
ATOM      6  N   UNL     1       0.134  -5.261  -4.112  1.00  0.00    -0.342 N 
ATOM      7  C   UNL     1       1.447  -5.153  -4.566  1.00  0.00     0.220 C 
ATOM      8  O   UNL     1       1.512  -4.522  -5.641  1.00  0.00    -0.275 OA
ATOM      9  H   UNL     1      -0.453  -4.723  -4.691  1.00  0.00     0.164 HD
BRANCH   7  10
ATOM     10  C   UNL     1       2.933  -5.704  -4.019  1.00  0.00     0.101 C 
BRANCH  10  11
ATOM     11  C   UNL     1       3.889  -5.515  -2.670  1.00  0.00     0.026 C 
BRANCH  11  12
ATOM     12  C   UNL     1       3.354  -5.686  -1.200  1.00  0.00     0.107 C 
ATOM     13  C   UNL     1       0.909   0.773   0.887  1.00  0.00     0.048 C 
ATOM     14  C   UNL     1       0.994   0.151  -0.445  1.00  0.00    -0.005 A 
ATOM     15  C   UNL     1       0.458   0.630  -1.624  1.00  0.00     0.199 A 
ATOM     16  C   UNL     1       1.608  -1.094  -0.759  1.00  0.00     0.024 A 
ATOM     17  O   UNL     1       0.682  -0.228  -2.642  1.00  0.00    -0.464 OA
ATOM     18  C   UNL     1       1.328  -1.288  -2.108  1.00  0.00     0.137 A 
ATOM     19  C   UNL     1       2.303  -2.099  -0.035  1.00  0.00     0.020 A 
ATOM     20  C   UNL     1       1.562  -2.452  -2.787  1.00  0.00     0.095 A 
ATOM     21  C   UNL     1       2.573  -3.297  -0.686  1.00  0.00    -0.001 A 
ATOM     22  C   UNL     1       2.027  -3.442  -1.944  1.00  0.00     0.138 A 
ATOM     23  C   UNL     1       3.124  -4.569  -0.092  1.00  0.00     0.034 C 
ATOM     24  O   UNL     1       1.526  -4.734  -2.193  1.00  0.00    -0.426 OA
ATOM     25  C   UNL     1       2.044  -5.050   0.917  1.00  0.00     0.014 C 
ATOM     26  C   UNL     1       1.976  -5.876  -1.555  1.00  0.00     0.314 C 
ATOM     27  O   UNL     1       1.353  -6.880  -1.374  1.00  0.00    -0.251 OA
ENDBRANCH  11  12
ENDBRANCH  10  11
ENDBRANCH   7  10
ENDBRANCH   5   6
BRANCH   5  28
ATOM     28  C   UNL     1      -1.012  -5.287  -1.625  1.00  0.00     0.074 C 
BRANCH  28  29
ATOM     29  C   UNL     1      -2.078  -4.286  -1.334  1.00  0.00    -0.020 A 
ATOM     30  C   UNL     1      -2.727  -4.239  -0.109  1.00  0.00     0.087 A 
ATOM     31  C   UNL     1      -2.447  -3.113  -2.044  1.00  0.00     0.003 A 
ATOM     32  N   UNL     1      -3.454  -3.087  -0.049  1.00  0.00    -0.361 N 
ATOM     33  C   UNL     1      -3.284  -2.370  -1.207  1.00  0.00     0.046 A 
ATOM     34  C   UNL     1      -2.100  -2.571  -3.293  1.00  0.00     0.010 A 
ATOM     35  H   UNL     1      -4.016  -2.811   0.711  1.00  0.00     0.166 HD
ATOM     36  C   UNL     1      -3.780  -1.111  -1.557  1.00  0.00     0.026 A 
ATOM     37  C   UNL     1      -2.599  -1.323  -3.667  1.00  0.00     0.001 A 
ATOM     38  C   UNL     1      -3.421  -0.602  -2.807  1.00  0.00     0.002 A 
ENDBRANCH  28  29
ENDBRANCH   5  28
ENDBRANCH   3   5
ENDBRANCH   2   3
ENDBRANCH   1   2
BRANCH   1  39
ATOM     39  C   UNL     1      -3.442  -7.078  -6.157  1.00  0.00     0.275 C 
BRANCH  39  40
ATOM     40  O   UNL     1      -2.622  -8.229  -5.837  1.00  0.00    -0.458 OA
BRANCH  40  41
ATOM     41  C   UNL     1      -1.296  -8.134  -6.112  1.00  0.00     0.338 C 
ATOM     42  O   UNL     1      -0.780  -7.323  -6.864  1.00  0.00    -0.246 OA
BRANCH  41  43
ATOM     43  C   UNL     1      -0.528  -8.923  -5.099  1.00  0.00     0.060 A 
ATOM     44  C   UNL     1      -1.084  -9.913  -4.279  1.00  0.00     0.016 A 
ATOM     45  C   UNL     1       0.723  -8.434  -4.774  1.00  0.00     0.016 A 
ATOM     46  C   UNL     1      -0.521 -10.209  -3.013  1.00  0.00     0.010 A 
ATOM     47  C   UNL     1       1.242  -8.713  -3.509  1.00  0.00     0.010 A 
ATOM     48  C   UNL     1       0.581  -9.497  -2.545  1.00  0.00    -0.014 A 
BRANCH  48  49
ATOM     49  C   UNL     1       1.222  -9.681  -1.193  1.00  0.00     0.031 A 
ATOM     50  C   UNL     1       2.509 -10.421  -1.348  1.00  0.00     0.074 A 
ATOM     51  C   UNL     1       0.923  -9.189   0.057  1.00  0.00     0.049 A 
ATOM     52  N   UNL     1       2.639 -11.695  -1.171  1.00  0.00    -0.248 NA
ATOM     53  C   UNL     1       3.692  -9.794  -1.967  1.00  0.00     0.031 C 
ATOM     54  C   UNL     1      -0.128  -8.255   0.486  1.00  0.00     0.029 A 
ATOM     55  N   UNL     1       1.605  -9.364   1.256  1.00  0.00    -0.354 N 
ATOM     56  C   UNL     1       3.963 -11.981  -1.458  1.00  0.00     0.074 A 
ATOM     57  C   UNL     1       4.471 -10.855  -2.186  1.00  0.00     0.031 C 
ATOM     58  C   UNL     1       0.126  -7.770   1.737  1.00  0.00     0.029 A 
ATOM     59  C   UNL     1       1.252  -8.490   2.320  1.00  0.00     0.049 A 
ATOM     60  H   UNL     1       2.297 -10.056   1.363  1.00  0.00     0.167 HD
ATOM     61  C   UNL     1       4.610 -12.995  -0.827  1.00  0.00     0.037 A 
ATOM     62  C   UNL     1       1.806  -8.435   3.584  1.00  0.00     0.037 A 
ATOM     63  C   UNL     1       3.675 -13.840  -0.122  1.00  0.00     0.049 A 
ATOM     64  C   UNL     1       2.369  -9.778   3.828  1.00  0.00     0.074 A 
ATOM     65  C   UNL     1       2.570 -14.580  -0.497  1.00  0.00     0.029 A 
ATOM     66  N   UNL     1       3.553 -13.649   1.232  1.00  0.00    -0.354 N 
ATOM     67  N   UNL     1       1.645 -10.849   3.962  1.00  0.00    -0.248 NA
ATOM     68  C   UNL     1       3.759  -9.978   3.470  1.00  0.00     0.031 C 
ATOM     69  C   UNL     1       1.613 -14.366   0.539  1.00  0.00     0.029 A 
ATOM     70  C   UNL     1       2.215 -13.598   1.533  1.00  0.00     0.049 A 
ATOM     71  H   UNL     1       4.295 -13.564   1.874  1.00  0.00     0.167 HD
ATOM     72  C   UNL     1       2.333 -11.804   3.238  1.00  0.00     0.074 A 
ATOM     73  C   UNL     1       3.664 -11.230   3.017  1.00  0.00     0.031 C 
ATOM     74  C   UNL     1       1.670 -12.825   2.623  1.00  0.00     0.037 A 
BRANCH  61  75
ATOM     75  C   UNL     1       6.085 -12.998  -0.534  1.00  0.00     0.057 A 
ATOM     76  C   UNL     1       6.683 -14.185  -0.084  1.00  0.00     0.134 A 
ATOM     77  C   UNL     1       6.887 -11.842  -0.428  1.00  0.00     0.134 A 
ATOM     78  F   UNL     1       6.011 -15.345  -0.108  1.00  0.00    -0.206 F 
ATOM     79  C   UNL     1       7.964 -14.210   0.479  1.00  0.00     0.040 A 
ATOM     80  C   UNL     1       8.188 -11.865   0.079  1.00  0.00     0.040 A 
ATOM     81  F   UNL     1       6.429 -10.615  -0.707  1.00  0.00    -0.206 F 
ATOM     82  C   UNL     1       8.721 -13.048   0.562  1.00  0.00     0.006 A 
ENDBRANCH  61  75
BRANCH  62  83
ATOM     83  C   UNL     1       2.130  -7.369   4.604  1.00  0.00     0.057 A 
ATOM     84  C   UNL     1       2.290  -7.621   5.981  1.00  0.00     0.134 A 
ATOM     85  C   UNL     1       2.740  -6.176   4.200  1.00  0.00     0.134 A 
ATOM     86  F   UNL     1       1.914  -8.797   6.503  1.00  0.00    -0.206 F 
ATOM     87  C   UNL     1       2.958  -6.729   6.857  1.00  0.00     0.040 A 
ATOM     88  C   UNL     1       3.329  -5.230   5.056  1.00  0.00     0.040 A 
ATOM     89  F   UNL     1       3.041  -6.008   2.921  1.00  0.00    -0.206 F 
ATOM     90  C   UNL     1       3.464  -5.517   6.399  1.00  0.00     0.006 A 
ENDBRANCH  62  83
BRANCH  74  91
ATOM     91  C   UNL     1       0.211 -13.030   2.953  1.00  0.00     0.057 A 
ATOM     92  C   UNL     1      -0.814 -12.103   2.699  1.00  0.00     0.134 A 
ATOM     93  C   UNL     1      -0.189 -14.287   3.418  1.00  0.00     0.134 A 
ATOM     94  F   UNL     1      -0.552 -10.901   2.177  1.00  0.00    -0.206 F 
ATOM     95  C   UNL     1      -2.163 -12.404   2.924  1.00  0.00     0.040 A 
ATOM     96  C   UNL     1      -1.533 -14.612   3.617  1.00  0.00     0.040 A 
ATOM     97  F   UNL     1       0.726 -15.242   3.645  1.00  0.00    -0.206 F 
ATOM     98  C   UNL     1      -2.526 -13.667   3.377  1.00  0.00     0.006 A 
ENDBRANCH  74  91
ENDBRANCH  48  49
ENDBRANCH  41  43
ENDBRANCH  40  41
ENDBRANCH  39  40
ENDBRANCH   1  39
TORSDOF 17
