REMARK SMILES Cc1c(Cl)cc2c(c1C)O[C@H](C(F)(F)F)C(C(=O)OCCOC(=O)c1ccc(-c3c4nc(c(-c5c(F)cccc5F)c5ccc([nH]5)c(-c5c(F)cccc5F)c5nc(c(-c6c(F)cccc6F)c6ccc3[nH]6)C=C5)C=C4)cc1)=C2
REMARK SMILES IDX 21 1 20 2 19 3 17 4 18 5 16 6 1 7 2 8 3 9 8 10 4 11 5 12
REMARK SMILES IDX 7 13 9 14 6 15 10 16 79 17 11 18 12 19 13 20 14 21 15 22
REMARK SMILES IDX 22 23 23 24 24 25 25 26 26 27 78 28 27 29 77 30 28 31 29 32
REMARK SMILES IDX 30 33 71 34 31 35 76 36 70 37 72 38 32 39 75 40 69 41 68 42
REMARK SMILES IDX 33 44 59 45 42 46 58 47 43 48 46 49 57 50 73 51 44 52 45 53
REMARK SMILES IDX 56 55 74 56 47 57 34 58 35 59 40 60 36 61 37 62 39 63 41 64
REMARK SMILES IDX 38 65 60 66 61 67 66 68 62 69 63 70 65 71 67 72 64 73 48 74
REMARK SMILES IDX 49 75 54 76 50 77 51 78 53 79 55 80 52 81
REMARK H PARENT 72 43 46 54
REMARK Flexibility Score: inf
ROOT
ATOM      1  C   UNL     1      -1.340   0.820  10.316  1.00  0.00     0.275 C 
ENDROOT
BRANCH   1   2
ATOM      2  C   UNL     1      -2.312   0.011   9.457  1.00  0.00     0.275 C 
BRANCH   2   3
ATOM      3  O   UNL     1      -1.740  -0.314   8.170  1.00  0.00    -0.459 OA
BRANCH   3   4
ATOM      4  C   UNL     1      -2.174   0.442   7.136  1.00  0.00     0.338 C 
ATOM      5  O   UNL     1      -2.995   1.345   7.187  1.00  0.00    -0.246 OA
BRANCH   4   6
ATOM      6  C   UNL     1      -1.491   0.058   5.886  1.00  0.00     0.087 C 
ATOM      7  C   UNL     1       0.933  -0.120  -0.177  1.00  0.00     0.046 C 
ATOM      8  C   UNL     1       0.470   0.141   1.234  1.00  0.00    -0.026 A 
ATOM      9  C   UNL     1       0.506   1.456   1.740  1.00  0.00     0.045 A 
ATOM     10  C   UNL     1       0.043  -0.908   2.094  1.00  0.00    -0.004 A 
ATOM     11  Cl  UNL     1       1.104   2.791   0.814  1.00  0.00    -0.084 Cl
ATOM     12  C   UNL     1       0.055   1.742   3.026  1.00  0.00     0.032 A 
ATOM     13  C   UNL     1      -0.425  -0.598   3.391  1.00  0.00     0.131 A 
ATOM     14  C   UNL     1       0.033  -2.357   1.677  1.00  0.00     0.049 C 
ATOM     15  C   UNL     1      -0.433   0.720   3.839  1.00  0.00     0.019 A 
ATOM     16  O   UNL     1      -0.846  -1.641   4.179  1.00  0.00    -0.475 OA
ATOM     17  C   UNL     1      -0.975   1.040   5.141  1.00  0.00     0.027 C 
ATOM     18  C   UNL     1      -1.540  -1.368   5.430  1.00  0.00     0.316 C 
BRANCH  18  19
ATOM     19  C   UNL     1      -2.992  -1.860   5.309  1.00  0.00     0.430 C 
ATOM     20  F   UNL     1      -3.046  -3.142   4.875  1.00  0.00    -0.167 F 
ATOM     21  F   UNL     1      -3.627  -1.831   6.506  1.00  0.00    -0.167 F 
ATOM     22  F   UNL     1      -3.716  -1.108   4.449  1.00  0.00    -0.167 F 
ENDBRANCH  18  19
ENDBRANCH   4   6
ENDBRANCH   3   4
ENDBRANCH   2   3
ENDBRANCH   1   2
BRANCH   1  23
ATOM     23  O   UNL     1      -1.112   2.118   9.736  1.00  0.00    -0.458 OA
BRANCH  23  24
ATOM     24  C   UNL     1       0.088   2.268   9.136  1.00  0.00     0.338 C 
ATOM     25  O   UNL     1       0.989   1.448   9.065  1.00  0.00    -0.246 OA
BRANCH  24  26
ATOM     26  C   UNL     1       0.177   3.566   8.451  1.00  0.00     0.060 A 
ATOM     27  C   UNL     1      -0.615   3.776   7.330  1.00  0.00     0.016 A 
ATOM     28  C   UNL     1       1.224   4.437   8.737  1.00  0.00     0.016 A 
ATOM     29  C   UNL     1      -0.229   4.715   6.378  1.00  0.00     0.010 A 
ATOM     30  C   UNL     1       1.503   5.489   7.858  1.00  0.00     0.010 A 
ATOM     31  C   UNL     1       0.832   5.596   6.625  1.00  0.00    -0.014 A 
BRANCH  31  32
ATOM     32  C   UNL     1       1.289   6.575   5.592  1.00  0.00     0.031 A 
ATOM     33  C   UNL     1       2.752   6.645   5.217  1.00  0.00     0.074 A 
ATOM     34  C   UNL     1       0.421   7.398   4.970  1.00  0.00     0.049 A 
ATOM     35  N   UNL     1       3.407   7.594   4.598  1.00  0.00    -0.248 NA
ATOM     36  C   UNL     1       3.591   5.499   5.607  1.00  0.00     0.031 C 
ATOM     37  C   UNL     1      -1.034   7.397   5.139  1.00  0.00     0.029 A 
ATOM     38  N   UNL     1       0.641   8.407   4.062  1.00  0.00    -0.354 N 
ATOM     39  C   UNL     1       4.740   7.195   4.588  1.00  0.00     0.074 A 
ATOM     40  C   UNL     1       4.802   5.918   5.266  1.00  0.00     0.031 C 
ATOM     41  C   UNL     1      -1.575   8.321   4.333  1.00  0.00     0.029 A 
ATOM     42  C   UNL     1      -0.504   9.072   3.695  1.00  0.00     0.049 A 
ATOM     43  H   UNL     1       1.533   8.630   3.709  1.00  0.00     0.167 HD
ATOM     44  C   UNL     1       5.811   7.839   4.064  1.00  0.00     0.037 A 
ATOM     45  C   UNL     1      -0.680  10.205   2.989  1.00  0.00     0.037 A 
ATOM     46  C   UNL     1       5.729   9.078   3.332  1.00  0.00     0.049 A 
ATOM     47  C   UNL     1       0.523  10.950   2.493  1.00  0.00     0.074 A 
ATOM     48  C   UNL     1       6.753   9.816   2.765  1.00  0.00     0.029 A 
ATOM     49  N   UNL     1       4.549   9.748   3.044  1.00  0.00    -0.354 N 
ATOM     50  N   UNL     1       1.791  10.632   2.589  1.00  0.00    -0.248 NA
ATOM     51  C   UNL     1       0.272  12.230   1.816  1.00  0.00     0.031 C 
ATOM     52  C   UNL     1       6.197  10.954   2.171  1.00  0.00     0.029 A 
ATOM     53  C   UNL     1       4.822  10.899   2.323  1.00  0.00     0.049 A 
ATOM     54  H   UNL     1       3.650   9.449   3.312  1.00  0.00     0.167 HD
ATOM     55  C   UNL     1       2.489  11.666   1.981  1.00  0.00     0.074 A 
ATOM     56  C   UNL     1       1.501  12.605   1.491  1.00  0.00     0.031 C 
ATOM     57  C   UNL     1       3.828  11.830   1.851  1.00  0.00     0.037 A 
BRANCH  44  58
ATOM     58  C   UNL     1       7.173   7.242   4.287  1.00  0.00     0.057 A 
ATOM     59  C   UNL     1       7.599   6.079   3.633  1.00  0.00     0.134 A 
ATOM     60  C   UNL     1       8.096   7.880   5.128  1.00  0.00     0.134 A 
ATOM     61  F   UNL     1       6.764   5.410   2.825  1.00  0.00    -0.206 F 
ATOM     62  C   UNL     1       8.885   5.565   3.819  1.00  0.00     0.040 A 
ATOM     63  C   UNL     1       9.393   7.392   5.300  1.00  0.00     0.040 A 
ATOM     64  F   UNL     1       7.759   9.002   5.782  1.00  0.00    -0.206 F 
ATOM     65  C   UNL     1       9.789   6.228   4.647  1.00  0.00     0.006 A 
ENDBRANCH  44  58
BRANCH  45  66
ATOM     66  C   UNL     1      -2.052  10.736   2.775  1.00  0.00     0.057 A 
ATOM     67  C   UNL     1      -2.620  10.768   1.497  1.00  0.00     0.134 A 
ATOM     68  C   UNL     1      -2.835  11.205   3.839  1.00  0.00     0.134 A 
ATOM     69  F   UNL     1      -1.912  10.360   0.434  1.00  0.00    -0.206 F 
ATOM     70  C   UNL     1      -3.916  11.243   1.285  1.00  0.00     0.040 A 
ATOM     71  C   UNL     1      -4.143  11.651   3.647  1.00  0.00     0.040 A 
ATOM     72  F   UNL     1      -2.350  11.203   5.090  1.00  0.00    -0.206 F 
ATOM     73  C   UNL     1      -4.685  11.675   2.364  1.00  0.00     0.006 A 
ENDBRANCH  45  66
BRANCH  57  74
ATOM     74  C   UNL     1       4.297  13.065   1.139  1.00  0.00     0.057 A 
ATOM     75  C   UNL     1       4.191  14.334   1.722  1.00  0.00     0.134 A 
ATOM     76  C   UNL     1       4.877  12.983  -0.133  1.00  0.00     0.134 A 
ATOM     77  F   UNL     1       3.631  14.482   2.932  1.00  0.00    -0.206 F 
ATOM     78  C   UNL     1       4.619  15.482   1.052  1.00  0.00     0.040 A 
ATOM     79  C   UNL     1       5.336  14.120  -0.799  1.00  0.00     0.040 A 
ATOM     80  F   UNL     1       5.017  11.797  -0.744  1.00  0.00    -0.206 F 
ATOM     81  C   UNL     1       5.199  15.375  -0.210  1.00  0.00     0.006 A 
ENDBRANCH  57  74
ENDBRANCH  31  32
ENDBRANCH  24  26
ENDBRANCH  23  24
ENDBRANCH   1  23
TORSDOF 12
