REMARK SMILES CCC(CC)(Nc1cc2ccccc2c(=O)[nH]1)C(=O)OCCOC(=O)c1ccc(-c2c3nc(c(-c4c(F)cccc4F)c4ccc([nH]4)c(-c4c(F)cccc4F)c4nc(c(-c5c(F)cccc5F)c5ccc2[nH]5)C=C4)C=C3)cc1
REMARK SMILES IDX 21 1 20 2 18 3 19 4 3 5 2 6 1 7 4 8 5 9 6 10 7 12 8 13 17 14
REMARK SMILES IDX 9 15 15 16 10 18 14 19 16 20 11 21 13 22 12 23 22 24 23 25
REMARK SMILES IDX 24 26 25 27 26 28 27 29 79 30 28 31 78 32 29 33 30 34 31 35
REMARK SMILES IDX 72 36 32 37 77 38 71 39 73 40 33 41 76 42 70 43 69 44 34 46
REMARK SMILES IDX 60 47 43 48 59 49 44 50 47 51 58 52 74 53 45 54 46 55 57 57
REMARK SMILES IDX 75 58 48 59 35 60 36 61 41 62 37 63 38 64 40 65 42 66 39 67
REMARK SMILES IDX 61 68 62 69 67 70 63 71 64 72 66 73 68 74 65 75 49 76 50 77
REMARK SMILES IDX 55 78 51 79 52 80 54 81 56 82 53 83
REMARK H PARENT 6 11 17 17 73 45 47 56
REMARK Flexibility Score: inf
ROOT
ATOM      1  C   UNL     1       4.665  -3.059   1.366  1.00  0.00     0.274 C 
ENDROOT
BRANCH   1   2
ATOM      2  O   UNL     1       3.241  -3.288   1.491  1.00  0.00    -0.460 OA
BRANCH   2   3
ATOM      3  C   UNL     1       2.409  -2.246   1.235  1.00  0.00     0.331 C 
ATOM      4  O   UNL     1       2.810  -1.087   1.201  1.00  0.00    -0.249 OA
BRANCH   3   5
ATOM      5  C   UNL     1       0.898  -2.655   1.106  1.00  0.00     0.136 C 
BRANCH   5   6
ATOM      6  C   UNL     1       0.132  -1.591   0.235  1.00  0.00     0.037 C 
ATOM      7  C   UNL     1       0.136  -0.134   0.683  1.00  0.00     0.007 C 
ENDBRANCH   5   6
BRANCH   5   8
ATOM      8  C   UNL     1       0.345  -2.735   2.548  1.00  0.00     0.037 C 
ATOM      9  C   UNL     1      -1.175  -2.790   2.671  1.00  0.00     0.007 C 
ENDBRANCH   5   8
BRANCH   5  10
ATOM     10  N   UNL     1       0.608  -3.943   0.397  1.00  0.00    -0.356 N 
ATOM     11  H   UNL     1      -0.341  -4.045   0.155  1.00  0.00     0.163 HD
BRANCH  10  12
ATOM     12  C   UNL     1       1.381  -5.017   0.010  1.00  0.00     0.107 A 
ATOM     13  C   UNL     1       1.157  -5.628  -1.170  1.00  0.00     0.053 A 
ATOM     14  N   UNL     1       2.367  -5.518   0.807  1.00  0.00    -0.308 N 
ATOM     15  C   UNL     1       2.016  -6.723  -1.635  1.00  0.00    -0.009 A 
ATOM     16  C   UNL     1       3.251  -6.523   0.495  1.00  0.00     0.257 A 
ATOM     17  H   UNL     1       2.456  -5.118   1.702  1.00  0.00     0.171 HD
ATOM     18  C   UNL     1       1.834  -7.315  -2.889  1.00  0.00     0.009 A 
ATOM     19  C   UNL     1       3.075  -7.157  -0.829  1.00  0.00     0.047 A 
ATOM     20  O   UNL     1       4.155  -6.851   1.256  1.00  0.00    -0.269 OA
ATOM     21  C   UNL     1       2.712  -8.312  -3.329  1.00  0.00     0.001 A 
ATOM     22  C   UNL     1       3.958  -8.149  -1.267  1.00  0.00     0.014 A 
ATOM     23  C   UNL     1       3.775  -8.723  -2.523  1.00  0.00     0.001 A 
ENDBRANCH  10  12
ENDBRANCH   5  10
ENDBRANCH   3   5
ENDBRANCH   2   3
ENDBRANCH   1   2
BRANCH   1  24
ATOM     24  C   UNL     1       5.130  -3.336  -0.069  1.00  0.00     0.275 C 
BRANCH  24  25
ATOM     25  O   UNL     1       4.569  -2.332  -0.929  1.00  0.00    -0.458 OA
BRANCH  25  26
ATOM     26  C   UNL     1       4.364  -2.670  -2.224  1.00  0.00     0.338 C 
ATOM     27  O   UNL     1       4.691  -3.700  -2.781  1.00  0.00    -0.246 OA
BRANCH  26  28
ATOM     28  C   UNL     1       3.674  -1.538  -2.888  1.00  0.00     0.060 A 
ATOM     29  C   UNL     1       2.723  -0.797  -2.188  1.00  0.00     0.016 A 
ATOM     30  C   UNL     1       3.959  -1.205  -4.211  1.00  0.00     0.016 A 
ATOM     31  C   UNL     1       2.043   0.257  -2.787  1.00  0.00     0.010 A 
ATOM     32  C   UNL     1       3.344  -0.085  -4.789  1.00  0.00     0.010 A 
ATOM     33  C   UNL     1       2.388   0.665  -4.077  1.00  0.00    -0.014 A 
BRANCH  33  34
ATOM     34  C   UNL     1       1.789   1.897  -4.656  1.00  0.00     0.031 A 
ATOM     35  C   UNL     1       1.007   1.827  -5.934  1.00  0.00     0.074 A 
ATOM     36  C   UNL     1       1.970   3.087  -4.045  1.00  0.00     0.049 A 
ATOM     37  N   UNL     1       0.625   2.799  -6.723  1.00  0.00    -0.248 NA
ATOM     38  C   UNL     1       0.603   0.487  -6.389  1.00  0.00     0.031 C 
ATOM     39  C   UNL     1       2.653   3.294  -2.765  1.00  0.00     0.029 A 
ATOM     40  N   UNL     1       1.606   4.355  -4.430  1.00  0.00    -0.354 N 
ATOM     41  C   UNL     1      -0.013   2.188  -7.793  1.00  0.00     0.074 A 
ATOM     42  C   UNL     1       0.016   0.761  -7.547  1.00  0.00     0.031 C 
ATOM     43  C   UNL     1       2.656   4.602  -2.471  1.00  0.00     0.029 A 
ATOM     44  C   UNL     1       2.067   5.336  -3.583  1.00  0.00     0.049 A 
ATOM     45  H   UNL     1       1.069   4.543  -5.234  1.00  0.00     0.167 HD
ATOM     46  C   UNL     1      -0.560   2.771  -8.885  1.00  0.00     0.037 A 
ATOM     47  C   UNL     1       2.085   6.676  -3.716  1.00  0.00     0.037 A 
ATOM     48  C   UNL     1      -0.624   4.192  -9.100  1.00  0.00     0.049 A 
ATOM     49  C   UNL     1       1.541   7.292  -4.973  1.00  0.00     0.074 A 
ATOM     50  C   UNL     1      -1.190   4.880 -10.160  1.00  0.00     0.029 A 
ATOM     51  N   UNL     1      -0.108   5.145  -8.235  1.00  0.00    -0.354 N 
ATOM     52  N   UNL     1       0.975   6.707  -6.000  1.00  0.00    -0.248 NA
ATOM     53  C   UNL     1       1.667   8.751  -5.104  1.00  0.00     0.031 C 
ATOM     54  C   UNL     1      -0.978   6.247  -9.957  1.00  0.00     0.029 A 
ATOM     55  C   UNL     1      -0.314   6.412  -8.753  1.00  0.00     0.049 A 
ATOM     56  H   UNL     1       0.340   4.949  -7.380  1.00  0.00     0.167 HD
ATOM     57  C   UNL     1       0.679   7.723  -6.898  1.00  0.00     0.074 A 
ATOM     58  C   UNL     1       1.100   8.964  -6.284  1.00  0.00     0.031 C 
ATOM     59  C   UNL     1       0.117   7.635  -8.128  1.00  0.00     0.037 A 
BRANCH  46  60
ATOM     60  C   UNL     1      -1.099   1.877  -9.960  1.00  0.00     0.057 A 
ATOM     61  C   UNL     1      -2.328   1.221  -9.839  1.00  0.00     0.134 A 
ATOM     62  C   UNL     1      -0.401   1.731 -11.167  1.00  0.00     0.134 A 
ATOM     63  F   UNL     1      -3.038   1.310  -8.705  1.00  0.00    -0.206 F 
ATOM     64  C   UNL     1      -2.845   0.447 -10.881  1.00  0.00     0.040 A 
ATOM     65  C   UNL     1      -0.914   0.976 -12.221  1.00  0.00     0.040 A 
ATOM     66  F   UNL     1       0.783   2.337 -11.345  1.00  0.00    -0.206 F 
ATOM     67  C   UNL     1      -2.141   0.330 -12.079  1.00  0.00     0.006 A 
ENDBRANCH  46  60
BRANCH  47  68
ATOM     68  C   UNL     1       2.731   7.521  -2.679  1.00  0.00     0.057 A 
ATOM     69  C   UNL     1       1.985   8.404  -1.891  1.00  0.00     0.134 A 
ATOM     70  C   UNL     1       4.115   7.482  -2.468  1.00  0.00     0.134 A 
ATOM     71  F   UNL     1       0.659   8.509  -2.065  1.00  0.00    -0.206 F 
ATOM     72  C   UNL     1       2.593   9.226  -0.940  1.00  0.00     0.040 A 
ATOM     73  C   UNL     1       4.733   8.275  -1.501  1.00  0.00     0.040 A 
ATOM     74  F   UNL     1       4.888   6.660  -3.193  1.00  0.00    -0.206 F 
ATOM     75  C   UNL     1       3.971   9.158  -0.739  1.00  0.00     0.006 A 
ENDBRANCH  47  68
BRANCH  59  76
ATOM     76  C   UNL     1      -0.078   8.915  -8.879  1.00  0.00     0.057 A 
ATOM     77  C   UNL     1       0.996   9.578  -9.486  1.00  0.00     0.134 A 
ATOM     78  C   UNL     1      -1.354   9.473  -9.024  1.00  0.00     0.134 A 
ATOM     79  F   UNL     1       2.244   9.101  -9.367  1.00  0.00    -0.206 F 
ATOM     80  C   UNL     1       0.809  10.762 -10.200  1.00  0.00     0.040 A 
ATOM     81  C   UNL     1      -1.556  10.645  -9.755  1.00  0.00     0.040 A 
ATOM     82  F   UNL     1      -2.423   8.883  -8.470  1.00  0.00    -0.206 F 
ATOM     83  C   UNL     1      -0.471  11.294 -10.341  1.00  0.00     0.006 A 
ENDBRANCH  59  76
ENDBRANCH  33  34
ENDBRANCH  26  28
ENDBRANCH  25  26
ENDBRANCH  24  25
ENDBRANCH   1  24
TORSDOF 15
