REMARK SMILES CC(C)(Br)[C@H](Br)C(=O)OCCOC(=O)c1ccc(-c2c3nc(c(-c4c(F)cccc4F)c4ccc([nH]4)c(-c4c(F)cccc4F)c4nc(c(-c5c(F)cccc5F)c5ccc2[nH]5)C=C4)C=C3)cc1
REMARK SMILES IDX 11 1 10 2 9 3 7 4 8 5 5 6 6 7 2 8 1 9 3 10 4 11 12 12 13 13
REMARK SMILES IDX 14 14 15 15 16 16 68 17 17 18 67 19 18 20 19 21 20 22 61 23
REMARK SMILES IDX 21 24 66 25 60 26 62 27 22 28 65 29 59 30 58 31 23 33 49 34
REMARK SMILES IDX 32 35 48 36 33 37 36 38 47 39 63 40 34 41 35 42 46 44 64 45
REMARK SMILES IDX 37 46 24 47 25 48 30 49 26 50 27 51 29 52 31 53 28 54 50 55
REMARK SMILES IDX 51 56 56 57 52 58 53 59 55 60 57 61 54 62 38 63 39 64 44 65
REMARK SMILES IDX 40 66 41 67 43 68 45 69 42 70
REMARK H PARENT 62 32 36 43
REMARK Flexibility Score: inf
ROOT
ATOM      1  C   UNL     1       5.230   1.800   0.620  1.00  0.00     0.275 C 
ENDROOT
BRANCH   1   2
ATOM      2  C   UNL     1       4.782   0.716   1.608  1.00  0.00     0.274 C 
BRANCH   2   3
ATOM      3  O   UNL     1       3.417   0.314   1.385  1.00  0.00    -0.461 OA
BRANCH   3   4
ATOM      4  C   UNL     1       2.457   0.934   2.116  1.00  0.00     0.321 C 
ATOM      5  O   UNL     1       2.707   1.767   2.985  1.00  0.00    -0.251 OA
BRANCH   4   6
ATOM      6  C   UNL     1       1.025   0.555   1.753  1.00  0.00     0.183 C 
ATOM      7  Br  UNL     1       0.973  -0.485   0.080  1.00  0.00    -0.075 Br
BRANCH   6   8
ATOM      8  C   UNL     1       0.217  -0.098   2.894  1.00  0.00     0.043 C 
ATOM      9  C   UNL     1      -1.217  -0.471   2.478  1.00  0.00     0.025 C 
ATOM     10  C   UNL     1       0.112   0.814   4.131  1.00  0.00     0.025 C 
ATOM     11  Br  UNL     1       1.099  -1.767   3.497  1.00  0.00    -0.084 Br
ENDBRANCH   6   8
ENDBRANCH   4   6
ENDBRANCH   3   4
ENDBRANCH   2   3
ENDBRANCH   1   2
BRANCH   1  12
ATOM     12  O   UNL     1       4.715   3.101   0.967  1.00  0.00    -0.458 OA
BRANCH  12  13
ATOM     13  C   UNL     1       3.511   3.409   0.429  1.00  0.00     0.338 C 
ATOM     14  O   UNL     1       2.843   2.722  -0.325  1.00  0.00    -0.246 OA
BRANCH  13  15
ATOM     15  C   UNL     1       3.004   4.667   1.006  1.00  0.00     0.060 A 
ATOM     16  C   UNL     1       1.729   4.643   1.579  1.00  0.00     0.016 A 
ATOM     17  C   UNL     1       3.726   5.860   0.933  1.00  0.00     0.016 A 
ATOM     18  C   UNL     1       1.167   5.813   2.079  1.00  0.00     0.010 A 
ATOM     19  C   UNL     1       3.158   7.036   1.437  1.00  0.00     0.010 A 
ATOM     20  C   UNL     1       1.873   7.020   2.005  1.00  0.00    -0.014 A 
BRANCH  20  21
ATOM     21  C   UNL     1       1.235   8.259   2.507  1.00  0.00     0.031 A 
ATOM     22  C   UNL     1       0.655   9.253   1.544  1.00  0.00     0.074 A 
ATOM     23  C   UNL     1       1.131   8.461   3.834  1.00  0.00     0.049 A 
ATOM     24  N   UNL     1       0.069  10.397   1.791  1.00  0.00    -0.248 NA
ATOM     25  C   UNL     1       0.741   8.915   0.115  1.00  0.00     0.031 C 
ATOM     26  C   UNL     1       1.624   7.549   4.866  1.00  0.00     0.029 A 
ATOM     27  N   UNL     1       0.570   9.495   4.538  1.00  0.00    -0.354 N 
ATOM     28  C   UNL     1      -0.279  10.919   0.553  1.00  0.00     0.074 A 
ATOM     29  C   UNL     1       0.179   9.977  -0.447  1.00  0.00     0.031 C 
ATOM     30  C   UNL     1       1.339   8.062   6.074  1.00  0.00     0.029 A 
ATOM     31  C   UNL     1       0.675   9.351   5.900  1.00  0.00     0.049 A 
ATOM     32  H   UNL     1       0.133  10.266   4.110  1.00  0.00     0.167 HD
ATOM     33  C   UNL     1      -0.928  12.075   0.277  1.00  0.00     0.037 A 
ATOM     34  C   UNL     1       0.296  10.176   6.893  1.00  0.00     0.037 A 
ATOM     35  C   UNL     1      -1.389  13.009   1.271  1.00  0.00     0.049 A 
ATOM     36  C   UNL     1      -0.379  11.476   6.555  1.00  0.00     0.074 A 
ATOM     37  C   UNL     1      -2.053  14.210   1.086  1.00  0.00     0.029 A 
ATOM     38  N   UNL     1      -1.235  12.845   2.639  1.00  0.00    -0.354 N 
ATOM     39  N   UNL     1      -0.697  11.960   5.380  1.00  0.00    -0.248 NA
ATOM     40  C   UNL     1      -0.744  12.344   7.683  1.00  0.00     0.031 C 
ATOM     41  C   UNL     1      -2.275  14.787   2.342  1.00  0.00     0.029 A 
ATOM     42  C   UNL     1      -1.780  13.928   3.309  1.00  0.00     0.049 A 
ATOM     43  H   UNL     1      -0.803  12.073   3.070  1.00  0.00     0.167 HD
ATOM     44  C   UNL     1      -1.309  13.182   5.625  1.00  0.00     0.074 A 
ATOM     45  C   UNL     1      -1.339  13.354   7.063  1.00  0.00     0.031 C 
ATOM     46  C   UNL     1      -1.798  14.083   4.740  1.00  0.00     0.037 A 
BRANCH  33  47
ATOM     47  C   UNL     1      -1.165  12.407  -1.166  1.00  0.00     0.057 A 
ATOM     48  C   UNL     1      -2.157  11.763  -1.915  1.00  0.00     0.134 A 
ATOM     49  C   UNL     1      -0.424  13.413  -1.798  1.00  0.00     0.134 A 
ATOM     50  F   UNL     1      -2.891  10.782  -1.370  1.00  0.00    -0.206 F 
ATOM     51  C   UNL     1      -2.398  12.102  -3.248  1.00  0.00     0.040 A 
ATOM     52  C   UNL     1      -0.667  13.773  -3.124  1.00  0.00     0.040 A 
ATOM     53  F   UNL     1       0.539  14.069  -1.134  1.00  0.00    -0.206 F 
ATOM     54  C   UNL     1      -1.656  13.114  -3.854  1.00  0.00     0.006 A 
ENDBRANCH  33  47
BRANCH  34  55
ATOM     55  C   UNL     1       0.564   9.810   8.306  1.00  0.00     0.057 A 
ATOM     56  C   UNL     1      -0.475   9.471   9.178  1.00  0.00     0.134 A 
ATOM     57  C   UNL     1       1.866   9.814   8.820  1.00  0.00     0.134 A 
ATOM     58  F   UNL     1      -1.746   9.473   8.748  1.00  0.00    -0.206 F 
ATOM     59  C   UNL     1      -0.232   9.164  10.518  1.00  0.00     0.040 A 
ATOM     60  C   UNL     1       2.127   9.487  10.151  1.00  0.00     0.040 A 
ATOM     61  F   UNL     1       2.904  10.131   8.032  1.00  0.00    -0.206 F 
ATOM     62  C   UNL     1       1.074   9.167  11.006  1.00  0.00     0.006 A 
ENDBRANCH  34  55
BRANCH  46  63
ATOM     63  C   UNL     1      -2.420  15.323   5.309  1.00  0.00     0.057 A 
ATOM     64  C   UNL     1      -1.640  16.352   5.851  1.00  0.00     0.134 A 
ATOM     65  C   UNL     1      -3.809  15.496   5.300  1.00  0.00     0.134 A 
ATOM     66  F   UNL     1      -0.304  16.239   5.902  1.00  0.00    -0.206 F 
ATOM     67  C   UNL     1      -2.223  17.501   6.388  1.00  0.00     0.040 A 
ATOM     68  C   UNL     1      -4.402  16.650   5.813  1.00  0.00     0.040 A 
ATOM     69  F   UNL     1      -4.610  14.550   4.788  1.00  0.00    -0.206 F 
ATOM     70  C   UNL     1      -3.608  17.654   6.365  1.00  0.00     0.006 A 
ENDBRANCH  46  63
ENDBRANCH  20  21
ENDBRANCH  13  15
ENDBRANCH  12  13
ENDBRANCH   1  12
TORSDOF 12
