REMARK SMILES Cc1cc(F)c([C@H](O)[C@H]2CCCC[C@@H]2C(=O)OCCOC(=O)c2ccc(-c3c4nc(c(-c5c(F)cccc5F)c5ccc([nH]5)c(-c5c(F)cccc5F)c5nc(c(-c6c(F)cccc6F)c6ccc3[nH]6)C=C5)C=C4)cc2)cc1F
REMARK SMILES IDX 18 1 17 2 15 3 16 4 14 5 9 6 10 7 11 8 13 9 12 10 7 11 6 12
REMARK SMILES IDX 1 13 2 14 3 15 78 16 4 17 77 18 79 19 5 20 8 21 19 23 20 24
REMARK SMILES IDX 21 25 22 26 23 27 24 28 76 29 25 30 75 31 26 32 27 33 28 34
REMARK SMILES IDX 69 35 29 36 74 37 68 38 70 39 30 40 73 41 67 42 66 43 31 45
REMARK SMILES IDX 57 46 40 47 56 48 41 49 44 50 55 51 71 52 42 53 43 54 54 56
REMARK SMILES IDX 72 57 45 58 32 59 33 60 38 61 34 62 35 63 37 64 39 65 36 66
REMARK SMILES IDX 58 67 59 68 64 69 60 70 61 71 63 72 65 73 62 74 46 75 47 76
REMARK SMILES IDX 52 77 48 78 49 79 51 80 53 81 50 82
REMARK H PARENT 8 22 70 44 44 55
REMARK Flexibility Score: inf
ROOT
ATOM      1  C   UNL     1      -1.349  -0.305   3.925  1.00  0.00     0.274 C 
ENDROOT
BRANCH   1   2
ATOM      2  O   UNL     1      -1.748   0.874   4.654  1.00  0.00    -0.462 OA
BRANCH   2   3
ATOM      3  C   UNL     1      -0.860   1.910   4.672  1.00  0.00     0.309 C 
ATOM      4  O   UNL     1       0.208   1.917   4.077  1.00  0.00    -0.252 OA
BRANCH   3   5
ATOM      5  C   UNL     1      -1.387   3.055   5.540  1.00  0.00     0.105 C 
ATOM      6  C   UNL     1      -0.703   4.424   5.232  1.00  0.00     0.037 C 
ATOM      7  C   UNL     1       0.736   4.462   5.791  1.00  0.00     0.007 C 
ATOM      8  C   UNL     1       0.835   4.069   7.253  1.00  0.00     0.000 C 
ATOM      9  C   UNL     1      -1.248   2.659   7.019  1.00  0.00     0.016 C 
ATOM     10  C   UNL     1       0.198   2.710   7.507  1.00  0.00     0.001 C 
BRANCH   6  11
ATOM     11  C   UNL     1      -1.614   5.658   5.548  1.00  0.00     0.151 C 
BRANCH  11  12
ATOM     12  C   UNL     1      -0.906   6.942   5.913  1.00  0.00     0.019 A 
ATOM     13  C   UNL     1       1.213  10.577   6.934  1.00  0.00     0.047 C 
ATOM     14  C   UNL     1       0.496   9.315   6.567  1.00  0.00    -0.012 A 
ATOM     15  C   UNL     1       0.504   8.825   5.256  1.00  0.00     0.046 A 
ATOM     16  C   UNL     1      -0.240   8.623   7.532  1.00  0.00     0.126 A 
ATOM     17  C   UNL     1      -0.191   7.655   4.943  1.00  0.00     0.129 A 
ATOM     18  C   UNL     1      -0.927   7.453   7.220  1.00  0.00     0.049 A 
ATOM     19  F   UNL     1      -0.286   9.082   8.790  1.00  0.00    -0.207 F 
ATOM     20  F   UNL     1      -0.145   7.194   3.684  1.00  0.00    -0.207 F 
ENDBRANCH  11  12
BRANCH  11  21
ATOM     21  O   UNL     1      -2.585   5.358   6.550  1.00  0.00    -0.388 OA
ATOM     22  H   UNL     1      -2.138   5.192   7.395  1.00  0.00     0.211 HD
ENDBRANCH  11  21
ENDBRANCH   6  11
ENDBRANCH   3   5
ENDBRANCH   2   3
ENDBRANCH   1   2
BRANCH   1  23
ATOM     23  C   UNL     1      -2.069  -0.413   2.580  1.00  0.00     0.275 C 
BRANCH  23  24
ATOM     24  O   UNL     1      -1.605   0.582   1.650  1.00  0.00    -0.458 OA
BRANCH  24  25
ATOM     25  C   UNL     1      -2.357   1.703   1.581  1.00  0.00     0.338 C 
ATOM     26  O   UNL     1      -3.386   1.952   2.184  1.00  0.00    -0.246 OA
BRANCH  25  27
ATOM     27  C   UNL     1      -1.646   2.703   0.773  1.00  0.00     0.060 A 
ATOM     28  C   UNL     1      -1.747   2.767  -0.611  1.00  0.00     0.016 A 
ATOM     29  C   UNL     1      -0.917   3.663   1.466  1.00  0.00     0.016 A 
ATOM     30  C   UNL     1      -1.073   3.791  -1.290  1.00  0.00     0.010 A 
ATOM     31  C   UNL     1      -0.304   4.718   0.805  1.00  0.00     0.010 A 
ATOM     32  C   UNL     1      -0.346   4.776  -0.589  1.00  0.00    -0.014 A 
BRANCH  32  33
ATOM     33  C   UNL     1       0.365   5.869  -1.300  1.00  0.00     0.031 A 
ATOM     34  C   UNL     1       1.864   6.001  -1.216  1.00  0.00     0.074 A 
ATOM     35  C   UNL     1      -0.347   6.781  -1.987  1.00  0.00     0.049 A 
ATOM     36  N   UNL     1       2.655   6.846  -1.830  1.00  0.00    -0.248 NA
ATOM     37  C   UNL     1       2.566   5.090  -0.297  1.00  0.00     0.031 C 
ATOM     38  C   UNL     1      -1.809   6.838  -2.050  1.00  0.00     0.029 A 
ATOM     39  N   UNL     1       0.061   7.831  -2.769  1.00  0.00    -0.354 N 
ATOM     40  C   UNL     1       3.937   6.574  -1.368  1.00  0.00     0.074 A 
ATOM     41  C   UNL     1       3.812   5.535  -0.370  1.00  0.00     0.031 C 
ATOM     42  C   UNL     1      -2.173   7.832  -2.876  1.00  0.00     0.029 A 
ATOM     43  C   UNL     1      -0.974   8.491  -3.383  1.00  0.00     0.049 A 
ATOM     44  H   UNL     1       1.006   8.086  -2.880  1.00  0.00     0.167 HD
ATOM     45  C   UNL     1       5.117   7.112  -1.762  1.00  0.00     0.037 A 
ATOM     46  C   UNL     1      -0.957   9.498  -4.275  1.00  0.00     0.037 A 
ATOM     47  C   UNL     1       5.241   8.127  -2.775  1.00  0.00     0.049 A 
ATOM     48  C   UNL     1       0.362  10.043  -4.743  1.00  0.00     0.074 A 
ATOM     49  C   UNL     1       6.392   8.673  -3.317  1.00  0.00     0.029 A 
ATOM     50  N   UNL     1       4.170   8.754  -3.394  1.00  0.00    -0.354 N 
ATOM     51  N   UNL     1       1.574   9.691  -4.390  1.00  0.00    -0.248 NA
ATOM     52  C   UNL     1       0.314  11.117  -5.745  1.00  0.00     0.031 C 
ATOM     53  C   UNL     1       6.015   9.656  -4.241  1.00  0.00     0.029 A 
ATOM     54  C   UNL     1       4.631   9.695  -4.299  1.00  0.00     0.049 A 
ATOM     55  H   UNL     1       3.222   8.558  -3.216  1.00  0.00     0.167 HD
ATOM     56  C   UNL     1       2.434  10.489  -5.133  1.00  0.00     0.074 A 
ATOM     57  C   UNL     1       1.603  11.326  -5.975  1.00  0.00     0.031 C 
ATOM     58  C   UNL     1       3.789  10.528  -5.119  1.00  0.00     0.037 A 
BRANCH  45  59
ATOM     59  C   UNL     1       6.364   6.593  -1.104  1.00  0.00     0.057 A 
ATOM     60  C   UNL     1       7.115   7.401  -0.241  1.00  0.00     0.134 A 
ATOM     61  C   UNL     1       6.830   5.290  -1.333  1.00  0.00     0.134 A 
ATOM     62  F   UNL     1       6.735   8.662   0.015  1.00  0.00    -0.206 F 
ATOM     63  C   UNL     1       8.274   6.929   0.379  1.00  0.00     0.040 A 
ATOM     64  C   UNL     1       7.971   4.797  -0.698  1.00  0.00     0.040 A 
ATOM     65  F   UNL     1       6.155   4.460  -2.144  1.00  0.00    -0.206 F 
ATOM     66  C   UNL     1       8.699   5.620   0.159  1.00  0.00     0.006 A 
ENDBRANCH  45  59
BRANCH  46  67
ATOM     67  C   UNL     1      -2.233  10.006  -4.835  1.00  0.00     0.057 A 
ATOM     68  C   UNL     1      -3.114  10.777  -4.069  1.00  0.00     0.134 A 
ATOM     69  C   UNL     1      -2.606   9.713  -6.152  1.00  0.00     0.134 A 
ATOM     70  F   UNL     1      -2.817  11.083  -2.798  1.00  0.00    -0.206 F 
ATOM     71  C   UNL     1      -4.325  11.234  -4.591  1.00  0.00     0.040 A 
ATOM     72  C   UNL     1      -3.803  10.181  -6.694  1.00  0.00     0.040 A 
ATOM     73  F   UNL     1      -1.794   8.989  -6.938  1.00  0.00    -0.206 F 
ATOM     74  C   UNL     1      -4.670  10.940  -5.910  1.00  0.00     0.006 A 
ENDBRANCH  46  67
BRANCH  58  75
ATOM     75  C   UNL     1       4.448  11.505  -6.046  1.00  0.00     0.057 A 
ATOM     76  C   UNL     1       5.124  11.063  -7.190  1.00  0.00     0.134 A 
ATOM     77  C   UNL     1       4.426  12.883  -5.796  1.00  0.00     0.134 A 
ATOM     78  F   UNL     1       5.187   9.756  -7.482  1.00  0.00    -0.206 F 
ATOM     79  C   UNL     1       5.754  11.959  -8.054  1.00  0.00     0.040 A 
ATOM     80  C   UNL     1       5.032  13.791  -6.666  1.00  0.00     0.040 A 
ATOM     81  F   UNL     1       3.782  13.370  -4.724  1.00  0.00    -0.206 F 
ATOM     82  C   UNL     1       5.703  13.328  -7.797  1.00  0.00     0.006 A 
ENDBRANCH  58  75
ENDBRANCH  32  33
ENDBRANCH  25  27
ENDBRANCH  24  25
ENDBRANCH  23  24
ENDBRANCH   1  23
TORSDOF 14
