REMARK SMILES C[NH+](C)Cc1noc(C[C@@](C)(C(=O)OCCOC(=O)c2ccc(-c3c4nc(c(-c5c(F)cccc5F)c5ccc([nH]5)c(-c5c(F)cccc5F)c5nc(c(-c6c(F)cccc6F)c6ccc3[nH]6)C=C5)C=C4)cc2)c2ccccc2)n1
REMARK SMILES IDX 15 1 14 2 12 3 13 4 10 5 11 6 9 7 8 8 5 9 6 10 80 11 7 12
REMARK SMILES IDX 4 13 2 14 1 15 3 16 74 18 75 19 79 20 76 21 78 22 77 23
REMARK SMILES IDX 16 24 17 25 18 26 19 27 20 28 21 29 73 30 22 31 72 32 23 33
REMARK SMILES IDX 24 34 25 35 66 36 26 37 71 38 65 39 67 40 27 41 70 42 64 43
REMARK SMILES IDX 63 44 28 46 54 47 37 48 53 49 38 50 41 51 52 52 68 53 39 54
REMARK SMILES IDX 40 55 51 57 69 58 42 59 29 60 30 61 35 62 31 63 32 64 34 65
REMARK SMILES IDX 36 66 33 67 55 68 56 69 61 70 57 71 58 72 60 73 62 74 59 75
REMARK SMILES IDX 43 76 44 77 49 78 45 79 46 80 48 81 50 82 47 83
REMARK H PARENT 2 17 67 45 41 56
REMARK Flexibility Score: inf
ROOT
ATOM      1  C   UNL     1      -0.043  -9.554  -2.411  1.00  0.00     0.274 C 
ENDROOT
BRANCH   1   2
ATOM      2  O   UNL     1      -0.086  -8.203  -1.897  1.00  0.00    -0.461 OA
BRANCH   2   3
ATOM      3  C   UNL     1      -1.298  -7.578  -1.841  1.00  0.00     0.316 C 
ATOM      4  O   UNL     1      -2.325  -8.098  -2.262  1.00  0.00    -0.251 OA
BRANCH   3   5
ATOM      5  C   UNL     1      -1.201  -6.109  -1.297  1.00  0.00     0.099 C 
ATOM      6  C   UNL     1      -1.506  -5.245  -2.539  1.00  0.00     0.029 C 
BRANCH   5   7
ATOM      7  C   UNL     1       0.281  -5.896  -0.815  1.00  0.00     0.123 C 
BRANCH   7   8
ATOM      8  C   UNL     1       0.717  -4.516  -0.486  1.00  0.00     0.228 A 
ATOM      9  C   UNL     1       1.218  -2.664   0.365  1.00  0.00     0.226 A 
ATOM     10  N   UNL     1       1.273  -2.428  -0.955  1.00  0.00    -0.056 NA
ATOM     11  N   UNL     1       0.933  -3.971   0.690  1.00  0.00    -0.190 NA
ATOM     12  O   UNL     1       0.935  -3.657  -1.522  1.00  0.00    -0.339 OA
BRANCH   9  13
ATOM     13  C   UNL     1       1.463  -1.631   1.428  1.00  0.00     0.344 C 
BRANCH  13  14
ATOM     14  N   UNL     1       0.709  -0.364   1.322  1.00  0.00    -0.333 N 
ATOM     15  C   UNL     1       1.140   0.475   0.209  1.00  0.00     0.332 C 
ATOM     16  C   UNL     1      -0.739  -0.545   1.331  1.00  0.00     0.332 C 
ATOM     17  H   UNL     1       0.942   0.142   2.177  1.00  0.00     0.348 HD
ENDBRANCH  13  14
ENDBRANCH   9  13
ENDBRANCH   7   8
ENDBRANCH   5   7
BRANCH   5  18
ATOM     18  C   UNL     1      -2.280  -5.778  -0.212  1.00  0.00    -0.030 A 
ATOM     19  C   UNL     1      -2.195  -4.616   0.580  1.00  0.00     0.005 A 
ATOM     20  C   UNL     1      -3.435  -6.556  -0.005  1.00  0.00     0.005 A 
ATOM     21  C   UNL     1      -3.113  -4.314   1.593  1.00  0.00     0.000 A 
ATOM     22  C   UNL     1      -4.383  -6.239   0.982  1.00  0.00     0.000 A 
ATOM     23  C   UNL     1      -4.206  -5.135   1.804  1.00  0.00     0.000 A 
ENDBRANCH   5  18
ENDBRANCH   3   5
ENDBRANCH   2   3
ENDBRANCH   1   2
BRANCH   1  24
ATOM     24  C   UNL     1       0.592 -10.455  -1.359  1.00  0.00     0.275 C 
BRANCH  24  25
ATOM     25  O   UNL     1      -0.236 -10.398  -0.185  1.00  0.00    -0.458 OA
BRANCH  25  26
ATOM     26  C   UNL     1       0.408 -10.296   0.996  1.00  0.00     0.338 C 
ATOM     27  O   UNL     1       1.609 -10.385   1.204  1.00  0.00    -0.246 OA
BRANCH  26  28
ATOM     28  C   UNL     1      -0.591 -10.027   2.042  1.00  0.00     0.060 A 
ATOM     29  C   UNL     1      -1.467  -8.952   1.891  1.00  0.00     0.016 A 
ATOM     30  C   UNL     1      -0.615 -10.796   3.206  1.00  0.00     0.016 A 
ATOM     31  C   UNL     1      -2.353  -8.628   2.915  1.00  0.00     0.010 A 
ATOM     32  C   UNL     1      -1.547 -10.502   4.208  1.00  0.00     0.010 A 
ATOM     33  C   UNL     1      -2.415  -9.403   4.079  1.00  0.00    -0.014 A 
BRANCH  33  34
ATOM     34  C   UNL     1      -3.318  -8.995   5.189  1.00  0.00     0.031 A 
ATOM     35  C   UNL     1      -2.728  -8.523   6.488  1.00  0.00     0.074 A 
ATOM     36  C   UNL     1      -4.655  -8.974   5.027  1.00  0.00     0.049 A 
ATOM     37  N   UNL     1      -3.323  -8.264   7.625  1.00  0.00    -0.248 NA
ATOM     38  C   UNL     1      -1.272  -8.313   6.510  1.00  0.00     0.031 C 
ATOM     39  C   UNL     1      -5.369  -9.313   3.796  1.00  0.00     0.029 A 
ATOM     40  N   UNL     1      -5.654  -8.628   5.906  1.00  0.00    -0.354 N 
ATOM     41  C   UNL     1      -2.311  -7.914   8.509  1.00  0.00     0.074 A 
ATOM     42  C   UNL     1      -1.065  -7.983   7.776  1.00  0.00     0.031 C 
ATOM     43  C   UNL     1      -6.685  -9.117   3.984  1.00  0.00     0.029 A 
ATOM     44  C   UNL     1      -6.916  -8.712   5.368  1.00  0.00     0.049 A 
ATOM     45  H   UNL     1      -5.482  -8.347   6.833  1.00  0.00     0.167 HD
ATOM     46  C   UNL     1      -2.411  -7.573   9.815  1.00  0.00     0.037 A 
ATOM     47  C   UNL     1      -8.123  -8.517   5.935  1.00  0.00     0.037 A 
ATOM     48  C   UNL     1      -3.650  -7.456  10.536  1.00  0.00     0.049 A 
ATOM     49  C   UNL     1      -8.209  -8.184   7.399  1.00  0.00     0.074 A 
ATOM     50  C   UNL     1      -3.847  -7.158  11.873  1.00  0.00     0.029 A 
ATOM     51  N   UNL     1      -4.906  -7.607   9.970  1.00  0.00    -0.354 N 
ATOM     52  N   UNL     1      -7.242  -7.965   8.257  1.00  0.00    -0.248 NA
ATOM     53  C   UNL     1      -9.557  -8.106   7.983  1.00  0.00     0.031 C 
ATOM     54  C   UNL     1      -5.225  -7.149  12.122  1.00  0.00     0.029 A 
ATOM     55  C   UNL     1      -5.883  -7.412  10.932  1.00  0.00     0.049 A 
ATOM     56  H   UNL     1      -5.077  -7.822   9.025  1.00  0.00     0.167 HD
ATOM     57  C   UNL     1      -7.862  -7.726   9.476  1.00  0.00     0.074 A 
ATOM     58  C   UNL     1      -9.290  -7.796   9.244  1.00  0.00     0.031 C 
ATOM     59  C   UNL     1      -7.299  -7.485  10.685  1.00  0.00     0.037 A 
BRANCH  46  60
ATOM     60  C   UNL     1      -1.131  -7.353  10.561  1.00  0.00     0.057 A 
ATOM     61  C   UNL     1      -0.378  -6.183  10.418  1.00  0.00     0.134 A 
ATOM     62  C   UNL     1      -0.655  -8.329  11.445  1.00  0.00     0.134 A 
ATOM     63  F   UNL     1      -0.772  -5.220   9.570  1.00  0.00    -0.206 F 
ATOM     64  C   UNL     1       0.817  -5.998  11.116  1.00  0.00     0.040 A 
ATOM     65  C   UNL     1       0.527  -8.148  12.163  1.00  0.00     0.040 A 
ATOM     66  F   UNL     1      -1.332  -9.473  11.626  1.00  0.00    -0.206 F 
ATOM     67  C   UNL     1       1.270  -6.981  11.995  1.00  0.00     0.006 A 
ENDBRANCH  46  60
BRANCH  47  68
ATOM     68  C   UNL     1      -9.361  -8.674   5.131  1.00  0.00     0.057 A 
ATOM     69  C   UNL     1     -10.170  -7.572   4.829  1.00  0.00     0.134 A 
ATOM     70  C   UNL     1      -9.780  -9.928   4.670  1.00  0.00     0.134 A 
ATOM     71  F   UNL     1      -9.836  -6.350   5.269  1.00  0.00    -0.206 F 
ATOM     72  C   UNL     1     -11.355  -7.712   4.105  1.00  0.00     0.040 A 
ATOM     73  C   UNL     1     -10.950 -10.079   3.924  1.00  0.00     0.040 A 
ATOM     74  F   UNL     1      -9.053 -11.023   4.932  1.00  0.00    -0.206 F 
ATOM     75  C   UNL     1     -11.744  -8.969   3.645  1.00  0.00     0.006 A 
ENDBRANCH  47  68
BRANCH  59  76
ATOM     76  C   UNL     1      -8.227  -7.273  11.842  1.00  0.00     0.057 A 
ATOM     77  C   UNL     1      -8.892  -8.345  12.451  1.00  0.00     0.134 A 
ATOM     78  C   UNL     1      -8.429  -5.995  12.376  1.00  0.00     0.134 A 
ATOM     79  F   UNL     1      -8.749  -9.591  11.978  1.00  0.00    -0.206 F 
ATOM     80  C   UNL     1      -9.741  -8.149  13.542  1.00  0.00     0.040 A 
ATOM     81  C   UNL     1      -9.261  -5.789  13.477  1.00  0.00     0.040 A 
ATOM     82  F   UNL     1      -7.816  -4.929  11.840  1.00  0.00    -0.206 F 
ATOM     83  C   UNL     1      -9.923  -6.868  14.061  1.00  0.00     0.006 A 
ENDBRANCH  59  76
ENDBRANCH  33  34
ENDBRANCH  26  28
ENDBRANCH  25  26
ENDBRANCH  24  25
ENDBRANCH   1  24
TORSDOF 16
