REMARK SMILES O=C(Cc1ccccc1Nc1c(Cl)cccc1C(F)(F)F)OCCOC(=O)c1ccc(-c2c3nc(c(-c4c(F)cccc4F)c4ccc([nH]4)c(-c4c(F)cccc4F)c4nc(c(-c5c(F)cccc5F)c5ccc2[nH]5)C=C4)C=C3)cc1
REMARK SMILES IDX 23 1 22 2 2 3 1 4 3 5 4 6 5 7 9 8 6 9 8 10 7 11 10 12 11 14
REMARK SMILES IDX 12 15 17 16 13 17 14 18 16 19 15 20 18 21 19 22 20 23 21 24
REMARK SMILES IDX 24 25 25 26 26 27 27 28 28 29 29 30 81 31 30 32 80 33 31 34
REMARK SMILES IDX 32 35 33 36 74 37 34 38 79 39 73 40 75 41 35 42 78 43 72 44
REMARK SMILES IDX 71 45 36 47 62 48 45 49 61 50 46 51 49 52 60 53 76 54 47 55
REMARK SMILES IDX 48 56 59 58 77 59 50 60 37 61 38 62 43 63 39 64 40 65 42 66
REMARK SMILES IDX 44 67 41 68 63 69 64 70 69 71 65 72 66 73 68 74 70 75 67 76
REMARK SMILES IDX 51 77 52 78 57 79 53 80 54 81 56 82 58 83 55 84
REMARK H PARENT 10 13 75 46 49 57
REMARK Flexibility Score: inf
ROOT
ATOM      1  C   UNL     1       4.214  -1.525  -0.322  1.00  0.00     0.274 C 
ENDROOT
BRANCH   1   2
ATOM      2  O   UNL     1       2.924  -1.196   0.229  1.00  0.00    -0.462 OA
BRANCH   2   3
ATOM      3  C   UNL     1       2.578   0.038   0.668  1.00  0.00     0.310 C 
ATOM      4  O   UNL     1       1.593   0.184   1.389  1.00  0.00    -0.252 OA
BRANCH   3   5
ATOM      5  C   UNL     1       3.383   1.227   0.189  1.00  0.00     0.160 C 
BRANCH   5   6
ATOM      6  C   UNL     1       4.029   2.021   1.298  1.00  0.00    -0.013 A 
ATOM      7  C   UNL     1       4.925   1.362   2.165  1.00  0.00     0.006 A 
ATOM      8  C   UNL     1       3.836   3.407   1.438  1.00  0.00     0.042 A 
ATOM      9  C   UNL     1       5.619   2.055   3.155  1.00  0.00     0.000 A 
ATOM     10  C   UNL     1       4.521   4.075   2.471  1.00  0.00     0.026 A 
ATOM     11  C   UNL     1       5.412   3.415   3.313  1.00  0.00     0.002 A 
BRANCH   8  12
ATOM     12  N   UNL     1       3.041   4.134   0.517  1.00  0.00    -0.354 N 
ATOM     13  H   UNL     1       2.491   3.610  -0.109  1.00  0.00     0.167 HD
BRANCH  12  14
ATOM     14  C   UNL     1       2.964   5.543   0.413  1.00  0.00     0.070 A 
ATOM     15  C   UNL     1       1.728   6.176   0.662  1.00  0.00     0.065 A 
ATOM     16  C   UNL     1       4.119   6.337   0.265  1.00  0.00     0.080 A 
ATOM     17  Cl  UNL     1       0.259   5.263   0.678  1.00  0.00    -0.082 Cl
ATOM     18  C   UNL     1       1.663   7.543   0.919  1.00  0.00     0.023 A 
ATOM     19  C   UNL     1       4.050   7.704   0.594  1.00  0.00     0.015 A 
ATOM     20  C   UNL     1       2.836   8.290   0.949  1.00  0.00     0.002 A 
BRANCH  16  21
ATOM     21  C   UNL     1       5.416   5.803  -0.302  1.00  0.00     0.418 C 
ATOM     22  F   UNL     1       5.928   6.656  -1.243  1.00  0.00    -0.166 F 
ATOM     23  F   UNL     1       6.397   5.682   0.634  1.00  0.00    -0.166 F 
ATOM     24  F   UNL     1       5.334   4.603  -0.941  1.00  0.00    -0.166 F 
ENDBRANCH  16  21
ENDBRANCH  12  14
ENDBRANCH   8  12
ENDBRANCH   5   6
ENDBRANCH   3   5
ENDBRANCH   2   3
ENDBRANCH   1   2
BRANCH   1  25
ATOM     25  C   UNL     1       4.191  -1.631  -1.849  1.00  0.00     0.275 C 
BRANCH  25  26
ATOM     26  O   UNL     1       3.805  -0.394  -2.478  1.00  0.00    -0.458 OA
BRANCH  26  27
ATOM     27  C   UNL     1       2.486  -0.284  -2.791  1.00  0.00     0.338 C 
ATOM     28  O   UNL     1       1.629  -1.125  -2.613  1.00  0.00    -0.246 OA
BRANCH  27  29
ATOM     29  C   UNL     1       2.189   1.088  -3.272  1.00  0.00     0.060 A 
ATOM     30  C   UNL     1       1.006   1.698  -2.839  1.00  0.00     0.016 A 
ATOM     31  C   UNL     1       3.040   1.766  -4.152  1.00  0.00     0.016 A 
ATOM     32  C   UNL     1       0.671   2.983  -3.285  1.00  0.00     0.010 A 
ATOM     33  C   UNL     1       2.692   3.043  -4.614  1.00  0.00     0.010 A 
ATOM     34  C   UNL     1       1.501   3.659  -4.192  1.00  0.00    -0.014 A 
BRANCH  34  35
ATOM     35  C   UNL     1       1.104   4.991  -4.720  1.00  0.00     0.031 A 
ATOM     36  C   UNL     1       0.305   5.107  -5.981  1.00  0.00     0.074 A 
ATOM     37  C   UNL     1       1.512   6.122  -4.117  1.00  0.00     0.049 A 
ATOM     38  N   UNL     1      -0.116   6.188  -6.588  1.00  0.00    -0.248 NA
ATOM     39  C   UNL     1      -0.007   3.855  -6.681  1.00  0.00     0.031 C 
ATOM     40  C   UNL     1       2.434   6.173  -2.993  1.00  0.00     0.029 A 
ATOM     41  N   UNL     1       1.224   7.443  -4.378  1.00  0.00    -0.354 N 
ATOM     42  C   UNL     1      -0.686   5.756  -7.775  1.00  0.00     0.074 A 
ATOM     43  C   UNL     1      -0.586   4.309  -7.785  1.00  0.00     0.031 C 
ATOM     44  C   UNL     1       2.606   7.457  -2.642  1.00  0.00     0.029 A 
ATOM     45  C   UNL     1       1.786   8.315  -3.477  1.00  0.00     0.049 A 
ATOM     46  H   UNL     1       0.669   7.734  -5.137  1.00  0.00     0.167 HD
ATOM     47  C   UNL     1      -1.209   6.500  -8.778  1.00  0.00     0.037 A 
ATOM     48  C   UNL     1       1.656   9.647  -3.323  1.00  0.00     0.037 A 
ATOM     49  C   UNL     1      -1.314   7.938  -8.780  1.00  0.00     0.049 A 
ATOM     50  C   UNL     1       0.895  10.430  -4.350  1.00  0.00     0.074 A 
ATOM     51  C   UNL     1      -1.886   8.755  -9.742  1.00  0.00     0.029 A 
ATOM     52  N   UNL     1      -0.832   8.775  -7.788  1.00  0.00    -0.354 N 
ATOM     53  N   UNL     1       0.291   9.999  -5.428  1.00  0.00    -0.248 NA
ATOM     54  C   UNL     1       0.845  11.891  -4.173  1.00  0.00     0.031 C 
ATOM     55  C   UNL     1      -1.714  10.087  -9.353  1.00  0.00     0.029 A 
ATOM     56  C   UNL     1      -1.076  10.099  -8.126  1.00  0.00     0.049 A 
ATOM     57  H   UNL     1      -0.383   8.475  -6.965  1.00  0.00     0.167 HD
ATOM     58  C   UNL     1      -0.150  11.135  -6.087  1.00  0.00     0.074 A 
ATOM     59  C   UNL     1       0.168  12.268  -5.247  1.00  0.00     0.031 C 
ATOM     60  C   UNL     1      -0.719  11.229  -7.311  1.00  0.00     0.037 A 
BRANCH  47  61
ATOM     61  C   UNL     1      -1.673   5.770 -10.000  1.00  0.00     0.057 A 
ATOM     62  C   UNL     1      -2.863   5.035 -10.016  1.00  0.00     0.134 A 
ATOM     63  C   UNL     1      -0.944   5.858 -11.193  1.00  0.00     0.134 A 
ATOM     64  F   UNL     1      -3.596   4.904  -8.900  1.00  0.00    -0.206 F 
ATOM     65  C   UNL     1      -3.308   4.402 -11.177  1.00  0.00     0.040 A 
ATOM     66  C   UNL     1      -1.390   5.248 -12.364  1.00  0.00     0.040 A 
ATOM     67  F   UNL     1       0.205   6.550 -11.240  1.00  0.00    -0.206 F 
ATOM     68  C   UNL     1      -2.575   4.516 -12.357  1.00  0.00     0.006 A 
ENDBRANCH  47  61
BRANCH  48  69
ATOM     69  C   UNL     1       2.248  10.361  -2.160  1.00  0.00     0.057 A 
ATOM     70  C   UNL     1       1.416  10.932  -1.185  1.00  0.00     0.134 A 
ATOM     71  C   UNL     1       3.624  10.569  -2.030  1.00  0.00     0.134 A 
ATOM     72  F   UNL     1       0.085  10.782  -1.262  1.00  0.00    -0.206 F 
ATOM     73  C   UNL     1       1.928  11.711  -0.146  1.00  0.00     0.040 A 
ATOM     74  C   UNL     1       4.153  11.319  -0.978  1.00  0.00     0.040 A 
ATOM     75  F   UNL     1       4.475  10.047  -2.925  1.00  0.00    -0.206 F 
ATOM     76  C   UNL     1       3.303  11.905  -0.040  1.00  0.00     0.006 A 
ENDBRANCH  48  69
BRANCH  60  77
ATOM     77  C   UNL     1      -0.965  12.611  -7.834  1.00  0.00     0.057 A 
ATOM     78  C   UNL     1       0.097  13.427  -8.251  1.00  0.00     0.134 A 
ATOM     79  C   UNL     1      -2.259  13.134  -7.925  1.00  0.00     0.134 A 
ATOM     80  F   UNL     1       1.363  12.991  -8.169  1.00  0.00    -0.206 F 
ATOM     81  C   UNL     1      -0.119  14.723  -8.719  1.00  0.00     0.040 A 
ATOM     82  C   UNL     1      -2.489  14.421  -8.412  1.00  0.00     0.040 A 
ATOM     83  F   UNL     1      -3.317  12.405  -7.540  1.00  0.00    -0.206 F 
ATOM     84  C   UNL     1      -1.417  15.222  -8.805  1.00  0.00     0.006 A 
ENDBRANCH  60  77
ENDBRANCH  34  35
ENDBRANCH  27  29
ENDBRANCH  26  27
ENDBRANCH  25  26
ENDBRANCH   1  25
TORSDOF 15
