REMARK SMILES O=C(CCC(=O)OCCOC(=O)c1ccc(-c2c3nc(c(-c4c(F)cccc4F)c4ccc([nH]4)c(-c4c(F)cccc4F)c4nc(c(-c5c(F)cccc5F)c5ccc2[nH]5)C=C4)C=C3)cc1)Nc1cccc2c1C(=O)c1ccccc1C2=O
REMARK SMILES IDX 8 1 7 2 5 3 6 4 4 5 3 6 2 7 1 8 67 9 68 11 69 12 73 13 70 14
REMARK SMILES IDX 72 15 74 16 71 17 82 18 75 19 76 20 81 21 83 22 77 23 80 24
REMARK SMILES IDX 78 25 79 26 9 27 10 28 11 29 12 30 13 31 14 32 66 33 15 34
REMARK SMILES IDX 65 35 16 36 17 37 18 38 59 39 19 40 64 41 58 42 60 43 20 44
REMARK SMILES IDX 63 45 57 46 56 47 21 49 47 50 30 51 46 52 31 53 34 54 45 55
REMARK SMILES IDX 61 56 32 57 33 58 44 60 62 61 35 62 22 63 23 64 28 65 24 66
REMARK SMILES IDX 25 67 27 68 29 69 26 70 48 71 49 72 54 73 50 74 51 75 53 76
REMARK SMILES IDX 55 77 52 78 36 79 37 80 42 81 38 82 39 83 41 84 43 85 40 86
REMARK H PARENT 67 10 60 48 34 59
REMARK Flexibility Score: inf
ROOT
ATOM      1  C   UNL     1       5.590  -0.005   2.462  1.00  0.00     0.274 C 
ENDROOT
BRANCH   1   2
ATOM      2  O   UNL     1       4.315   0.318   1.863  1.00  0.00    -0.462 OA
BRANCH   2   3
ATOM      3  C   UNL     1       4.251   1.444   1.104  1.00  0.00     0.306 C 
ATOM      4  O   UNL     1       5.176   2.229   0.944  1.00  0.00    -0.252 OA
BRANCH   3   5
ATOM      5  C   UNL     1       2.849   1.691   0.578  1.00  0.00     0.132 C 
BRANCH   5   6
ATOM      6  C   UNL     1       2.147   0.458   0.018  1.00  0.00     0.112 C 
BRANCH   6   7
ATOM      7  C   UNL     1       1.188  -0.298   0.942  1.00  0.00     0.224 C 
ATOM      8  O   UNL     1       0.221  -0.893   0.473  1.00  0.00    -0.275 OA
ATOM      9  N   UNL     1       1.634  -0.427   2.245  1.00  0.00    -0.325 N 
ATOM     10  H   UNL     1       2.049   0.357   2.671  1.00  0.00     0.169 HD
BRANCH   9  11
ATOM     11  C   UNL     1       1.528  -1.625   3.006  1.00  0.00     0.053 A 
ATOM     12  C   UNL     1       2.638  -1.836   3.834  1.00  0.00     0.027 A 
ATOM     13  C   UNL     1       0.812  -2.740   2.569  1.00  0.00     0.057 A 
ATOM     14  C   UNL     1       3.241  -3.093   3.866  1.00  0.00     0.003 A 
ATOM     15  C   UNL     1       1.507  -3.937   2.438  1.00  0.00     0.036 A 
ATOM     16  C   UNL     1      -0.607  -2.899   3.032  1.00  0.00     0.196 C 
ATOM     17  C   UNL     1       2.735  -4.120   3.074  1.00  0.00     0.013 A 
ATOM     18  C   UNL     1       0.800  -5.109   1.919  1.00  0.00     0.194 C 
ATOM     19  O   UNL     1      -1.264  -1.946   3.436  1.00  0.00    -0.288 OA
ATOM     20  C   UNL     1      -1.149  -4.286   3.175  1.00  0.00     0.034 A 
ATOM     21  C   UNL     1      -0.510  -5.350   2.534  1.00  0.00     0.034 A 
ATOM     22  O   UNL     1       1.336  -5.892   1.151  1.00  0.00    -0.289 OA
ATOM     23  C   UNL     1      -2.216  -4.562   4.035  1.00  0.00     0.013 A 
ATOM     24  C   UNL     1      -0.965  -6.665   2.664  1.00  0.00     0.013 A 
ATOM     25  C   UNL     1      -2.635  -5.886   4.224  1.00  0.00     0.001 A 
ATOM     26  C   UNL     1      -2.027  -6.931   3.523  1.00  0.00     0.001 A 
ENDBRANCH   9  11
ENDBRANCH   6   7
ENDBRANCH   5   6
ENDBRANCH   3   5
ENDBRANCH   2   3
ENDBRANCH   1   2
BRANCH   1  27
ATOM     27  C   UNL     1       6.359  -1.050   1.649  1.00  0.00     0.275 C 
BRANCH  27  28
ATOM     28  O   UNL     1       7.126  -0.436   0.600  1.00  0.00    -0.458 OA
BRANCH  28  29
ATOM     29  C   UNL     1       6.470  -0.247  -0.567  1.00  0.00     0.338 C 
ATOM     30  O   UNL     1       5.326  -0.584  -0.831  1.00  0.00    -0.246 OA
BRANCH  29  31
ATOM     31  C   UNL     1       7.307   0.557  -1.470  1.00  0.00     0.060 A 
ATOM     32  C   UNL     1       6.747   1.703  -2.045  1.00  0.00     0.016 A 
ATOM     33  C   UNL     1       8.614   0.171  -1.776  1.00  0.00     0.016 A 
ATOM     34  C   UNL     1       7.496   2.470  -2.935  1.00  0.00     0.010 A 
ATOM     35  C   UNL     1       9.361   0.938  -2.671  1.00  0.00     0.010 A 
ATOM     36  C   UNL     1       8.803   2.085  -3.261  1.00  0.00    -0.014 A 
BRANCH  36  37
ATOM     37  C   UNL     1       9.590   2.856  -4.249  1.00  0.00     0.031 A 
ATOM     38  C   UNL     1       9.723   2.344  -5.652  1.00  0.00     0.074 A 
ATOM     39  C   UNL     1      10.217   3.984  -3.872  1.00  0.00     0.049 A 
ATOM     40  N   UNL     1      10.473   2.789  -6.626  1.00  0.00    -0.248 NA
ATOM     41  C   UNL     1       8.908   1.170  -6.004  1.00  0.00     0.031 C 
ATOM     42  C   UNL     1      10.142   4.589  -2.542  1.00  0.00     0.029 A 
ATOM     43  N   UNL     1      11.061   4.809  -4.571  1.00  0.00    -0.354 N 
ATOM     44  C   UNL     1      10.241   1.939  -7.699  1.00  0.00     0.074 A 
ATOM     45  C   UNL     1       9.280   0.950  -7.258  1.00  0.00     0.031 C 
ATOM     46  C   UNL     1      10.929   5.678  -2.515  1.00  0.00     0.029 A 
ATOM     47  C   UNL     1      11.587   5.824  -3.811  1.00  0.00     0.049 A 
ATOM     48  H   UNL     1      11.270   4.685  -5.525  1.00  0.00     0.167 HD
ATOM     49  C   UNL     1      10.783   1.982  -8.938  1.00  0.00     0.037 A 
ATOM     50  C   UNL     1      12.520   6.744  -4.117  1.00  0.00     0.037 A 
ATOM     51  C   UNL     1      11.720   2.980  -9.381  1.00  0.00     0.049 A 
ATOM     52  C   UNL     1      13.132   6.747  -5.491  1.00  0.00     0.074 A 
ATOM     53  C   UNL     1      12.293   3.129 -10.632  1.00  0.00     0.029 A 
ATOM     54  N   UNL     1      12.221   3.997  -8.585  1.00  0.00    -0.354 N 
ATOM     55  N   UNL     1      12.888   5.953  -6.505  1.00  0.00    -0.248 NA
ATOM     56  C   UNL     1      14.152   7.771  -5.761  1.00  0.00     0.031 C 
ATOM     57  C   UNL     1      13.165   4.222 -10.584  1.00  0.00     0.029 A 
ATOM     58  C   UNL     1      13.112   4.768  -9.312  1.00  0.00     0.049 A 
ATOM     59  H   UNL     1      11.980   4.149  -7.642  1.00  0.00     0.167 HD
ATOM     60  C   UNL     1      13.705   6.393  -7.537  1.00  0.00     0.074 A 
ATOM     61  C   UNL     1      14.449   7.528  -7.031  1.00  0.00     0.031 C 
ATOM     62  C   UNL     1      13.828   5.902  -8.793  1.00  0.00     0.037 A 
BRANCH  49  63
ATOM     63  C   UNL     1      10.393   0.907  -9.902  1.00  0.00     0.057 A 
ATOM     64  C   UNL     1       9.166   0.929 -10.574  1.00  0.00     0.134 A 
ATOM     65  C   UNL     1      11.281  -0.133 -10.203  1.00  0.00     0.134 A 
ATOM     66  F   UNL     1       8.269   1.894 -10.319  1.00  0.00    -0.206 F 
ATOM     67  C   UNL     1       8.831  -0.052 -11.509  1.00  0.00     0.040 A 
ATOM     68  C   UNL     1      10.965  -1.111 -11.146  1.00  0.00     0.040 A 
ATOM     69  F   UNL     1      12.473  -0.208  -9.592  1.00  0.00    -0.206 F 
ATOM     70  C   UNL     1       9.736  -1.072 -11.802  1.00  0.00     0.006 A 
ENDBRANCH  49  63
BRANCH  50  71
ATOM     71  C   UNL     1      12.961   7.724  -3.096  1.00  0.00     0.057 A 
ATOM     72  C   UNL     1      12.606   9.073  -3.188  1.00  0.00     0.134 A 
ATOM     73  C   UNL     1      13.767   7.337  -2.019  1.00  0.00     0.134 A 
ATOM     74  F   UNL     1      11.856   9.506  -4.212  1.00  0.00    -0.206 F 
ATOM     75  C   UNL     1      13.050  10.009  -2.252  1.00  0.00     0.040 A 
ATOM     76  C   UNL     1      14.201   8.258  -1.065  1.00  0.00     0.040 A 
ATOM     77  F   UNL     1      14.140   6.056  -1.878  1.00  0.00    -0.206 F 
ATOM     78  C   UNL     1      13.848   9.600  -1.185  1.00  0.00     0.006 A 
ENDBRANCH  50  71
BRANCH  62  79
ATOM     79  C   UNL     1      14.771   6.610  -9.716  1.00  0.00     0.057 A 
ATOM     80  C   UNL     1      16.155   6.422  -9.636  1.00  0.00     0.134 A 
ATOM     81  C   UNL     1      14.284   7.450 -10.724  1.00  0.00     0.134 A 
ATOM     82  F   UNL     1      16.681   5.639  -8.682  1.00  0.00    -0.206 F 
ATOM     83  C   UNL     1      17.026   7.055 -10.524  1.00  0.00     0.040 A 
ATOM     84  C   UNL     1      15.143   8.075 -11.628  1.00  0.00     0.040 A 
ATOM     85  F   UNL     1      12.966   7.665 -10.854  1.00  0.00    -0.206 F 
ATOM     86  C   UNL     1      16.519   7.880 -11.527  1.00  0.00     0.006 A 
ENDBRANCH  62  79
ENDBRANCH  36  37
ENDBRANCH  29  31
ENDBRANCH  28  29
ENDBRANCH  27  28
ENDBRANCH   1  27
TORSDOF 14
