REMARK SMILES O=C(OCCOC(=O)c1cccc(N[C@H]2CCCC[C@@H]2O)c1)c1ccc(-c2c3nc(c(-c4c(F)cccc4F)c4ccc([nH]4)c(-c4c(F)cccc4F)c4nc(c(-c5c(F)cccc5F)c5ccc2[nH]5)C=C4)C=C3)cc1
REMARK SMILES IDX 5 1 4 2 3 3 2 4 1 5 23 6 24 7 76 8 25 9 75 10 26 11 27 12
REMARK SMILES IDX 28 13 69 14 29 15 74 16 68 17 70 18 30 19 73 20 67 21 66 22
REMARK SMILES IDX 31 24 57 25 40 26 56 27 41 28 44 29 55 30 71 31 42 32 43 33
REMARK SMILES IDX 54 35 72 36 45 37 32 38 33 39 38 40 34 41 35 42 37 43 39 44
REMARK SMILES IDX 36 45 58 46 59 47 64 48 60 49 61 50 63 51 65 52 62 53 46 54
REMARK SMILES IDX 47 55 52 56 48 57 49 58 51 59 53 60 50 61 6 62 7 63 8 64
REMARK SMILES IDX 9 65 10 66 22 67 11 68 13 69 12 70 14 71 15 73 16 74 20 75
REMARK SMILES IDX 17 76 19 77 18 78 21 79
REMARK H PARENT 70 23 44 34 14 72 21 80
REMARK Flexibility Score: inf
ROOT
ATOM      1  C   UNL     1       3.764  -0.959   2.087  1.00  0.00     0.275 C 
ENDROOT
BRANCH   1   2
ATOM      2  C   UNL     1       4.006   0.453   1.545  1.00  0.00     0.275 C 
BRANCH   2   3
ATOM      3  O   UNL     1       3.075   0.888   0.538  1.00  0.00    -0.458 OA
BRANCH   3   4
ATOM      4  C   UNL     1       3.195   0.780  -0.808  1.00  0.00     0.338 C 
ATOM      5  O   UNL     1       2.534   1.519  -1.534  1.00  0.00    -0.246 OA
BRANCH   4   6
ATOM      6  C   UNL     1       3.950  -0.338  -1.450  1.00  0.00     0.060 A 
ATOM      7  C   UNL     1       5.208  -0.807  -1.059  1.00  0.00     0.016 A 
ATOM      8  C   UNL     1       3.335  -0.936  -2.561  1.00  0.00     0.016 A 
ATOM      9  C   UNL     1       5.801  -1.905  -1.697  1.00  0.00     0.010 A 
ATOM     10  C   UNL     1       3.922  -2.029  -3.201  1.00  0.00     0.010 A 
ATOM     11  C   UNL     1       5.161  -2.524  -2.770  1.00  0.00    -0.014 A 
BRANCH  11  12
ATOM     12  C   UNL     1       5.840  -3.561  -3.584  1.00  0.00     0.031 A 
ATOM     13  C   UNL     1       6.346  -3.148  -4.939  1.00  0.00     0.074 A 
ATOM     14  C   UNL     1       5.918  -4.843  -3.172  1.00  0.00     0.049 A 
ATOM     15  N   UNL     1       6.820  -3.884  -5.908  1.00  0.00    -0.248 NA
ATOM     16  C   UNL     1       6.340  -1.701  -5.229  1.00  0.00     0.031 C 
ATOM     17  C   UNL     1       5.508  -5.352  -1.863  1.00  0.00     0.029 A 
ATOM     18  N   UNL     1       6.280  -5.978  -3.863  1.00  0.00    -0.354 N 
ATOM     19  C   UNL     1       7.196  -2.988  -6.903  1.00  0.00     0.074 A 
ATOM     20  C   UNL     1       6.838  -1.664  -6.455  1.00  0.00     0.031 C 
ATOM     21  C   UNL     1       5.516  -6.700  -1.889  1.00  0.00     0.029 A 
ATOM     22  C   UNL     1       5.932  -7.143  -3.215  1.00  0.00     0.049 A 
ATOM     23  H   UNL     1       6.742  -5.958  -4.733  1.00  0.00     0.167 HD
ATOM     24  C   UNL     1       7.827  -3.254  -8.069  1.00  0.00     0.037 A 
ATOM     25  C   UNL     1       5.880  -8.406  -3.682  1.00  0.00     0.037 A 
ATOM     26  C   UNL     1       8.141  -4.586  -8.502  1.00  0.00     0.049 A 
ATOM     27  C   UNL     1       6.337  -8.674  -5.086  1.00  0.00     0.074 A 
ATOM     28  C   UNL     1       8.893  -4.994  -9.587  1.00  0.00     0.029 A 
ATOM     29  N   UNL     1       7.674  -5.730  -7.875  1.00  0.00    -0.354 N 
ATOM     30  N   UNL     1       6.762  -7.824  -5.988  1.00  0.00    -0.248 NA
ATOM     31  C   UNL     1       6.327 -10.075  -5.527  1.00  0.00     0.031 C 
ATOM     32  C   UNL     1       8.841  -6.391  -9.643  1.00  0.00     0.029 A 
ATOM     33  C   UNL     1       8.090  -6.849  -8.570  1.00  0.00     0.049 A 
ATOM     34  H   UNL     1       7.127  -5.744  -7.057  1.00  0.00     0.167 HD
ATOM     35  C   UNL     1       7.144  -8.593  -7.077  1.00  0.00     0.074 A 
ATOM     36  C   UNL     1       6.835  -9.970  -6.748  1.00  0.00     0.031 C 
ATOM     37  C   UNL     1       7.752  -8.203  -8.222  1.00  0.00     0.037 A 
BRANCH  24  38
ATOM     38  C   UNL     1       8.246  -2.095  -8.919  1.00  0.00     0.057 A 
ATOM     39  C   UNL     1       9.290  -1.245  -8.527  1.00  0.00     0.134 A 
ATOM     40  C   UNL     1       7.642  -1.846 -10.156  1.00  0.00     0.134 A 
ATOM     41  F   UNL     1       9.906  -1.423  -7.348  1.00  0.00    -0.206 F 
ATOM     42  C   UNL     1       9.707  -0.180  -9.327  1.00  0.00     0.040 A 
ATOM     43  C   UNL     1       8.063  -0.795 -10.974  1.00  0.00     0.040 A 
ATOM     44  F   UNL     1       6.639  -2.622 -10.594  1.00  0.00    -0.206 F 
ATOM     45  C   UNL     1       9.097   0.043 -10.559  1.00  0.00     0.006 A 
ENDBRANCH  24  38
BRANCH  25  46
ATOM     46  C   UNL     1       5.296  -9.514  -2.884  1.00  0.00     0.057 A 
ATOM     47  C   UNL     1       6.073 -10.340  -2.071  1.00  0.00     0.134 A 
ATOM     48  C   UNL     1       3.941  -9.841  -3.018  1.00  0.00     0.134 A 
ATOM     49  F   UNL     1       7.392 -10.131  -1.963  1.00  0.00    -0.206 F 
ATOM     50  C   UNL     1       5.516 -11.436  -1.403  1.00  0.00     0.040 A 
ATOM     51  C   UNL     1       3.361 -10.908  -2.333  1.00  0.00     0.040 A 
ATOM     52  F   UNL     1       3.176  -9.166  -3.884  1.00  0.00    -0.206 F 
ATOM     53  C   UNL     1       4.154 -11.714  -1.522  1.00  0.00     0.006 A 
ENDBRANCH  25  46
BRANCH  37  54
ATOM     54  C   UNL     1       8.191  -9.284  -9.156  1.00  0.00     0.057 A 
ATOM     55  C   UNL     1       7.297  -9.938 -10.008  1.00  0.00     0.134 A 
ATOM     56  C   UNL     1       9.544  -9.637  -9.227  1.00  0.00     0.134 A 
ATOM     57  F   UNL     1       5.985  -9.659  -9.962  1.00  0.00    -0.206 F 
ATOM     58  C   UNL     1       7.736 -10.914 -10.901  1.00  0.00     0.040 A 
ATOM     59  C   UNL     1       9.999 -10.593 -10.131  1.00  0.00     0.040 A 
ATOM     60  F   UNL     1      10.446  -9.043  -8.430  1.00  0.00    -0.206 F 
ATOM     61  C   UNL     1       9.092 -11.236 -10.972  1.00  0.00     0.006 A 
ENDBRANCH  37  54
ENDBRANCH  11  12
ENDBRANCH   4   6
ENDBRANCH   3   4
ENDBRANCH   2   3
ENDBRANCH   1   2
BRANCH   1  62
ATOM     62  O   UNL     1       3.251  -1.861   1.093  1.00  0.00    -0.458 OA
BRANCH  62  63
ATOM     63  C   UNL     1       1.896  -1.957   1.073  1.00  0.00     0.338 C 
ATOM     64  O   UNL     1       1.122  -1.482   1.878  1.00  0.00    -0.246 OA
BRANCH  63  65
ATOM     65  C   UNL     1       1.460  -2.590  -0.192  1.00  0.00     0.062 A 
ATOM     66  C   UNL     1       0.432  -1.967  -0.900  1.00  0.00     0.016 A 
ATOM     67  C   UNL     1       2.062  -3.750  -0.699  1.00  0.00     0.041 A 
ATOM     68  C   UNL     1       0.028  -2.493  -2.120  1.00  0.00     0.003 A 
ATOM     69  C   UNL     1       1.652  -4.304  -1.926  1.00  0.00     0.035 A 
ATOM     70  C   UNL     1       0.631  -3.651  -2.619  1.00  0.00     0.026 A 
BRANCH  69  71
ATOM     71  N   UNL     1       2.272  -5.445  -2.372  1.00  0.00    -0.380 N 
ATOM     72  H   UNL     1       3.049  -5.721  -1.833  1.00  0.00     0.160 HD
BRANCH  71  73
ATOM     73  C   UNL     1       1.983  -6.326  -3.507  1.00  0.00     0.107 C 
ATOM     74  C   UNL     1       0.620  -7.006  -3.340  1.00  0.00     0.027 C 
ATOM     75  C   UNL     1       2.182  -5.717  -4.915  1.00  0.00     0.136 C 
ATOM     76  C   UNL     1       0.293  -7.975  -4.475  1.00  0.00     0.002 C 
ATOM     77  C   UNL     1       1.933  -6.786  -5.983  1.00  0.00     0.034 C 
ATOM     78  C   UNL     1       0.533  -7.371  -5.855  1.00  0.00     0.003 C 
BRANCH  75  79
ATOM     79  O   UNL     1       3.489  -5.188  -5.121  1.00  0.00    -0.391 OA
ATOM     80  H   UNL     1       4.141  -5.903  -5.056  1.00  0.00     0.211 HD
ENDBRANCH  75  79
ENDBRANCH  71  73
ENDBRANCH  69  71
ENDBRANCH  63  65
ENDBRANCH  62  63
ENDBRANCH   1  62
TORSDOF 14
