REMARK SMILES Cn1cc(SCC[C@@H]2CCC[C@@]2([NH3+])C(=O)OCCOC(=O)c2ccc(-c3c4nc(c(-c5c(F)cccc5F)c5ccc([nH]5)c(-c5c(F)cccc5F)c5nc(c(-c6c(F)cccc6F)c6ccc3[nH]6)C=C5)C=C4)cc2)cn1
REMARK SMILES IDX 17 1 16 2 14 3 15 4 12 5 8 6 9 7 10 8 11 9 7 10 6 11 5 12
REMARK SMILES IDX 4 13 1 14 2 15 3 16 77 17 76 18 13 19 18 23 19 24 20 25
REMARK SMILES IDX 21 26 22 27 23 28 75 29 24 30 74 31 25 32 26 33 27 34 68 35
REMARK SMILES IDX 28 36 73 37 67 38 69 39 29 40 72 41 66 42 65 43 30 45 56 46
REMARK SMILES IDX 39 47 55 48 40 49 43 50 54 51 70 52 41 53 42 54 53 56 71 57
REMARK SMILES IDX 44 58 31 59 32 60 37 61 33 62 34 63 36 64 38 65 35 66 57 67
REMARK SMILES IDX 58 68 63 69 59 70 60 71 62 72 64 73 61 74 45 75 46 76 51 77
REMARK SMILES IDX 47 78 48 79 50 80 52 81 49 82
REMARK H PARENT 13 20 13 21 13 22 69 44 43 55
REMARK Flexibility Score: inf
ROOT
ATOM      1  C   UNL     1      -1.787  -6.303   1.374  1.00  0.00     0.274 C 
ENDROOT
BRANCH   1   2
ATOM      2  O   UNL     1      -0.782  -5.319   1.698  1.00  0.00    -0.457 OA
BRANCH   2   3
ATOM      3  C   UNL     1      -1.181  -4.013   1.647  1.00  0.00     0.368 C 
ATOM      4  O   UNL     1      -2.210  -3.626   1.105  1.00  0.00    -0.245 OA
BRANCH   3   5
ATOM      5  C   UNL     1      -0.146  -3.074   2.324  1.00  0.00     0.195 C 
ATOM      6  C   UNL     1       0.801  -2.443   1.284  1.00  0.00     0.063 C 
ATOM      7  C   UNL     1       1.355  -1.221   2.034  1.00  0.00     0.011 C 
ATOM      8  C   UNL     1       0.181  -0.692   2.853  1.00  0.00     0.008 C 
ATOM      9  C   UNL     1      -0.856  -1.813   2.869  1.00  0.00     0.081 C 
BRANCH   6  10
ATOM     10  C   UNL     1       1.897  -3.347   0.700  1.00  0.00     0.022 C 
BRANCH  10  11
ATOM     11  C   UNL     1       2.161  -3.167  -0.807  1.00  0.00     0.075 C 
BRANCH  11  12
ATOM     12  S   UNL     1       2.813  -1.556  -1.359  1.00  0.00    -0.123 SA
BRANCH  12  13
ATOM     13  C   UNL     1       1.406  -0.533  -1.383  1.00  0.00     0.045 A 
ATOM     14  C   UNL     1      -2.053   0.275  -1.021  1.00  0.00     0.173 C 
ATOM     15  N   UNL     1      -0.631   0.236  -1.262  1.00  0.00    -0.275 N 
ATOM     16  C   UNL     1       0.097  -0.854  -1.649  1.00  0.00     0.123 A 
ATOM     17  N   UNL     1       0.129   1.306  -0.960  1.00  0.00    -0.181 NA
ATOM     18  C   UNL     1       1.377   0.832  -1.036  1.00  0.00     0.150 A 
ENDBRANCH  12  13
ENDBRANCH  11  12
ENDBRANCH  10  11
ENDBRANCH   6  10
BRANCH   5  19
ATOM     19  N   UNL     1       0.577  -3.751   3.425  1.00  0.00    -0.343 N 
ATOM     20  H   UNL     1       1.245  -3.103   3.842  1.00  0.00     0.345 HD
ATOM     21  H   UNL     1       1.074  -4.562   3.057  1.00  0.00     0.345 HD
ATOM     22  H   UNL     1      -0.091  -4.053   4.134  1.00  0.00     0.345 HD
ENDBRANCH   5  19
ENDBRANCH   3   5
ENDBRANCH   2   3
ENDBRANCH   1   2
BRANCH   1  23
ATOM     23  C   UNL     1      -2.009  -7.193   2.595  1.00  0.00     0.275 C 
BRANCH  23  24
ATOM     24  O   UNL     1      -2.346  -6.350   3.713  1.00  0.00    -0.458 OA
BRANCH  24  25
ATOM     25  C   UNL     1      -1.950  -6.798   4.923  1.00  0.00     0.338 C 
ATOM     26  O   UNL     1      -1.522  -7.915   5.186  1.00  0.00    -0.246 OA
BRANCH  25  27
ATOM     27  C   UNL     1      -2.071  -5.713   5.924  1.00  0.00     0.060 A 
ATOM     28  C   UNL     1      -1.792  -4.395   5.563  1.00  0.00     0.016 A 
ATOM     29  C   UNL     1      -2.364  -6.008   7.256  1.00  0.00     0.016 A 
ATOM     30  C   UNL     1      -1.722  -3.389   6.525  1.00  0.00     0.010 A 
ATOM     31  C   UNL     1      -2.390  -4.978   8.206  1.00  0.00     0.010 A 
ATOM     32  C   UNL     1      -2.039  -3.660   7.859  1.00  0.00    -0.014 A 
BRANCH  32  33
ATOM     33  C   UNL     1      -1.950  -2.590   8.894  1.00  0.00     0.031 A 
ATOM     34  C   UNL     1      -1.046  -2.776  10.085  1.00  0.00     0.074 A 
ATOM     35  C   UNL     1      -2.660  -1.449   8.783  1.00  0.00     0.049 A 
ATOM     36  N   UNL     1      -0.998  -2.098  11.203  1.00  0.00    -0.248 NA
ATOM     37  C   UNL     1      -0.076  -3.881  10.011  1.00  0.00     0.031 C 
ATOM     38  C   UNL     1      -3.529  -1.089   7.661  1.00  0.00     0.029 A 
ATOM     39  N   UNL     1      -2.764  -0.375   9.636  1.00  0.00    -0.354 N 
ATOM     40  C   UNL     1      -0.052  -2.740  11.993  1.00  0.00     0.074 A 
ATOM     41  C   UNL     1       0.464  -3.849  11.221  1.00  0.00     0.031 C 
ATOM     42  C   UNL     1      -4.058   0.125   7.883  1.00  0.00     0.029 A 
ATOM     43  C   UNL     1      -3.639   0.592   9.199  1.00  0.00     0.049 A 
ATOM     44  H   UNL     1      -2.260  -0.305  10.479  1.00  0.00     0.167 HD
ATOM     45  C   UNL     1       0.343  -2.435  13.252  1.00  0.00     0.037 A 
ATOM     46  C   UNL     1      -4.098   1.703   9.808  1.00  0.00     0.037 A 
ATOM     47  C   UNL     1      -0.110  -1.288  13.992  1.00  0.00     0.049 A 
ATOM     48  C   UNL     1      -3.652   2.016  11.209  1.00  0.00     0.074 A 
ATOM     49  C   UNL     1       0.249  -0.887  15.268  1.00  0.00     0.029 A 
ATOM     50  N   UNL     1      -1.003  -0.343  13.512  1.00  0.00    -0.354 N 
ATOM     51  N   UNL     1      -2.816   1.360  11.976  1.00  0.00    -0.248 NA
ATOM     52  C   UNL     1      -4.236   3.209  11.839  1.00  0.00     0.031 C 
ATOM     53  C   UNL     1      -0.445   0.290  15.569  1.00  0.00     0.029 A 
ATOM     54  C   UNL     1      -1.212   0.636  14.469  1.00  0.00     0.049 A 
ATOM     55  H   UNL     1      -1.425  -0.365  12.623  1.00  0.00     0.167 HD
ATOM     56  C   UNL     1      -2.771   2.059  13.174  1.00  0.00     0.074 A 
ATOM     57  C   UNL     1      -3.644   3.205  13.025  1.00  0.00     0.031 C 
ATOM     58  C   UNL     1      -2.079   1.772  14.302  1.00  0.00     0.037 A 
BRANCH  45  59
ATOM     59  C   UNL     1       1.288  -3.380  13.931  1.00  0.00     0.057 A 
ATOM     60  C   UNL     1       2.654  -3.413  13.631  1.00  0.00     0.134 A 
ATOM     61  C   UNL     1       0.822  -4.237  14.936  1.00  0.00     0.134 A 
ATOM     62  F   UNL     1       3.159  -2.628  12.668  1.00  0.00    -0.206 F 
ATOM     63  C   UNL     1       3.524  -4.277  14.301  1.00  0.00     0.040 A 
ATOM     64  C   UNL     1       1.684  -5.090  15.626  1.00  0.00     0.040 A 
ATOM     65  F   UNL     1      -0.477  -4.250  15.272  1.00  0.00    -0.206 F 
ATOM     66  C   UNL     1       3.040  -5.113  15.306  1.00  0.00     0.006 A 
ENDBRANCH  45  59
BRANCH  46  67
ATOM     67  C   UNL     1      -5.090   2.570   9.124  1.00  0.00     0.057 A 
ATOM     68  C   UNL     1      -4.753   3.858   8.693  1.00  0.00     0.134 A 
ATOM     69  C   UNL     1      -6.404   2.138   8.902  1.00  0.00     0.134 A 
ATOM     70  F   UNL     1      -3.520   4.339   8.903  1.00  0.00    -0.206 F 
ATOM     71  C   UNL     1      -5.690   4.689   8.075  1.00  0.00     0.040 A 
ATOM     72  C   UNL     1      -7.342   2.948   8.262  1.00  0.00     0.040 A 
ATOM     73  F   UNL     1      -6.789   0.914   9.294  1.00  0.00    -0.206 F 
ATOM     74  C   UNL     1      -6.988   4.231   7.853  1.00  0.00     0.006 A 
ENDBRANCH  46  67
BRANCH  58  75
ATOM     75  C   UNL     1      -2.222   2.722  15.451  1.00  0.00     0.057 A 
ATOM     76  C   UNL     1      -3.367   2.729  16.256  1.00  0.00     0.134 A 
ATOM     77  C   UNL     1      -1.192   3.613  15.774  1.00  0.00     0.134 A 
ATOM     78  F   UNL     1      -4.393   1.908  15.987  1.00  0.00    -0.206 F 
ATOM     79  C   UNL     1      -3.489   3.604  17.337  1.00  0.00     0.040 A 
ATOM     80  C   UNL     1      -1.295   4.479  16.863  1.00  0.00     0.040 A 
ATOM     81  F   UNL     1      -0.068   3.649  15.043  1.00  0.00    -0.206 F 
ATOM     82  C   UNL     1      -2.449   4.478  17.645  1.00  0.00     0.006 A 
ENDBRANCH  58  75
ENDBRANCH  32  33
ENDBRANCH  25  27
ENDBRANCH  24  25
ENDBRANCH  23  24
ENDBRANCH   1  23
TORSDOF 16
