REMARK SMILES COc1ccc([C@H](C)[N@H+]2CC[C@H](C(=O)OCCOC(=O)c3ccc(-c4c5nc(c(-c6c(F)cccc6F)c6ccc([nH]6)c(-c6c(F)cccc6F)c6nc(c(-c7c(F)cccc7F)c7ccc4[nH]7)C=C6)C=C5)cc3)[C@@H]2C)cc1
REMARK SMILES IDX 16 1 15 2 13 3 14 4 12 5 9 6 10 7 75 8 11 10 76 11 7 12 8 13
REMARK SMILES IDX 6 14 3 15 4 16 78 17 5 18 77 19 2 20 1 21 17 22 18 23 19 24
REMARK SMILES IDX 20 25 21 26 22 27 74 28 23 29 73 30 24 31 25 32 26 33 67 34
REMARK SMILES IDX 27 35 72 36 66 37 68 38 28 39 71 40 65 41 64 42 29 44 55 45
REMARK SMILES IDX 38 46 54 47 39 48 42 49 53 50 69 51 40 52 41 53 52 55 70 56
REMARK SMILES IDX 43 57 30 58 31 59 36 60 32 61 33 62 35 63 37 64 34 65 56 66
REMARK SMILES IDX 57 67 62 68 58 69 59 70 61 71 63 72 60 73 44 74 45 75 50 76
REMARK SMILES IDX 46 77 47 78 49 79 51 80 48 81
REMARK H PARENT 9 9 68 43 42 54
REMARK Flexibility Score: inf
ROOT
ATOM      1  C   UNL     1      -3.884   5.974  -4.338  1.00  0.00     0.274 C 
ENDROOT
BRANCH   1   2
ATOM      2  O   UNL     1      -2.739   5.366  -3.707  1.00  0.00    -0.462 OA
BRANCH   2   3
ATOM      3  C   UNL     1      -1.720   4.970  -4.529  1.00  0.00     0.315 C 
ATOM      4  O   UNL     1      -1.659   5.213  -5.723  1.00  0.00    -0.252 OA
BRANCH   3   5
ATOM      5  C   UNL     1      -0.780   4.064  -3.750  1.00  0.00     0.162 C 
ATOM      6  N   UNL     1       0.703   3.037  -5.295  1.00  0.00    -0.326 N 
ATOM      7  C   UNL     1      -0.493   2.197  -5.226  1.00  0.00     0.264 C 
ATOM      8  C   UNL     1       0.688   3.991  -4.183  1.00  0.00     0.196 C 
ATOM      9  H   UNL     1       0.653   3.583  -6.154  1.00  0.00     0.348 HD
ATOM     10  C   UNL     1      -1.231   2.625  -3.964  1.00  0.00     0.083 C 
ATOM     11  C   UNL     1       1.349   5.310  -4.546  1.00  0.00     0.076 C 
BRANCH   6  12
ATOM     12  C   UNL     1       1.973   2.360  -5.594  1.00  0.00     0.212 C 
ATOM     13  C   UNL     1       2.434   1.392  -4.490  1.00  0.00     0.081 C 
BRANCH  12  14
ATOM     14  C   UNL     1       1.908   1.734  -6.989  1.00  0.00     0.009 A 
ATOM     15  C   UNL     1       1.506   0.733  -9.582  1.00  0.00     0.118 A 
ATOM     16  C   UNL     1       1.862   2.066  -9.405  1.00  0.00     0.047 A 
ATOM     17  C   UNL     1       1.425  -0.124  -8.488  1.00  0.00     0.047 A 
ATOM     18  C   UNL     1       2.047   2.567  -8.114  1.00  0.00     0.013 A 
ATOM     19  C   UNL     1       1.621   0.375  -7.198  1.00  0.00     0.013 A 
BRANCH  15  20
ATOM     20  O   UNL     1       1.264   0.309 -10.861  1.00  0.00    -0.497 OA
ATOM     21  C   UNL     1      -0.056  -0.224 -10.988  1.00  0.00     0.278 C 
ENDBRANCH  15  20
ENDBRANCH  12  14
ENDBRANCH   6  12
ENDBRANCH   3   5
ENDBRANCH   2   3
ENDBRANCH   1   2
BRANCH   1  22
ATOM     22  C   UNL     1      -3.883   7.488  -4.157  1.00  0.00     0.275 C 
BRANCH  22  23
ATOM     23  O   UNL     1      -2.886   8.079  -5.006  1.00  0.00    -0.458 OA
BRANCH  23  24
ATOM     24  C   UNL     1      -1.846   8.666  -4.375  1.00  0.00     0.338 C 
ATOM     25  O   UNL     1      -1.672   8.800  -3.178  1.00  0.00    -0.246 OA
BRANCH  24  26
ATOM     26  C   UNL     1      -0.879   9.122  -5.383  1.00  0.00     0.060 A 
ATOM     27  C   UNL     1      -0.098   8.174  -6.035  1.00  0.00     0.016 A 
ATOM     28  C   UNL     1      -0.664  10.481  -5.599  1.00  0.00     0.016 A 
ATOM     29  C   UNL     1       0.961   8.573  -6.844  1.00  0.00     0.010 A 
ATOM     30  C   UNL     1       0.343  10.882  -6.486  1.00  0.00     0.010 A 
ATOM     31  C   UNL     1       1.188   9.933  -7.093  1.00  0.00    -0.014 A 
BRANCH  31  32
ATOM     32  C   UNL     1       2.326  10.360  -7.952  1.00  0.00     0.031 A 
ATOM     33  C   UNL     1       3.402  11.251  -7.393  1.00  0.00     0.074 A 
ATOM     34  C   UNL     1       2.417   9.939  -9.230  1.00  0.00     0.049 A 
ATOM     35  N   UNL     1       4.359  11.888  -8.020  1.00  0.00    -0.248 NA
ATOM     36  C   UNL     1       3.394  11.466  -5.937  1.00  0.00     0.031 C 
ATOM     37  C   UNL     1       1.480   9.034  -9.896  1.00  0.00     0.029 A 
ATOM     38  N   UNL     1       3.354  10.213 -10.196  1.00  0.00    -0.354 N 
ATOM     39  C   UNL     1       5.018  12.632  -7.051  1.00  0.00     0.074 A 
ATOM     40  C   UNL     1       4.367  12.355  -5.789  1.00  0.00     0.031 C 
ATOM     41  C   UNL     1       1.911   8.793 -11.143  1.00  0.00     0.029 A 
ATOM     42  C   UNL     1       3.105   9.592 -11.395  1.00  0.00     0.049 A 
ATOM     43  H   UNL     1       4.131  10.799 -10.043  1.00  0.00     0.167 HD
ATOM     44  C   UNL     1       6.066  13.477  -7.204  1.00  0.00     0.037 A 
ATOM     45  C   UNL     1       3.739   9.684 -12.579  1.00  0.00     0.037 A 
ATOM     46  C   UNL     1       6.763  13.695  -8.444  1.00  0.00     0.049 A 
ATOM     47  C   UNL     1       4.903  10.619 -12.723  1.00  0.00     0.074 A 
ATOM     48  C   UNL     1       7.846  14.521  -8.692  1.00  0.00     0.029 A 
ATOM     49  N   UNL     1       6.460  13.063  -9.639  1.00  0.00    -0.354 N 
ATOM     50  N   UNL     1       5.461  11.387 -11.819  1.00  0.00    -0.248 NA
ATOM     51  C   UNL     1       5.505  10.726 -14.060  1.00  0.00     0.031 C 
ATOM     52  C   UNL     1       8.187  14.403 -10.044  1.00  0.00     0.029 A 
ATOM     53  C   UNL     1       7.332  13.484 -10.629  1.00  0.00     0.049 A 
ATOM     54  H   UNL     1       5.733  12.411  -9.765  1.00  0.00     0.167 HD
ATOM     55  C   UNL     1       6.468  12.077 -12.477  1.00  0.00     0.074 A 
ATOM     56  C   UNL     1       6.468  11.614 -13.850  1.00  0.00     0.031 C 
ATOM     57  C   UNL     1       7.308  13.022 -11.992  1.00  0.00     0.037 A 
BRANCH  44  58
ATOM     58  C   UNL     1       6.501  14.262  -6.004  1.00  0.00     0.057 A 
ATOM     59  C   UNL     1       7.261  13.694  -4.976  1.00  0.00     0.134 A 
ATOM     60  C   UNL     1       6.183  15.623  -5.902  1.00  0.00     0.134 A 
ATOM     61  F   UNL     1       7.583  12.393  -5.008  1.00  0.00    -0.206 F 
ATOM     62  C   UNL     1       7.680  14.451  -3.879  1.00  0.00     0.040 A 
ATOM     63  C   UNL     1       6.612  16.394  -4.821  1.00  0.00     0.040 A 
ATOM     64  F   UNL     1       5.459  16.226  -6.857  1.00  0.00    -0.206 F 
ATOM     65  C   UNL     1       7.361  15.806  -3.804  1.00  0.00     0.006 A 
ENDBRANCH  44  58
BRANCH  45  66
ATOM     66  C   UNL     1       3.245   8.903 -13.739  1.00  0.00     0.057 A 
ATOM     67  C   UNL     1       3.965   7.808 -14.230  1.00  0.00     0.134 A 
ATOM     68  C   UNL     1       2.038   9.222 -14.372  1.00  0.00     0.134 A 
ATOM     69  F   UNL     1       5.141   7.472 -13.681  1.00  0.00    -0.206 F 
ATOM     70  C   UNL     1       3.500   7.057 -15.311  1.00  0.00     0.040 A 
ATOM     71  C   UNL     1       1.551   8.466 -15.438  1.00  0.00     0.040 A 
ATOM     72  F   UNL     1       1.305  10.261 -13.947  1.00  0.00    -0.206 F 
ATOM     73  C   UNL     1       2.285   7.381 -15.912  1.00  0.00     0.006 A 
ENDBRANCH  45  66
BRANCH  57  74
ATOM     74  C   UNL     1       8.286  13.618 -12.955  1.00  0.00     0.057 A 
ATOM     75  C   UNL     1       7.892  14.590 -13.883  1.00  0.00     0.134 A 
ATOM     76  C   UNL     1       9.633  13.238 -12.941  1.00  0.00     0.134 A 
ATOM     77  F   UNL     1       6.611  14.984 -13.952  1.00  0.00    -0.206 F 
ATOM     78  C   UNL     1       8.803  15.153 -14.776  1.00  0.00     0.040 A 
ATOM     79  C   UNL     1      10.556  13.805 -13.820  1.00  0.00     0.040 A 
ATOM     80  F   UNL     1      10.071  12.314 -12.073  1.00  0.00    -0.206 F 
ATOM     81  C   UNL     1      10.141  14.764 -14.743  1.00  0.00     0.006 A 
ENDBRANCH  57  74
ENDBRANCH  31  32
ENDBRANCH  24  26
ENDBRANCH  23  24
ENDBRANCH  22  23
ENDBRANCH   1  22
TORSDOF 14
