REMARK SMILES CS(=O)(=O)c1ccc(C2=NN(c3ccc(C(=O)OCCOC(=O)c4ccc(-c5c6nc(c(-c7c(F)cccc7F)c7ccc([nH]7)c(-c7c(F)cccc7F)c7nc(c(-c8c(F)cccc8F)c8ccc5[nH]8)C=C7)C=C6)cc4)cc3)[C@H](c3ccccc3)C2)cc1
REMARK SMILES IDX 19 1 18 2 16 3 17 4 15 5 12 6 13 7 79 8 14 9 78 10 11 11
REMARK SMILES IDX 9 12 10 13 87 14 80 15 8 16 5 17 6 18 89 19 7 20 88 21 2 22
REMARK SMILES IDX 1 23 3 24 4 25 81 26 82 27 86 28 83 29 85 30 84 31 20 32
REMARK SMILES IDX 21 33 22 34 23 35 24 36 25 37 77 38 26 39 76 40 27 41 28 42
REMARK SMILES IDX 29 43 70 44 30 45 75 46 69 47 71 48 31 49 74 50 68 51 67 52
REMARK SMILES IDX 32 54 58 55 41 56 57 57 42 58 45 59 56 60 72 61 43 62 44 63
REMARK SMILES IDX 55 65 73 66 46 67 33 68 34 69 39 70 35 71 36 72 38 73 40 74
REMARK SMILES IDX 37 75 59 76 60 77 65 78 61 79 62 80 64 81 66 82 63 83 47 84
REMARK SMILES IDX 48 85 53 86 49 87 50 88 52 89 54 90 51 91
REMARK H PARENT 71 53 45 64
REMARK Flexibility Score: inf
ROOT
ATOM      1  C   UNL     1       9.448  11.824   4.927  1.00  0.00     0.275 C 
ENDROOT
BRANCH   1   2
ATOM      2  O   UNL     1       8.239  11.060   4.754  1.00  0.00    -0.458 OA
BRANCH   2   3
ATOM      3  C   UNL     1       7.580  11.259   3.587  1.00  0.00     0.338 C 
ATOM      4  O   UNL     1       7.892  12.041   2.702  1.00  0.00    -0.246 OA
BRANCH   3   5
ATOM      5  C   UNL     1       6.432  10.326   3.457  1.00  0.00     0.060 A 
ATOM      6  C   UNL     1       4.213   8.641   3.088  1.00  0.00     0.060 A 
ATOM      7  C   UNL     1       4.860   9.206   1.986  1.00  0.00     0.029 A 
ATOM      8  C   UNL     1       4.717   8.891   4.372  1.00  0.00     0.029 A 
ATOM      9  C   UNL     1       5.939  10.068   2.170  1.00  0.00     0.018 A 
ATOM     10  C   UNL     1       5.826   9.722   4.561  1.00  0.00     0.018 A 
BRANCH   6  11
ATOM     11  N   UNL     1       3.008   7.946   2.936  1.00  0.00    -0.257 N 
ATOM     12  C   UNL     1       1.904   6.596   1.700  1.00  0.00     0.071 C 
ATOM     13  N   UNL     1       3.038   6.736   2.313  1.00  0.00    -0.176 NA
ATOM     14  C   UNL     1       0.965   7.767   1.777  1.00  0.00     0.091 C 
ATOM     15  C   UNL     1       1.811   8.739   2.607  1.00  0.00     0.144 C 
BRANCH  12  16
ATOM     16  C   UNL     1       1.537   5.354   0.996  1.00  0.00    -0.002 A 
ATOM     17  C   UNL     1       0.870   2.948  -0.243  1.00  0.00     0.067 A 
ATOM     18  C   UNL     1       1.583   2.928   0.957  1.00  0.00     0.021 A 
ATOM     19  C   UNL     1       0.500   4.166  -0.832  1.00  0.00     0.021 A 
ATOM     20  C   UNL     1       1.924   4.136   1.568  1.00  0.00     0.011 A 
ATOM     21  C   UNL     1       0.827   5.373  -0.207  1.00  0.00     0.011 A 
BRANCH  17  22
ATOM     22  S   UNL     1       0.390   1.456  -1.083  1.00  0.00     0.175 S 
ATOM     23  C   UNL     1       1.058   0.093  -0.171  1.00  0.00     0.163 C 
ATOM     24  O   UNL     1       1.051   1.482  -2.373  1.00  0.00    -0.224 OA
ATOM     25  O   UNL     1      -1.055   1.384  -0.980  1.00  0.00    -0.224 OA
ENDBRANCH  17  22
ENDBRANCH  12  16
BRANCH  15  26
ATOM     26  C   UNL     1       1.218   9.323   3.878  1.00  0.00    -0.023 A 
ATOM     27  C   UNL     1       0.273   8.656   4.669  1.00  0.00     0.006 A 
ATOM     28  C   UNL     1       1.726  10.551   4.351  1.00  0.00     0.006 A 
ATOM     29  C   UNL     1      -0.155   9.203   5.883  1.00  0.00     0.000 A 
ATOM     30  C   UNL     1       1.320  11.082   5.575  1.00  0.00     0.000 A 
ATOM     31  C   UNL     1       0.375  10.408   6.340  1.00  0.00     0.000 A 
ENDBRANCH  15  26
ENDBRANCH   6  11
ENDBRANCH   3   5
ENDBRANCH   2   3
ENDBRANCH   1   2
BRANCH   1  32
ATOM     32  C   UNL     1      10.674  10.963   4.630  1.00  0.00     0.275 C 
BRANCH  32  33
ATOM     33  O   UNL     1      10.692  10.597   3.238  1.00  0.00    -0.458 OA
BRANCH  33  34
ATOM     34  C   UNL     1      10.602   9.274   2.975  1.00  0.00     0.338 C 
ATOM     35  O   UNL     1      10.572   8.352   3.770  1.00  0.00    -0.246 OA
BRANCH  34  36
ATOM     36  C   UNL     1      10.525   9.074   1.520  1.00  0.00     0.060 A 
ATOM     37  C   UNL     1       9.340   9.383   0.857  1.00  0.00     0.016 A 
ATOM     38  C   UNL     1      11.574   8.465   0.836  1.00  0.00     0.016 A 
ATOM     39  C   UNL     1       9.169   9.032  -0.480  1.00  0.00     0.010 A 
ATOM     40  C   UNL     1      11.429   8.176  -0.527  1.00  0.00     0.010 A 
ATOM     41  C   UNL     1      10.214   8.427  -1.192  1.00  0.00    -0.014 A 
BRANCH  41  42
ATOM     42  C   UNL     1      10.016   8.002  -2.606  1.00  0.00     0.031 A 
ATOM     43  C   UNL     1      10.124   6.547  -2.976  1.00  0.00     0.074 A 
ATOM     44  C   UNL     1       9.719   8.906  -3.560  1.00  0.00     0.049 A 
ATOM     45  N   UNL     1      10.151   5.991  -4.162  1.00  0.00    -0.248 NA
ATOM     46  C   UNL     1      10.227   5.590  -1.864  1.00  0.00     0.031 C 
ATOM     47  C   UNL     1       9.526  10.340  -3.342  1.00  0.00     0.029 A 
ATOM     48  N   UNL     1       9.519   8.747  -4.910  1.00  0.00    -0.354 N 
ATOM     49  C   UNL     1      10.332   4.631  -3.940  1.00  0.00     0.074 A 
ATOM     50  C   UNL     1      10.409   4.445  -2.506  1.00  0.00     0.031 C 
ATOM     51  C   UNL     1       9.197  10.922  -4.506  1.00  0.00     0.029 A 
ATOM     52  C   UNL     1       9.236   9.920  -5.566  1.00  0.00     0.049 A 
ATOM     53  H   UNL     1       9.574   7.875  -5.364  1.00  0.00     0.167 HD
ATOM     54  C   UNL     1      10.426   3.630  -4.848  1.00  0.00     0.037 A 
ATOM     55  C   UNL     1       9.063  10.171  -6.878  1.00  0.00     0.037 A 
ATOM     56  C   UNL     1      10.288   3.805  -6.270  1.00  0.00     0.049 A 
ATOM     57  C   UNL     1       9.210   9.052  -7.870  1.00  0.00     0.074 A 
ATOM     58  C   UNL     1      10.346   2.848  -7.269  1.00  0.00     0.029 A 
ATOM     59  N   UNL     1      10.047   5.019  -6.896  1.00  0.00    -0.354 N 
ATOM     60  N   UNL     1       9.442   7.780  -7.652  1.00  0.00    -0.248 NA
ATOM     61  C   UNL     1       9.098   9.409  -9.291  1.00  0.00     0.031 C 
ATOM     62  C   UNL     1      10.171   3.487  -8.501  1.00  0.00     0.029 A 
ATOM     63  C   UNL     1       9.968   4.837  -8.267  1.00  0.00     0.049 A 
ATOM     64  H   UNL     1       9.947   5.882  -6.434  1.00  0.00     0.167 HD
ATOM     65  C   UNL     1       9.492   7.184  -8.905  1.00  0.00     0.074 A 
ATOM     66  C   UNL     1       9.249   8.230  -9.878  1.00  0.00     0.031 C 
ATOM     67  C   UNL     1       9.723   5.887  -9.222  1.00  0.00     0.037 A 
BRANCH  54  68
ATOM     68  C   UNL     1      10.731   2.255  -4.329  1.00  0.00     0.057 A 
ATOM     69  C   UNL     1       9.780   1.484  -3.649  1.00  0.00     0.134 A 
ATOM     70  C   UNL     1      11.996   1.687  -4.535  1.00  0.00     0.134 A 
ATOM     71  F   UNL     1       8.555   1.974  -3.406  1.00  0.00    -0.206 F 
ATOM     72  C   UNL     1      10.084   0.208  -3.170  1.00  0.00     0.040 A 
ATOM     73  C   UNL     1      12.304   0.404  -4.082  1.00  0.00     0.040 A 
ATOM     74  F   UNL     1      12.951   2.370  -5.185  1.00  0.00    -0.206 F 
ATOM     75  C   UNL     1      11.348  -0.338  -3.391  1.00  0.00     0.006 A 
ENDBRANCH  54  68
BRANCH  55  76
ATOM     76  C   UNL     1       8.761  11.550  -7.335  1.00  0.00     0.057 A 
ATOM     77  C   UNL     1       7.504  11.878  -7.854  1.00  0.00     0.134 A 
ATOM     78  C   UNL     1       9.717  12.571  -7.264  1.00  0.00     0.134 A 
ATOM     79  F   UNL     1       6.556  10.937  -7.972  1.00  0.00    -0.206 F 
ATOM     80  C   UNL     1       7.208  13.171  -8.290  1.00  0.00     0.040 A 
ATOM     81  C   UNL     1       9.427  13.874  -7.672  1.00  0.00     0.040 A 
ATOM     82  F   UNL     1      10.942  12.320  -6.779  1.00  0.00    -0.206 F 
ATOM     83  C   UNL     1       8.169  14.175  -8.191  1.00  0.00     0.006 A 
ENDBRANCH  55  76
BRANCH  67  84
ATOM     84  C   UNL     1       9.697   5.526 -10.676  1.00  0.00     0.057 A 
ATOM     85  C   UNL     1      10.750   5.859 -11.536  1.00  0.00     0.134 A 
ATOM     86  C   UNL     1       8.617   4.818 -11.216  1.00  0.00     0.134 A 
ATOM     87  F   UNL     1      11.806   6.551 -11.082  1.00  0.00    -0.206 F 
ATOM     88  C   UNL     1      10.721   5.517 -12.889  1.00  0.00     0.040 A 
ATOM     89  C   UNL     1       8.585   4.452 -12.563  1.00  0.00     0.040 A 
ATOM     90  F   UNL     1       7.579   4.465 -10.444  1.00  0.00    -0.206 F 
ATOM     91  C   UNL     1       9.638   4.807 -13.405  1.00  0.00     0.006 A 
ENDBRANCH  67  84
ENDBRANCH  41  42
ENDBRANCH  34  36
ENDBRANCH  33  34
ENDBRANCH  32  33
ENDBRANCH   1  32
TORSDOF 15
