REMARK SMILES Cc1cc(SCC(=O)OCCOC(=O)c2ccc(-c3c4nc(c(-c5c(F)cccc5F)c5ccc([nH]5)c(-c5c(F)cccc5F)c5nc(c(-c6c(F)cccc6F)c6ccc3[nH]6)C=C5)C=C4)cc2)c2cc(I)ccc2n1
REMARK SMILES IDX 10 1 9 2 7 3 8 4 6 5 5 6 4 7 1 8 2 9 3 10 76 11 75 12 69 13
REMARK SMILES IDX 74 14 70 15 73 16 71 17 72 18 11 19 12 20 13 21 14 22 15 23
REMARK SMILES IDX 16 24 68 25 17 26 67 27 18 28 19 29 20 30 61 31 21 32 66 33
REMARK SMILES IDX 60 34 62 35 22 36 65 37 59 38 58 39 23 41 49 42 32 43 48 44
REMARK SMILES IDX 33 45 36 46 47 47 63 48 34 49 35 50 46 52 64 53 37 54 24 55
REMARK SMILES IDX 25 56 30 57 26 58 27 59 29 60 31 61 28 62 50 63 51 64 56 65
REMARK SMILES IDX 52 66 53 67 55 68 57 69 54 70 38 71 39 72 44 73 40 74 41 75
REMARK SMILES IDX 43 76 45 77 42 78
REMARK H PARENT 62 40 36 51
REMARK Flexibility Score: inf
ROOT
ATOM      1  C   UNL     1      -0.072  -4.576  -3.564  1.00  0.00     0.274 C 
ENDROOT
BRANCH   1   2
ATOM      2  O   UNL     1       0.353  -4.792  -2.204  1.00  0.00    -0.461 OA
BRANCH   2   3
ATOM      3  C   UNL     1       1.691  -4.791  -1.985  1.00  0.00     0.316 C 
ATOM      4  O   UNL     1       2.529  -4.546  -2.850  1.00  0.00    -0.251 OA
BRANCH   3   5
ATOM      5  C   UNL     1       2.117  -5.133  -0.573  1.00  0.00     0.197 C 
BRANCH   5   6
ATOM      6  S   UNL     1       0.783  -5.491   0.606  1.00  0.00    -0.114 SA
BRANCH   6   7
ATOM      7  C   UNL     1       0.371  -3.929   1.423  1.00  0.00     0.019 A 
ATOM      8  C   UNL     1       1.063  -0.205   1.257  1.00  0.00     0.067 C 
ATOM      9  C   UNL     1       0.522  -1.540   1.675  1.00  0.00     0.039 A 
ATOM     10  C   UNL     1       0.910  -2.705   1.026  1.00  0.00     0.039 A 
ATOM     11  N   UNL     1      -0.382  -1.533   2.673  1.00  0.00    -0.253 NA
ATOM     12  C   UNL     1      -0.913  -2.695   3.067  1.00  0.00     0.072 A 
ATOM     13  C   UNL     1      -0.565  -3.940   2.498  1.00  0.00     0.015 A 
ATOM     14  C   UNL     1      -1.851  -2.644   4.088  1.00  0.00     0.030 A 
ATOM     15  C   UNL     1      -1.171  -5.107   3.039  1.00  0.00     0.026 A 
ATOM     16  C   UNL     1      -2.449  -3.795   4.600  1.00  0.00     0.017 A 
ATOM     17  C   UNL     1      -2.096  -5.030   4.080  1.00  0.00     0.014 A 
ATOM     18  I   UNL     1      -2.939  -6.763   4.850  1.00  0.00    -0.044 I 
ENDBRANCH   6   7
ENDBRANCH   5   6
ENDBRANCH   3   5
ENDBRANCH   2   3
ENDBRANCH   1   2
BRANCH   1  19
ATOM     19  C   UNL     1      -0.467  -3.122  -3.811  1.00  0.00     0.275 C 
BRANCH  19  20
ATOM     20  O   UNL     1       0.659  -2.249  -3.605  1.00  0.00    -0.458 OA
BRANCH  20  21
ATOM     21  C   UNL     1       0.577  -1.468  -2.508  1.00  0.00     0.338 C 
ATOM     22  O   UNL     1      -0.340  -1.398  -1.709  1.00  0.00    -0.246 OA
BRANCH  21  23
ATOM     23  C   UNL     1       1.802  -0.672  -2.355  1.00  0.00     0.060 A 
ATOM     24  C   UNL     1       1.740   0.706  -2.559  1.00  0.00     0.016 A 
ATOM     25  C   UNL     1       2.957  -1.264  -1.837  1.00  0.00     0.016 A 
ATOM     26  C   UNL     1       2.853   1.493  -2.260  1.00  0.00     0.010 A 
ATOM     27  C   UNL     1       4.043  -0.470  -1.479  1.00  0.00     0.010 A 
ATOM     28  C   UNL     1       4.007   0.912  -1.708  1.00  0.00    -0.014 A 
BRANCH  28  29
ATOM     29  C   UNL     1       5.195   1.749  -1.422  1.00  0.00     0.031 A 
ATOM     30  C   UNL     1       6.392   1.670  -2.326  1.00  0.00     0.074 A 
ATOM     31  C   UNL     1       5.201   2.583  -0.366  1.00  0.00     0.049 A 
ATOM     32  N   UNL     1       7.460   2.425  -2.346  1.00  0.00    -0.248 NA
ATOM     33  C   UNL     1       6.391   0.599  -3.335  1.00  0.00     0.031 C 
ATOM     34  C   UNL     1       4.131   2.707   0.625  1.00  0.00     0.029 A 
ATOM     35  N   UNL     1       6.144   3.490   0.044  1.00  0.00    -0.354 N 
ATOM     36  C   UNL     1       8.234   1.947  -3.394  1.00  0.00     0.074 A 
ATOM     37  C   UNL     1       7.558   0.787  -3.930  1.00  0.00     0.031 C 
ATOM     38  C   UNL     1       4.471   3.652   1.520  1.00  0.00     0.029 A 
ATOM     39  C   UNL     1       5.773   4.205   1.157  1.00  0.00     0.049 A 
ATOM     40  H   UNL     1       7.005   3.618  -0.416  1.00  0.00     0.167 HD
ATOM     41  C   UNL     1       9.384   2.455  -3.896  1.00  0.00     0.037 A 
ATOM     42  C   UNL     1       6.403   5.211   1.790  1.00  0.00     0.037 A 
ATOM     43  C   UNL     1      10.069   3.596  -3.357  1.00  0.00     0.049 A 
ATOM     44  C   UNL     1       7.702   5.734   1.239  1.00  0.00     0.074 A 
ATOM     45  C   UNL     1      11.221   4.212  -3.814  1.00  0.00     0.029 A 
ATOM     46  N   UNL     1       9.667   4.286  -2.224  1.00  0.00    -0.354 N 
ATOM     47  N   UNL     1       8.362   5.352   0.173  1.00  0.00    -0.248 NA
ATOM     48  C   UNL     1       8.329   6.845   1.970  1.00  0.00     0.031 C 
ATOM     49  C   UNL     1      11.529   5.262  -2.941  1.00  0.00     0.029 A 
ATOM     50  C   UNL     1      10.556   5.311  -1.956  1.00  0.00     0.049 A 
ATOM     51  H   UNL     1       8.867   4.077  -1.690  1.00  0.00     0.167 HD
ATOM     52  C   UNL     1       9.459   6.198   0.084  1.00  0.00     0.074 A 
ATOM     53  C   UNL     1       9.376   7.114   1.203  1.00  0.00     0.031 C 
ATOM     54  C   UNL     1      10.446   6.220  -0.845  1.00  0.00     0.037 A 
BRANCH  41  55
ATOM     55  C   UNL     1       9.937   1.788  -5.116  1.00  0.00     0.057 A 
ATOM     56  C   UNL     1      11.062   0.960  -5.046  1.00  0.00     0.134 A 
ATOM     57  C   UNL     1       9.335   1.965  -6.370  1.00  0.00     0.134 A 
ATOM     58  F   UNL     1      11.679   0.747  -3.874  1.00  0.00    -0.206 F 
ATOM     59  C   UNL     1      11.567   0.326  -6.182  1.00  0.00     0.040 A 
ATOM     60  C   UNL     1       9.820   1.323  -7.508  1.00  0.00     0.040 A 
ATOM     61  F   UNL     1       8.241   2.732  -6.495  1.00  0.00    -0.206 F 
ATOM     62  C   UNL     1      10.942   0.502  -7.416  1.00  0.00     0.006 A 
ENDBRANCH  41  55
BRANCH  42  63
ATOM     63  C   UNL     1       5.794   5.844   2.984  1.00  0.00     0.057 A 
ATOM     64  C   UNL     1       5.818   5.216   4.233  1.00  0.00     0.134 A 
ATOM     65  C   UNL     1       5.212   7.114   2.907  1.00  0.00     0.134 A 
ATOM     66  F   UNL     1       6.364   3.999   4.369  1.00  0.00    -0.206 F 
ATOM     67  C   UNL     1       5.292   5.834   5.369  1.00  0.00     0.040 A 
ATOM     68  C   UNL     1       4.696   7.750   4.036  1.00  0.00     0.040 A 
ATOM     69  F   UNL     1       5.180   7.771   1.738  1.00  0.00    -0.206 F 
ATOM     70  C   UNL     1       4.736   7.109   5.273  1.00  0.00     0.006 A 
ENDBRANCH  42  63
BRANCH  54  71
ATOM     71  C   UNL     1      11.488   7.285  -0.706  1.00  0.00     0.057 A 
ATOM     72  C   UNL     1      11.486   8.399  -1.554  1.00  0.00     0.134 A 
ATOM     73  C   UNL     1      12.510   7.193   0.246  1.00  0.00     0.134 A 
ATOM     74  F   UNL     1      10.534   8.542  -2.489  1.00  0.00    -0.206 F 
ATOM     75  C   UNL     1      12.467   9.386  -1.460  1.00  0.00     0.040 A 
ATOM     76  C   UNL     1      13.486   8.182   0.361  1.00  0.00     0.040 A 
ATOM     77  F   UNL     1      12.555   6.156   1.096  1.00  0.00    -0.206 F 
ATOM     78  C   UNL     1      13.469   9.281  -0.498  1.00  0.00     0.006 A 
ENDBRANCH  54  71
ENDBRANCH  28  29
ENDBRANCH  21  23
ENDBRANCH  20  21
ENDBRANCH  19  20
ENDBRANCH   1  19
TORSDOF 13
