REMARK SMILES CC[C@@H]([NH3+])C(=O)N1CC[C@H](C(=O)OCCOC(=O)c2ccc(-c3c4nc(c(-c5c(F)cccc5F)c5ccc([nH]5)c(-c5c(F)cccc5F)c5nc(c(-c6c(F)cccc6F)c6ccc3[nH]6)C=C5)C=C4)cc2)[C@@H]1C
REMARK SMILES IDX 14 1 13 2 11 3 12 4 10 5 7 6 8 7 73 8 9 9 74 10 5 11 6 12
REMARK SMILES IDX 3 13 2 14 1 15 4 16 15 20 16 21 17 22 18 23 19 24 20 25
REMARK SMILES IDX 72 26 21 27 71 28 22 29 23 30 24 31 65 32 25 33 70 34 64 35
REMARK SMILES IDX 66 36 26 37 69 38 63 39 62 40 27 42 53 43 36 44 52 45 37 46
REMARK SMILES IDX 40 47 51 48 67 49 38 50 39 51 50 53 68 54 41 55 28 56 29 57
REMARK SMILES IDX 34 58 30 59 31 60 33 61 35 62 32 63 54 64 55 65 60 66 56 67
REMARK SMILES IDX 57 68 59 69 61 70 58 71 42 72 43 73 48 74 44 75 45 76 47 77
REMARK SMILES IDX 49 78 46 79
REMARK H PARENT 4 17 4 18 4 19 66 41 40 52
REMARK Flexibility Score: inf
ROOT
ATOM      1  C   UNL     1      -5.897   4.978  -1.360  1.00  0.00     0.274 C 
ENDROOT
BRANCH   1   2
ATOM      2  O   UNL     1      -5.276   3.728  -1.746  1.00  0.00    -0.462 OA
BRANCH   2   3
ATOM      3  C   UNL     1      -4.280   3.834  -2.672  1.00  0.00     0.311 C 
ATOM      4  O   UNL     1      -3.904   4.895  -3.155  1.00  0.00    -0.252 OA
BRANCH   3   5
ATOM      5  C   UNL     1      -3.726   2.463  -3.068  1.00  0.00     0.123 C 
ATOM      6  N   UNL     1      -1.327   2.452  -3.029  1.00  0.00    -0.334 N 
ATOM      7  C   UNL     1      -1.762   3.118  -4.250  1.00  0.00     0.121 C 
ATOM      8  C   UNL     1      -2.493   1.944  -2.279  1.00  0.00     0.096 C 
ATOM      9  C   UNL     1      -3.166   2.576  -4.489  1.00  0.00     0.039 C 
ATOM     10  C   UNL     1      -2.538   2.300  -0.796  1.00  0.00     0.032 C 
BRANCH   6  11
ATOM     11  C   UNL     1       0.023   2.166  -2.939  1.00  0.00     0.280 C 
ATOM     12  O   UNL     1       0.832   2.862  -3.571  1.00  0.00    -0.268 OA
BRANCH  11  13
ATOM     13  C   UNL     1       0.565   0.902  -2.223  1.00  0.00     0.270 C 
BRANCH  13  14
ATOM     14  C   UNL     1       0.369   0.815  -0.714  1.00  0.00     0.072 C 
ATOM     15  C   UNL     1       1.315  -0.173  -0.041  1.00  0.00     0.011 C 
ENDBRANCH  13  14
BRANCH  13  16
ATOM     16  N   UNL     1       0.071  -0.305  -2.923  1.00  0.00    -0.347 N 
ATOM     17  H   UNL     1      -0.945  -0.354  -2.840  1.00  0.00     0.345 HD
ATOM     18  H   UNL     1       0.487  -1.136  -2.503  1.00  0.00     0.345 HD
ATOM     19  H   UNL     1       0.329  -0.256  -3.909  1.00  0.00     0.345 HD
ENDBRANCH  13  16
ENDBRANCH  11  13
ENDBRANCH   6  11
ENDBRANCH   3   5
ENDBRANCH   2   3
ENDBRANCH   1   2
BRANCH   1  20
ATOM     20  C   UNL     1      -5.312   5.508  -0.050  1.00  0.00     0.275 C 
BRANCH  20  21
ATOM     21  O   UNL     1      -3.909   5.752  -0.229  1.00  0.00    -0.458 OA
BRANCH  21  22
ATOM     22  C   UNL     1      -3.180   5.882   0.906  1.00  0.00     0.338 C 
ATOM     23  O   UNL     1      -3.623   5.966   2.038  1.00  0.00    -0.246 OA
BRANCH  22  24
ATOM     24  C   UNL     1      -1.728   5.817   0.579  1.00  0.00     0.060 A 
ATOM     25  C   UNL     1      -1.287   5.384  -0.672  1.00  0.00     0.016 A 
ATOM     26  C   UNL     1      -0.781   6.109   1.566  1.00  0.00     0.016 A 
ATOM     27  C   UNL     1       0.067   5.157  -0.906  1.00  0.00     0.010 A 
ATOM     28  C   UNL     1       0.589   5.973   1.293  1.00  0.00     0.010 A 
ATOM     29  C   UNL     1       1.033   5.470   0.058  1.00  0.00    -0.014 A 
BRANCH  29  30
ATOM     30  C   UNL     1       2.484   5.269  -0.235  1.00  0.00     0.031 A 
ATOM     31  C   UNL     1       3.348   4.428   0.670  1.00  0.00     0.074 A 
ATOM     32  C   UNL     1       3.043   5.821  -1.332  1.00  0.00     0.049 A 
ATOM     33  N   UNL     1       4.652   4.304   0.689  1.00  0.00    -0.248 NA
ATOM     34  C   UNL     1       2.659   3.633   1.698  1.00  0.00     0.031 C 
ATOM     35  C   UNL     1       2.338   6.618  -2.338  1.00  0.00     0.029 A 
ATOM     36  N   UNL     1       4.336   5.780  -1.797  1.00  0.00    -0.354 N 
ATOM     37  C   UNL     1       4.944   3.482   1.770  1.00  0.00     0.074 A 
ATOM     38  C   UNL     1       3.679   3.120   2.374  1.00  0.00     0.031 C 
ATOM     39  C   UNL     1       3.184   6.928  -3.331  1.00  0.00     0.029 A 
ATOM     40  C   UNL     1       4.516   6.449  -2.984  1.00  0.00     0.049 A 
ATOM     41  H   UNL     1       5.064   5.316  -1.324  1.00  0.00     0.167 HD
ATOM     42  C   UNL     1       6.155   3.077   2.222  1.00  0.00     0.037 A 
ATOM     43  C   UNL     1       5.629   6.695  -3.700  1.00  0.00     0.037 A 
ATOM     44  C   UNL     1       7.411   3.373   1.581  1.00  0.00     0.049 A 
ATOM     45  C   UNL     1       6.958   6.238  -3.179  1.00  0.00     0.074 A 
ATOM     46  C   UNL     1       8.688   2.995   1.965  1.00  0.00     0.029 A 
ATOM     47  N   UNL     1       7.549   4.096   0.406  1.00  0.00    -0.354 N 
ATOM     48  N   UNL     1       7.229   5.552  -2.097  1.00  0.00    -0.248 NA
ATOM     49  C   UNL     1       8.141   6.623  -3.962  1.00  0.00     0.031 C 
ATOM     50  C   UNL     1       9.599   3.508   1.035  1.00  0.00     0.029 A 
ATOM     51  C   UNL     1       8.887   4.178   0.054  1.00  0.00     0.049 A 
ATOM     52  H   UNL     1       6.806   4.493  -0.103  1.00  0.00     0.167 HD
ATOM     53  C   UNL     1       8.610   5.432  -2.061  1.00  0.00     0.074 A 
ATOM     54  C   UNL     1       9.121   6.086  -3.248  1.00  0.00     0.031 C 
ATOM     55  C   UNL     1       9.386   4.845  -1.119  1.00  0.00     0.037 A 
BRANCH  42  56
ATOM     56  C   UNL     1       6.193   2.295   3.502  1.00  0.00     0.057 A 
ATOM     57  C   UNL     1       5.826   0.947   3.565  1.00  0.00     0.134 A 
ATOM     58  C   UNL     1       6.659   2.896   4.680  1.00  0.00     0.134 A 
ATOM     59  F   UNL     1       5.359   0.317   2.477  1.00  0.00    -0.206 F 
ATOM     60  C   UNL     1       5.909   0.225   4.759  1.00  0.00     0.040 A 
ATOM     61  C   UNL     1       6.766   2.181   5.873  1.00  0.00     0.040 A 
ATOM     62  F   UNL     1       7.032   4.185   4.685  1.00  0.00    -0.206 F 
ATOM     63  C   UNL     1       6.388   0.841   5.915  1.00  0.00     0.006 A 
ENDBRANCH  42  56
BRANCH  43  64
ATOM     64  C   UNL     1       5.535   7.466  -4.964  1.00  0.00     0.057 A 
ATOM     65  C   UNL     1       5.748   6.850  -6.202  1.00  0.00     0.134 A 
ATOM     66  C   UNL     1       5.216   8.830  -4.965  1.00  0.00     0.134 A 
ATOM     67  F   UNL     1       6.087   5.554  -6.263  1.00  0.00    -0.206 F 
ATOM     68  C   UNL     1       5.646   7.564  -7.398  1.00  0.00     0.040 A 
ATOM     69  C   UNL     1       5.085   9.548  -6.154  1.00  0.00     0.040 A 
ATOM     70  F   UNL     1       5.004   9.477  -3.810  1.00  0.00    -0.206 F 
ATOM     71  C   UNL     1       5.303   8.915  -7.375  1.00  0.00     0.006 A 
ENDBRANCH  43  64
BRANCH  55  72
ATOM     72  C   UNL     1      10.867   4.888  -1.342  1.00  0.00     0.057 A 
ATOM     73  C   UNL     1      11.603   6.061  -1.133  1.00  0.00     0.134 A 
ATOM     74  C   UNL     1      11.562   3.750  -1.766  1.00  0.00     0.134 A 
ATOM     75  F   UNL     1      10.990   7.188  -0.742  1.00  0.00    -0.206 F 
ATOM     76  C   UNL     1      12.979   6.106  -1.361  1.00  0.00     0.040 A 
ATOM     77  C   UNL     1      12.941   3.778  -1.978  1.00  0.00     0.040 A 
ATOM     78  F   UNL     1      10.914   2.595  -1.980  1.00  0.00    -0.206 F 
ATOM     79  C   UNL     1      13.652   4.960  -1.782  1.00  0.00     0.006 A 
ENDBRANCH  55  72
ENDBRANCH  29  30
ENDBRANCH  22  24
ENDBRANCH  21  22
ENDBRANCH  20  21
ENDBRANCH   1  20
TORSDOF 15
