REMARK SMILES O=C(NC1(C(=O)OCCOC(=O)c2ccc(-c3c4nc(c(-c5c(F)cccc5F)c5ccc([nH]5)c(-c5c(F)cccc5F)c5nc(c(-c6c(F)cccc6F)c6ccc3[nH]6)C=C5)C=C4)cc2)CC[NH2+]CC1)OCC1c2ccccc2-c2ccccc21
REMARK SMILES IDX 8 1 7 2 5 3 6 4 4 5 67 6 71 7 68 8 70 9 69 10 3 13 1 14 2 15
REMARK SMILES IDX 72 17 73 18 74 19 75 20 86 21 76 22 80 23 81 24 85 25 77 26
REMARK SMILES IDX 79 27 82 28 84 29 78 30 83 31 9 32 10 33 11 34 12 35 13 36
REMARK SMILES IDX 14 37 66 38 15 39 65 40 16 41 17 42 18 43 59 44 19 45 64 46
REMARK SMILES IDX 58 47 60 48 20 49 63 50 57 51 56 52 21 54 47 55 30 56 46 57
REMARK SMILES IDX 31 58 34 59 45 60 61 61 32 62 33 63 44 65 62 66 35 67 22 68
REMARK SMILES IDX 23 69 28 70 24 71 25 72 27 73 29 74 26 75 48 76 49 77 54 78
REMARK SMILES IDX 50 79 51 80 53 81 55 82 52 83 36 84 37 85 42 86 38 87 39 88
REMARK SMILES IDX 41 89 43 90 40 91
REMARK H PARENT 69 11 69 12 3 16 60 53 34 64
REMARK Flexibility Score: inf
ROOT
ATOM      1  C   UNL     1       6.597  -3.935   0.020  1.00  0.00     0.274 C 
ENDROOT
BRANCH   1   2
ATOM      2  O   UNL     1       6.234  -2.594  -0.370  1.00  0.00    -0.460 OA
BRANCH   2   3
ATOM      3  C   UNL     1       5.151  -2.480  -1.186  1.00  0.00     0.332 C 
ATOM      4  O   UNL     1       4.458  -3.430  -1.546  1.00  0.00    -0.249 OA
BRANCH   3   5
ATOM      5  C   UNL     1       4.841  -1.026  -1.611  1.00  0.00     0.151 C 
ATOM      6  C   UNL     1       5.944  -0.019  -1.256  1.00  0.00     0.102 C 
ATOM      7  C   UNL     1       4.763  -1.033  -3.157  1.00  0.00     0.102 C 
ATOM      8  C   UNL     1       5.606   1.368  -1.787  1.00  0.00     0.263 C 
ATOM      9  C   UNL     1       4.520   0.370  -3.716  1.00  0.00     0.263 C 
ATOM     10  N   UNL     1       5.510   1.337  -3.246  1.00  0.00    -0.346 N 
ATOM     11  H   UNL     1       6.421   1.085  -3.630  1.00  0.00     0.346 HD
ATOM     12  H   UNL     1       5.216   2.262  -3.560  1.00  0.00     0.346 HD
BRANCH   5  13
ATOM     13  N   UNL     1       3.498  -0.672  -1.081  1.00  0.00    -0.305 N 
ATOM     14  O   UNL     1       2.001   0.139   0.400  1.00  0.00    -0.225 OA
ATOM     15  C   UNL     1       3.160  -0.155   0.133  1.00  0.00     0.408 C 
ATOM     16  H   UNL     1       2.745  -0.834  -1.695  1.00  0.00     0.168 HD
BRANCH  15  17
ATOM     17  O   UNL     1       4.212  -0.000   0.958  1.00  0.00    -0.449 OA
BRANCH  17  18
ATOM     18  C   UNL     1       3.971   0.720   2.177  1.00  0.00     0.248 C 
BRANCH  18  19
ATOM     19  C   UNL     1       5.270   1.330   2.748  1.00  0.00     0.088 C 
ATOM     20  C   UNL     1       6.580   0.616   2.417  1.00  0.00    -0.029 A 
ATOM     21  C   UNL     1       5.539   2.724   2.181  1.00  0.00    -0.029 A 
ATOM     22  C   UNL     1       6.955  -0.690   2.688  1.00  0.00     0.005 A 
ATOM     23  C   UNL     1       7.460   1.496   1.743  1.00  0.00    -0.014 A 
ATOM     24  C   UNL     1       6.809   2.776   1.574  1.00  0.00    -0.014 A 
ATOM     25  C   UNL     1       4.716   3.840   2.224  1.00  0.00     0.005 A 
ATOM     26  C   UNL     1       8.226  -1.113   2.278  1.00  0.00     0.000 A 
ATOM     27  C   UNL     1       8.722   1.078   1.345  1.00  0.00     0.009 A 
ATOM     28  C   UNL     1       7.235   3.927   0.933  1.00  0.00     0.009 A 
ATOM     29  C   UNL     1       5.149   5.003   1.587  1.00  0.00     0.000 A 
ATOM     30  C   UNL     1       9.102  -0.238   1.616  1.00  0.00     0.001 A 
ATOM     31  C   UNL     1       6.390   5.041   0.932  1.00  0.00     0.001 A 
ENDBRANCH  18  19
ENDBRANCH  17  18
ENDBRANCH  15  17
ENDBRANCH   5  13
ENDBRANCH   3   5
ENDBRANCH   2   3
ENDBRANCH   1   2
BRANCH   1  32
ATOM     32  C   UNL     1       6.019  -4.308   1.383  1.00  0.00     0.275 C 
BRANCH  32  33
ATOM     33  O   UNL     1       4.588  -4.225   1.342  1.00  0.00    -0.458 OA
BRANCH  33  34
ATOM     34  C   UNL     1       3.994  -3.702   2.438  1.00  0.00     0.338 C 
ATOM     35  O   UNL     1       4.530  -3.369   3.482  1.00  0.00    -0.246 OA
BRANCH  34  36
ATOM     36  C   UNL     1       2.540  -3.594   2.207  1.00  0.00     0.060 A 
ATOM     37  C   UNL     1       2.048  -3.134   0.987  1.00  0.00     0.016 A 
ATOM     38  C   UNL     1       1.659  -3.879   3.250  1.00  0.00     0.016 A 
ATOM     39  C   UNL     1       0.688  -2.879   0.831  1.00  0.00     0.010 A 
ATOM     40  C   UNL     1       0.284  -3.726   3.055  1.00  0.00     0.010 A 
ATOM     41  C   UNL     1      -0.216  -3.201   1.850  1.00  0.00    -0.014 A 
BRANCH  41  42
ATOM     42  C   UNL     1      -1.679  -3.007   1.663  1.00  0.00     0.031 A 
ATOM     43  C   UNL     1      -2.456  -2.139   2.615  1.00  0.00     0.074 A 
ATOM     44  C   UNL     1      -2.318  -3.640   0.659  1.00  0.00     0.049 A 
ATOM     45  N   UNL     1      -3.751  -2.031   2.769  1.00  0.00    -0.248 NA
ATOM     46  C   UNL     1      -1.671  -1.297   3.531  1.00  0.00     0.031 C 
ATOM     47  C   UNL     1      -1.680  -4.481  -0.356  1.00  0.00     0.029 A 
ATOM     48  N   UNL     1      -3.650  -3.683   0.331  1.00  0.00    -0.354 N 
ATOM     49  C   UNL     1      -3.935  -1.162   3.838  1.00  0.00     0.074 A 
ATOM     50  C   UNL     1      -2.618  -0.770   4.295  1.00  0.00     0.031 C 
ATOM     51  C   UNL     1      -2.612  -4.928  -1.210  1.00  0.00     0.029 A 
ATOM     52  C   UNL     1      -3.922  -4.487  -0.749  1.00  0.00     0.049 A 
ATOM     53  H   UNL     1      -4.343  -3.185   0.822  1.00  0.00     0.167 HD
ATOM     54  C   UNL     1      -5.099  -0.737   4.387  1.00  0.00     0.037 A 
ATOM     55  C   UNL     1      -5.096  -4.872  -1.282  1.00  0.00     0.037 A 
ATOM     56  C   UNL     1      -6.403  -1.090   3.885  1.00  0.00     0.049 A 
ATOM     57  C   UNL     1      -6.371  -4.407  -0.643  1.00  0.00     0.074 A 
ATOM     58  C   UNL     1      -7.645  -0.690   4.348  1.00  0.00     0.029 A 
ATOM     59  N   UNL     1      -6.631  -1.917   2.794  1.00  0.00    -0.354 N 
ATOM     60  N   UNL     1      -6.536  -3.624   0.396  1.00  0.00    -0.248 NA
ATOM     61  C   UNL     1      -7.623  -4.895  -1.235  1.00  0.00     0.031 C 
ATOM     62  C   UNL     1      -8.624  -1.304   3.561  1.00  0.00     0.029 A 
ATOM     63  C   UNL     1      -7.993  -2.051   2.579  1.00  0.00     0.049 A 
ATOM     64  H   UNL     1      -5.929  -2.345   2.253  1.00  0.00     0.167 HD
ATOM     65  C   UNL     1      -7.907  -3.514   0.575  1.00  0.00     0.074 A 
ATOM     66  C   UNL     1      -8.529  -4.295  -0.475  1.00  0.00     0.031 C 
ATOM     67  C   UNL     1      -8.590  -2.832   1.526  1.00  0.00     0.037 A 
BRANCH  54  68
ATOM     68  C   UNL     1      -5.019   0.127   5.614  1.00  0.00     0.057 A 
ATOM     69  C   UNL     1      -4.595   1.460   5.566  1.00  0.00     0.134 A 
ATOM     70  C   UNL     1      -5.412  -0.380   6.861  1.00  0.00     0.134 A 
ATOM     71  F   UNL     1      -4.195   2.006   4.408  1.00  0.00    -0.206 F 
ATOM     72  C   UNL     1      -4.541   2.251   6.717  1.00  0.00     0.040 A 
ATOM     73  C   UNL     1      -5.387   0.408   8.013  1.00  0.00     0.040 A 
ATOM     74  F   UNL     1      -5.837  -1.647   6.978  1.00  0.00    -0.206 F 
ATOM     75  C   UNL     1      -4.944   1.727   7.944  1.00  0.00     0.006 A 
ENDBRANCH  54  68
BRANCH  55  76
ATOM     76  C   UNL     1      -5.113  -5.774  -2.462  1.00  0.00     0.057 A 
ATOM     77  C   UNL     1      -5.534  -5.314  -3.714  1.00  0.00     0.134 A 
ATOM     78  C   UNL     1      -4.690  -7.106  -2.373  1.00  0.00     0.134 A 
ATOM     79  F   UNL     1      -5.972  -4.054  -3.858  1.00  0.00    -0.206 F 
ATOM     80  C   UNL     1      -5.538  -6.146  -4.835  1.00  0.00     0.040 A 
ATOM     81  C   UNL     1      -4.662  -7.941  -3.490  1.00  0.00     0.040 A 
ATOM     82  F   UNL     1      -4.270  -7.607  -1.202  1.00  0.00    -0.206 F 
ATOM     83  C   UNL     1      -5.092  -7.462  -4.726  1.00  0.00     0.006 A 
ENDBRANCH  55  76
BRANCH  67  84
ATOM     84  C   UNL     1     -10.086  -2.876   1.445  1.00  0.00     0.057 A 
ATOM     85  C   UNL     1     -10.810  -4.019   1.804  1.00  0.00     0.134 A 
ATOM     86  C   UNL     1     -10.809  -1.754   1.022  1.00  0.00     0.134 A 
ATOM     87  F   UNL     1     -10.173  -5.131   2.202  1.00  0.00    -0.206 F 
ATOM     88  C   UNL     1     -12.203  -4.053   1.723  1.00  0.00     0.040 A 
ATOM     89  C   UNL     1     -12.203  -1.768   0.960  1.00  0.00     0.040 A 
ATOM     90  F   UNL     1     -10.174  -0.627   0.669  1.00  0.00    -0.206 F 
ATOM     91  C   UNL     1     -12.903  -2.922   1.305  1.00  0.00     0.006 A 
ENDBRANCH  67  84
ENDBRANCH  41  42
ENDBRANCH  34  36
ENDBRANCH  33  34
ENDBRANCH  32  33
ENDBRANCH   1  32
TORSDOF 15
