REMARK SMILES CC[C@@H](C)S(=O)(=O)c1cc(C(=O)OCCOC(=O)c2ccc(-c3c4nc(c(-c5c(F)cccc5F)c5ccc([nH]5)c(-c5c(F)cccc5F)c5nc(c(-c6c(F)cccc6F)c6ccc3[nH]6)C=C5)C=C4)cc2)c(C)cc1C
REMARK SMILES IDX 14 1 13 2 11 3 12 4 10 5 8 6 9 7 76 8 75 9 77 10 73 11 74 12
REMARK SMILES IDX 5 13 6 14 7 15 3 16 4 17 2 18 1 19 15 20 16 21 17 22 18 23
REMARK SMILES IDX 19 24 20 25 72 26 21 27 71 28 22 29 23 30 24 31 65 32 25 33
REMARK SMILES IDX 70 34 64 35 66 36 26 37 69 38 63 39 62 40 27 42 53 43 36 44
REMARK SMILES IDX 52 45 37 46 40 47 51 48 67 49 38 50 39 51 50 53 68 54 41 55
REMARK SMILES IDX 28 56 29 57 34 58 30 59 31 60 33 61 35 62 32 63 54 64 55 65
REMARK SMILES IDX 60 66 56 67 57 68 59 69 61 70 58 71 42 72 43 73 48 74 44 75
REMARK SMILES IDX 45 76 47 77 49 78 46 79
REMARK H PARENT 66 41 40 52
REMARK Flexibility Score: inf
ROOT
ATOM      1  C   UNL     1      -6.050   4.324   3.948  1.00  0.00     0.275 C 
ENDROOT
BRANCH   1   2
ATOM      2  O   UNL     1      -5.356   3.072   4.144  1.00  0.00    -0.458 OA
BRANCH   2   3
ATOM      3  C   UNL     1      -4.376   2.792   3.254  1.00  0.00     0.338 C 
ATOM      4  O   UNL     1      -3.966   3.518   2.363  1.00  0.00    -0.246 OA
BRANCH   3   5
ATOM      5  C   UNL     1      -3.744   1.480   3.534  1.00  0.00     0.064 A 
ATOM      6  C   UNL     1      -1.608   0.285   3.706  1.00  0.00     0.071 A 
ATOM      7  C   UNL     1      -2.341   1.471   3.555  1.00  0.00     0.036 A 
ATOM      8  C   UNL     1      -2.286  -0.936   3.814  1.00  0.00    -0.032 A 
ATOM      9  C   UNL     1      -3.698  -0.912   3.823  1.00  0.00     0.009 A 
ATOM     10  C   UNL     1      -1.617  -2.274   3.956  1.00  0.00     0.046 C 
ATOM     11  C   UNL     1      -4.444   0.277   3.678  1.00  0.00    -0.036 A 
ATOM     12  C   UNL     1      -5.941   0.156   3.661  1.00  0.00     0.045 C 
BRANCH   6  13
ATOM     13  S   UNL     1       0.172   0.474   3.865  1.00  0.00     0.181 S 
ATOM     14  O   UNL     1       0.723  -0.768   4.371  1.00  0.00    -0.223 OA
ATOM     15  O   UNL     1       0.373   1.693   4.628  1.00  0.00    -0.223 OA
BRANCH  13  16
ATOM     16  C   UNL     1       0.819   0.733   2.199  1.00  0.00     0.110 C 
ATOM     17  C   UNL     1       0.533   2.140   1.679  1.00  0.00     0.025 C 
BRANCH  16  18
ATOM     18  C   UNL     1       0.358  -0.367   1.234  1.00  0.00     0.016 C 
ATOM     19  C   UNL     1       0.976  -0.257  -0.153  1.00  0.00     0.005 C 
ENDBRANCH  16  18
ENDBRANCH  13  16
ENDBRANCH   6  13
ENDBRANCH   3   5
ENDBRANCH   2   3
ENDBRANCH   1   2
BRANCH   1  20
ATOM     20  C   UNL     1      -5.779   5.272   5.111  1.00  0.00     0.275 C 
BRANCH  20  21
ATOM     21  O   UNL     1      -4.388   5.636   5.094  1.00  0.00    -0.458 OA
BRANCH  21  22
ATOM     22  C   UNL     1      -3.678   5.321   6.199  1.00  0.00     0.338 C 
ATOM     23  O   UNL     1      -4.095   4.868   7.254  1.00  0.00    -0.246 OA
BRANCH  22  24
ATOM     24  C   UNL     1      -2.253   5.572   5.936  1.00  0.00     0.060 A 
ATOM     25  C   UNL     1      -1.642   4.928   4.865  1.00  0.00     0.016 A 
ATOM     26  C   UNL     1      -1.492   6.342   6.814  1.00  0.00     0.016 A 
ATOM     27  C   UNL     1      -0.257   4.960   4.733  1.00  0.00     0.010 A 
ATOM     28  C   UNL     1      -0.111   6.460   6.609  1.00  0.00     0.010 A 
ATOM     29  C   UNL     1       0.534   5.733   5.592  1.00  0.00    -0.014 A 
BRANCH  29  30
ATOM     30  C   UNL     1       2.025   5.724   5.470  1.00  0.00     0.031 A 
ATOM     31  C   UNL     1       2.877   5.357   6.660  1.00  0.00     0.074 A 
ATOM     32  C   UNL     1       2.637   6.010   4.302  1.00  0.00     0.049 A 
ATOM     33  N   UNL     1       4.165   5.517   6.841  1.00  0.00    -0.248 NA
ATOM     34  C   UNL     1       2.184   4.750   7.806  1.00  0.00     0.031 C 
ATOM     35  C   UNL     1       1.965   6.317   3.038  1.00  0.00     0.029 A 
ATOM     36  N   UNL     1       3.974   6.079   3.987  1.00  0.00    -0.354 N 
ATOM     37  C   UNL     1       4.419   5.107   8.145  1.00  0.00     0.074 A 
ATOM     38  C   UNL     1       3.154   4.684   8.707  1.00  0.00     0.031 C 
ATOM     39  C   UNL     1       2.887   6.485   2.078  1.00  0.00     0.029 A 
ATOM     40  C   UNL     1       4.215   6.405   2.674  1.00  0.00     0.049 A 
ATOM     41  H   UNL     1       4.691   5.911   4.641  1.00  0.00     0.167 HD
ATOM     42  C   UNL     1       5.597   5.091   8.814  1.00  0.00     0.037 A 
ATOM     43  C   UNL     1       5.369   6.662   2.027  1.00  0.00     0.037 A 
ATOM     44  C   UNL     1       6.871   5.418   8.228  1.00  0.00     0.049 A 
ATOM     45  C   UNL     1       6.663   6.654   2.788  1.00  0.00     0.074 A 
ATOM     46  C   UNL     1       8.123   5.412   8.821  1.00  0.00     0.029 A 
ATOM     47  N   UNL     1       7.060   5.780   6.903  1.00  0.00    -0.354 N 
ATOM     48  N   UNL     1       6.878   6.369   4.049  1.00  0.00    -0.248 NA
ATOM     49  C   UNL     1       7.871   7.039   2.044  1.00  0.00     0.031 C 
ATOM     50  C   UNL     1       9.066   5.795   7.862  1.00  0.00     0.029 A 
ATOM     51  C   UNL     1       8.406   6.006   6.662  1.00  0.00     0.049 A 
ATOM     52  H   UNL     1       6.345   5.864   6.233  1.00  0.00     0.167 HD
ATOM     53  C   UNL     1       8.242   6.535   4.248  1.00  0.00     0.074 A 
ATOM     54  C   UNL     1       8.809   6.923   2.974  1.00  0.00     0.031 C 
ATOM     55  C   UNL     1       8.958   6.389   5.389  1.00  0.00     0.037 A 
BRANCH  42  56
ATOM     56  C   UNL     1       5.561   4.745  10.274  1.00  0.00     0.057 A 
ATOM     57  C   UNL     1       5.359   3.438  10.733  1.00  0.00     0.134 A 
ATOM     58  C   UNL     1       5.767   5.743  11.236  1.00  0.00     0.134 A 
ATOM     59  F   UNL     1       5.145   2.438   9.865  1.00  0.00    -0.206 F 
ATOM     60  C   UNL     1       5.336   3.141  12.098  1.00  0.00     0.040 A 
ATOM     61  C   UNL     1       5.772   5.455  12.602  1.00  0.00     0.040 A 
ATOM     62  F   UNL     1       5.977   7.015  10.864  1.00  0.00    -0.206 F 
ATOM     63  C   UNL     1       5.549   4.150  13.036  1.00  0.00     0.006 A 
ENDBRANCH  42  56
BRANCH  43  64
ATOM     64  C   UNL     1       5.346   7.004   0.582  1.00  0.00     0.057 A 
ATOM     65  C   UNL     1       5.866   6.126  -0.375  1.00  0.00     0.134 A 
ATOM     66  C   UNL     1       4.801   8.209   0.123  1.00  0.00     0.134 A 
ATOM     67  F   UNL     1       6.427   4.968   0.005  1.00  0.00    -0.206 F 
ATOM     68  C   UNL     1       5.848   6.435  -1.736  1.00  0.00     0.040 A 
ATOM     69  C   UNL     1       4.750   8.519  -1.236  1.00  0.00     0.040 A 
ATOM     70  F   UNL     1       4.288   9.095   0.991  1.00  0.00    -0.206 F 
ATOM     71  C   UNL     1       5.279   7.631  -2.171  1.00  0.00     0.006 A 
ENDBRANCH  43  64
BRANCH  55  72
ATOM     72  C   UNL     1      10.436   6.627   5.303  1.00  0.00     0.057 A 
ATOM     73  C   UNL     1      10.968   7.918   5.212  1.00  0.00     0.134 A 
ATOM     74  C   UNL     1      11.335   5.554   5.337  1.00  0.00     0.134 A 
ATOM     75  F   UNL     1      10.158   8.986   5.160  1.00  0.00    -0.206 F 
ATOM     76  C   UNL     1      12.345   8.134   5.139  1.00  0.00     0.040 A 
ATOM     77  C   UNL     1      12.715   5.759   5.285  1.00  0.00     0.040 A 
ATOM     78  F   UNL     1      10.888   4.293   5.428  1.00  0.00    -0.206 F 
ATOM     79  C   UNL     1      13.223   7.052   5.181  1.00  0.00     0.006 A 
ENDBRANCH  55  72
ENDBRANCH  29  30
ENDBRANCH  22  24
ENDBRANCH  21  22
ENDBRANCH  20  21
ENDBRANCH   1  20
TORSDOF 14
