REMARK SMILES O=C(OCCOC(=O)c1cc(OC[C@@H]2Cc3cc(F)ccc3O2)cs1)c1ccc(-c2c3nc(c(-c4c(F)cccc4F)c4ccc([nH]4)c(-c4c(F)cccc4F)c4nc(c(-c5c(F)cccc5F)c5ccc2[nH]5)C=C4)C=C3)cc1
REMARK SMILES IDX 5 1 4 2 3 3 2 4 1 5 26 6 27 7 79 8 28 9 78 10 29 11 30 12
REMARK SMILES IDX 31 13 72 14 32 15 77 16 71 17 73 18 33 19 76 20 70 21 69 22
REMARK SMILES IDX 34 24 60 25 43 26 59 27 44 28 47 29 58 30 74 31 45 32 46 33
REMARK SMILES IDX 57 35 75 36 48 37 35 38 36 39 41 40 37 41 38 42 40 43 42 44
REMARK SMILES IDX 39 45 61 46 62 47 67 48 63 49 64 50 66 51 68 52 65 53 49 54
REMARK SMILES IDX 50 55 55 56 51 57 52 58 54 59 56 60 53 61 6 62 7 63 8 64
REMARK SMILES IDX 9 65 10 66 25 67 11 68 24 69 12 70 13 71 14 72 15 73 23 74
REMARK SMILES IDX 16 75 22 76 17 77 21 78 18 79 20 80 19 81
REMARK H PARENT 73 23 47 34
REMARK Flexibility Score: inf
ROOT
ATOM      1  C   UNL     1       4.019   1.802  -1.065  1.00  0.00     0.275 C 
ENDROOT
BRANCH   1   2
ATOM      2  C   UNL     1       4.186   0.315  -1.437  1.00  0.00     0.275 C 
BRANCH   2   3
ATOM      3  O   UNL     1       3.005  -0.469  -1.243  1.00  0.00    -0.458 OA
BRANCH   3   4
ATOM      4  C   UNL     1       2.576  -1.114  -0.137  1.00  0.00     0.338 C 
ATOM      5  O   UNL     1       1.562  -1.806  -0.227  1.00  0.00    -0.246 OA
BRANCH   4   6
ATOM      6  C   UNL     1       3.180  -0.936   1.226  1.00  0.00     0.060 A 
ATOM      7  C   UNL     1       2.395  -1.407   2.289  1.00  0.00     0.016 A 
ATOM      8  C   UNL     1       4.359  -0.258   1.551  1.00  0.00     0.016 A 
ATOM      9  C   UNL     1       2.669  -1.028   3.598  1.00  0.00     0.010 A 
ATOM     10  C   UNL     1       4.646   0.114   2.861  1.00  0.00     0.010 A 
ATOM     11  C   UNL     1       3.768  -0.210   3.884  1.00  0.00    -0.014 A 
BRANCH  11  12
ATOM     12  C   UNL     1       4.029   0.212   5.263  1.00  0.00     0.031 A 
ATOM     13  C   UNL     1       4.301   1.666   5.602  1.00  0.00     0.074 A 
ATOM     14  C   UNL     1       4.292  -0.737   6.186  1.00  0.00     0.049 A 
ATOM     15  N   UNL     1       4.458   2.326   7.103  1.00  0.00    -0.248 NA
ATOM     16  C   UNL     1       4.555   3.136   4.243  1.00  0.00     0.031 C 
ATOM     17  C   UNL     1       4.484  -2.150   5.852  1.00  0.00     0.029 A 
ATOM     18  N   UNL     1       4.687  -0.640   7.502  1.00  0.00    -0.354 N 
ATOM     19  C   UNL     1       4.691   4.144   6.993  1.00  0.00     0.074 A 
ATOM     20  C   UNL     1       4.793   4.545   5.101  1.00  0.00     0.031 C 
ATOM     21  C   UNL     1       5.046  -2.769   6.896  1.00  0.00     0.029 A 
ATOM     22  C   UNL     1       5.266  -1.798   7.963  1.00  0.00     0.049 A 
ATOM     23  H   UNL     1       4.567   0.169   8.051  1.00  0.00     0.167 HD
ATOM     24  C   UNL     1       4.818   5.032   8.009  1.00  0.00     0.037 A 
ATOM     25  C   UNL     1       5.979  -2.050   9.076  1.00  0.00     0.037 A 
ATOM     26  C   UNL     1       5.201   4.633   9.338  1.00  0.00     0.049 A 
ATOM     27  C   UNL     1       6.279  -0.958  10.069  1.00  0.00     0.074 A 
ATOM     28  C   UNL     1       5.537   5.438  10.412  1.00  0.00     0.029 A 
ATOM     29  N   UNL     1       5.482   3.318   9.721  1.00  0.00    -0.354 N 
ATOM     30  N   UNL     1       6.019   0.329  10.031  1.00  0.00    -0.248 NA
ATOM     31  C   UNL     1       6.994  -1.392  11.275  1.00  0.00     0.031 C 
ATOM     32  C   UNL     1       6.145   4.631  11.383  1.00  0.00     0.029 A 
ATOM     33  C   UNL     1       6.086   3.307  10.971  1.00  0.00     0.049 A 
ATOM     34  H   UNL     1       5.281   2.518   9.184  1.00  0.00     0.167 HD
ATOM     35  C   UNL     1       6.524   0.855  11.220  1.00  0.00     0.074 A 
ATOM     36  C   UNL     1       7.060  -0.268  11.966  1.00  0.00     0.031 C 
ATOM     37  C   UNL     1       6.571   2.137  11.670  1.00  0.00     0.037 A 
BRANCH  24  38
ATOM     38  C   UNL     1       4.673   6.456   7.610  1.00  0.00     0.057 A 
ATOM     39  C   UNL     1       5.741   7.357   7.591  1.00  0.00     0.134 A 
ATOM     40  C   UNL     1       3.411   6.944   7.241  1.00  0.00     0.134 A 
ATOM     41  F   UNL     1       6.971   6.970   7.960  1.00  0.00    -0.206 F 
ATOM     42  C   UNL     1       5.566   8.683   7.184  1.00  0.00     0.040 A 
ATOM     43  C   UNL     1       3.225   8.261   6.821  1.00  0.00     0.040 A 
ATOM     44  F   UNL     1       2.339   6.137   7.266  1.00  0.00    -0.206 F 
ATOM     45  C   UNL     1       4.308   9.134   6.784  1.00  0.00     0.006 A 
ENDBRANCH  24  38
BRANCH  25  46
ATOM     46  C   UNL     1       6.472  -3.434   9.313  1.00  0.00     0.057 A 
ATOM     47  C   UNL     1       7.512  -3.999   8.564  1.00  0.00     0.134 A 
ATOM     48  C   UNL     1       5.889  -4.226  10.310  1.00  0.00     0.134 A 
ATOM     49  F   UNL     1       8.089  -3.303   7.572  1.00  0.00    -0.206 F 
ATOM     50  C   UNL     1       7.953  -5.303   8.797  1.00  0.00     0.040 A 
ATOM     51  C   UNL     1       6.346  -5.516  10.579  1.00  0.00     0.040 A 
ATOM     52  F   UNL     1       4.897  -3.733  11.065  1.00  0.00    -0.206 F 
ATOM     53  C   UNL     1       7.378  -6.059   9.817  1.00  0.00     0.006 A 
ENDBRANCH  25  46
BRANCH  37  54
ATOM     54  C   UNL     1       7.131   2.341  13.059  1.00  0.00     0.057 A 
ATOM     55  C   UNL     1       6.285   2.771  14.091  1.00  0.00     0.134 A 
ATOM     56  C   UNL     1       8.475   2.108  13.390  1.00  0.00     0.134 A 
ATOM     57  F   UNL     1       4.993   3.036  13.846  1.00  0.00    -0.206 F 
ATOM     58  C   UNL     1       6.746   2.945  15.396  1.00  0.00     0.040 A 
ATOM     59  C   UNL     1       8.937   2.230  14.704  1.00  0.00     0.040 A 
ATOM     60  F   UNL     1       9.346   1.694  12.457  1.00  0.00    -0.206 F 
ATOM     61  C   UNL     1       8.071   2.654  15.710  1.00  0.00     0.006 A 
ENDBRANCH  37  54
ENDBRANCH  11  12
ENDBRANCH   4   6
ENDBRANCH   3   4
ENDBRANCH   2   3
ENDBRANCH   1   2
BRANCH   1  62
ATOM     62  O   UNL     1       3.420   2.073   0.226  1.00  0.00    -0.458 OA
BRANCH  62  63
ATOM     63  C   UNL     1       2.053   2.239   0.267  1.00  0.00     0.348 C 
ATOM     64  O   UNL     1       1.341   2.217  -0.727  1.00  0.00    -0.245 OA
BRANCH  63  65
ATOM     65  C   UNL     1       1.605   2.316   1.654  1.00  0.00     0.116 A 
ATOM     66  C   UNL     1       2.119   3.012   2.746  1.00  0.00     0.074 A 
ATOM     67  S   UNL     1       0.228   1.415   2.133  1.00  0.00    -0.133 S 
ATOM     68  C   UNL     1       1.729   2.413   3.989  1.00  0.00     0.131 A 
ATOM     69  C   UNL     1       0.634   1.595   3.786  1.00  0.00     0.112 A 
BRANCH  68  70
ATOM     70  O   UNL     1       2.271   2.378   5.246  1.00  0.00    -0.489 OA
BRANCH  70  71
ATOM     71  C   UNL     1       3.443   3.302   5.801  1.00  0.00     0.275 C 
BRANCH  71  72
ATOM     72  C   UNL     1       5.691   2.939   5.818  1.00  0.00     0.215 C 
ATOM     73  C   UNL     1       6.597   1.498   5.762  1.00  0.00     0.088 C 
ATOM     74  O   UNL     1       6.811   3.813   6.669  1.00  0.00    -0.486 OA
ATOM     75  C   UNL     1       7.662   1.668   6.750  1.00  0.00     0.001 A 
ATOM     76  C   UNL     1       7.707   2.947   7.235  1.00  0.00     0.123 A 
ATOM     77  C   UNL     1       8.371   0.622   7.324  1.00  0.00     0.047 A 
ATOM     78  C   UNL     1       8.518   3.251   8.310  1.00  0.00     0.050 A 
ATOM     79  C   UNL     1       9.117   0.899   8.452  1.00  0.00     0.123 A 
ATOM     80  C   UNL     1       9.207   2.204   8.942  1.00  0.00     0.043 A 
ATOM     81  F   UNL     1       9.690  -0.113   9.117  1.00  0.00    -0.207 F 
ENDBRANCH  71  72
ENDBRANCH  70  71
ENDBRANCH  68  70
ENDBRANCH  63  65
ENDBRANCH  62  63
ENDBRANCH   1  62
TORSDOF 14
