REMARK SMILES O=C(OCCOC(=O)[C@H]1[C@H]2CC[C@H](C2)[C@@H]1C(=O)N1CCN(c2cccc(Cl)c2)CC1)c1ccc(-c2c3nc(c(-c4c(F)cccc4F)c4ccc([nH]4)c(-c4c(F)cccc4F)c4nc(c(-c5c(F)cccc5F)c5ccc2[nH]5)C=C4)C=C3)cc1
REMARK SMILES IDX 4 1 3 2 2 3 1 4 31 5 32 6 84 7 33 8 83 9 34 10 35 11 36 12
REMARK SMILES IDX 77 13 37 14 82 15 76 16 78 17 38 18 81 19 75 20 74 21 39 23
REMARK SMILES IDX 65 24 48 25 64 26 49 27 52 28 63 29 79 30 50 31 51 32 62 34
REMARK SMILES IDX 80 35 53 36 40 37 41 38 46 39 42 40 43 41 45 42 47 43 44 44
REMARK SMILES IDX 66 45 67 46 72 47 68 48 69 49 71 50 73 51 70 52 54 53 55 54
REMARK SMILES IDX 60 55 56 56 57 57 59 58 61 59 58 60 5 61 6 62 7 63 8 64 9 65
REMARK SMILES IDX 10 66 15 67 11 68 14 69 13 70 12 71 16 72 17 73 18 74 19 75
REMARK SMILES IDX 30 76 20 77 29 78 21 79 22 80 23 81 28 82 24 83 26 84 25 85
REMARK SMILES IDX 27 86
REMARK H PARENT 78 22 52 33
REMARK Flexibility Score: inf
ROOT
ATOM      1  C   UNL     1      -0.891  -2.003  -4.340  1.00  0.00     0.275 C 
ENDROOT
BRANCH   1   2
ATOM      2  O   UNL     1      -1.428  -1.125  -3.339  1.00  0.00    -0.458 OA
BRANCH   2   3
ATOM      3  C   UNL     1      -1.083  -1.016  -2.036  1.00  0.00     0.338 C 
ATOM      4  O   UNL     1      -1.856  -0.464  -1.255  1.00  0.00    -0.246 OA
BRANCH   3   5
ATOM      5  C   UNL     1       0.259  -1.415  -1.512  1.00  0.00     0.060 A 
ATOM      6  C   UNL     1       0.949  -2.596  -1.805  1.00  0.00     0.016 A 
ATOM      7  C   UNL     1       0.823  -0.548  -0.568  1.00  0.00     0.016 A 
ATOM      8  C   UNL     1       2.186  -2.885  -1.199  1.00  0.00     0.010 A 
ATOM      9  C   UNL     1       2.059  -0.822   0.023  1.00  0.00     0.010 A 
ATOM     10  C   UNL     1       2.745  -2.007  -0.267  1.00  0.00    -0.014 A 
BRANCH  10  11
ATOM     11  C   UNL     1       3.956  -2.358   0.526  1.00  0.00     0.031 A 
ATOM     12  C   UNL     1       3.810  -2.568   2.012  1.00  0.00     0.074 A 
ATOM     13  C   UNL     1       5.182  -2.345  -0.031  1.00  0.00     0.049 A 
ATOM     14  N   UNL     1       4.729  -2.712   2.932  1.00  0.00    -0.248 NA
ATOM     15  C   UNL     1       2.436  -2.537   2.537  1.00  0.00     0.031 C 
ATOM     16  C   UNL     1       5.466  -2.042  -1.433  1.00  0.00     0.029 A 
ATOM     17  N   UNL     1       6.423  -2.533   0.530  1.00  0.00    -0.354 N 
ATOM     18  C   UNL     1       4.059  -2.640   4.149  1.00  0.00     0.074 A 
ATOM     19  C   UNL     1       2.652  -2.486   3.840  1.00  0.00     0.031 C 
ATOM     20  C   UNL     1       6.798  -2.027  -1.614  1.00  0.00     0.029 A 
ATOM     21  C   UNL     1       7.464  -2.304  -0.339  1.00  0.00     0.049 A 
ATOM     22  H   UNL     1       6.555  -2.806   1.467  1.00  0.00     0.167 HD
ATOM     23  C   UNL     1       4.565  -2.654   5.407  1.00  0.00     0.037 A 
ATOM     24  C   UNL     1       8.796  -2.275  -0.127  1.00  0.00     0.037 A 
ATOM     25  C   UNL     1       5.957  -2.851   5.725  1.00  0.00     0.049 A 
ATOM     26  C   UNL     1       9.356  -2.572   1.247  1.00  0.00     0.074 A 
ATOM     27  C   UNL     1       6.579  -2.810   6.960  1.00  0.00     0.029 A 
ATOM     28  N   UNL     1       6.955  -3.113   4.790  1.00  0.00    -0.354 N 
ATOM     29  N   UNL     1       8.734  -2.984   2.325  1.00  0.00    -0.248 NA
ATOM     30  C   UNL     1      10.799  -2.364   1.444  1.00  0.00     0.031 C 
ATOM     31  C   UNL     1       7.962  -2.917   6.754  1.00  0.00     0.029 A 
ATOM     32  C   UNL     1       8.203  -3.045   5.392  1.00  0.00     0.049 A 
ATOM     33  H   UNL     1       6.797  -3.318   3.840  1.00  0.00     0.167 HD
ATOM     34  C   UNL     1       9.670  -2.957   3.354  1.00  0.00     0.074 A 
ATOM     35  C   UNL     1      10.948  -2.674   2.728  1.00  0.00     0.031 C 
ATOM     36  C   UNL     1       9.479  -3.014   4.700  1.00  0.00     0.037 A 
BRANCH  23  37
ATOM     37  C   UNL     1       3.594  -2.333   6.511  1.00  0.00     0.057 A 
ATOM     38  C   UNL     1       2.581  -3.222   6.893  1.00  0.00     0.134 A 
ATOM     39  C   UNL     1       3.612  -1.075   7.130  1.00  0.00     0.134 A 
ATOM     40  F   UNL     1       2.485  -4.428   6.314  1.00  0.00    -0.206 F 
ATOM     41  C   UNL     1       1.591  -2.853   7.807  1.00  0.00     0.040 A 
ATOM     42  C   UNL     1       2.646  -0.707   8.071  1.00  0.00     0.040 A 
ATOM     43  F   UNL     1       4.550  -0.169   6.813  1.00  0.00    -0.206 F 
ATOM     44  C   UNL     1       1.621  -1.592   8.398  1.00  0.00     0.006 A 
ENDBRANCH  23  37
BRANCH  24  45
ATOM     45  C   UNL     1       9.703  -1.866  -1.233  1.00  0.00     0.057 A 
ATOM     46  C   UNL     1      10.579  -2.780  -1.825  1.00  0.00     0.134 A 
ATOM     47  C   UNL     1       9.722  -0.549  -1.718  1.00  0.00     0.134 A 
ATOM     48  F   UNL     1      10.624  -4.048  -1.392  1.00  0.00    -0.206 F 
ATOM     49  C   UNL     1      11.445  -2.402  -2.855  1.00  0.00     0.040 A 
ATOM     50  C   UNL     1      10.570  -0.163  -2.758  1.00  0.00     0.040 A 
ATOM     51  F   UNL     1       8.903   0.378  -1.199  1.00  0.00    -0.206 F 
ATOM     52  C   UNL     1      11.438  -1.091  -3.327  1.00  0.00     0.006 A 
ENDBRANCH  24  45
BRANCH  36  53
ATOM     53  C   UNL     1      10.695  -2.929   5.574  1.00  0.00     0.057 A 
ATOM     54  C   UNL     1      11.346  -1.718   5.842  1.00  0.00     0.134 A 
ATOM     55  C   UNL     1      11.133  -4.070   6.255  1.00  0.00     0.134 A 
ATOM     56  F   UNL     1      10.969  -0.587   5.226  1.00  0.00    -0.206 F 
ATOM     57  C   UNL     1      12.401  -1.648   6.755  1.00  0.00     0.040 A 
ATOM     58  C   UNL     1      12.172  -4.008   7.184  1.00  0.00     0.040 A 
ATOM     59  F   UNL     1      10.532  -5.252   6.056  1.00  0.00    -0.206 F 
ATOM     60  C   UNL     1      12.809  -2.795   7.435  1.00  0.00     0.006 A 
ENDBRANCH  36  53
ENDBRANCH  10  11
ENDBRANCH   3   5
ENDBRANCH   2   3
ENDBRANCH   1   2
BRANCH   1  61
ATOM     61  C   UNL     1       0.243  -1.398  -5.161  1.00  0.00     0.274 C 
BRANCH  61  62
ATOM     62  O   UNL     1       1.278  -0.805  -4.361  1.00  0.00    -0.462 OA
BRANCH  62  63
ATOM     63  C   UNL     1       1.194   0.548  -4.208  1.00  0.00     0.310 C 
ATOM     64  O   UNL     1       0.278   1.242  -4.652  1.00  0.00    -0.252 OA
BRANCH  63  65
ATOM     65  C   UNL     1       2.433   1.087  -3.523  1.00  0.00     0.115 C 
ATOM     66  C   UNL     1       3.654   1.062  -4.482  1.00  0.00     0.004 C 
ATOM     67  C   UNL     1       2.324   2.595  -3.128  1.00  0.00     0.096 C 
ATOM     68  C   UNL     1       3.324   1.713  -5.835  1.00  0.00     0.005 C 
ATOM     69  C   UNL     1       4.541   2.143  -3.873  1.00  0.00     0.009 C 
ATOM     70  C   UNL     1       3.452   3.218  -3.955  1.00  0.00     0.003 C 
ATOM     71  C   UNL     1       3.073   3.173  -5.451  1.00  0.00     0.005 C 
BRANCH  67  72
ATOM     72  C   UNL     1       2.258   2.746  -1.596  1.00  0.00     0.226 C 
ATOM     73  O   UNL     1       1.170   2.447  -1.080  1.00  0.00    -0.275 OA
ATOM     74  N   UNL     1       3.319   3.061  -0.772  1.00  0.00    -0.339 N 
ATOM     75  C   UNL     1       3.143   2.851   0.679  1.00  0.00     0.141 C 
ATOM     76  C   UNL     1       4.499   3.899  -1.053  1.00  0.00     0.141 C 
ATOM     77  C   UNL     1       4.415   2.292   1.326  1.00  0.00     0.138 C 
ATOM     78  C   UNL     1       5.794   3.334  -0.445  1.00  0.00     0.138 C 
ATOM     79  N   UNL     1       5.601   3.128   0.991  1.00  0.00    -0.368 N 
BRANCH  79  80
ATOM     80  C   UNL     1       6.750   2.714   1.678  1.00  0.00     0.038 A 
ATOM     81  C   UNL     1       7.383   3.567   2.593  1.00  0.00     0.026 A 
ATOM     82  C   UNL     1       7.112   1.379   1.646  1.00  0.00     0.046 A 
ATOM     83  C   UNL     1       8.295   3.066   3.531  1.00  0.00     0.004 A 
ATOM     84  C   UNL     1       7.800   0.887   2.732  1.00  0.00     0.043 A 
ATOM     85  C   UNL     1       8.471   1.696   3.633  1.00  0.00     0.020 A 
ATOM     86  Cl  UNL     1       7.324  -0.653   3.223  1.00  0.00    -0.084 Cl
ENDBRANCH  79  80
ENDBRANCH  67  72
ENDBRANCH  63  65
ENDBRANCH  62  63
ENDBRANCH  61  62
ENDBRANCH   1  61
TORSDOF 13
