REMARK SMILES C[C@@]([NH2+]CCCO)(C(=O)OCCOC(=O)c1ccc(-c2c3nc(c(-c4c(F)cccc4F)c4ccc([nH]4)c(-c4c(F)cccc4F)c4nc(c(-c5c(F)cccc5F)c5ccc2[nH]5)C=C4)C=C3)cc1)C(F)(F)F
REMARK SMILES IDX 10 1 8 2 9 3 2 4 1 5 3 6 4 9 5 10 6 11 7 12 70 14 71 15
REMARK SMILES IDX 72 16 73 17 11 18 12 19 13 20 14 21 15 22 16 23 17 24 69 25
REMARK SMILES IDX 18 26 68 27 19 28 20 29 21 30 62 31 22 32 67 33 61 34 63 35
REMARK SMILES IDX 23 36 66 37 60 38 59 39 24 41 50 42 33 43 49 44 34 45 37 46
REMARK SMILES IDX 48 47 64 48 35 49 36 50 47 52 65 53 38 54 25 55 26 56 31 57
REMARK SMILES IDX 27 58 28 59 30 60 32 61 29 62 51 63 52 64 57 65 53 66 54 67
REMARK SMILES IDX 56 68 58 69 55 70 39 71 40 72 45 73 41 74 42 75 44 76 46 77
REMARK SMILES IDX 43 78
REMARK H PARENT 3 7 3 8 7 13 63 40 37 51
REMARK Flexibility Score: inf
ROOT
ATOM      1  O   UNL     1      -1.555   0.282  -1.009  1.00  0.00    -0.457 OA
ENDROOT
BRANCH   1   2
ATOM      2  C   UNL     1      -0.732   1.359  -0.862  1.00  0.00     0.377 C 
ATOM      3  O   UNL     1      -1.149   2.499  -0.687  1.00  0.00    -0.244 OA
BRANCH   2   4
ATOM      4  C   UNL     1       0.758   1.006  -0.989  1.00  0.00     0.287 C 
ATOM      5  C   UNL     1       0.965  -0.518  -1.141  1.00  0.00     0.103 C 
BRANCH   4   6
ATOM      6  N   UNL     1       1.397   1.590  -2.231  1.00  0.00    -0.325 N 
ATOM      7  H   UNL     1       1.259   0.915  -2.983  1.00  0.00     0.347 HD
ATOM      8  H   UNL     1       2.361   1.769  -1.948  1.00  0.00     0.347 HD
BRANCH   6   9
ATOM      9  C   UNL     1       0.932   2.886  -2.728  1.00  0.00     0.264 C 
BRANCH   9  10
ATOM     10  C   UNL     1       1.224   4.149  -1.907  1.00  0.00     0.089 C 
BRANCH  10  11
ATOM     11  C   UNL     1       2.696   4.403  -1.608  1.00  0.00     0.162 C 
BRANCH  11  12
ATOM     12  O   UNL     1       3.423   4.653  -2.802  1.00  0.00    -0.396 OA
ATOM     13  H   UNL     1       3.364   3.880  -3.385  1.00  0.00     0.210 HD
ENDBRANCH  11  12
ENDBRANCH  10  11
ENDBRANCH   9  10
ENDBRANCH   6   9
ENDBRANCH   4   6
BRANCH   4  14
ATOM     14  C   UNL     1       1.408   1.399   0.355  1.00  0.00     0.455 C 
ATOM     15  F   UNL     1       0.863   0.735   1.398  1.00  0.00    -0.164 F 
ATOM     16  F   UNL     1       2.733   1.093   0.339  1.00  0.00    -0.164 F 
ATOM     17  F   UNL     1       1.335   2.717   0.630  1.00  0.00    -0.164 F 
ENDBRANCH   4  14
ENDBRANCH   2   4
ENDBRANCH   1   2
BRANCH   1  18
ATOM     18  C   UNL     1      -2.972   0.557  -1.060  1.00  0.00     0.274 C 
BRANCH  18  19
ATOM     19  C   UNL     1      -3.626   0.359   0.304  1.00  0.00     0.275 C 
BRANCH  19  20
ATOM     20  O   UNL     1      -3.147   1.364   1.214  1.00  0.00    -0.458 OA
BRANCH  20  21
ATOM     21  C   UNL     1      -2.720   0.914   2.415  1.00  0.00     0.338 C 
ATOM     22  O   UNL     1      -2.745  -0.231   2.829  1.00  0.00    -0.246 OA
BRANCH  21  23
ATOM     23  C   UNL     1      -2.174   2.034   3.200  1.00  0.00     0.060 A 
ATOM     24  C   UNL     1      -1.094   2.761   2.705  1.00  0.00     0.016 A 
ATOM     25  C   UNL     1      -2.628   2.253   4.499  1.00  0.00     0.016 A 
ATOM     26  C   UNL     1      -0.382   3.616   3.541  1.00  0.00     0.010 A 
ATOM     27  C   UNL     1      -1.967   3.179   5.313  1.00  0.00     0.010 A 
ATOM     28  C   UNL     1      -0.799   3.821   4.862  1.00  0.00    -0.014 A 
BRANCH  28  29
ATOM     29  C   UNL     1       0.061   4.588   5.804  1.00  0.00     0.031 A 
ATOM     30  C   UNL     1       0.657   3.888   6.999  1.00  0.00     0.074 A 
ATOM     31  C   UNL     1       0.371   5.877   5.572  1.00  0.00     0.049 A 
ATOM     32  N   UNL     1       1.305   4.393   8.018  1.00  0.00    -0.248 NA
ATOM     33  C   UNL     1       0.490   2.427   7.061  1.00  0.00     0.031 C 
ATOM     34  C   UNL     1      -0.071   6.665   4.421  1.00  0.00     0.029 A 
ATOM     35  N   UNL     1       1.159   6.745   6.286  1.00  0.00    -0.354 N 
ATOM     36  C   UNL     1       1.552   3.327   8.874  1.00  0.00     0.074 A 
ATOM     37  C   UNL     1       1.001   2.144   8.250  1.00  0.00     0.031 C 
ATOM     38  C   UNL     1       0.495   7.882   4.479  1.00  0.00     0.029 A 
ATOM     39  C   UNL     1       1.283   7.983   5.704  1.00  0.00     0.049 A 
ATOM     40  H   UNL     1       1.594   6.504   7.136  1.00  0.00     0.167 HD
ATOM     41  C   UNL     1       2.178   3.333  10.075  1.00  0.00     0.037 A 
ATOM     42  C   UNL     1       1.941   9.081   6.120  1.00  0.00     0.037 A 
ATOM     43  C   UNL     1       2.802   4.489  10.659  1.00  0.00     0.049 A 
ATOM     44  C   UNL     1       2.663   9.056   7.438  1.00  0.00     0.074 A 
ATOM     45  C   UNL     1       3.441   4.604  11.882  1.00  0.00     0.029 A 
ATOM     46  N   UNL     1       2.899   5.724  10.038  1.00  0.00    -0.354 N 
ATOM     47  N   UNL     1       2.793   8.069   8.290  1.00  0.00    -0.248 NA
ATOM     48  C   UNL     1       3.310  10.307   7.861  1.00  0.00     0.031 C 
ATOM     49  C   UNL     1       3.924   5.913  12.002  1.00  0.00     0.029 A 
ATOM     50  C   UNL     1       3.601   6.603  10.845  1.00  0.00     0.049 A 
ATOM     51  H   UNL     1       2.525   5.944   9.155  1.00  0.00     0.167 HD
ATOM     52  C   UNL     1       3.535   8.577   9.347  1.00  0.00     0.074 A 
ATOM     53  C   UNL     1       3.849   9.952   9.019  1.00  0.00     0.031 C 
ATOM     54  C   UNL     1       3.912   7.963  10.495  1.00  0.00     0.037 A 
BRANCH  41  55
ATOM     55  C   UNL     1       2.179   2.054  10.853  1.00  0.00     0.057 A 
ATOM     56  C   UNL     1       3.035   0.992  10.541  1.00  0.00     0.134 A 
ATOM     57  C   UNL     1       1.312   1.891  11.941  1.00  0.00     0.134 A 
ATOM     58  F   UNL     1       3.873   1.079   9.498  1.00  0.00    -0.206 F 
ATOM     59  C   UNL     1       3.015  -0.197  11.274  1.00  0.00     0.040 A 
ATOM     60  C   UNL     1       1.296   0.716  12.693  1.00  0.00     0.040 A 
ATOM     61  F   UNL     1       0.467   2.873  12.291  1.00  0.00    -0.206 F 
ATOM     62  C   UNL     1       2.147  -0.334  12.357  1.00  0.00     0.006 A 
ENDBRANCH  41  55
BRANCH  42  63
ATOM     63  C   UNL     1       1.938  10.307   5.286  1.00  0.00     0.057 A 
ATOM     64  C   UNL     1       3.092  10.719   4.610  1.00  0.00     0.134 A 
ATOM     65  C   UNL     1       0.790  11.095   5.148  1.00  0.00     0.134 A 
ATOM     66  F   UNL     1       4.229  10.017   4.725  1.00  0.00    -0.206 F 
ATOM     67  C   UNL     1       3.107  11.877   3.831  1.00  0.00     0.040 A 
ATOM     68  C   UNL     1       0.785  12.243   4.356  1.00  0.00     0.040 A 
ATOM     69  F   UNL     1      -0.346  10.752   5.773  1.00  0.00    -0.206 F 
ATOM     70  C   UNL     1       1.948  12.639   3.698  1.00  0.00     0.006 A 
ENDBRANCH  42  63
BRANCH  54  71
ATOM     71  C   UNL     1       4.721   8.769  11.462  1.00  0.00     0.057 A 
ATOM     72  C   UNL     1       4.125   9.719  12.299  1.00  0.00     0.134 A 
ATOM     73  C   UNL     1       6.103   8.575  11.574  1.00  0.00     0.134 A 
ATOM     74  F   UNL     1       2.807   9.957  12.227  1.00  0.00    -0.206 F 
ATOM     75  C   UNL     1       4.880  10.463  13.206  1.00  0.00     0.040 A 
ATOM     76  C   UNL     1       6.866   9.303  12.487  1.00  0.00     0.040 A 
ATOM     77  F   UNL     1       6.729   7.676  10.800  1.00  0.00    -0.206 F 
ATOM     78  C   UNL     1       6.255  10.253  13.304  1.00  0.00     0.006 A 
ENDBRANCH  54  71
ENDBRANCH  28  29
ENDBRANCH  21  23
ENDBRANCH  20  21
ENDBRANCH  19  20
ENDBRANCH  18  19
ENDBRANCH   1  18
TORSDOF 17
