REMARK SMILES O=C(OCCOC(=O)c1cc(N2CCN(c3ccc(F)cc3)CC2)ccc1NC(=O)C1CCCC1)c1ccc(-c2c3nc(c(-c4c(F)cccc4F)c4ccc([nH]4)c(-c4c(F)cccc4F)c4nc(c(-c5c(F)cccc5F)c5ccc2[nH]5)C=C4)C=C3)cc1
REMARK SMILES IDX 4 1 3 2 2 3 1 4 36 5 37 6 89 7 38 8 88 9 39 10 40 11 41 12
REMARK SMILES IDX 82 13 42 14 87 15 81 16 83 17 43 18 86 19 80 20 79 21 44 23
REMARK SMILES IDX 70 24 53 25 69 26 54 27 57 28 68 29 84 30 55 31 56 32 67 34
REMARK SMILES IDX 85 35 58 36 45 37 46 38 51 39 47 40 48 41 50 42 52 43 49 44
REMARK SMILES IDX 71 45 72 46 77 47 73 48 74 49 76 50 78 51 75 52 59 53 60 54
REMARK SMILES IDX 65 55 61 56 62 57 64 58 66 59 63 60 5 61 6 62 7 63 8 64 9 65
REMARK SMILES IDX 10 66 27 67 11 68 26 69 25 70 28 71 29 72 30 74 31 75 32 76
REMARK SMILES IDX 35 77 33 78 34 79 12 80 13 81 24 82 14 83 23 84 15 85 16 86
REMARK SMILES IDX 17 87 22 88 18 89 21 90 19 91 20 92
REMARK H PARENT 83 22 57 33 28 73
REMARK Flexibility Score: inf
ROOT
ATOM      1  C   UNL     1       4.037  -1.530  -0.371  1.00  0.00     0.275 C 
ENDROOT
BRANCH   1   2
ATOM      2  O   UNL     1       3.023  -1.050   0.529  1.00  0.00    -0.458 OA
BRANCH   2   3
ATOM      3  C   UNL     1       2.917   0.138   1.168  1.00  0.00     0.338 C 
ATOM      4  O   UNL     1       2.039   0.277   2.020  1.00  0.00    -0.246 OA
BRANCH   3   5
ATOM      5  C   UNL     1       3.726   1.347   0.812  1.00  0.00     0.060 A 
ATOM      6  C   UNL     1       5.036   1.351   0.327  1.00  0.00     0.016 A 
ATOM      7  C   UNL     1       3.101   2.590   1.009  1.00  0.00     0.016 A 
ATOM      8  C   UNL     1       5.681   2.545  -0.022  1.00  0.00     0.010 A 
ATOM      9  C   UNL     1       3.738   3.785   0.658  1.00  0.00     0.010 A 
ATOM     10  C   UNL     1       5.040   3.773   0.136  1.00  0.00    -0.014 A 
BRANCH  10  11
ATOM     11  C   UNL     1       5.782   5.047  -0.034  1.00  0.00     0.031 A 
ATOM     12  C   UNL     1       6.122   5.824   1.203  1.00  0.00     0.074 A 
ATOM     13  C   UNL     1       6.245   5.484  -1.223  1.00  0.00     0.049 A 
ATOM     14  N   UNL     1       6.716   6.981   1.309  1.00  0.00    -0.248 NA
ATOM     15  C   UNL     1       5.819   5.176   2.492  1.00  0.00     0.031 C 
ATOM     16  C   UNL     1       6.237   4.732  -2.471  1.00  0.00     0.029 A 
ATOM     17  N   UNL     1       6.790   6.697  -1.583  1.00  0.00    -0.354 N 
ATOM     18  C   UNL     1       6.968   7.137   2.662  1.00  0.00     0.074 A 
ATOM     19  C   UNL     1       6.327   6.043   3.353  1.00  0.00     0.031 C 
ATOM     20  C   UNL     1       6.636   5.534  -3.475  1.00  0.00     0.029 A 
ATOM     21  C   UNL     1       6.872   6.869  -2.950  1.00  0.00     0.049 A 
ATOM     22  H   UNL     1       7.090   7.372  -0.932  1.00  0.00     0.167 HD
ATOM     23  C   UNL     1       7.751   8.061   3.261  1.00  0.00     0.037 A 
ATOM     24  C   UNL     1       7.028   8.001  -3.666  1.00  0.00     0.037 A 
ATOM     25  C   UNL     1       8.357   9.163   2.568  1.00  0.00     0.049 A 
ATOM     26  C   UNL     1       7.467   9.234  -2.934  1.00  0.00     0.074 A 
ATOM     27  C   UNL     1       9.191  10.147   3.064  1.00  0.00     0.029 A 
ATOM     28  N   UNL     1       8.161   9.441   1.224  1.00  0.00    -0.354 N 
ATOM     29  N   UNL     1       7.651   9.405  -1.651  1.00  0.00    -0.248 NA
ATOM     30  C   UNL     1       7.821  10.396  -3.763  1.00  0.00     0.031 C 
ATOM     31  C   UNL     1       9.441  11.063   2.035  1.00  0.00     0.029 A 
ATOM     32  C   UNL     1       8.810  10.615   0.886  1.00  0.00     0.049 A 
ATOM     33  H   UNL     1       7.638   8.885   0.603  1.00  0.00     0.167 HD
ATOM     34  C   UNL     1       8.246  10.650  -1.526  1.00  0.00     0.074 A 
ATOM     35  C   UNL     1       8.292  11.232  -2.852  1.00  0.00     0.031 C 
ATOM     36  C   UNL     1       8.799  11.209  -0.424  1.00  0.00     0.037 A 
BRANCH  23  37
ATOM     37  C   UNL     1       7.992   7.885   4.726  1.00  0.00     0.057 A 
ATOM     38  C   UNL     1       8.782   6.835   5.218  1.00  0.00     0.134 A 
ATOM     39  C   UNL     1       7.411   8.752   5.656  1.00  0.00     0.134 A 
ATOM     40  F   UNL     1       9.345   5.954   4.376  1.00  0.00    -0.206 F 
ATOM     41  C   UNL     1       8.961   6.637   6.587  1.00  0.00     0.040 A 
ATOM     42  C   UNL     1       7.602   8.578   7.027  1.00  0.00     0.040 A 
ATOM     43  F   UNL     1       6.637   9.768   5.247  1.00  0.00    -0.206 F 
ATOM     44  C   UNL     1       8.372   7.514   7.495  1.00  0.00     0.006 A 
ENDBRANCH  23  37
BRANCH  24  45
ATOM     45  C   UNL     1       6.729   8.108  -5.120  1.00  0.00     0.057 A 
ATOM     46  C   UNL     1       7.530   7.563  -6.122  1.00  0.00     0.134 A 
ATOM     47  C   UNL     1       5.636   8.891  -5.534  1.00  0.00     0.134 A 
ATOM     48  F   UNL     1       8.615   6.845  -5.804  1.00  0.00    -0.206 F 
ATOM     49  C   UNL     1       7.253   7.783  -7.478  1.00  0.00     0.040 A 
ATOM     50  C   UNL     1       5.350   9.123  -6.880  1.00  0.00     0.040 A 
ATOM     51  F   UNL     1       4.848   9.478  -4.619  1.00  0.00    -0.206 F 
ATOM     52  C   UNL     1       6.161   8.564  -7.860  1.00  0.00     0.006 A 
ENDBRANCH  24  45
BRANCH  36  53
ATOM     53  C   UNL     1       9.569  12.470  -0.644  1.00  0.00     0.057 A 
ATOM     54  C   UNL     1       8.947  13.693  -0.915  1.00  0.00     0.134 A 
ATOM     55  C   UNL     1      10.970  12.438  -0.626  1.00  0.00     0.134 A 
ATOM     56  F   UNL     1       7.610  13.774  -0.988  1.00  0.00    -0.206 F 
ATOM     57  C   UNL     1       9.694  14.839  -1.186  1.00  0.00     0.040 A 
ATOM     58  C   UNL     1      11.726  13.583  -0.864  1.00  0.00     0.040 A 
ATOM     59  F   UNL     1      11.623  11.291  -0.386  1.00  0.00    -0.206 F 
ATOM     60  C   UNL     1      11.088  14.786  -1.154  1.00  0.00     0.006 A 
ENDBRANCH  36  53
ENDBRANCH  10  11
ENDBRANCH   3   5
ENDBRANCH   2   3
ENDBRANCH   1   2
BRANCH   1  61
ATOM     61  C   UNL     1       3.854  -1.119  -1.836  1.00  0.00     0.275 C 
BRANCH  61  62
ATOM     62  O   UNL     1       3.407   0.237  -2.002  1.00  0.00    -0.458 OA
BRANCH  62  63
ATOM     63  C   UNL     1       2.062   0.394  -2.150  1.00  0.00     0.340 C 
ATOM     64  O   UNL     1       1.240  -0.503  -2.240  1.00  0.00    -0.246 OA
BRANCH  63  65
ATOM     65  C   UNL     1       1.704   1.828  -2.021  1.00  0.00     0.085 A 
ATOM     66  C   UNL     1       0.545   2.121  -1.265  1.00  0.00     0.043 A 
ATOM     67  C   UNL     1       2.446   2.874  -2.588  1.00  0.00     0.055 A 
ATOM     68  C   UNL     1       0.157   3.440  -1.000  1.00  0.00     0.038 A 
ATOM     69  C   UNL     1       2.108   4.169  -2.201  1.00  0.00     0.029 A 
ATOM     70  C   UNL     1       0.981   4.460  -1.441  1.00  0.00     0.028 A 
BRANCH  67  71
ATOM     71  N   UNL     1       3.512   2.646  -3.488  1.00  0.00    -0.325 N 
ATOM     72  C   UNL     1       3.990   3.423  -4.526  1.00  0.00     0.227 C 
ATOM     73  H   UNL     1       3.992   1.797  -3.354  1.00  0.00     0.169 HD
ATOM     74  O   UNL     1       5.011   3.049  -5.111  1.00  0.00    -0.274 OA
BRANCH  72  75
ATOM     75  C   UNL     1       3.202   4.647  -4.993  1.00  0.00     0.079 C 
ATOM     76  C   UNL     1       3.680   6.012  -4.502  1.00  0.00     0.013 C 
ATOM     77  C   UNL     1       3.263   4.918  -6.502  1.00  0.00     0.013 C 
ATOM     78  C   UNL     1       2.726   6.935  -5.229  1.00  0.00     0.001 C 
ATOM     79  C   UNL     1       2.726   6.356  -6.642  1.00  0.00     0.001 C 
ENDBRANCH  72  75
ENDBRANCH  67  71
BRANCH  68  80
ATOM     80  N   UNL     1      -1.026   3.714  -0.344  1.00  0.00    -0.368 N 
ATOM     81  C   UNL     1      -1.007   4.142   1.071  1.00  0.00     0.138 C 
ATOM     82  C   UNL     1      -2.128   4.237  -1.175  1.00  0.00     0.138 C 
ATOM     83  C   UNL     1      -1.292   5.656   1.265  1.00  0.00     0.138 C 
ATOM     84  C   UNL     1      -2.357   5.750  -0.968  1.00  0.00     0.138 C 
ATOM     85  N   UNL     1      -2.445   6.097   0.458  1.00  0.00    -0.368 N 
BRANCH  85  86
ATOM     86  C   UNL     1      -3.667   6.309   1.069  1.00  0.00     0.037 A 
ATOM     87  C   UNL     1      -3.806   7.331   2.023  1.00  0.00     0.029 A 
ATOM     88  C   UNL     1      -4.810   5.560   0.752  1.00  0.00     0.029 A 
ATOM     89  C   UNL     1      -5.041   7.608   2.620  1.00  0.00     0.041 A 
ATOM     90  C   UNL     1      -6.044   5.818   1.357  1.00  0.00     0.041 A 
ATOM     91  C   UNL     1      -6.149   6.846   2.281  1.00  0.00     0.123 A 
ATOM     92  F   UNL     1      -7.335   7.108   2.847  1.00  0.00    -0.207 F 
ENDBRANCH  85  86
ENDBRANCH  68  80
ENDBRANCH  63  65
ENDBRANCH  62  63
ENDBRANCH  61  62
ENDBRANCH   1  61
TORSDOF 15
