REMARK SMILES C[C@H]1Cc2ccc(C3CC3)cc2[C@H](C(=O)OCCOC(=O)c2ccc(-c3c4nc(c(-c5c(F)cccc5F)c5ccc([nH]5)c(-c5c(F)cccc5F)c5nc(c(-c6c(F)cccc6F)c6ccc3[nH]6)C=C5)C=C4)cc2)[NH2+]1
REMARK SMILES IDX 18 1 17 2 16 3 14 4 15 5 13 6 1 7 2 8 3 9 76 10 4 11 5 14
REMARK SMILES IDX 12 15 6 16 11 17 7 18 8 19 9 20 10 21 19 22 20 23 21 24
REMARK SMILES IDX 22 25 23 26 75 27 24 28 74 29 25 30 26 31 27 32 68 33 28 34
REMARK SMILES IDX 73 35 67 36 69 37 29 38 72 39 66 40 65 41 30 43 56 44 39 45
REMARK SMILES IDX 55 46 40 47 43 48 54 49 70 50 41 51 42 52 53 54 71 55 44 56
REMARK SMILES IDX 31 57 32 58 37 59 33 60 34 61 36 62 38 63 35 64 57 65 58 66
REMARK SMILES IDX 63 67 59 68 60 69 62 70 64 71 61 72 45 73 46 74 51 75 47 76
REMARK SMILES IDX 48 77 50 78 52 79 49 80
REMARK H PARENT 76 12 76 13 69 42 43 53
REMARK Flexibility Score: inf
ROOT
ATOM      1  C   UNL     1      -1.237   5.717  -3.063  1.00  0.00     0.275 C 
ENDROOT
BRANCH   1   2
ATOM      2  C   UNL     1      -1.884   5.106  -1.814  1.00  0.00     0.274 C 
BRANCH   2   3
ATOM      3  O   UNL     1      -0.937   4.900  -0.748  1.00  0.00    -0.457 OA
BRANCH   3   4
ATOM      4  C   UNL     1      -0.436   3.636  -0.623  1.00  0.00     0.369 C 
ATOM      5  O   UNL     1      -0.704   2.718  -1.395  1.00  0.00    -0.245 OA
BRANCH   4   6
ATOM      6  C   UNL     1       0.594   3.529   0.537  1.00  0.00     0.325 C 
ATOM      7  C   UNL     1       1.022  -0.203   0.782  1.00  0.00     0.075 C 
ATOM      8  C   UNL     1       0.360   1.151   1.031  1.00  0.00     0.184 C 
ATOM      9  C   UNL     1       0.042   1.385   2.514  1.00  0.00     0.100 C 
ATOM     10  N   UNL     1       1.265   2.195   0.532  1.00  0.00    -0.328 N 
ATOM     11  C   UNL     1      -0.302   2.828   2.814  1.00  0.00    -0.032 A 
ATOM     12  H   UNL     1       1.545   1.965  -0.421  1.00  0.00     0.347 HD
ATOM     13  H   UNL     1       2.081   2.238   1.143  1.00  0.00     0.347 HD
ATOM     14  C   UNL     1      -0.855   3.167   4.051  1.00  0.00     0.005 A 
ATOM     15  C   UNL     1       0.011   3.850   1.901  1.00  0.00     0.025 A 
ATOM     16  C   UNL     1      -1.093   4.506   4.378  1.00  0.00     0.004 A 
ATOM     17  C   UNL     1      -0.219   5.191   2.262  1.00  0.00     0.014 A 
ATOM     18  C   UNL     1      -0.775   5.555   3.499  1.00  0.00    -0.044 A 
BRANCH  18  19
ATOM     19  C   UNL     1      -1.046   6.992   3.905  1.00  0.00     0.019 C 
ATOM     20  C   UNL     1      -0.446   8.182   3.195  1.00  0.00     0.009 C 
ATOM     21  C   UNL     1      -1.899   7.858   3.006  1.00  0.00     0.009 C 
ENDBRANCH  18  19
ENDBRANCH   4   6
ENDBRANCH   3   4
ENDBRANCH   2   3
ENDBRANCH   1   2
BRANCH   1  22
ATOM     22  O   UNL     1      -0.353   4.793  -3.728  1.00  0.00    -0.458 OA
BRANCH  22  23
ATOM     23  C   UNL     1       0.947   4.877  -3.362  1.00  0.00     0.338 C 
ATOM     24  O   UNL     1       1.440   5.681  -2.579  1.00  0.00    -0.246 OA
BRANCH  23  25
ATOM     25  C   UNL     1       1.682   3.700  -3.852  1.00  0.00     0.060 A 
ATOM     26  C   UNL     1       1.887   3.424  -5.202  1.00  0.00     0.016 A 
ATOM     27  C   UNL     1       2.232   2.867  -2.878  1.00  0.00     0.016 A 
ATOM     28  C   UNL     1       2.619   2.281  -5.558  1.00  0.00     0.010 A 
ATOM     29  C   UNL     1       2.927   1.715  -3.225  1.00  0.00     0.010 A 
ATOM     30  C   UNL     1       3.129   1.410  -4.573  1.00  0.00    -0.014 A 
BRANCH  30  31
ATOM     31  C   UNL     1       3.965   0.237  -4.928  1.00  0.00     0.031 A 
ATOM     32  C   UNL     1       3.460  -1.167  -4.753  1.00  0.00     0.074 A 
ATOM     33  C   UNL     1       5.230   0.447  -5.334  1.00  0.00     0.049 A 
ATOM     34  N   UNL     1       4.029  -2.296  -5.095  1.00  0.00    -0.248 NA
ATOM     35  C   UNL     1       2.163  -1.326  -4.080  1.00  0.00     0.031 C 
ATOM     36  C   UNL     1       5.873   1.757  -5.438  1.00  0.00     0.029 A 
ATOM     37  N   UNL     1       6.199  -0.435  -5.738  1.00  0.00    -0.354 N 
ATOM     38  C   UNL     1       3.155  -3.299  -4.694  1.00  0.00     0.074 A 
ATOM     39  C   UNL     1       2.051  -2.646  -4.021  1.00  0.00     0.031 C 
ATOM     40  C   UNL     1       7.109   1.599  -5.935  1.00  0.00     0.029 A 
ATOM     41  C   UNL     1       7.350   0.178  -6.165  1.00  0.00     0.049 A 
ATOM     42  H   UNL     1       6.080  -1.413  -5.723  1.00  0.00     0.167 HD
ATOM     43  C   UNL     1       3.252  -4.637  -4.892  1.00  0.00     0.037 A 
ATOM     44  C   UNL     1       8.463  -0.346  -6.710  1.00  0.00     0.037 A 
ATOM     45  C   UNL     1       4.362  -5.279  -5.551  1.00  0.00     0.049 A 
ATOM     46  C   UNL     1       8.553  -1.832  -6.913  1.00  0.00     0.074 A 
ATOM     47  C   UNL     1       4.517  -6.613  -5.889  1.00  0.00     0.029 A 
ATOM     48  N   UNL     1       5.522  -4.631  -5.952  1.00  0.00    -0.354 N 
ATOM     49  N   UNL     1       7.660  -2.758  -6.664  1.00  0.00    -0.248 NA
ATOM     50  C   UNL     1       9.810  -2.341  -7.479  1.00  0.00     0.031 C 
ATOM     51  C   UNL     1       5.792  -6.780  -6.447  1.00  0.00     0.029 A 
ATOM     52  C   UNL     1       6.413  -5.542  -6.498  1.00  0.00     0.049 A 
ATOM     53  H   UNL     1       5.689  -3.665  -5.861  1.00  0.00     0.167 HD
ATOM     54  C   UNL     1       8.236  -3.957  -7.062  1.00  0.00     0.074 A 
ATOM     55  C   UNL     1       9.549  -3.636  -7.586  1.00  0.00     0.031 C 
ATOM     56  C   UNL     1       7.723  -5.211  -7.001  1.00  0.00     0.037 A 
BRANCH  43  57
ATOM     57  C   UNL     1       2.119  -5.490  -4.394  1.00  0.00     0.057 A 
ATOM     58  C   UNL     1       2.300  -6.388  -3.334  1.00  0.00     0.134 A 
ATOM     59  C   UNL     1       0.842  -5.428  -4.971  1.00  0.00     0.134 A 
ATOM     60  F   UNL     1       3.498  -6.513  -2.743  1.00  0.00    -0.206 F 
ATOM     61  C   UNL     1       1.252  -7.179  -2.857  1.00  0.00     0.040 A 
ATOM     62  C   UNL     1      -0.221  -6.192  -4.484  1.00  0.00     0.040 A 
ATOM     63  F   UNL     1       0.596  -4.590  -5.989  1.00  0.00    -0.206 F 
ATOM     64  C   UNL     1      -0.017  -7.072  -3.424  1.00  0.00     0.006 A 
ENDBRANCH  43  57
BRANCH  44  65
ATOM     65  C   UNL     1       9.547   0.550  -7.179  1.00  0.00     0.057 A 
ATOM     66  C   UNL     1      10.374   1.241  -6.287  1.00  0.00     0.134 A 
ATOM     67  C   UNL     1       9.768   0.740  -8.548  1.00  0.00     0.134 A 
ATOM     68  F   UNL     1      10.206   1.106  -4.964  1.00  0.00    -0.206 F 
ATOM     69  C   UNL     1      11.379   2.097  -6.741  1.00  0.00     0.040 A 
ATOM     70  C   UNL     1      10.783   1.576  -9.016  1.00  0.00     0.040 A 
ATOM     71  F   UNL     1       9.016   0.092  -9.449  1.00  0.00    -0.206 F 
ATOM     72  C   UNL     1      11.588   2.262  -8.109  1.00  0.00     0.006 A 
ENDBRANCH  44  65
BRANCH  56  73
ATOM     73  C   UNL     1       8.587  -6.322  -7.524  1.00  0.00     0.057 A 
ATOM     74  C   UNL     1       8.272  -6.970  -8.725  1.00  0.00     0.134 A 
ATOM     75  C   UNL     1       9.729  -6.755  -6.836  1.00  0.00     0.134 A 
ATOM     76  F   UNL     1       7.191  -6.609  -9.431  1.00  0.00    -0.206 F 
ATOM     77  C   UNL     1       9.062  -8.008  -9.223  1.00  0.00     0.040 A 
ATOM     78  C   UNL     1      10.541  -7.773  -7.337  1.00  0.00     0.040 A 
ATOM     79  F   UNL     1      10.096  -6.163  -5.689  1.00  0.00    -0.206 F 
ATOM     80  C   UNL     1      10.205  -8.406  -8.532  1.00  0.00     0.006 A 
ENDBRANCH  56  73
ENDBRANCH  30  31
ENDBRANCH  23  25
ENDBRANCH  22  23
ENDBRANCH   1  22
TORSDOF 12
