REMARK SMILES O=C(OCCOC(=O)[C@@H]1CC=CC[C@@H]1C(=O)Nc1sc2c(c1C(=O)N1CCCCC1)CCCC2)c1ccc(-c2c3nc(c(-c4c(F)cccc4F)c4ccc([nH]4)c(-c4c(F)cccc4F)c4nc(c(-c5c(F)cccc5F)c5ccc2[nH]5)C=C4)C=C3)cc1
REMARK SMILES IDX 5 1 4 2 3 3 2 4 1 5 35 6 36 7 88 8 37 9 87 10 38 11 39 12
REMARK SMILES IDX 40 13 81 14 41 15 86 16 80 17 82 18 42 19 85 20 79 21 78 22
REMARK SMILES IDX 43 24 69 25 52 26 68 27 53 28 56 29 67 30 83 31 54 32 55 33
REMARK SMILES IDX 66 35 84 36 57 37 44 38 45 39 50 40 46 41 47 42 49 43 51 44
REMARK SMILES IDX 48 45 70 46 71 47 76 48 72 49 73 50 75 51 77 52 74 53 58 54
REMARK SMILES IDX 59 55 64 56 60 57 61 58 63 59 65 60 62 61 6 62 7 63 8 64
REMARK SMILES IDX 9 65 10 66 14 67 11 68 13 69 12 70 15 71 16 72 17 73 18 75
REMARK SMILES IDX 19 76 22 77 20 78 21 79 34 80 31 81 33 82 32 83 23 84 24 85
REMARK SMILES IDX 25 86 26 87 30 88 27 89 29 90 28 91
REMARK H PARENT 82 23 56 34 17 74
REMARK Flexibility Score: inf
ROOT
ATOM      1  C   UNL     1       5.102  -5.096  -0.461  1.00  0.00     0.274 C 
ENDROOT
BRANCH   1   2
ATOM      2  C   UNL     1       4.934  -6.137  -1.653  1.00  0.00     0.275 C 
BRANCH   2   3
ATOM      3  O   UNL     1       4.448  -5.657  -2.904  1.00  0.00    -0.458 OA
BRANCH   3   4
ATOM      4  C   UNL     1       4.172  -4.338  -2.986  1.00  0.00     0.338 C 
ATOM      5  O   UNL     1       4.978  -3.675  -3.608  1.00  0.00    -0.246 OA
BRANCH   4   6
ATOM      6  C   UNL     1       2.708  -3.914  -2.273  1.00  0.00     0.060 A 
ATOM      7  C   UNL     1       2.284  -5.285  -1.504  1.00  0.00     0.016 A 
ATOM      8  C   UNL     1       1.454  -2.653  -2.798  1.00  0.00     0.016 A 
ATOM      9  C   UNL     1       0.734  -5.541  -1.361  1.00  0.00     0.010 A 
ATOM     10  C   UNL     1      -0.207  -2.869  -2.873  1.00  0.00     0.010 A 
ATOM     11  C   UNL     1      -0.714  -4.311  -2.118  1.00  0.00    -0.014 A 
BRANCH  11  12
ATOM     12  C   UNL     1      -2.275  -4.033  -1.995  1.00  0.00     0.031 A 
ATOM     13  C   UNL     1      -3.237  -4.812  -2.809  1.00  0.00     0.074 A 
ATOM     14  C   UNL     1      -2.712  -3.093  -1.115  1.00  0.00     0.049 A 
ATOM     15  N   UNL     1      -4.466  -5.127  -2.518  1.00  0.00    -0.248 NA
ATOM     16  C   UNL     1      -2.775  -5.295  -4.119  1.00  0.00     0.031 C 
ATOM     17  C   UNL     1      -1.879  -2.083  -0.464  1.00  0.00     0.029 A 
ATOM     18  N   UNL     1      -3.896  -2.985  -0.428  1.00  0.00    -0.354 N 
ATOM     19  C   UNL     1      -4.922  -5.843  -3.608  1.00  0.00     0.074 A 
ATOM     20  C   UNL     1      -3.816  -6.009  -4.523  1.00  0.00     0.031 C 
ATOM     21  C   UNL     1      -2.408  -1.745   0.711  1.00  0.00     0.029 A 
ATOM     22  C   UNL     1      -3.743  -2.297   0.771  1.00  0.00     0.049 A 
ATOM     23  H   UNL     1      -4.752  -3.353  -0.746  1.00  0.00     0.167 HD
ATOM     24  C   UNL     1      -6.194  -6.217  -3.852  1.00  0.00     0.037 A 
ATOM     25  C   UNL     1      -4.588  -2.128   1.806  1.00  0.00     0.037 A 
ATOM     26  C   UNL     1      -7.285  -5.839  -2.997  1.00  0.00     0.049 A 
ATOM     27  C   UNL     1      -5.968  -2.647   1.560  1.00  0.00     0.074 A 
ATOM     28  C   UNL     1      -8.633  -6.080  -3.168  1.00  0.00     0.029 A 
ATOM     29  N   UNL     1      -7.151  -5.066  -1.847  1.00  0.00    -0.354 N 
ATOM     30  N   UNL     1      -6.380  -3.443   0.601  1.00  0.00    -0.248 NA
ATOM     31  C   UNL     1      -7.024  -2.161   2.449  1.00  0.00     0.031 C 
ATOM     32  C   UNL     1      -9.319  -5.380  -2.174  1.00  0.00     0.029 A 
ATOM     33  C   UNL     1      -8.398  -4.788  -1.321  1.00  0.00     0.049 A 
ATOM     34  H   UNL     1      -6.296  -4.762  -1.466  1.00  0.00     0.167 HD
ATOM     35  C   UNL     1      -7.755  -3.484   0.716  1.00  0.00     0.074 A 
ATOM     36  C   UNL     1      -8.092  -2.730   1.911  1.00  0.00     0.031 C 
ATOM     37  C   UNL     1      -8.665  -4.031  -0.123  1.00  0.00     0.037 A 
BRANCH  24  38
ATOM     38  C   UNL     1      -6.474  -6.903  -5.150  1.00  0.00     0.057 A 
ATOM     39  C   UNL     1      -6.071  -8.219  -5.403  1.00  0.00     0.134 A 
ATOM     40  C   UNL     1      -7.167  -6.228  -6.163  1.00  0.00     0.134 A 
ATOM     41  F   UNL     1      -5.363  -8.902  -4.490  1.00  0.00    -0.206 F 
ATOM     42  C   UNL     1      -6.357  -8.844  -6.618  1.00  0.00     0.040 A 
ATOM     43  C   UNL     1      -7.482  -6.850  -7.370  1.00  0.00     0.040 A 
ATOM     44  F   UNL     1      -7.551  -4.954  -5.994  1.00  0.00    -0.206 F 
ATOM     45  C   UNL     1      -7.077  -8.162  -7.599  1.00  0.00     0.006 A 
ENDBRANCH  24  38
BRANCH  25  46
ATOM     46  C   UNL     1      -4.229  -1.354   3.037  1.00  0.00     0.057 A 
ATOM     47  C   UNL     1      -4.471  -1.858   4.323  1.00  0.00     0.134 A 
ATOM     48  C   UNL     1      -3.681  -0.061   2.975  1.00  0.00     0.134 A 
ATOM     49  F   UNL     1      -5.012  -3.075   4.483  1.00  0.00    -0.206 F 
ATOM     50  C   UNL     1      -4.209  -1.108   5.477  1.00  0.00     0.040 A 
ATOM     51  C   UNL     1      -3.342   0.666   4.117  1.00  0.00     0.040 A 
ATOM     52  F   UNL     1      -3.461   0.535   1.794  1.00  0.00    -0.206 F 
ATOM     53  C   UNL     1      -3.628   0.153   5.375  1.00  0.00     0.006 A 
ENDBRANCH  25  46
BRANCH  37  54
ATOM     54  C   UNL     1     -10.097  -3.830   0.244  1.00  0.00     0.057 A 
ATOM     55  C   UNL     1     -10.717  -2.580   0.132  1.00  0.00     0.134 A 
ATOM     56  C   UNL     1     -10.873  -4.919   0.654  1.00  0.00     0.134 A 
ATOM     57  F   UNL     1     -10.015  -1.500  -0.242  1.00  0.00    -0.206 F 
ATOM     58  C   UNL     1     -12.065  -2.417   0.440  1.00  0.00     0.040 A 
ATOM     59  C   UNL     1     -12.229  -4.776   0.922  1.00  0.00     0.040 A 
ATOM     60  F   UNL     1     -10.328  -6.140   0.765  1.00  0.00    -0.206 F 
ATOM     61  C   UNL     1     -12.826  -3.520   0.823  1.00  0.00     0.006 A 
ENDBRANCH  37  54
ENDBRANCH  11  12
ENDBRANCH   4   6
ENDBRANCH   3   4
ENDBRANCH   2   3
ENDBRANCH   1   2
BRANCH   1  62
ATOM     62  O   UNL     1       4.307  -3.823  -0.507  1.00  0.00    -0.462 OA
BRANCH  62  63
ATOM     63  C   UNL     1       4.845  -2.635  -0.956  1.00  0.00     0.310 C 
ATOM     64  O   UNL     1       6.050  -2.433  -0.850  1.00  0.00    -0.252 OA
BRANCH  63  65
ATOM     65  C   UNL     1       3.855  -1.580  -1.752  1.00  0.00     0.116 C 
ATOM     66  C   UNL     1       2.690  -0.839  -0.978  1.00  0.00     0.043 C 
ATOM     67  C   UNL     1       3.629  -1.648  -3.475  1.00  0.00     0.097 C 
ATOM     68  C   UNL     1       1.975   0.239  -1.776  1.00  0.00    -0.030 C 
ATOM     69  C   UNL     1       3.345  -0.141  -3.847  1.00  0.00     0.041 C 
ATOM     70  C   UNL     1       2.271   0.551  -3.048  1.00  0.00    -0.030 C 
BRANCH  67  71
ATOM     71  C   UNL     1       2.785  -2.889  -4.661  1.00  0.00     0.229 C 
ATOM     72  O   UNL     1       2.990  -2.687  -5.875  1.00  0.00    -0.274 OA
ATOM     73  N   UNL     1       1.800  -4.155  -4.364  1.00  0.00    -0.317 N 
ATOM     74  H   UNL     1       1.728  -4.750  -5.145  1.00  0.00     0.170 HD
BRANCH  73  75
ATOM     75  C   UNL     1       0.854  -4.724  -3.045  1.00  0.00     0.108 A 
ATOM     76  S   UNL     1       0.738  -3.597  -0.794  1.00  0.00    -0.122 S 
ATOM     77  C   UNL     1      -0.201  -6.202  -2.948  1.00  0.00     0.078 A 
ATOM     78  C   UNL     1      -0.832  -5.069  -0.126  1.00  0.00     0.011 A 
ATOM     79  C   UNL     1      -1.180  -6.300  -1.269  1.00  0.00    -0.019 A 
ATOM     80  C   UNL     1      -1.139  -4.962   1.317  1.00  0.00     0.047 C 
ATOM     81  C   UNL     1      -1.698  -7.513  -0.499  1.00  0.00     0.037 C 
ATOM     82  C   UNL     1      -1.427  -6.350   1.844  1.00  0.00     0.006 C 
ATOM     83  C   UNL     1      -2.327  -7.152   0.880  1.00  0.00     0.005 C 
BRANCH  77  84
ATOM     84  C   UNL     1       0.430  -7.388  -3.614  1.00  0.00     0.257 C 
ATOM     85  O   UNL     1       1.227  -7.250  -4.537  1.00  0.00    -0.269 OA
ATOM     86  N   UNL     1       0.318  -8.568  -2.894  1.00  0.00    -0.339 N 
ATOM     87  C   UNL     1       1.481  -9.403  -2.597  1.00  0.00     0.120 C 
ATOM     88  C   UNL     1      -0.966  -9.225  -2.830  1.00  0.00     0.120 C 
ATOM     89  C   UNL     1       1.473 -10.709  -3.393  1.00  0.00     0.022 C 
ATOM     90  C   UNL     1      -0.996 -10.398  -3.784  1.00  0.00     0.022 C 
ATOM     91  C   UNL     1       0.098 -11.383  -3.380  1.00  0.00     0.004 C 
ENDBRANCH  77  84
ENDBRANCH  73  75
ENDBRANCH  67  71
ENDBRANCH  63  65
ENDBRANCH  62  63
ENDBRANCH   1  62
TORSDOF 14
