REMARK SMILES O=C(Cc1ccn(C(F)F)c(=O)c1)OCCOC(=O)c1ccc(-c2c3nc(c(-c4c(F)cccc4F)c4ccc([nH]4)c(-c4c(F)cccc4F)c4nc(c(-c5c(F)cccc5F)c5ccc2[nH]5)C=C4)C=C3)cc1
REMARK SMILES IDX 15 1 14 2 2 3 1 4 3 5 4 6 5 7 13 8 6 9 11 10 7 11 12 12 8 13
REMARK SMILES IDX 9 14 10 15 16 16 17 17 18 18 19 19 20 20 21 21 73 22 22 23
REMARK SMILES IDX 72 24 23 25 24 26 25 27 66 28 26 29 71 30 65 31 67 32 27 33
REMARK SMILES IDX 70 34 64 35 63 36 28 38 54 39 37 40 53 41 38 42 41 43 52 44
REMARK SMILES IDX 68 45 39 46 40 47 51 49 69 50 42 51 29 52 30 53 35 54 31 55
REMARK SMILES IDX 32 56 34 57 36 58 33 59 55 60 56 61 61 62 57 63 58 64 60 65
REMARK SMILES IDX 62 66 59 67 43 68 44 69 49 70 45 71 46 72 48 73 50 74 47 75
REMARK H PARENT 67 37 41 48
REMARK Flexibility Score: inf
ROOT
ATOM      1  C   UNL     1       4.368   0.104   0.984  1.00  0.00     0.274 C 
ENDROOT
BRANCH   1   2
ATOM      2  O   UNL     1       3.045   0.674   0.881  1.00  0.00    -0.462 OA
BRANCH   2   3
ATOM      3  C   UNL     1       2.358   0.867  -0.265  1.00  0.00     0.310 C 
ATOM      4  O   UNL     1       1.361   1.588  -0.275  1.00  0.00    -0.252 OA
BRANCH   3   5
ATOM      5  C   UNL     1       2.826   0.182  -1.535  1.00  0.00     0.158 C 
BRANCH   5   6
ATOM      6  C   UNL     1       3.746   0.949  -2.442  1.00  0.00    -0.030 A 
ATOM      7  C   UNL     1       3.641   2.387  -2.557  1.00  0.00     0.023 A 
ATOM      8  C   UNL     1       4.643   0.296  -3.203  1.00  0.00     0.076 A 
ATOM      9  C   UNL     1       4.406   3.051  -3.433  1.00  0.00     0.095 A 
ATOM     10  C   UNL     1       5.489   1.017  -4.193  1.00  0.00     0.255 A 
ATOM     11  N   UNL     1       5.307   2.388  -4.246  1.00  0.00    -0.258 N 
ATOM     12  O   UNL     1       6.257   0.361  -4.888  1.00  0.00    -0.269 OA
BRANCH  11  13
ATOM     13  C   UNL     1       6.055   3.104  -5.246  1.00  0.00     0.451 C 
ATOM     14  F   UNL     1       7.386   2.888  -5.117  1.00  0.00    -0.185 F 
ATOM     15  F   UNL     1       5.684   2.713  -6.490  1.00  0.00    -0.185 F 
ENDBRANCH  11  13
ENDBRANCH   5   6
ENDBRANCH   3   5
ENDBRANCH   2   3
ENDBRANCH   1   2
BRANCH   1  16
ATOM     16  C   UNL     1       4.315  -1.291   1.611  1.00  0.00     0.275 C 
BRANCH  16  17
ATOM     17  O   UNL     1       4.011  -2.267   0.598  1.00  0.00    -0.458 OA
BRANCH  17  18
ATOM     18  C   UNL     1       2.719  -2.666   0.500  1.00  0.00     0.338 C 
ATOM     19  O   UNL     1       1.804  -2.373   1.249  1.00  0.00    -0.246 OA
BRANCH  18  20
ATOM     20  C   UNL     1       2.539  -3.312  -0.824  1.00  0.00     0.060 A 
ATOM     21  C   UNL     1       3.570  -4.033  -1.436  1.00  0.00     0.016 A 
ATOM     22  C   UNL     1       1.341  -3.078  -1.514  1.00  0.00     0.016 A 
ATOM     23  C   UNL     1       3.411  -4.502  -2.741  1.00  0.00     0.010 A 
ATOM     24  C   UNL     1       1.186  -3.542  -2.822  1.00  0.00     0.010 A 
ATOM     25  C   UNL     1       2.221  -4.255  -3.445  1.00  0.00    -0.014 A 
BRANCH  25  26
ATOM     26  C   UNL     1       2.027  -4.841  -4.790  1.00  0.00     0.031 A 
ATOM     27  C   UNL     1       2.277  -4.049  -6.038  1.00  0.00     0.074 A 
ATOM     28  C   UNL     1       1.610  -6.118  -4.872  1.00  0.00     0.049 A 
ATOM     29  N   UNL     1       2.217  -4.444  -7.285  1.00  0.00    -0.248 NA
ATOM     30  C   UNL     1       2.639  -2.635  -5.870  1.00  0.00     0.031 C 
ATOM     31  C   UNL     1       1.315  -6.980  -3.727  1.00  0.00     0.029 A 
ATOM     32  N   UNL     1       1.359  -6.908  -5.963  1.00  0.00    -0.354 N 
ATOM     33  C   UNL     1       2.551  -3.336  -8.053  1.00  0.00     0.074 A 
ATOM     34  C   UNL     1       2.781  -2.242  -7.130  1.00  0.00     0.031 C 
ATOM     35  C   UNL     1       0.919  -8.182  -4.177  1.00  0.00     0.029 A 
ATOM     36  C   UNL     1       0.922  -8.167  -5.637  1.00  0.00     0.049 A 
ATOM     37  H   UNL     1       1.481  -6.602  -6.891  1.00  0.00     0.167 HD
ATOM     38  C   UNL     1       2.665  -3.249  -9.400  1.00  0.00     0.037 A 
ATOM     39  C   UNL     1       0.559  -9.194  -6.426  1.00  0.00     0.037 A 
ATOM     40  C   UNL     1       2.434  -4.339 -10.315  1.00  0.00     0.049 A 
ATOM     41  C   UNL     1       0.648  -9.048  -7.918  1.00  0.00     0.074 A 
ATOM     42  C   UNL     1       2.606  -4.363 -11.689  1.00  0.00     0.029 A 
ATOM     43  N   UNL     1       1.964  -5.591  -9.952  1.00  0.00    -0.354 N 
ATOM     44  N   UNL     1       1.068  -8.028  -8.625  1.00  0.00    -0.248 NA
ATOM     45  C   UNL     1       0.222 -10.203  -8.721  1.00  0.00     0.031 C 
ATOM     46  C   UNL     1       2.192  -5.612 -12.163  1.00  0.00     0.029 A 
ATOM     47  C   UNL     1       1.802  -6.381 -11.080  1.00  0.00     0.049 A 
ATOM     48  H   UNL     1       1.772  -5.877  -9.029  1.00  0.00     0.167 HD
ATOM     49  C   UNL     1       0.987  -8.428  -9.952  1.00  0.00     0.074 A 
ATOM     50  C   UNL     1       0.486  -9.787  -9.951  1.00  0.00     0.031 C 
ATOM     51  C   UNL     1       1.306  -7.733 -11.070  1.00  0.00     0.037 A 
BRANCH  38  52
ATOM     52  C   UNL     1       3.061  -1.927  -9.986  1.00  0.00     0.057 A 
ATOM     53  C   UNL     1       2.138  -1.157 -10.704  1.00  0.00     0.134 A 
ATOM     54  C   UNL     1       4.380  -1.461  -9.919  1.00  0.00     0.134 A 
ATOM     55  F   UNL     1       0.861  -1.554 -10.817  1.00  0.00    -0.206 F 
ATOM     56  C   UNL     1       2.514   0.025 -11.344  1.00  0.00     0.040 A 
ATOM     57  C   UNL     1       4.764  -0.270 -10.537  1.00  0.00     0.040 A 
ATOM     58  F   UNL     1       5.312  -2.157  -9.251  1.00  0.00    -0.206 F 
ATOM     59  C   UNL     1       3.832   0.472 -11.260  1.00  0.00     0.006 A 
ENDBRANCH  38  52
BRANCH  39  60
ATOM     60  C   UNL     1       0.084 -10.460  -5.822  1.00  0.00     0.057 A 
ATOM     61  C   UNL     1      -1.167 -10.542  -5.199  1.00  0.00     0.134 A 
ATOM     62  C   UNL     1       0.859 -11.623  -5.878  1.00  0.00     0.134 A 
ATOM     63  F   UNL     1      -1.952  -9.458  -5.110  1.00  0.00    -0.206 F 
ATOM     64  C   UNL     1      -1.632 -11.739  -4.654  1.00  0.00     0.040 A 
ATOM     65  C   UNL     1       0.397 -12.832  -5.357  1.00  0.00     0.040 A 
ATOM     66  F   UNL     1       2.058 -11.607  -6.478  1.00  0.00    -0.206 F 
ATOM     67  C   UNL     1      -0.852 -12.891  -4.741  1.00  0.00     0.006 A 
ENDBRANCH  39  60
BRANCH  51  68
ATOM     68  C   UNL     1       1.151  -8.443 -12.382  1.00  0.00     0.057 A 
ATOM     69  C   UNL     1       2.276  -8.868 -13.100  1.00  0.00     0.134 A 
ATOM     70  C   UNL     1      -0.108  -8.694 -12.941  1.00  0.00     0.134 A 
ATOM     71  F   UNL     1       3.511  -8.655 -12.622  1.00  0.00    -0.206 F 
ATOM     72  C   UNL     1       2.153  -9.518 -14.329  1.00  0.00     0.040 A 
ATOM     73  C   UNL     1      -0.244  -9.364 -14.158  1.00  0.00     0.040 A 
ATOM     74  F   UNL     1      -1.224  -8.329 -12.293  1.00  0.00    -0.206 F 
ATOM     75  C   UNL     1       0.890  -9.773 -14.858  1.00  0.00     0.006 A 
ENDBRANCH  51  68
ENDBRANCH  25  26
ENDBRANCH  18  20
ENDBRANCH  17  18
ENDBRANCH  16  17
ENDBRANCH   1  16
TORSDOF 13
