REMARK SMILES CN(c1ccc(C(=O)OCCOC(=O)c2ccc(-c3c4nc(c(-c5c(F)cccc5F)c5ccc([nH]5)c(-c5c(F)cccc5F)c5nc(c(-c6c(F)cccc6F)c6ccc3[nH]6)C=C5)C=C4)cc2)cc1)S(C)(=O)=O
REMARK SMILES IDX 10 1 9 2 7 3 8 4 6 5 3 6 4 7 70 8 5 9 69 10 2 11 1 12 71 13
REMARK SMILES IDX 72 14 73 15 74 16 11 17 12 18 13 19 14 20 15 21 16 22 68 23
REMARK SMILES IDX 17 24 67 25 18 26 19 27 20 28 61 29 21 30 66 31 60 32 62 33
REMARK SMILES IDX 22 34 65 35 59 36 58 37 23 39 49 40 32 41 48 42 33 43 36 44
REMARK SMILES IDX 47 45 63 46 34 47 35 48 46 50 64 51 37 52 24 53 25 54 30 55
REMARK SMILES IDX 26 56 27 57 29 58 31 59 28 60 50 61 51 62 56 63 52 64 53 65
REMARK SMILES IDX 55 66 57 67 54 68 38 69 39 70 44 71 40 72 41 73 43 74 45 75
REMARK SMILES IDX 42 76
REMARK H PARENT 62 38 36 49
REMARK Flexibility Score: inf
ROOT
ATOM      1  C   UNL     1      -4.521   1.955  -5.921  1.00  0.00     0.275 C 
ENDROOT
BRANCH   1   2
ATOM      2  O   UNL     1      -3.793   1.671  -4.708  1.00  0.00    -0.458 OA
BRANCH   2   3
ATOM      3  C   UNL     1      -2.453   1.870  -4.766  1.00  0.00     0.338 C 
ATOM      4  O   UNL     1      -1.820   2.257  -5.735  1.00  0.00    -0.246 OA
BRANCH   3   5
ATOM      5  C   UNL     1      -1.820   1.644  -3.441  1.00  0.00     0.060 A 
ATOM      6  C   UNL     1      -0.561   1.338  -0.949  1.00  0.00     0.051 A 
ATOM      7  C   UNL     1      -0.019   2.197  -1.903  1.00  0.00     0.028 A 
ATOM      8  C   UNL     1      -1.692   0.577  -1.274  1.00  0.00     0.028 A 
ATOM      9  C   UNL     1      -0.641   2.343  -3.143  1.00  0.00     0.018 A 
ATOM     10  C   UNL     1      -2.337   0.743  -2.507  1.00  0.00     0.018 A 
BRANCH   6  11
ATOM     11  N   UNL     1       0.113   1.059   0.289  1.00  0.00    -0.274 N 
ATOM     12  C   UNL     1       0.989  -0.135   0.286  1.00  0.00     0.163 C 
BRANCH  11  13
ATOM     13  S   UNL     1       0.690   2.400   1.185  1.00  0.00     0.231 S 
ATOM     14  C   UNL     1       0.235   1.907   2.831  1.00  0.00     0.183 C 
ATOM     15  O   UNL     1       2.136   2.421   1.100  1.00  0.00    -0.207 OA
ATOM     16  O   UNL     1      -0.097   3.574   0.871  1.00  0.00    -0.207 OA
ENDBRANCH  11  13
ENDBRANCH   6  11
ENDBRANCH   3   5
ENDBRANCH   2   3
ENDBRANCH   1   2
BRANCH   1  17
ATOM     17  C   UNL     1      -5.226   3.309  -5.848  1.00  0.00     0.275 C 
BRANCH  17  18
ATOM     18  O   UNL     1      -4.263   4.376  -5.776  1.00  0.00    -0.458 OA
BRANCH  18  19
ATOM     19  C   UNL     1      -4.230   5.049  -4.604  1.00  0.00     0.338 C 
ATOM     20  O   UNL     1      -4.947   4.888  -3.631  1.00  0.00    -0.246 OA
BRANCH  19  21
ATOM     21  C   UNL     1      -3.134   6.029  -4.619  1.00  0.00     0.060 A 
ATOM     22  C   UNL     1      -1.831   5.568  -4.461  1.00  0.00     0.016 A 
ATOM     23  C   UNL     1      -3.400   7.396  -4.609  1.00  0.00     0.016 A 
ATOM     24  C   UNL     1      -0.799   6.462  -4.191  1.00  0.00     0.010 A 
ATOM     25  C   UNL     1      -2.343   8.300  -4.436  1.00  0.00     0.010 A 
ATOM     26  C   UNL     1      -1.036   7.844  -4.181  1.00  0.00    -0.014 A 
BRANCH  26  27
ATOM     27  C   UNL     1       0.064   8.799  -3.852  1.00  0.00     0.031 A 
ATOM     28  C   UNL     1      -0.079   9.755  -2.693  1.00  0.00     0.074 A 
ATOM     29  C   UNL     1       1.206   8.808  -4.568  1.00  0.00     0.049 A 
ATOM     30  N   UNL     1       0.673  10.774  -2.357  1.00  0.00    -0.248 NA
ATOM     31  C   UNL     1      -1.232   9.546  -1.804  1.00  0.00     0.031 C 
ATOM     32  C   UNL     1       1.517   7.910  -5.682  1.00  0.00     0.029 A 
ATOM     33  N   UNL     1       2.327   9.596  -4.460  1.00  0.00    -0.354 N 
ATOM     34  C   UNL     1       0.054  11.361  -1.260  1.00  0.00     0.074 A 
ATOM     35  C   UNL     1      -1.142  10.590  -0.993  1.00  0.00     0.031 C 
ATOM     36  C   UNL     1       2.759   8.164  -6.120  1.00  0.00     0.029 A 
ATOM     37  C   UNL     1       3.297   9.305  -5.388  1.00  0.00     0.049 A 
ATOM     38  H   UNL     1       2.425  10.303  -3.781  1.00  0.00     0.167 HD
ATOM     39  C   UNL     1       0.446  12.441  -0.539  1.00  0.00     0.037 A 
ATOM     40  C   UNL     1       4.471   9.909  -5.654  1.00  0.00     0.037 A 
ATOM     41  C   UNL     1       1.668  13.169  -0.766  1.00  0.00     0.049 A 
ATOM     42  C   UNL     1       4.867  11.127  -4.872  1.00  0.00     0.074 A 
ATOM     43  C   UNL     1       2.161  14.266  -0.079  1.00  0.00     0.029 A 
ATOM     44  N   UNL     1       2.602  12.861  -1.745  1.00  0.00    -0.354 N 
ATOM     45  N   UNL     1       4.240  11.713  -3.882  1.00  0.00    -0.248 NA
ATOM     46  C   UNL     1       6.123  11.783  -5.262  1.00  0.00     0.031 C 
ATOM     47  C   UNL     1       3.373  14.644  -0.667  1.00  0.00     0.029 A 
ATOM     48  C   UNL     1       3.659  13.755  -1.690  1.00  0.00     0.049 A 
ATOM     49  H   UNL     1       2.524  12.116  -2.384  1.00  0.00     0.167 HD
ATOM     50  C   UNL     1       5.030  12.795  -3.519  1.00  0.00     0.074 A 
ATOM     51  C   UNL     1       6.191  12.775  -4.385  1.00  0.00     0.031 C 
ATOM     52  C   UNL     1       4.810  13.724  -2.556  1.00  0.00     0.037 A 
BRANCH  39  53
ATOM     53  C   UNL     1      -0.480  12.925   0.542  1.00  0.00     0.057 A 
ATOM     54  C   UNL     1      -0.675  12.219   1.735  1.00  0.00     0.134 A 
ATOM     55  C   UNL     1      -1.174  14.133   0.389  1.00  0.00     0.134 A 
ATOM     56  F   UNL     1      -0.050  11.050   1.944  1.00  0.00    -0.206 F 
ATOM     57  C   UNL     1      -1.552  12.678   2.721  1.00  0.00     0.040 A 
ATOM     58  C   UNL     1      -2.030  14.617   1.380  1.00  0.00     0.040 A 
ATOM     59  F   UNL     1      -1.026  14.869  -0.723  1.00  0.00    -0.206 F 
ATOM     60  C   UNL     1      -2.229  13.883   2.546  1.00  0.00     0.006 A 
ENDBRANCH  39  53
BRANCH  40  61
ATOM     61  C   UNL     1       5.339   9.385  -6.739  1.00  0.00     0.057 A 
ATOM     62  C   UNL     1       6.564   8.773  -6.452  1.00  0.00     0.134 A 
ATOM     63  C   UNL     1       4.960   9.468  -8.085  1.00  0.00     0.134 A 
ATOM     64  F   UNL     1       6.995   8.687  -5.185  1.00  0.00    -0.206 F 
ATOM     65  C   UNL     1       7.381   8.262  -7.463  1.00  0.00     0.040 A 
ATOM     66  C   UNL     1       5.753   8.937  -9.103  1.00  0.00     0.040 A 
ATOM     67  F   UNL     1       3.798  10.043  -8.427  1.00  0.00    -0.206 F 
ATOM     68  C   UNL     1       6.970   8.335  -8.793  1.00  0.00     0.006 A 
ENDBRANCH  40  61
BRANCH  52  69
ATOM     69  C   UNL     1       5.865  14.773  -2.367  1.00  0.00     0.057 A 
ATOM     70  C   UNL     1       6.042  15.818  -3.283  1.00  0.00     0.134 A 
ATOM     71  C   UNL     1       6.699  14.749  -1.242  1.00  0.00     0.134 A 
ATOM     72  F   UNL     1       5.286  15.888  -4.389  1.00  0.00    -0.206 F 
ATOM     73  C   UNL     1       7.027  16.790  -3.098  1.00  0.00     0.040 A 
ATOM     74  C   UNL     1       7.671  15.729  -1.034  1.00  0.00     0.040 A 
ATOM     75  F   UNL     1       6.578  13.779  -0.324  1.00  0.00    -0.206 F 
ATOM     76  C   UNL     1       7.841  16.750  -1.967  1.00  0.00     0.006 A 
ENDBRANCH  52  69
ENDBRANCH  26  27
ENDBRANCH  19  21
ENDBRANCH  18  19
ENDBRANCH  17  18
ENDBRANCH   1  17
TORSDOF 13
