REMARK SMILES COc1ccccc1-c1nnc(S[C@@H](C)C(=O)OCCOC(=O)c2ccc(-c3c4nc(c(-c5c(F)cccc5F)c5ccc([nH]5)c(-c5c(F)cccc5F)c5nc(c(-c6c(F)cccc6F)c6ccc3[nH]6)C=C5)C=C4)cc2)n1-c1ccccc1
REMARK SMILES IDX 19 1 18 2 16 3 17 4 14 5 15 6 13 7 12 8 9 9 10 10 78 11
REMARK SMILES IDX 11 12 8 13 3 14 4 15 5 16 7 17 6 18 2 19 1 20 79 21 80 22
REMARK SMILES IDX 84 23 81 24 83 25 82 26 20 27 21 28 22 29 23 30 24 31 25 32
REMARK SMILES IDX 77 33 26 34 76 35 27 36 28 37 29 38 70 39 30 40 75 41 69 42
REMARK SMILES IDX 71 43 31 44 74 45 68 46 67 47 32 49 58 50 41 51 57 52 42 53
REMARK SMILES IDX 45 54 56 55 72 56 43 57 44 58 55 60 73 61 46 62 33 63 34 64
REMARK SMILES IDX 39 65 35 66 36 67 38 68 40 69 37 70 59 71 60 72 65 73 61 74
REMARK SMILES IDX 62 75 64 76 66 77 63 78 47 79 48 80 53 81 49 82 50 83 52 84
REMARK SMILES IDX 54 85 51 86
REMARK H PARENT 71 48 45 59
REMARK Flexibility Score: inf
ROOT
ATOM      1  C   UNL     1       5.166  -4.425  -0.592  1.00  0.00     0.274 C 
ENDROOT
BRANCH   1   2
ATOM      2  O   UNL     1       4.987  -3.311   0.320  1.00  0.00    -0.461 OA
BRANCH   2   3
ATOM      3  C   UNL     1       4.755  -3.525   1.648  1.00  0.00     0.319 C 
ATOM      4  O   UNL     1       4.652  -4.644   2.143  1.00  0.00    -0.251 OA
BRANCH   3   5
ATOM      5  C   UNL     1       4.794  -2.250   2.496  1.00  0.00     0.161 C 
ATOM      6  C   UNL     1       3.850  -2.185   3.701  1.00  0.00     0.032 C 
BRANCH   5   7
ATOM      7  S   UNL     1       4.747  -0.639   1.716  1.00  0.00    -0.071 SA
BRANCH   7   8
ATOM      8  C   UNL     1       3.961  -0.639   0.185  1.00  0.00     0.196 A 
ATOM      9  C   UNL     1       2.805  -0.896  -1.649  1.00  0.00     0.173 A 
ATOM     10  N   UNL     1       3.673   0.069  -1.854  1.00  0.00    -0.129 NA
ATOM     11  N   UNL     1       2.964  -1.435  -0.373  1.00  0.00    -0.270 N 
ATOM     12  N   UNL     1       4.365   0.250  -0.702  1.00  0.00    -0.122 NA
BRANCH   9  13
ATOM     13  C   UNL     1       1.760  -1.271  -2.582  1.00  0.00     0.062 A 
ATOM     14  C   UNL     1       0.408  -1.334  -2.206  1.00  0.00     0.129 A 
ATOM     15  C   UNL     1      -0.500  -1.959  -3.059  1.00  0.00     0.047 A 
ATOM     16  C   UNL     1      -0.087  -2.451  -4.299  1.00  0.00     0.004 A 
ATOM     17  C   UNL     1       2.161  -1.719  -3.852  1.00  0.00     0.016 A 
ATOM     18  C   UNL     1       1.239  -2.315  -4.705  1.00  0.00     0.001 A 
BRANCH  14  19
ATOM     19  O   UNL     1      -0.088  -0.986  -0.973  1.00  0.00    -0.496 OA
ATOM     20  C   UNL     1       0.172   0.355  -0.557  1.00  0.00     0.278 C 
ENDBRANCH  14  19
ENDBRANCH   9  13
BRANCH  11  21
ATOM     21  C   UNL     1       2.262  -2.582   0.120  1.00  0.00     0.050 A 
ATOM     22  C   UNL     1       1.746  -2.627   1.408  1.00  0.00     0.027 A 
ATOM     23  C   UNL     1       2.159  -3.729  -0.690  1.00  0.00     0.027 A 
ATOM     24  C   UNL     1       1.320  -3.849   1.945  1.00  0.00     0.002 A 
ATOM     25  C   UNL     1       1.764  -4.952  -0.145  1.00  0.00     0.002 A 
ATOM     26  C   UNL     1       1.381  -5.018   1.187  1.00  0.00     0.000 A 
ENDBRANCH  11  21
ENDBRANCH   7   8
ENDBRANCH   5   7
ENDBRANCH   3   5
ENDBRANCH   2   3
ENDBRANCH   1   2
BRANCH   1  27
ATOM     27  C   UNL     1       6.586  -4.447  -1.132  1.00  0.00     0.275 C 
BRANCH  27  28
ATOM     28  O   UNL     1       7.419  -4.836  -0.057  1.00  0.00    -0.458 OA
BRANCH  28  29
ATOM     29  C   UNL     1       7.602  -3.856   0.852  1.00  0.00     0.338 C 
ATOM     30  O   UNL     1       7.522  -2.644   0.648  1.00  0.00    -0.246 OA
BRANCH  29  31
ATOM     31  C   UNL     1       7.897  -4.457   2.180  1.00  0.00     0.060 A 
ATOM     32  C   UNL     1       8.499  -3.503   3.001  1.00  0.00     0.016 A 
ATOM     33  C   UNL     1       8.413  -5.747   2.067  1.00  0.00     0.016 A 
ATOM     34  C   UNL     1       9.861  -3.586   3.104  1.00  0.00     0.010 A 
ATOM     35  C   UNL     1       9.776  -5.814   2.085  1.00  0.00     0.010 A 
ATOM     36  C   UNL     1      10.479  -4.684   2.509  1.00  0.00    -0.014 A 
BRANCH  36  37
ATOM     37  C   UNL     1      11.911  -4.684   2.417  1.00  0.00     0.031 A 
ATOM     38  C   UNL     1      12.521  -5.245   3.633  1.00  0.00     0.074 A 
ATOM     39  C   UNL     1      12.557  -4.348   1.291  1.00  0.00     0.049 A 
ATOM     40  N   UNL     1      13.097  -4.601   4.592  1.00  0.00    -0.248 NA
ATOM     41  C   UNL     1      12.197  -6.646   3.949  1.00  0.00     0.031 C 
ATOM     42  C   UNL     1      12.023  -4.073  -0.043  1.00  0.00     0.029 A 
ATOM     43  N   UNL     1      13.899  -4.329   1.104  1.00  0.00    -0.354 N 
ATOM     44  C   UNL     1      13.375  -5.574   5.542  1.00  0.00     0.074 A 
ATOM     45  C   UNL     1      12.535  -6.695   5.234  1.00  0.00     0.031 C 
ATOM     46  C   UNL     1      13.032  -4.156  -0.942  1.00  0.00     0.029 A 
ATOM     47  C   UNL     1      14.277  -4.385  -0.229  1.00  0.00     0.049 A 
ATOM     48  H   UNL     1      14.546  -4.279   1.845  1.00  0.00     0.167 HD
ATOM     49  C   UNL     1      14.488  -5.522   6.318  1.00  0.00     0.037 A 
ATOM     50  C   UNL     1      15.512  -4.772  -0.633  1.00  0.00     0.037 A 
ATOM     51  C   UNL     1      15.101  -4.220   6.264  1.00  0.00     0.049 A 
ATOM     52  C   UNL     1      16.420  -4.629   0.551  1.00  0.00     0.074 A 
ATOM     53  C   UNL     1      14.681  -2.946   6.597  1.00  0.00     0.029 A 
ATOM     54  N   UNL     1      16.173  -4.056   5.417  1.00  0.00    -0.354 N 
ATOM     55  N   UNL     1      16.727  -3.476   1.090  1.00  0.00    -0.248 NA
ATOM     56  C   UNL     1      16.550  -5.778   1.442  1.00  0.00     0.031 C 
ATOM     57  C   UNL     1      15.204  -2.105   5.571  1.00  0.00     0.029 A 
ATOM     58  C   UNL     1      15.962  -2.899   4.708  1.00  0.00     0.049 A 
ATOM     59  H   UNL     1      16.948  -4.657   5.335  1.00  0.00     0.167 HD
ATOM     60  C   UNL     1      16.694  -3.695   2.465  1.00  0.00     0.074 A 
ATOM     61  C   UNL     1      16.635  -5.147   2.619  1.00  0.00     0.031 C 
ATOM     62  C   UNL     1      16.414  -2.690   3.349  1.00  0.00     0.037 A 
BRANCH  49  63
ATOM     63  C   UNL     1      15.202  -6.744   6.828  1.00  0.00     0.057 A 
ATOM     64  C   UNL     1      16.191  -6.588   7.809  1.00  0.00     0.134 A 
ATOM     65  C   UNL     1      15.134  -8.029   6.245  1.00  0.00     0.134 A 
ATOM     66  F   UNL     1      16.370  -5.409   8.424  1.00  0.00    -0.206 F 
ATOM     67  C   UNL     1      17.077  -7.617   8.146  1.00  0.00     0.040 A 
ATOM     68  C   UNL     1      15.968  -9.081   6.621  1.00  0.00     0.040 A 
ATOM     69  F   UNL     1      14.334  -8.320   5.212  1.00  0.00    -0.206 F 
ATOM     70  C   UNL     1      16.967  -8.868   7.553  1.00  0.00     0.006 A 
ENDBRANCH  49  63
BRANCH  50  71
ATOM     71  C   UNL     1      15.826  -5.608  -1.815  1.00  0.00     0.057 A 
ATOM     72  C   UNL     1      17.127  -5.704  -2.322  1.00  0.00     0.134 A 
ATOM     73  C   UNL     1      14.891  -6.515  -2.353  1.00  0.00     0.134 A 
ATOM     74  F   UNL     1      18.105  -4.927  -1.834  1.00  0.00    -0.206 F 
ATOM     75  C   UNL     1      17.474  -6.637  -3.311  1.00  0.00     0.040 A 
ATOM     76  C   UNL     1      15.219  -7.440  -3.347  1.00  0.00     0.040 A 
ATOM     77  F   UNL     1      13.640  -6.594  -1.875  1.00  0.00    -0.206 F 
ATOM     78  C   UNL     1      16.519  -7.510  -3.826  1.00  0.00     0.006 A 
ENDBRANCH  50  71
BRANCH  62  79
ATOM     79  C   UNL     1      16.305  -1.282   2.824  1.00  0.00     0.057 A 
ATOM     80  C   UNL     1      15.329  -0.871   1.901  1.00  0.00     0.134 A 
ATOM     81  C   UNL     1      17.065  -0.271   3.422  1.00  0.00     0.134 A 
ATOM     82  F   UNL     1      14.478  -1.750   1.361  1.00  0.00    -0.206 F 
ATOM     83  C   UNL     1      15.144   0.473   1.564  1.00  0.00     0.040 A 
ATOM     84  C   UNL     1      16.867   1.079   3.122  1.00  0.00     0.040 A 
ATOM     85  F   UNL     1      17.973  -0.576   4.363  1.00  0.00    -0.206 F 
ATOM     86  C   UNL     1      15.908   1.455   2.184  1.00  0.00     0.006 A 
ENDBRANCH  62  79
ENDBRANCH  36  37
ENDBRANCH  29  31
ENDBRANCH  28  29
ENDBRANCH  27  28
ENDBRANCH   1  27
TORSDOF 16
