REMARK SMILES CC(=O)Nc1ccc(N2CCCCCC2)c(C(=O)OCCOC(=O)c2ccc(-c3c4nc(c(-c5c(F)cccc5F)c5ccc([nH]5)c(-c5c(F)cccc5F)c5nc(c(-c6c(F)cccc6F)c6ccc3[nH]6)C=C5)C=C4)cc2)c1
REMARK SMILES IDX 19 1 17 2 18 3 16 4 5 5 6 6 79 7 7 8 8 9 4 10 1 11 2 12 3 13
REMARK SMILES IDX 9 15 10 16 11 17 15 19 14 20 13 21 12 22 20 24 21 25 22 26
REMARK SMILES IDX 23 27 24 28 25 29 26 30 78 31 27 32 77 33 28 34 29 35 30 36
REMARK SMILES IDX 71 37 31 38 76 39 70 40 72 41 32 42 75 43 69 44 68 45 33 47
REMARK SMILES IDX 59 48 42 49 58 50 43 51 46 52 57 53 73 54 44 55 45 56 56 58
REMARK SMILES IDX 74 59 47 60 34 61 35 62 40 63 36 64 37 65 39 66 41 67 38 68
REMARK SMILES IDX 60 69 61 70 66 71 62 72 63 73 65 74 67 75 64 76 48 77 49 78
REMARK SMILES IDX 54 79 50 80 51 81 53 82 55 83 52 84
REMARK H PARENT 4 14 72 46 46 57
REMARK Flexibility Score: 80.00
ROOT
ATOM      1  O   UNL     1       5.033   1.226   0.579  1.00  0.00    -0.458 OA
ENDROOT
BRANCH   1   2
ATOM      2  C   UNL     1       4.422   2.144   1.379  1.00  0.00     0.340 C 
ATOM      3  O   UNL     1       4.741   2.430   2.520  1.00  0.00    -0.246 OA
BRANCH   2   4
ATOM      4  C   UNL     1       3.229   2.686   0.670  1.00  0.00     0.085 A 
ATOM      5  C   UNL     1       1.239   2.209  -0.658  1.00  0.00     0.042 A 
ATOM      6  C   UNL     1       0.926   3.567  -0.642  1.00  0.00     0.028 A 
ATOM      7  C   UNL     1       2.389   1.772   0.001  1.00  0.00     0.044 A 
ATOM      8  C   UNL     1       1.741   4.472   0.033  1.00  0.00     0.029 A 
ATOM      9  C   UNL     1       2.913   4.057   0.683  1.00  0.00     0.051 A 
BRANCH   5  10
ATOM     10  N   UNL     1       0.392   1.383  -1.411  1.00  0.00    -0.326 N 
ATOM     11  C   UNL     1       0.664  -0.809  -0.263  1.00  0.00     0.114 C 
ATOM     12  C   UNL     1       0.177   0.038  -1.404  1.00  0.00     0.221 C 
ATOM     13  O   UNL     1      -0.478  -0.461  -2.322  1.00  0.00    -0.275 OA
ATOM     14  H   UNL     1      -0.153   1.870  -2.071  1.00  0.00     0.169 HD
ENDBRANCH   5  10
BRANCH   9  15
ATOM     15  N   UNL     1       3.746   5.053   1.169  1.00  0.00    -0.371 N 
BRANCH  15  16
ATOM     16  C   UNL     1       3.594   5.503   2.542  1.00  0.00     0.116 C 
BRANCH  16  17
ATOM     17  C   UNL     1       2.857   6.838   2.621  1.00  0.00     0.021 CG0
ATOM     18  G   UNL     1       3.677   8.044   2.167  1.00  0.00     0.000 G0
ENDBRANCH  16  17
ENDBRANCH  15  16
BRANCH  15  19
ATOM     19  C   UNL     1       4.757   5.532   0.241  1.00  0.00     0.116 C 
BRANCH  19  20
ATOM     20  C   UNL     1       5.223   6.958   0.472  1.00  0.00     0.021 C 
BRANCH  20  21
ATOM     21  C   UNL     1       4.131   7.991   0.709  1.00  0.00     0.002 C 
BRANCH  21  22
ATOM     22  C   UNL     1       3.677   8.044   2.167  1.00  0.00     0.002 CG0
ATOM     23  G   UNL     1       2.857   6.838   2.621  1.00  0.00     0.000 G0
ENDBRANCH  21  22
ENDBRANCH  20  21
ENDBRANCH  19  20
ENDBRANCH  15  19
ENDBRANCH   9  15
ENDBRANCH   2   4
ENDBRANCH   1   2
BRANCH   1  24
ATOM     24  C   UNL     1       6.091   0.437   1.169  1.00  0.00     0.275 C 
BRANCH  24  25
ATOM     25  C   UNL     1       7.463   0.941   0.722  1.00  0.00     0.275 C 
BRANCH  25  26
ATOM     26  O   UNL     1       7.746   2.159   1.425  1.00  0.00    -0.458 OA
BRANCH  26  27
ATOM     27  C   UNL     1       8.514   3.073   0.786  1.00  0.00     0.338 C 
ATOM     28  O   UNL     1       9.081   2.925  -0.281  1.00  0.00    -0.246 OA
BRANCH  27  29
ATOM     29  C   UNL     1       8.517   4.345   1.558  1.00  0.00     0.060 A 
ATOM     30  C   UNL     1       7.533   4.604   2.508  1.00  0.00     0.016 A 
ATOM     31  C   UNL     1       9.439   5.351   1.250  1.00  0.00     0.016 A 
ATOM     32  C   UNL     1       7.400   5.887   3.039  1.00  0.00     0.010 A 
ATOM     33  C   UNL     1       9.338   6.623   1.847  1.00  0.00     0.010 A 
ATOM     34  C   UNL     1       8.263   6.942   2.693  1.00  0.00    -0.014 A 
BRANCH  34  35
ATOM     35  C   UNL     1       7.921   8.363   3.077  1.00  0.00     0.031 A 
ATOM     36  C   UNL     1       7.889   9.472   2.034  1.00  0.00     0.074 A 
ATOM     37  C   UNL     1       7.479   8.680   4.316  1.00  0.00     0.049 A 
ATOM     38  N   UNL     1       7.744  10.767   2.205  1.00  0.00    -0.248 NA
ATOM     39  C   UNL     1       8.026   9.086   0.620  1.00  0.00     0.031 C 
ATOM     40  C   UNL     1       7.335   7.751   5.437  1.00  0.00     0.029 A 
ATOM     41  N   UNL     1       7.010   9.872   4.826  1.00  0.00    -0.354 N 
ATOM     42  C   UNL     1       7.843  11.341   0.942  1.00  0.00     0.074 A 
ATOM     43  C   UNL     1       8.030  10.259   0.003  1.00  0.00     0.031 C 
ATOM     44  C   UNL     1       6.704   8.367   6.447  1.00  0.00     0.029 A 
ATOM     45  C   UNL     1       6.539   9.777   6.115  1.00  0.00     0.049 A 
ATOM     46  H   UNL     1       7.013  10.713   4.315  1.00  0.00     0.167 HD
ATOM     47  C   UNL     1       7.792  12.648   0.586  1.00  0.00     0.037 A 
ATOM     48  C   UNL     1       6.082  10.713   6.972  1.00  0.00     0.037 A 
ATOM     49  C   UNL     1       7.532  13.742   1.484  1.00  0.00     0.049 A 
ATOM     50  C   UNL     1       6.117  12.163   6.585  1.00  0.00     0.074 A 
ATOM     51  C   UNL     1       7.514  15.100   1.206  1.00  0.00     0.029 A 
ATOM     52  N   UNL     1       7.207  13.606   2.820  1.00  0.00    -0.354 N 
ATOM     53  N   UNL     1       6.397  12.704   5.427  1.00  0.00    -0.248 NA
ATOM     54  C   UNL     1       5.837  13.138   7.652  1.00  0.00     0.031 C 
ATOM     55  C   UNL     1       7.201  15.788   2.382  1.00  0.00     0.029 A 
ATOM     56  C   UNL     1       6.996  14.854   3.383  1.00  0.00     0.049 A 
ATOM     57  H   UNL     1       7.135  12.750   3.300  1.00  0.00     0.167 HD
ATOM     58  C   UNL     1       6.358  14.077   5.633  1.00  0.00     0.074 A 
ATOM     59  C   UNL     1       5.979  14.290   7.012  1.00  0.00     0.031 C 
ATOM     60  C   UNL     1       6.641  15.070   4.758  1.00  0.00     0.037 A 
BRANCH  47  61
ATOM     61  C   UNL     1       8.072  12.999  -0.844  1.00  0.00     0.057 A 
ATOM     62  C   UNL     1       7.090  12.917  -1.836  1.00  0.00     0.134 A 
ATOM     63  C   UNL     1       9.318  13.530  -1.202  1.00  0.00     0.134 A 
ATOM     64  F   UNL     1       5.881  12.407  -1.556  1.00  0.00    -0.206 F 
ATOM     65  C   UNL     1       7.337  13.358  -3.138  1.00  0.00     0.040 A 
ATOM     66  C   UNL     1       9.571  13.989  -2.495  1.00  0.00     0.040 A 
ATOM     67  F   UNL     1      10.297  13.641  -0.291  1.00  0.00    -0.206 F 
ATOM     68  C   UNL     1       8.577  13.907  -3.467  1.00  0.00     0.006 A 
ENDBRANCH  47  61
BRANCH  48  69
ATOM     69  C   UNL     1       5.652  10.324   8.341  1.00  0.00     0.057 A 
ATOM     70  C   UNL     1       4.321  10.463   8.750  1.00  0.00     0.134 A 
ATOM     71  C   UNL     1       6.567   9.827   9.278  1.00  0.00     0.134 A 
ATOM     72  F   UNL     1       3.406  10.973   7.913  1.00  0.00    -0.206 F 
ATOM     73  C   UNL     1       3.915  10.117  10.040  1.00  0.00     0.040 A 
ATOM     74  C   UNL     1       6.169   9.446  10.559  1.00  0.00     0.040 A 
ATOM     75  F   UNL     1       7.861   9.687   8.953  1.00  0.00    -0.206 F 
ATOM     76  C   UNL     1       4.840   9.595  10.944  1.00  0.00     0.006 A 
ENDBRANCH  48  69
BRANCH  60  77
ATOM     77  C   UNL     1       6.575  16.476   5.269  1.00  0.00     0.057 A 
ATOM     78  C   UNL     1       7.588  16.998   6.083  1.00  0.00     0.134 A 
ATOM     79  C   UNL     1       5.512  17.321   4.931  1.00  0.00     0.134 A 
ATOM     80  F   UNL     1       8.627  16.233   6.450  1.00  0.00    -0.206 F 
ATOM     81  C   UNL     1       7.536  18.309   6.560  1.00  0.00     0.040 A 
ATOM     82  C   UNL     1       5.458  18.639   5.388  1.00  0.00     0.040 A 
ATOM     83  F   UNL     1       4.514  16.883   4.149  1.00  0.00    -0.206 F 
ATOM     84  C   UNL     1       6.470  19.134   6.209  1.00  0.00     0.006 A 
ENDBRANCH  60  77
ENDBRANCH  34  35
ENDBRANCH  27  29
ENDBRANCH  26  27
ENDBRANCH  25  26
ENDBRANCH  24  25
ENDBRANCH   1  24
TORSDOF 13
