REMARK SMILES C[C@]1(c2ccccc2C(=O)OCCOC(=O)c2ccc(-c3c4nc(c(-c5c(F)cccc5F)c5ccc([nH]5)c(-c5c(F)cccc5F)c5nc(c(-c6c(F)cccc6F)c6ccc3[nH]6)C=C5)C=C4)cc2)NN=C(c2ccccc2)S1
REMARK SMILES IDX 12 1 11 2 9 3 10 4 8 5 3 6 4 7 5 8 7 9 6 10 2 11 1 12 71 13
REMARK SMILES IDX 80 14 72 15 73 17 74 18 75 19 79 20 76 21 78 22 77 23 13 24
REMARK SMILES IDX 14 25 15 26 16 27 17 28 18 29 70 30 19 31 69 32 20 33 21 34
REMARK SMILES IDX 22 35 63 36 23 37 68 38 62 39 64 40 24 41 67 42 61 43 60 44
REMARK SMILES IDX 25 46 51 47 34 48 50 49 35 50 38 51 49 52 65 53 36 54 37 55
REMARK SMILES IDX 48 57 66 58 39 59 26 60 27 61 32 62 28 63 29 64 31 65 33 66
REMARK SMILES IDX 30 67 52 68 53 69 58 70 54 71 55 72 57 73 59 74 56 75 40 76
REMARK SMILES IDX 41 77 46 78 42 79 43 80 45 81 47 82 44 83
REMARK H PARENT 71 16 64 45 38 56
REMARK Flexibility Score: inf
ROOT
ATOM      1  C   UNL     1      -3.457  -0.397   0.865  1.00  0.00     0.275 C 
ENDROOT
BRANCH   1   2
ATOM      2  O   UNL     1      -2.094  -0.255   0.426  1.00  0.00    -0.458 OA
BRANCH   2   3
ATOM      3  C   UNL     1      -1.168  -1.049   0.991  1.00  0.00     0.338 C 
ATOM      4  O   UNL     1      -1.382  -1.952   1.782  1.00  0.00    -0.246 OA
BRANCH   3   5
ATOM      5  C   UNL     1       0.147  -0.827   0.335  1.00  0.00     0.066 A 
ATOM      6  C   UNL     1       0.910   0.366   0.326  1.00  0.00     0.004 A 
ATOM      7  C   UNL     1       2.176   0.285  -0.329  1.00  0.00     0.008 A 
ATOM      8  C   UNL     1       2.646  -0.871  -0.955  1.00  0.00     0.000 A 
ATOM      9  C   UNL     1       0.645  -1.999  -0.289  1.00  0.00     0.016 A 
ATOM     10  C   UNL     1       1.876  -2.018  -0.940  1.00  0.00     0.001 A 
BRANCH   6  11
ATOM     11  C   UNL     1       0.620   1.682   1.089  1.00  0.00     0.129 C 
ATOM     12  C   UNL     1       1.083   1.519   2.542  1.00  0.00     0.054 C 
ATOM     13  N   UNL     1       1.324   2.831   0.447  1.00  0.00    -0.288 NA
ATOM     14  S   UNL     1      -1.081   2.327   1.074  1.00  0.00    -0.070 SA
ATOM     15  N   UNL     1       0.596   3.446  -0.554  1.00  0.00    -0.171 NA
ATOM     16  H   UNL     1       2.226   3.124   0.712  1.00  0.00     0.185 HD
ATOM     17  C   UNL     1      -0.674   3.232  -0.370  1.00  0.00     0.126 C 
BRANCH  17  18
ATOM     18  C   UNL     1      -1.741   3.640  -1.302  1.00  0.00     0.009 A 
ATOM     19  C   UNL     1      -1.500   3.536  -2.678  1.00  0.00     0.011 A 
ATOM     20  C   UNL     1      -3.008   4.029  -0.847  1.00  0.00     0.011 A 
ATOM     21  C   UNL     1      -2.538   3.756  -3.588  1.00  0.00     0.001 A 
ATOM     22  C   UNL     1      -4.038   4.262  -1.762  1.00  0.00     0.001 A 
ATOM     23  C   UNL     1      -3.807   4.109  -3.128  1.00  0.00     0.000 A 
ENDBRANCH  17  18
ENDBRANCH   6  11
ENDBRANCH   3   5
ENDBRANCH   2   3
ENDBRANCH   1   2
BRANCH   1  24
ATOM     24  C   UNL     1      -4.378   0.230  -0.186  1.00  0.00     0.275 C 
BRANCH  24  25
ATOM     25  O   UNL     1      -4.326  -0.536  -1.405  1.00  0.00    -0.458 OA
BRANCH  25  26
ATOM     26  C   UNL     1      -3.303  -0.209  -2.224  1.00  0.00     0.338 C 
ATOM     27  O   UNL     1      -2.533   0.738  -2.128  1.00  0.00    -0.246 OA
BRANCH  26  28
ATOM     28  C   UNL     1      -3.069  -1.291  -3.176  1.00  0.00     0.060 A 
ATOM     29  C   UNL     1      -1.866  -1.986  -3.053  1.00  0.00     0.016 A 
ATOM     30  C   UNL     1      -3.963  -1.577  -4.206  1.00  0.00     0.016 A 
ATOM     31  C   UNL     1      -1.546  -2.982  -3.963  1.00  0.00     0.010 A 
ATOM     32  C   UNL     1      -3.647  -2.591  -5.115  1.00  0.00     0.010 A 
ATOM     33  C   UNL     1      -2.436  -3.299  -5.000  1.00  0.00    -0.014 A 
BRANCH  33  34
ATOM     34  C   UNL     1      -2.064  -4.369  -5.955  1.00  0.00     0.031 A 
ATOM     35  C   UNL     1      -1.677  -4.031  -7.364  1.00  0.00     0.074 A 
ATOM     36  C   UNL     1      -2.002  -5.641  -5.519  1.00  0.00     0.049 A 
ATOM     37  N   UNL     1      -1.333  -4.833  -8.339  1.00  0.00    -0.248 NA
ATOM     38  C   UNL     1      -1.680  -2.606  -7.728  1.00  0.00     0.031 C 
ATOM     39  C   UNL     1      -2.321  -6.082  -4.160  1.00  0.00     0.029 A 
ATOM     40  N   UNL     1      -1.620  -6.790  -6.162  1.00  0.00    -0.354 N 
ATOM     41  C   UNL     1      -1.108  -4.017  -9.440  1.00  0.00     0.074 A 
ATOM     42  C   UNL     1      -1.361  -2.656  -9.014  1.00  0.00     0.031 C 
ATOM     43  C   UNL     1      -2.071  -7.397  -4.056  1.00  0.00     0.029 A 
ATOM     44  C   UNL     1      -1.628  -7.900  -5.352  1.00  0.00     0.049 A 
ATOM     45  H   UNL     1      -1.364  -6.818  -7.112  1.00  0.00     0.167 HD
ATOM     46  C   UNL     1      -0.725  -4.374 -10.689  1.00  0.00     0.037 A 
ATOM     47  C   UNL     1      -1.321  -9.181  -5.627  1.00  0.00     0.037 A 
ATOM     48  C   UNL     1      -0.446  -5.726 -11.098  1.00  0.00     0.049 A 
ATOM     49  C   UNL     1      -0.898  -9.546  -7.021  1.00  0.00     0.074 A 
ATOM     50  C   UNL     1      -0.071  -6.193 -12.346  1.00  0.00     0.029 A 
ATOM     51  N   UNL     1      -0.495  -6.829 -10.259  1.00  0.00    -0.354 N 
ATOM     52  N   UNL     1      -0.736  -8.770  -8.064  1.00  0.00    -0.248 NA
ATOM     53  C   UNL     1      -0.629 -10.968  -7.278  1.00  0.00     0.031 C 
ATOM     54  C   UNL     1       0.085  -7.582 -12.267  1.00  0.00     0.029 A 
ATOM     55  C   UNL     1      -0.160  -7.975 -10.962  1.00  0.00     0.049 A 
ATOM     56  H   UNL     1      -0.733  -6.802  -9.304  1.00  0.00     0.167 HD
ATOM     57  C   UNL     1      -0.345  -9.606  -9.101  1.00  0.00     0.074 A 
ATOM     58  C   UNL     1      -0.263 -10.944  -8.551  1.00  0.00     0.031 C 
ATOM     59  C   UNL     1      -0.089  -9.297 -10.395  1.00  0.00     0.037 A 
BRANCH  46  60
ATOM     60  C   UNL     1      -0.617  -3.284 -11.713  1.00  0.00     0.057 A 
ATOM     61  C   UNL     1       0.446  -2.372 -11.718  1.00  0.00     0.134 A 
ATOM     62  C   UNL     1      -1.578  -3.162 -12.725  1.00  0.00     0.134 A 
ATOM     63  F   UNL     1       1.390  -2.425 -10.766  1.00  0.00    -0.206 F 
ATOM     64  C   UNL     1       0.539  -1.366 -12.682  1.00  0.00     0.040 A 
ATOM     65  C   UNL     1      -1.485  -2.174 -13.706  1.00  0.00     0.040 A 
ATOM     66  F   UNL     1      -2.620  -4.005 -12.779  1.00  0.00    -0.206 F 
ATOM     67  C   UNL     1      -0.425  -1.269 -13.683  1.00  0.00     0.006 A 
ENDBRANCH  46  60
BRANCH  47  68
ATOM     68  C   UNL     1      -1.410 -10.211  -4.563  1.00  0.00     0.057 A 
ATOM     69  C   UNL     1      -0.261 -10.819  -4.046  1.00  0.00     0.134 A 
ATOM     70  C   UNL     1      -2.645 -10.613  -4.039  1.00  0.00     0.134 A 
ATOM     71  F   UNL     1       0.949 -10.492  -4.523  1.00  0.00    -0.206 F 
ATOM     72  C   UNL     1      -0.336 -11.799  -3.055  1.00  0.00     0.040 A 
ATOM     73  C   UNL     1      -2.733 -11.572  -3.030  1.00  0.00     0.040 A 
ATOM     74  F   UNL     1      -3.783 -10.066  -4.492  1.00  0.00    -0.206 F 
ATOM     75  C   UNL     1      -1.575 -12.172  -2.539  1.00  0.00     0.006 A 
ENDBRANCH  47  68
BRANCH  59  76
ATOM     76  C   UNL     1       0.311 -10.430 -11.291  1.00  0.00     0.057 A 
ATOM     77  C   UNL     1      -0.622 -11.371 -11.744  1.00  0.00     0.134 A 
ATOM     78  C   UNL     1       1.639 -10.578 -11.707  1.00  0.00     0.134 A 
ATOM     79  F   UNL     1      -1.907 -11.291 -11.367  1.00  0.00    -0.206 F 
ATOM     80  C   UNL     1      -0.242 -12.438 -12.559  1.00  0.00     0.040 A 
ATOM     81  C   UNL     1       2.027 -11.629 -12.539  1.00  0.00     0.040 A 
ATOM     82  F   UNL     1       2.579  -9.707 -11.311  1.00  0.00    -0.206 F 
ATOM     83  C   UNL     1       1.087 -12.566 -12.962  1.00  0.00     0.006 A 
ENDBRANCH  59  76
ENDBRANCH  33  34
ENDBRANCH  26  28
ENDBRANCH  25  26
ENDBRANCH  24  25
ENDBRANCH   1  24
TORSDOF 13
