REMARK SMILES Cc1cccc(S(=O)(=O)N[C@@H](CCC(N)=O)C(=O)OCCOC(=O)c2ccc(-c3c4nc(c(-c5c(F)cccc5F)c5ccc([nH]5)c(-c5c(F)cccc5F)c5nc(c(-c6c(F)cccc6F)c6ccc3[nH]6)C=C5)C=C4)cc2)c1
REMARK SMILES IDX 20 1 19 2 17 3 18 4 11 5 10 6 7 8 8 9 9 10 6 11 1 12 2 13
REMARK SMILES IDX 3 14 79 15 4 16 5 17 12 18 13 19 14 20 15 21 16 22 21 25
REMARK SMILES IDX 22 26 23 27 24 28 25 29 26 30 78 31 27 32 77 33 28 34 29 35
REMARK SMILES IDX 30 36 71 37 31 38 76 39 70 40 72 41 32 42 75 43 69 44 68 45
REMARK SMILES IDX 33 47 59 48 42 49 58 50 43 51 46 52 57 53 73 54 44 55 45 56
REMARK SMILES IDX 56 58 74 59 47 60 34 61 35 62 40 63 36 64 37 65 39 66 41 67
REMARK SMILES IDX 38 68 60 69 61 70 66 71 62 72 63 73 65 74 67 75 64 76 48 77
REMARK SMILES IDX 49 78 54 79 50 80 51 81 53 82 55 83 52 84
REMARK H PARENT 10 7 15 23 15 24 72 46 46 57
REMARK Flexibility Score: inf
ROOT
ATOM      1  C   UNL     1       0.752   7.860   0.658  1.00  0.00     0.274 C 
ENDROOT
BRANCH   1   2
ATOM      2  O   UNL     1       0.006   6.857  -0.026  1.00  0.00    -0.461 OA
BRANCH   2   3
ATOM      3  C   UNL     1      -0.783   6.058   0.720  1.00  0.00     0.324 C 
ATOM      4  O   UNL     1      -0.967   6.185   1.925  1.00  0.00    -0.250 OA
BRANCH   3   5
ATOM      5  C   UNL     1      -1.273   4.867  -0.120  1.00  0.00     0.180 C 
BRANCH   5   6
ATOM      6  N   UNL     1      -2.028   4.006   0.795  1.00  0.00    -0.197 NA
ATOM      7  H   UNL     1      -1.385   3.830   1.567  1.00  0.00     0.142 HD
BRANCH   6   8
ATOM      8  S   UNL     1      -2.726   2.542   0.500  1.00  0.00     0.241 S 
ATOM      9  O   UNL     1      -3.437   2.638  -0.745  1.00  0.00    -0.207 OA
ATOM     10  O   UNL     1      -3.427   2.229   1.738  1.00  0.00    -0.207 OA
BRANCH   8  11
ATOM     11  C   UNL     1      -1.530   1.230   0.302  1.00  0.00     0.082 A 
ATOM     12  C   UNL     1       2.171   0.215   0.330  1.00  0.00     0.044 C 
ATOM     13  C   UNL     1       0.669   0.192   0.232  1.00  0.00    -0.050 A 
ATOM     14  C   UNL     1       0.069  -1.044  -0.066  1.00  0.00     0.003 A 
ATOM     15  C   UNL     1      -0.142   1.335   0.449  1.00  0.00     0.025 A 
ATOM     16  C   UNL     1      -1.311  -1.151  -0.173  1.00  0.00     0.002 A 
ATOM     17  C   UNL     1      -2.102  -0.019  -0.002  1.00  0.00     0.022 A 
ENDBRANCH   8  11
ENDBRANCH   6   8
ENDBRANCH   5   6
BRANCH   5  18
ATOM     18  C   UNL     1      -1.919   5.252  -1.460  1.00  0.00     0.042 C 
BRANCH  18  19
ATOM     19  C   UNL     1      -2.909   6.417  -1.549  1.00  0.00     0.102 C 
BRANCH  19  20
ATOM     20  C   UNL     1      -2.267   7.796  -1.583  1.00  0.00     0.217 C 
ATOM     21  N   UNL     1      -1.649   8.162  -2.740  1.00  0.00    -0.370 N 
ATOM     22  O   UNL     1      -2.273   8.556  -0.621  1.00  0.00    -0.275 OA
ATOM     23  H   UNL     1      -1.646   7.550  -3.512  1.00  0.00     0.159 HD
ATOM     24  H   UNL     1      -1.207   9.039  -2.806  1.00  0.00     0.159 HD
ENDBRANCH  19  20
ENDBRANCH  18  19
ENDBRANCH   5  18
ENDBRANCH   3   5
ENDBRANCH   2   3
ENDBRANCH   1   2
BRANCH   1  25
ATOM     25  C   UNL     1       1.893   7.327   1.557  1.00  0.00     0.275 C 
BRANCH  25  26
ATOM     26  O   UNL     1       2.096   5.878   1.745  1.00  0.00    -0.458 OA
BRANCH  26  27
ATOM     27  C   UNL     1       2.425   4.821   0.950  1.00  0.00     0.338 C 
ATOM     28  O   UNL     1       2.668   3.715   1.418  1.00  0.00    -0.246 OA
BRANCH  27  29
ATOM     29  C   UNL     1       2.311   4.953  -0.512  1.00  0.00     0.060 A 
ATOM     30  C   UNL     1       1.874   3.901  -1.346  1.00  0.00     0.016 A 
ATOM     31  C   UNL     1       2.480   6.201  -1.040  1.00  0.00     0.016 A 
ATOM     32  C   UNL     1       1.512   4.161  -2.672  1.00  0.00     0.010 A 
ATOM     33  C   UNL     1       1.754   6.510  -2.151  1.00  0.00     0.010 A 
ATOM     34  C   UNL     1       1.439   5.494  -3.055  1.00  0.00    -0.014 A 
BRANCH  34  35
ATOM     35  C   UNL     1       1.452   6.036  -4.404  1.00  0.00     0.031 A 
ATOM     36  C   UNL     1       0.266   6.168  -5.250  1.00  0.00     0.074 A 
ATOM     37  C   UNL     1       2.621   6.690  -4.654  1.00  0.00     0.049 A 
ATOM     38  N   UNL     1       0.325   6.843  -6.334  1.00  0.00    -0.248 NA
ATOM     39  C   UNL     1      -1.081   5.674  -4.987  1.00  0.00     0.031 C 
ATOM     40  C   UNL     1       3.040   7.625  -5.680  1.00  0.00     0.029 A 
ATOM     41  N   UNL     1       3.806   6.513  -3.910  1.00  0.00    -0.354 N 
ATOM     42  C   UNL     1      -0.920   6.961  -6.885  1.00  0.00     0.074 A 
ATOM     43  C   UNL     1      -1.791   6.289  -5.953  1.00  0.00     0.031 C 
ATOM     44  C   UNL     1       4.388   7.587  -5.754  1.00  0.00     0.029 A 
ATOM     45  C   UNL     1       4.858   6.574  -4.815  1.00  0.00     0.049 A 
ATOM     46  H   UNL     1       3.874   6.374  -2.937  1.00  0.00     0.167 HD
ATOM     47  C   UNL     1      -0.972   7.658  -8.054  1.00  0.00     0.037 A 
ATOM     48  C   UNL     1       5.436   5.369  -5.085  1.00  0.00     0.037 A 
ATOM     49  C   UNL     1       0.369   7.625  -8.666  1.00  0.00     0.049 A 
ATOM     50  C   UNL     1       5.028   4.899  -6.467  1.00  0.00     0.074 A 
ATOM     51  C   UNL     1       1.429   8.511  -8.750  1.00  0.00     0.029 A 
ATOM     52  N   UNL     1       0.906   6.364  -8.938  1.00  0.00    -0.354 N 
ATOM     53  N   UNL     1       4.016   5.373  -7.150  1.00  0.00    -0.248 NA
ATOM     54  C   UNL     1       5.788   3.917  -7.218  1.00  0.00     0.031 C 
ATOM     55  C   UNL     1       2.619   7.748  -8.983  1.00  0.00     0.029 A 
ATOM     56  C   UNL     1       2.282   6.404  -9.069  1.00  0.00     0.049 A 
ATOM     57  H   UNL     1       0.369   5.544  -9.026  1.00  0.00     0.167 HD
ATOM     58  C   UNL     1       3.994   4.834  -8.409  1.00  0.00     0.074 A 
ATOM     59  C   UNL     1       5.148   3.947  -8.400  1.00  0.00     0.031 C 
ATOM     60  C   UNL     1       3.036   5.169  -9.337  1.00  0.00     0.037 A 
BRANCH  47  61
ATOM     61  C   UNL     1      -2.144   8.431  -8.605  1.00  0.00     0.057 A 
ATOM     62  C   UNL     1      -1.923   9.463  -9.545  1.00  0.00     0.134 A 
ATOM     63  C   UNL     1      -3.483   8.305  -8.197  1.00  0.00     0.134 A 
ATOM     64  F   UNL     1      -0.698   9.733 -10.016  1.00  0.00    -0.206 F 
ATOM     65  C   UNL     1      -2.940  10.302 -10.023  1.00  0.00     0.040 A 
ATOM     66  C   UNL     1      -4.511   9.142  -8.665  1.00  0.00     0.040 A 
ATOM     67  F   UNL     1      -3.871   7.369  -7.327  1.00  0.00    -0.206 F 
ATOM     68  C   UNL     1      -4.242  10.148  -9.579  1.00  0.00     0.006 A 
ENDBRANCH  47  61
BRANCH  48  69
ATOM     69  C   UNL     1       5.637   4.538  -3.834  1.00  0.00     0.057 A 
ATOM     70  C   UNL     1       6.295   5.142  -2.731  1.00  0.00     0.134 A 
ATOM     71  C   UNL     1       4.966   3.345  -3.551  1.00  0.00     0.134 A 
ATOM     72  F   UNL     1       6.959   6.298  -2.895  1.00  0.00    -0.206 F 
ATOM     73  C   UNL     1       6.200   4.655  -1.419  1.00  0.00     0.040 A 
ATOM     74  C   UNL     1       4.899   2.823  -2.241  1.00  0.00     0.040 A 
ATOM     75  F   UNL     1       4.285   2.699  -4.507  1.00  0.00    -0.206 F 
ATOM     76  C   UNL     1       5.482   3.496  -1.167  1.00  0.00     0.006 A 
ENDBRANCH  48  69
BRANCH  60  77
ATOM     77  C   UNL     1       2.723   4.403 -10.624  1.00  0.00     0.057 A 
ATOM     78  C   UNL     1       3.218   3.133 -10.956  1.00  0.00     0.134 A 
ATOM     79  C   UNL     1       1.766   4.896 -11.551  1.00  0.00     0.134 A 
ATOM     80  F   UNL     1       4.016   2.438 -10.142  1.00  0.00    -0.206 F 
ATOM     81  C   UNL     1       2.862   2.454 -12.130  1.00  0.00     0.040 A 
ATOM     82  C   UNL     1       1.331   4.185 -12.673  1.00  0.00     0.040 A 
ATOM     83  F   UNL     1       1.172   6.089 -11.410  1.00  0.00    -0.206 F 
ATOM     84  C   UNL     1       1.901   2.967 -12.984  1.00  0.00     0.006 A 
ENDBRANCH  60  77
ENDBRANCH  34  35
ENDBRANCH  27  29
ENDBRANCH  26  27
ENDBRANCH  25  26
ENDBRANCH   1  25
TORSDOF 17
