REMARK SMILES CC(C)N1C[C@@H](C(=O)N2CCC(C(=O)OCCOC(=O)c3ccc(-c4c5nc(c(-c6c(F)cccc6F)c6ccc([nH]6)c(-c6c(F)cccc6F)c6nc(c(-c7c(F)cccc7F)c7ccc4[nH]7)C=C6)C=C5)cc3)CC2)CC1=O
REMARK SMILES IDX 16 1 15 2 13 3 14 4 12 5 7 6 8 7 9 8 10 9 76 10 11 11 75 12
REMARK SMILES IDX 6 13 4 14 5 15 78 16 77 17 79 18 2 19 1 20 3 21 17 22 18 23
REMARK SMILES IDX 19 24 20 25 21 26 22 27 74 28 23 29 73 30 24 31 25 32 26 33
REMARK SMILES IDX 67 34 27 35 72 36 66 37 68 38 28 39 71 40 65 41 64 42 29 44
REMARK SMILES IDX 55 45 38 46 54 47 39 48 42 49 53 50 69 51 40 52 41 53 52 55
REMARK SMILES IDX 70 56 43 57 30 58 31 59 36 60 32 61 33 62 35 63 37 64 34 65
REMARK SMILES IDX 56 66 57 67 62 68 58 69 59 70 61 71 63 72 60 73 44 74 45 75
REMARK SMILES IDX 50 76 46 77 47 78 49 79 51 80 48 81
REMARK H PARENT 68 43 42 54
REMARK Flexibility Score: inf
ROOT
ATOM      1  C   UNL     1      -9.824  -3.764   5.212  1.00  0.00     0.274 C 
ENDROOT
BRANCH   1   2
ATOM      2  O   UNL     1      -8.540  -3.658   4.567  1.00  0.00    -0.462 OA
BRANCH   2   3
ATOM      3  C   UNL     1      -7.632  -2.842   5.156  1.00  0.00     0.309 C 
ATOM      4  O   UNL     1      -7.849  -2.147   6.143  1.00  0.00    -0.252 OA
BRANCH   3   5
ATOM      5  C   UNL     1      -6.269  -2.890   4.496  1.00  0.00     0.103 C 
ATOM      6  C   UNL     1      -4.215  -2.516   1.059  1.00  0.00     0.227 C 
ATOM      7  O   UNL     1      -4.882  -3.245   0.316  1.00  0.00    -0.274 OA
ATOM      8  N   UNL     1      -4.281  -2.670   2.433  1.00  0.00    -0.342 N 
ATOM      9  C   UNL     1      -4.640  -3.990   2.953  1.00  0.00     0.120 C 
ATOM     10  C   UNL     1      -4.441  -1.582   3.393  1.00  0.00     0.120 C 
ATOM     11  C   UNL     1      -6.072  -4.013   3.472  1.00  0.00     0.037 C 
ATOM     12  C   UNL     1      -5.892  -1.536   3.888  1.00  0.00     0.037 C 
BRANCH   6  13
ATOM     13  C   UNL     1      -3.151  -1.627   0.428  1.00  0.00     0.107 C 
ATOM     14  N   UNL     1      -0.948  -0.895   0.728  1.00  0.00    -0.339 N 
ATOM     15  C   UNL     1      -1.771  -2.064   0.889  1.00  0.00     0.133 C 
ATOM     16  C   UNL     1      -1.705   0.263   0.671  1.00  0.00     0.223 C 
ATOM     17  C   UNL     1      -3.166  -0.114   0.573  1.00  0.00     0.115 C 
ATOM     18  O   UNL     1      -1.294   1.411   0.706  1.00  0.00    -0.275 OA
BRANCH  14  19
ATOM     19  C   UNL     1       0.506  -0.971   0.872  1.00  0.00     0.078 C 
ATOM     20  C   UNL     1       1.241  -0.135  -0.176  1.00  0.00     0.031 C 
ATOM     21  C   UNL     1       0.949  -0.605   2.285  1.00  0.00     0.031 C 
ENDBRANCH  14  19
ENDBRANCH   6  13
ENDBRANCH   3   5
ENDBRANCH   2   3
ENDBRANCH   1   2
BRANCH   1  22
ATOM     22  C   UNL     1      -9.945  -5.077   5.989  1.00  0.00     0.275 C 
BRANCH  22  23
ATOM     23  O   UNL     1      -9.043  -5.119   7.112  1.00  0.00    -0.458 OA
BRANCH  23  24
ATOM     24  C   UNL     1      -7.865  -5.742   6.879  1.00  0.00     0.338 C 
ATOM     25  O   UNL     1      -7.497  -6.276   5.847  1.00  0.00    -0.246 OA
BRANCH  24  26
ATOM     26  C   UNL     1      -6.979  -5.589   8.041  1.00  0.00     0.060 A 
ATOM     27  C   UNL     1      -5.847  -4.786   7.894  1.00  0.00     0.016 A 
ATOM     28  C   UNL     1      -7.187  -6.310   9.216  1.00  0.00     0.016 A 
ATOM     29  C   UNL     1      -4.905  -4.704   8.913  1.00  0.00     0.010 A 
ATOM     30  C   UNL     1      -6.243  -6.223  10.246  1.00  0.00     0.010 A 
ATOM     31  C   UNL     1      -5.091  -5.431  10.094  1.00  0.00    -0.014 A 
BRANCH  31  32
ATOM     32  C   UNL     1      -4.043  -5.398  11.141  1.00  0.00     0.031 A 
ATOM     33  C   UNL     1      -3.149  -6.587  11.339  1.00  0.00     0.074 A 
ATOM     34  C   UNL     1      -3.867  -4.288  11.881  1.00  0.00     0.049 A 
ATOM     35  N   UNL     1      -2.240  -6.795  12.257  1.00  0.00    -0.248 NA
ATOM     36  C   UNL     1      -3.295  -7.688  10.374  1.00  0.00     0.031 C 
ATOM     37  C   UNL     1      -4.628  -3.046  11.736  1.00  0.00     0.029 A 
ATOM     38  N   UNL     1      -2.991  -4.027  12.903  1.00  0.00    -0.354 N 
ATOM     39  C   UNL     1      -1.719  -8.055  11.994  1.00  0.00     0.074 A 
ATOM     40  C   UNL     1      -2.421  -8.570  10.837  1.00  0.00     0.031 C 
ATOM     41  C   UNL     1      -4.183  -2.155  12.636  1.00  0.00     0.029 A 
ATOM     42  C   UNL     1      -3.145  -2.778  13.451  1.00  0.00     0.049 A 
ATOM     43  H   UNL     1      -2.316  -4.673  13.213  1.00  0.00     0.167 HD
ATOM     44  C   UNL     1      -0.742  -8.719  12.657  1.00  0.00     0.037 A 
ATOM     45  C   UNL     1      -2.540  -2.214  14.513  1.00  0.00     0.037 A 
ATOM     46  C   UNL     1      -0.039  -8.199  13.800  1.00  0.00     0.049 A 
ATOM     47  C   UNL     1      -1.512  -3.001  15.277  1.00  0.00     0.074 A 
ATOM     48  C   UNL     1       0.953  -8.803  14.554  1.00  0.00     0.029 A 
ATOM     49  N   UNL     1      -0.252  -6.944  14.351  1.00  0.00    -0.354 N 
ATOM     50  N   UNL     1      -1.055  -4.207  15.045  1.00  0.00    -0.248 NA
ATOM     51  C   UNL     1      -0.925  -2.352  16.458  1.00  0.00     0.031 C 
ATOM     52  C   UNL     1       1.320  -7.923  15.578  1.00  0.00     0.029 A 
ATOM     53  C   UNL     1       0.582  -6.759  15.441  1.00  0.00     0.049 A 
ATOM     54  H   UNL     1      -0.900  -6.283  14.017  1.00  0.00     0.167 HD
ATOM     55  C   UNL     1      -0.116  -4.455  16.037  1.00  0.00     0.074 A 
ATOM     56  C   UNL     1      -0.058  -3.268  16.866  1.00  0.00     0.031 C 
ATOM     57  C   UNL     1       0.630  -5.567  16.247  1.00  0.00     0.037 A 
BRANCH  44  58
ATOM     58  C   UNL     1      -0.398 -10.095  12.175  1.00  0.00     0.057 A 
ATOM     59  C   UNL     1       0.347 -10.304  11.008  1.00  0.00     0.134 A 
ATOM     60  C   UNL     1      -0.793 -11.225  12.903  1.00  0.00     0.134 A 
ATOM     61  F   UNL     1       0.742  -9.264  10.258  1.00  0.00    -0.206 F 
ATOM     62  C   UNL     1       0.673 -11.590  10.573  1.00  0.00     0.040 A 
ATOM     63  C   UNL     1      -0.457 -12.514  12.489  1.00  0.00     0.040 A 
ATOM     64  F   UNL     1      -1.508 -11.092  14.031  1.00  0.00    -0.206 F 
ATOM     65  C   UNL     1       0.276 -12.700  11.318  1.00  0.00     0.006 A 
ENDBRANCH  44  58
BRANCH  45  66
ATOM     66  C   UNL     1      -2.915  -0.844  14.940  1.00  0.00     0.057 A 
ATOM     67  C   UNL     1      -2.028   0.228  14.794  1.00  0.00     0.134 A 
ATOM     68  C   UNL     1      -4.162  -0.578  15.519  1.00  0.00     0.134 A 
ATOM     69  F   UNL     1      -0.810   0.029  14.268  1.00  0.00    -0.206 F 
ATOM     70  C   UNL     1      -2.361   1.514  15.219  1.00  0.00     0.040 A 
ATOM     71  C   UNL     1      -4.518   0.708  15.927  1.00  0.00     0.040 A 
ATOM     72  F   UNL     1      -5.055  -1.564  15.687  1.00  0.00    -0.206 F 
ATOM     73  C   UNL     1      -3.613   1.758  15.783  1.00  0.00     0.006 A 
ENDBRANCH  45  66
BRANCH  57  74
ATOM     74  C   UNL     1       1.591  -5.535  17.395  1.00  0.00     0.057 A 
ATOM     75  C   UNL     1       1.159  -5.663  18.721  1.00  0.00     0.134 A 
ATOM     76  C   UNL     1       2.967  -5.402  17.170  1.00  0.00     0.134 A 
ATOM     77  F   UNL     1      -0.148  -5.778  19.001  1.00  0.00    -0.206 F 
ATOM     78  C   UNL     1       2.061  -5.641  19.785  1.00  0.00     0.040 A 
ATOM     79  C   UNL     1       3.880  -5.399  18.224  1.00  0.00     0.040 A 
ATOM     80  F   UNL     1       3.444  -5.280  15.922  1.00  0.00    -0.206 F 
ATOM     81  C   UNL     1       3.427  -5.514  19.537  1.00  0.00     0.006 A 
ENDBRANCH  57  74
ENDBRANCH  31  32
ENDBRANCH  24  26
ENDBRANCH  23  24
ENDBRANCH  22  23
ENDBRANCH   1  22
TORSDOF 13
