REMARK SMILES CC(=O)c1nnn(-c2ccc(C(=O)OCCOC(=O)c3ccc(-c4c5nc(c(-c6c(F)cccc6F)c6ccc([nH]6)c(-c6c(F)cccc6F)c6nc(c(-c7c(F)cccc7F)c7ccc4[nH]7)C=C6)C=C5)cc3)cc2)c1C
REMARK SMILES IDX 15 1 14 2 12 3 13 4 11 5 8 6 9 7 75 8 10 9 74 10 7 11 4 12
REMARK SMILES IDX 5 13 76 14 6 15 77 16 2 17 1 18 3 19 16 20 17 21 18 22 19 23
REMARK SMILES IDX 20 24 21 25 73 26 22 27 72 28 23 29 24 30 25 31 66 32 26 33
REMARK SMILES IDX 71 34 65 35 67 36 27 37 70 38 64 39 63 40 28 42 54 43 37 44
REMARK SMILES IDX 53 45 38 46 41 47 52 48 68 49 39 50 40 51 51 53 69 54 42 55
REMARK SMILES IDX 29 56 30 57 35 58 31 59 32 60 34 61 36 62 33 63 55 64 56 65
REMARK SMILES IDX 61 66 57 67 58 68 60 69 62 70 59 71 43 72 44 73 49 74 45 75
REMARK SMILES IDX 46 76 48 77 50 78 47 79
REMARK H PARENT 67 41 41 52
REMARK Flexibility Score: inf
ROOT
ATOM      1  C   UNL     1       9.106   6.721   3.110  1.00  0.00     0.275 C 
ENDROOT
BRANCH   1   2
ATOM      2  O   UNL     1       7.867   6.169   2.630  1.00  0.00    -0.458 OA
BRANCH   2   3
ATOM      3  C   UNL     1       7.054   5.595   3.555  1.00  0.00     0.338 C 
ATOM      4  O   UNL     1       7.340   5.353   4.720  1.00  0.00    -0.246 OA
BRANCH   3   5
ATOM      5  C   UNL     1       5.699   5.376   2.989  1.00  0.00     0.060 A 
ATOM      6  C   UNL     1       3.220   4.649   1.969  1.00  0.00     0.067 A 
ATOM      7  C   UNL     1       3.366   4.781   3.351  1.00  0.00     0.029 A 
ATOM      8  C   UNL     1       4.246   5.030   1.098  1.00  0.00     0.029 A 
ATOM      9  C   UNL     1       4.623   5.122   3.860  1.00  0.00     0.018 A 
ATOM     10  C   UNL     1       5.484   5.400   1.608  1.00  0.00     0.018 A 
BRANCH   6  11
ATOM     11  N   UNL     1       2.104   3.963   1.449  1.00  0.00    -0.217 N 
ATOM     12  C   UNL     1       0.795   2.555   0.421  1.00  0.00     0.151 A 
ATOM     13  N   UNL     1       0.032   3.409   1.176  1.00  0.00    -0.126 NA
ATOM     14  C   UNL     1       2.133   2.859   0.607  1.00  0.00     0.073 A 
ATOM     15  N   UNL     1       0.847   4.184   1.881  1.00  0.00    -0.061 NA
ATOM     16  C   UNL     1       3.381   2.179   0.175  1.00  0.00     0.069 C 
BRANCH  12  17
ATOM     17  C   UNL     1       0.209   1.475  -0.355  1.00  0.00     0.181 C 
ATOM     18  C   UNL     1       0.603   0.062   0.003  1.00  0.00     0.095 C 
ATOM     19  O   UNL     1      -0.600   1.690  -1.257  1.00  0.00    -0.293 OA
ENDBRANCH  12  17
ENDBRANCH   6  11
ENDBRANCH   3   5
ENDBRANCH   2   3
ENDBRANCH   1   2
BRANCH   1  20
ATOM     20  C   UNL     1       8.933   8.174   3.536  1.00  0.00     0.275 C 
BRANCH  20  21
ATOM     21  O   UNL     1       8.147   8.242   4.722  1.00  0.00    -0.458 OA
BRANCH  21  22
ATOM     22  C   UNL     1       6.814   8.344   4.523  1.00  0.00     0.338 C 
ATOM     23  O   UNL     1       6.226   8.357   3.454  1.00  0.00    -0.246 OA
BRANCH  22  24
ATOM     24  C   UNL     1       6.152   8.603   5.804  1.00  0.00     0.060 A 
ATOM     25  C   UNL     1       4.759   8.740   5.766  1.00  0.00     0.016 A 
ATOM     26  C   UNL     1       6.927   9.091   6.862  1.00  0.00     0.016 A 
ATOM     27  C   UNL     1       4.175   9.628   6.638  1.00  0.00     0.010 A 
ATOM     28  C   UNL     1       6.349   9.994   7.712  1.00  0.00     0.010 A 
ATOM     29  C   UNL     1       5.011  10.330   7.504  1.00  0.00    -0.014 A 
BRANCH  29  30
ATOM     30  C   UNL     1       4.493  11.512   8.154  1.00  0.00     0.031 A 
ATOM     31  C   UNL     1       3.716  11.237   9.380  1.00  0.00     0.074 A 
ATOM     32  C   UNL     1       4.898  12.727   7.734  1.00  0.00     0.049 A 
ATOM     33  N   UNL     1       2.499  11.568   9.656  1.00  0.00    -0.248 NA
ATOM     34  C   UNL     1       4.345  10.355  10.379  1.00  0.00     0.031 C 
ATOM     35  C   UNL     1       5.916  13.041   6.721  1.00  0.00     0.029 A 
ATOM     36  N   UNL     1       4.586  13.949   8.233  1.00  0.00    -0.354 N 
ATOM     37  C   UNL     1       2.279  11.101  10.949  1.00  0.00     0.074 A 
ATOM     38  C   UNL     1       3.361  10.207  11.262  1.00  0.00     0.031 C 
ATOM     39  C   UNL     1       6.302  14.329   6.862  1.00  0.00     0.029 A 
ATOM     40  C   UNL     1       5.482  14.949   7.886  1.00  0.00     0.049 A 
ATOM     41  H   UNL     1       3.793  14.112   8.793  1.00  0.00     0.167 HD
ATOM     42  C   UNL     1       1.375  11.686  11.777  1.00  0.00     0.037 A 
ATOM     43  C   UNL     1       5.598  16.148   8.508  1.00  0.00     0.037 A 
ATOM     44  C   UNL     1       0.412  12.470  11.054  1.00  0.00     0.049 A 
ATOM     45  C   UNL     1       4.360  16.353   9.307  1.00  0.00     0.074 A 
ATOM     46  C   UNL     1      -0.528  12.191  10.081  1.00  0.00     0.029 A 
ATOM     47  N   UNL     1       0.572  13.834  11.038  1.00  0.00    -0.354 N 
ATOM     48  N   UNL     1       3.178  16.536   8.784  1.00  0.00    -0.248 NA
ATOM     49  C   UNL     1       4.362  15.881  10.685  1.00  0.00     0.031 C 
ATOM     50  C   UNL     1      -0.520  13.328   9.221  1.00  0.00     0.029 A 
ATOM     51  C   UNL     1       0.395  14.244   9.741  1.00  0.00     0.049 A 
ATOM     52  H   UNL     1       0.776  14.408  11.811  1.00  0.00     0.167 HD
ATOM     53  C   UNL     1       2.305  15.835   9.608  1.00  0.00     0.074 A 
ATOM     54  C   UNL     1       3.083  15.515  10.802  1.00  0.00     0.031 C 
ATOM     55  C   UNL     1       1.131  15.327   9.130  1.00  0.00     0.037 A 
BRANCH  42  56
ATOM     56  C   UNL     1       1.604  11.834  13.256  1.00  0.00     0.057 A 
ATOM     57  C   UNL     1       0.538  12.219  14.083  1.00  0.00     0.134 A 
ATOM     58  C   UNL     1       2.881  11.882  13.855  1.00  0.00     0.134 A 
ATOM     59  F   UNL     1      -0.719  12.243  13.616  1.00  0.00    -0.206 F 
ATOM     60  C   UNL     1       0.737  12.667  15.394  1.00  0.00     0.040 A 
ATOM     61  C   UNL     1       3.084  12.270  15.180  1.00  0.00     0.040 A 
ATOM     62  F   UNL     1       4.008  11.656  13.167  1.00  0.00    -0.206 F 
ATOM     63  C   UNL     1       2.012  12.695  15.946  1.00  0.00     0.006 A 
ENDBRANCH  42  56
BRANCH  43  64
ATOM     64  C   UNL     1       6.848  16.905   8.751  1.00  0.00     0.057 A 
ATOM     65  C   UNL     1       6.825  18.266   9.079  1.00  0.00     0.134 A 
ATOM     66  C   UNL     1       8.089  16.256   8.902  1.00  0.00     0.134 A 
ATOM     67  F   UNL     1       5.679  18.959   9.017  1.00  0.00    -0.206 F 
ATOM     68  C   UNL     1       7.967  18.942   9.532  1.00  0.00     0.040 A 
ATOM     69  C   UNL     1       9.238  16.920   9.343  1.00  0.00     0.040 A 
ATOM     70  F   UNL     1       8.211  14.935   8.708  1.00  0.00    -0.206 F 
ATOM     71  C   UNL     1       9.177  18.267   9.670  1.00  0.00     0.006 A 
ENDBRANCH  43  64
BRANCH  55  72
ATOM     72  C   UNL     1       0.717  15.717   7.739  1.00  0.00     0.057 A 
ATOM     73  C   UNL     1       1.416  15.323   6.588  1.00  0.00     0.134 A 
ATOM     74  C   UNL     1      -0.511  16.355   7.543  1.00  0.00     0.134 A 
ATOM     75  F   UNL     1       2.545  14.611   6.678  1.00  0.00    -0.206 F 
ATOM     76  C   UNL     1       0.938  15.588   5.302  1.00  0.00     0.040 A 
ATOM     77  C   UNL     1      -1.018  16.598   6.263  1.00  0.00     0.040 A 
ATOM     78  F   UNL     1      -1.268  16.702   8.596  1.00  0.00    -0.206 F 
ATOM     79  C   UNL     1      -0.289  16.222   5.137  1.00  0.00     0.006 A 
ENDBRANCH  55  72
ENDBRANCH  29  30
ENDBRANCH  22  24
ENDBRANCH  21  22
ENDBRANCH  20  21
ENDBRANCH   1  20
TORSDOF 13
