REMARK SMILES Cc1cccc(NC(=O)[C@H]2C=C[C@@H]([NH3+])C2)c1C(=O)OCCOC(=O)c1ccc(-c2c3nc(c(-c4c(F)cccc4F)c4ccc([nH]4)c(-c4c(F)cccc4F)c4nc(c(-c5c(F)cccc5F)c5ccc2[nH]5)C=C4)C=C3)cc1
REMARK SMILES IDX 20 1 19 2 17 3 18 4 16 5 1 6 2 7 3 8 4 9 6 10 5 11 7 12 8 13
REMARK SMILES IDX 9 15 10 16 11 17 15 18 12 19 13 20 14 21 21 25 22 26 23 27
REMARK SMILES IDX 24 28 25 29 26 30 78 31 27 32 77 33 28 34 29 35 30 36 71 37
REMARK SMILES IDX 31 38 76 39 70 40 72 41 32 42 75 43 69 44 68 45 33 47 59 48
REMARK SMILES IDX 42 49 58 50 43 51 46 52 57 53 73 54 44 55 45 56 56 58 74 59
REMARK SMILES IDX 47 60 34 61 35 62 40 63 36 64 37 65 39 66 41 67 38 68 60 69
REMARK SMILES IDX 61 70 66 71 62 72 63 73 65 74 67 75 64 76 48 77 49 78 54 79
REMARK SMILES IDX 50 80 51 81 53 82 55 83 52 84
REMARK H PARENT 7 14 14 22 14 23 14 24 72 46 46 57
REMARK Flexibility Score: inf
ROOT
ATOM      1  C   UNL     1       3.054   2.711  -2.005  1.00  0.00     0.275 C 
ENDROOT
BRANCH   1   2
ATOM      2  O   UNL     1       1.823   1.951  -2.044  1.00  0.00    -0.458 OA
BRANCH   2   3
ATOM      3  C   UNL     1       1.592   1.273  -0.881  1.00  0.00     0.340 C 
ATOM      4  O   UNL     1       2.224   1.427   0.154  1.00  0.00    -0.246 OA
BRANCH   3   5
ATOM      5  C   UNL     1       0.711   0.095  -0.997  1.00  0.00     0.086 A 
ATOM      6  C   UNL     1       2.851  -1.301  -0.532  1.00  0.00     0.045 C 
ATOM      7  C   UNL     1       1.366  -1.148  -0.760  1.00  0.00    -0.034 A 
ATOM      8  C   UNL     1       0.606  -2.319  -0.669  1.00  0.00     0.004 A 
ATOM      9  C   UNL     1      -0.754  -2.284  -0.912  1.00  0.00     0.002 A 
ATOM     10  C   UNL     1      -0.700   0.139  -1.113  1.00  0.00     0.056 A 
ATOM     11  C   UNL     1      -1.369  -1.069  -1.190  1.00  0.00     0.027 A 
BRANCH  10  12
ATOM     12  N   UNL     1      -1.455   1.324  -1.155  1.00  0.00    -0.325 N 
ATOM     13  C   UNL     1      -2.752   1.663  -0.900  1.00  0.00     0.231 C 
ATOM     14  H   UNL     1      -0.917   2.098  -1.438  1.00  0.00     0.169 HD
ATOM     15  O   UNL     1      -2.992   2.869  -1.119  1.00  0.00    -0.274 OA
BRANCH  13  16
ATOM     16  C   UNL     1      -3.975   0.832  -0.406  1.00  0.00     0.107 C 
ATOM     17  C   UNL     1      -4.903   0.618  -1.571  1.00  0.00    -0.012 C 
ATOM     18  C   UNL     1      -4.035  -0.510   0.342  1.00  0.00     0.087 C 
ATOM     19  C   UNL     1      -5.411  -0.616  -1.616  1.00  0.00     0.033 C 
ATOM     20  C   UNL     1      -4.963  -1.457  -0.471  1.00  0.00     0.205 C 
BRANCH  20  21
ATOM     21  N   UNL     1      -4.335  -2.681  -0.948  1.00  0.00    -0.352 N 
ATOM     22  H   UNL     1      -3.554  -2.446  -1.561  1.00  0.00     0.345 HD
ATOM     23  H   UNL     1      -5.018  -3.235  -1.464  1.00  0.00     0.345 HD
ATOM     24  H   UNL     1      -3.992  -3.219  -0.152  1.00  0.00     0.345 HD
ENDBRANCH  20  21
ENDBRANCH  13  16
ENDBRANCH  10  12
ENDBRANCH   3   5
ENDBRANCH   2   3
ENDBRANCH   1   2
BRANCH   1  25
ATOM     25  C   UNL     1       3.070   4.041  -2.783  1.00  0.00     0.275 C 
BRANCH  25  26
ATOM     26  O   UNL     1       1.936   4.945  -2.771  1.00  0.00    -0.458 OA
BRANCH  26  27
ATOM     27  C   UNL     1       0.861   4.831  -1.970  1.00  0.00     0.338 C 
ATOM     28  O   UNL     1      -0.291   4.896  -2.391  1.00  0.00    -0.246 OA
BRANCH  27  29
ATOM     29  C   UNL     1       1.147   4.629  -0.546  1.00  0.00     0.060 A 
ATOM     30  C   UNL     1       0.215   3.907   0.213  1.00  0.00     0.016 A 
ATOM     31  C   UNL     1       2.375   5.020  -0.017  1.00  0.00     0.016 A 
ATOM     32  C   UNL     1       0.548   3.447   1.470  1.00  0.00     0.010 A 
ATOM     33  C   UNL     1       2.754   4.496   1.191  1.00  0.00     0.010 A 
ATOM     34  C   UNL     1       1.823   3.748   1.933  1.00  0.00    -0.014 A 
BRANCH  34  35
ATOM     35  C   UNL     1       2.130   3.703   3.343  1.00  0.00     0.031 A 
ATOM     36  C   UNL     1       2.671   2.484   3.953  1.00  0.00     0.074 A 
ATOM     37  C   UNL     1       1.966   4.944   3.856  1.00  0.00     0.049 A 
ATOM     38  N   UNL     1       2.600   2.217   5.207  1.00  0.00    -0.248 NA
ATOM     39  C   UNL     1       3.267   1.381   3.196  1.00  0.00     0.031 C 
ATOM     40  C   UNL     1       2.438   5.588   5.059  1.00  0.00     0.029 A 
ATOM     41  N   UNL     1       1.111   5.904   3.286  1.00  0.00    -0.354 N 
ATOM     42  C   UNL     1       3.485   1.183   5.450  1.00  0.00     0.074 A 
ATOM     43  C   UNL     1       3.686   0.564   4.170  1.00  0.00     0.031 C 
ATOM     44  C   UNL     1       1.667   6.674   5.290  1.00  0.00     0.029 A 
ATOM     45  C   UNL     1       0.582   6.673   4.309  1.00  0.00     0.049 A 
ATOM     46  H   UNL     1       0.922   6.011   2.326  1.00  0.00     0.167 HD
ATOM     47  C   UNL     1       4.115   1.159   6.662  1.00  0.00     0.037 A 
ATOM     48  C   UNL     1      -0.745   6.488   4.585  1.00  0.00     0.037 A 
ATOM     49  C   UNL     1       3.583   2.255   7.474  1.00  0.00     0.049 A 
ATOM     50  C   UNL     1      -0.879   5.764   5.902  1.00  0.00     0.074 A 
ATOM     51  C   UNL     1       4.029   3.555   7.650  1.00  0.00     0.029 A 
ATOM     52  N   UNL     1       2.243   2.239   7.842  1.00  0.00    -0.354 N 
ATOM     53  N   UNL     1      -0.054   4.845   6.332  1.00  0.00    -0.248 NA
ATOM     54  C   UNL     1      -1.889   6.137   6.883  1.00  0.00     0.031 C 
ATOM     55  C   UNL     1       2.909   4.343   8.029  1.00  0.00     0.029 A 
ATOM     56  C   UNL     1       1.790   3.525   8.072  1.00  0.00     0.049 A 
ATOM     57  H   UNL     1       1.693   1.426   7.926  1.00  0.00     0.167 HD
ATOM     58  C   UNL     1      -0.340   4.577   7.644  1.00  0.00     0.074 A 
ATOM     59  C   UNL     1      -1.511   5.391   7.933  1.00  0.00     0.031 C 
ATOM     60  C   UNL     1       0.406   3.758   8.443  1.00  0.00     0.037 A 
BRANCH  47  61
ATOM     61  C   UNL     1       5.400   0.431   7.019  1.00  0.00     0.057 A 
ATOM     62  C   UNL     1       6.130   0.824   8.165  1.00  0.00     0.134 A 
ATOM     63  C   UNL     1       6.009  -0.608   6.292  1.00  0.00     0.134 A 
ATOM     64  F   UNL     1       5.667   1.756   9.009  1.00  0.00    -0.206 F 
ATOM     65  C   UNL     1       7.376   0.284   8.515  1.00  0.00     0.040 A 
ATOM     66  C   UNL     1       7.262  -1.153   6.626  1.00  0.00     0.040 A 
ATOM     67  F   UNL     1       5.423  -1.179   5.237  1.00  0.00    -0.206 F 
ATOM     68  C   UNL     1       7.957  -0.701   7.736  1.00  0.00     0.006 A 
ENDBRANCH  47  61
BRANCH  48  69
ATOM     69  C   UNL     1      -1.610   6.263   3.373  1.00  0.00     0.057 A 
ATOM     70  C   UNL     1      -1.570   7.210   2.324  1.00  0.00     0.134 A 
ATOM     71  C   UNL     1      -2.254   5.056   3.085  1.00  0.00     0.134 A 
ATOM     72  F   UNL     1      -0.990   8.406   2.519  1.00  0.00    -0.206 F 
ATOM     73  C   UNL     1      -2.033   6.930   1.033  1.00  0.00     0.040 A 
ATOM     74  C   UNL     1      -2.749   4.774   1.799  1.00  0.00     0.040 A 
ATOM     75  F   UNL     1      -2.347   4.088   4.007  1.00  0.00    -0.206 F 
ATOM     76  C   UNL     1      -2.609   5.697   0.762  1.00  0.00     0.006 A 
ENDBRANCH  48  69
BRANCH  60  77
ATOM     77  C   UNL     1      -0.094   3.168   9.732  1.00  0.00     0.057 A 
ATOM     78  C   UNL     1      -1.449   2.922   9.990  1.00  0.00     0.134 A 
ATOM     79  C   UNL     1       0.807   2.658  10.693  1.00  0.00     0.134 A 
ATOM     80  F   UNL     1      -2.402   3.216   9.095  1.00  0.00    -0.206 F 
ATOM     81  C   UNL     1      -1.885   2.303  11.163  1.00  0.00     0.040 A 
ATOM     82  C   UNL     1       0.386   1.966  11.827  1.00  0.00     0.040 A 
ATOM     83  F   UNL     1       2.137   2.775  10.558  1.00  0.00    -0.206 F 
ATOM     84  C   UNL     1      -0.967   1.811  12.080  1.00  0.00     0.006 A 
ENDBRANCH  60  77
ENDBRANCH  34  35
ENDBRANCH  27  29
ENDBRANCH  26  27
ENDBRANCH  25  26
ENDBRANCH   1  25
TORSDOF 14
