REMARK SMILES CCOc1cccc2c(SCC(=O)OCCOC(=O)c3ccc(-c4c5nc(c(-c6c(F)cccc6F)c6ccc([nH]6)c(-c6c(F)cccc6F)c6nc(c(-c7c(F)cccc7F)c7ccc4[nH]7)C=C6)C=C5)cc3)cc(C)nc12
REMARK SMILES IDX 15 1 14 2 12 3 13 4 11 5 10 6 9 7 4 8 5 9 78 10 6 11 8 12
REMARK SMILES IDX 77 13 7 14 75 15 74 16 76 17 3 18 2 19 1 20 16 21 17 22
REMARK SMILES IDX 18 23 19 24 20 25 21 26 73 27 22 28 72 29 23 30 24 31 25 32
REMARK SMILES IDX 66 33 26 34 71 35 65 36 67 37 27 38 70 39 64 40 63 41 28 43
REMARK SMILES IDX 54 44 37 45 53 46 38 47 41 48 52 49 68 50 39 51 40 52 51 54
REMARK SMILES IDX 69 55 42 56 29 57 30 58 35 59 31 60 32 61 34 62 36 63 33 64
REMARK SMILES IDX 55 65 56 66 61 67 57 68 58 69 60 70 62 71 59 72 43 73 44 74
REMARK SMILES IDX 49 75 45 76 46 77 48 78 50 79 47 80
REMARK H PARENT 67 42 41 53
REMARK Flexibility Score: inf
ROOT
ATOM      1  C   UNL     1       8.039   1.828  -1.946  1.00  0.00     0.274 C 
ENDROOT
BRANCH   1   2
ATOM      2  O   UNL     1       7.747   0.841  -0.935  1.00  0.00    -0.461 OA
BRANCH   2   3
ATOM      3  C   UNL     1       8.183   1.121   0.320  1.00  0.00     0.316 C 
ATOM      4  O   UNL     1       8.755   2.162   0.634  1.00  0.00    -0.251 OA
BRANCH   3   5
ATOM      5  C   UNL     1       7.909   0.044   1.349  1.00  0.00     0.197 C 
BRANCH   5   6
ATOM      6  S   UNL     1       7.141  -1.481   0.718  1.00  0.00    -0.114 SA
BRANCH   6   7
ATOM      7  C   UNL     1       5.362  -1.279   0.985  1.00  0.00     0.019 A 
ATOM      8  C   UNL     1       2.228  -3.251   0.819  1.00  0.00     0.145 A 
ATOM      9  C   UNL     1       2.669  -4.561   0.651  1.00  0.00     0.049 A 
ATOM     10  C   UNL     1       3.116  -2.190   1.010  1.00  0.00     0.114 A 
ATOM     11  C   UNL     1       4.031  -4.818   0.612  1.00  0.00     0.005 A 
ATOM     12  C   UNL     1       4.504  -2.419   0.906  1.00  0.00     0.018 A 
ATOM     13  N   UNL     1       2.612  -0.979   1.270  1.00  0.00    -0.249 NA
ATOM     14  C   UNL     1       4.936  -3.760   0.720  1.00  0.00     0.012 A 
ATOM     15  C   UNL     1       3.426   0.078   1.365  1.00  0.00     0.039 A 
ATOM     16  C   UNL     1       4.795  -0.021   1.197  1.00  0.00     0.039 A 
ATOM     17  C   UNL     1       2.744   1.381   1.603  1.00  0.00     0.067 C 
BRANCH   8  18
ATOM     18  O   UNL     1       0.865  -3.040   0.832  1.00  0.00    -0.492 OA
BRANCH  18  19
ATOM     19  C   UNL     1       0.397  -2.552  -0.437  1.00  0.00     0.226 C 
ATOM     20  C   UNL     1       0.093  -1.061  -0.407  1.00  0.00     0.049 C 
ENDBRANCH  18  19
ENDBRANCH   8  18
ENDBRANCH   6   7
ENDBRANCH   5   6
ENDBRANCH   3   5
ENDBRANCH   2   3
ENDBRANCH   1   2
BRANCH   1  21
ATOM     21  C   UNL     1       6.833   2.730  -2.186  1.00  0.00     0.275 C 
BRANCH  21  22
ATOM     22  O   UNL     1       6.459   3.377  -0.955  1.00  0.00    -0.458 OA
BRANCH  22  23
ATOM     23  C   UNL     1       5.132   3.433  -0.719  1.00  0.00     0.338 C 
ATOM     24  O   UNL     1       4.238   3.049  -1.461  1.00  0.00    -0.246 OA
BRANCH  23  25
ATOM     25  C   UNL     1       4.850   4.008   0.612  1.00  0.00     0.060 A 
ATOM     26  C   UNL     1       5.611   3.666   1.734  1.00  0.00     0.016 A 
ATOM     27  C   UNL     1       3.687   4.771   0.763  1.00  0.00     0.016 A 
ATOM     28  C   UNL     1       5.155   4.012   3.010  1.00  0.00     0.010 A 
ATOM     29  C   UNL     1       3.269   5.172   2.033  1.00  0.00     0.010 A 
ATOM     30  C   UNL     1       3.977   4.763   3.172  1.00  0.00    -0.014 A 
BRANCH  30  31
ATOM     31  C   UNL     1       3.507   5.153   4.526  1.00  0.00     0.031 A 
ATOM     32  C   UNL     1       2.228   4.612   5.109  1.00  0.00     0.074 A 
ATOM     33  C   UNL     1       4.246   6.024   5.237  1.00  0.00     0.049 A 
ATOM     34  N   UNL     1       1.677   4.863   6.272  1.00  0.00    -0.248 NA
ATOM     35  C   UNL     1       1.470   3.657   4.289  1.00  0.00     0.031 C 
ATOM     36  C   UNL     1       5.503   6.624   4.788  1.00  0.00     0.029 A 
ATOM     37  N   UNL     1       4.043   6.559   6.482  1.00  0.00    -0.354 N 
ATOM     38  C   UNL     1       0.525   4.086   6.327  1.00  0.00     0.074 A 
ATOM     39  C   UNL     1       0.444   3.365   5.076  1.00  0.00     0.031 C 
ATOM     40  C   UNL     1       5.965   7.438   5.748  1.00  0.00     0.029 A 
ATOM     41  C   UNL     1       5.014   7.454   6.854  1.00  0.00     0.049 A 
ATOM     42  H   UNL     1       3.276   6.325   7.053  1.00  0.00     0.167 HD
ATOM     43  C   UNL     1      -0.387   3.987   7.324  1.00  0.00     0.037 A 
ATOM     44  C   UNL     1       5.116   8.226   7.950  1.00  0.00     0.037 A 
ATOM     45  C   UNL     1      -0.339   4.738   8.551  1.00  0.00     0.049 A 
ATOM     46  C   UNL     1       4.056   8.158   9.005  1.00  0.00     0.074 A 
ATOM     47  C   UNL     1      -1.224   4.711   9.616  1.00  0.00     0.029 A 
ATOM     48  N   UNL     1       0.639   5.667   8.867  1.00  0.00    -0.354 N 
ATOM     49  N   UNL     1       2.981   7.409   9.045  1.00  0.00    -0.248 NA
ATOM     50  C   UNL     1       4.219   9.047  10.162  1.00  0.00     0.031 C 
ATOM     51  C   UNL     1      -0.800   5.653  10.562  1.00  0.00     0.029 A 
ATOM     52  C   UNL     1       0.367   6.239  10.099  1.00  0.00     0.049 A 
ATOM     53  H   UNL     1       1.413   5.888   8.300  1.00  0.00     0.167 HD
ATOM     54  C   UNL     1       2.339   7.734  10.231  1.00  0.00     0.074 A 
ATOM     55  C   UNL     1       3.155   8.734  10.890  1.00  0.00     0.031 C 
ATOM     56  C   UNL     1       1.177   7.248  10.729  1.00  0.00     0.037 A 
BRANCH  43  57
ATOM     57  C   UNL     1      -1.537   3.046   7.123  1.00  0.00     0.057 A 
ATOM     58  C   UNL     1      -1.391   1.665   7.302  1.00  0.00     0.134 A 
ATOM     59  C   UNL     1      -2.813   3.530   6.809  1.00  0.00     0.134 A 
ATOM     60  F   UNL     1      -0.193   1.141   7.596  1.00  0.00    -0.206 F 
ATOM     61  C   UNL     1      -2.477   0.796   7.172  1.00  0.00     0.040 A 
ATOM     62  C   UNL     1      -3.908   2.672   6.691  1.00  0.00     0.040 A 
ATOM     63  F   UNL     1      -3.017   4.843   6.628  1.00  0.00    -0.206 F 
ATOM     64  C   UNL     1      -3.741   1.301   6.872  1.00  0.00     0.006 A 
ENDBRANCH  43  57
BRANCH  44  65
ATOM     65  C   UNL     1       6.269   9.145   8.075  1.00  0.00     0.057 A 
ATOM     66  C   UNL     1       7.324   8.865   8.947  1.00  0.00     0.134 A 
ATOM     67  C   UNL     1       6.365  10.296   7.284  1.00  0.00     0.134 A 
ATOM     68  F   UNL     1       7.277   7.783   9.739  1.00  0.00    -0.206 F 
ATOM     69  C   UNL     1       8.441   9.697   9.027  1.00  0.00     0.040 A 
ATOM     70  C   UNL     1       7.483  11.126   7.339  1.00  0.00     0.040 A 
ATOM     71  F   UNL     1       5.385  10.609   6.423  1.00  0.00    -0.206 F 
ATOM     72  C   UNL     1       8.526  10.826   8.214  1.00  0.00     0.006 A 
ENDBRANCH  44  65
BRANCH  56  73
ATOM     73  C   UNL     1       0.727   7.799  12.045  1.00  0.00     0.057 A 
ATOM     74  C   UNL     1       0.148   9.070  12.146  1.00  0.00     0.134 A 
ATOM     75  C   UNL     1       0.873   7.054  13.221  1.00  0.00     0.134 A 
ATOM     76  F   UNL     1      -0.004   9.836  11.055  1.00  0.00    -0.206 F 
ATOM     77  C   UNL     1      -0.249   9.592  13.377  1.00  0.00     0.040 A 
ATOM     78  C   UNL     1       0.464   7.558  14.456  1.00  0.00     0.040 A 
ATOM     79  F   UNL     1       1.417   5.829  13.188  1.00  0.00    -0.206 F 
ATOM     80  C   UNL     1      -0.093   8.834  14.537  1.00  0.00     0.006 A 
ENDBRANCH  56  73
ENDBRANCH  30  31
ENDBRANCH  23  25
ENDBRANCH  22  23
ENDBRANCH  21  22
ENDBRANCH   1  21
TORSDOF 15
