REMARK SMILES O=C(Cc1ccccc1)Nc1cccc(C(=O)Nc2ccccc2C(=O)OCCOC(=O)c2ccc(-c3c4nc(c(-c5c(F)cccc5F)c5ccc([nH]5)c(-c5c(F)cccc5F)c5nc(c(-c6c(F)cccc6F)c6ccc3[nH]6)C=C5)C=C4)cc2)c1
REMARK SMILES IDX 27 1 25 2 26 3 24 4 19 5 20 6 21 7 23 8 22 9 18 10 16 11
REMARK SMILES IDX 17 12 15 14 11 15 12 16 87 17 13 18 14 19 10 20 1 21 2 22
REMARK SMILES IDX 3 24 4 25 5 26 9 27 6 28 8 29 7 30 28 31 29 32 30 33 31 34
REMARK SMILES IDX 32 35 33 36 34 37 86 38 35 39 85 40 36 41 37 42 38 43 79 44
REMARK SMILES IDX 39 45 84 46 78 47 80 48 40 49 83 50 77 51 76 52 41 54 67 55
REMARK SMILES IDX 50 56 66 57 51 58 54 59 65 60 81 61 52 62 53 63 64 65 82 66
REMARK SMILES IDX 55 67 42 68 43 69 48 70 44 71 45 72 47 73 49 74 46 75 68 76
REMARK SMILES IDX 69 77 74 78 70 79 71 80 73 81 75 82 72 83 56 84 57 85 62 86
REMARK SMILES IDX 58 87 59 88 61 89 63 90 60 91
REMARK H PARENT 18 13 10 23 80 53 54 64
REMARK Flexibility Score: inf
ROOT
ATOM      1  O   UNL     1       0.900  -1.450  -5.020  1.00  0.00    -0.458 OA
ENDROOT
BRANCH   1   2
ATOM      2  C   UNL     1       1.381  -0.899  -3.884  1.00  0.00     0.340 C 
ATOM      3  O   UNL     1       2.379  -1.283  -3.288  1.00  0.00    -0.246 OA
BRANCH   2   4
ATOM      4  C   UNL     1       0.595   0.254  -3.394  1.00  0.00     0.083 A 
ATOM      5  C   UNL     1      -0.786   0.231  -3.140  1.00  0.00     0.056 A 
ATOM      6  C   UNL     1      -1.395   1.404  -2.653  1.00  0.00     0.027 A 
ATOM      7  C   UNL     1      -0.642   2.532  -2.311  1.00  0.00     0.002 A 
ATOM      8  C   UNL     1       1.331   1.417  -3.084  1.00  0.00     0.018 A 
ATOM      9  C   UNL     1       0.727   2.537  -2.519  1.00  0.00     0.001 A 
BRANCH   5  10
ATOM     10  N   UNL     1      -1.655  -0.876  -3.264  1.00  0.00    -0.321 N 
ATOM     11  C   UNL     1      -1.491  -2.221  -2.998  1.00  0.00     0.255 C 
ATOM     12  O   UNL     1      -2.318  -3.024  -3.428  1.00  0.00    -0.269 OA
ATOM     13  H   UNL     1      -2.549  -0.644  -3.606  1.00  0.00     0.170 HD
BRANCH  11  14
ATOM     14  C   UNL     1      -0.380  -2.725  -2.147  1.00  0.00     0.042 A 
ATOM     15  C   UNL     1       1.455  -2.259  -0.663  1.00  0.00     0.041 A 
ATOM     16  C   UNL     1       2.025  -3.494  -0.995  1.00  0.00     0.026 A 
ATOM     17  C   UNL     1       0.192  -1.933  -1.148  1.00  0.00     0.040 A 
ATOM     18  C   UNL     1       1.354  -4.379  -1.838  1.00  0.00     0.003 A 
ATOM     19  C   UNL     1       0.161  -3.983  -2.438  1.00  0.00     0.014 A 
BRANCH  15  20
ATOM     20  N   UNL     1       2.275  -1.322  -0.010  1.00  0.00    -0.326 N 
ATOM     21  O   UNL     1       0.759   0.312   0.669  1.00  0.00    -0.274 OA
ATOM     22  C   UNL     1       1.905  -0.109   0.547  1.00  0.00     0.228 C 
ATOM     23  H   UNL     1       3.228  -1.558   0.061  1.00  0.00     0.169 HD
BRANCH  22  24
ATOM     24  C   UNL     1       3.098   0.719   0.998  1.00  0.00     0.135 C 
BRANCH  24  25
ATOM     25  C   UNL     1       3.849   0.218   2.217  1.00  0.00    -0.039 A 
ATOM     26  C   UNL     1       3.850  -1.121   2.638  1.00  0.00     0.004 A 
ATOM     27  C   UNL     1       4.644   1.131   2.927  1.00  0.00     0.004 A 
ATOM     28  C   UNL     1       4.626  -1.538   3.719  1.00  0.00     0.000 A 
ATOM     29  C   UNL     1       5.404   0.719   4.024  1.00  0.00     0.000 A 
ATOM     30  C   UNL     1       5.401  -0.618   4.415  1.00  0.00     0.000 A 
ENDBRANCH  24  25
ENDBRANCH  22  24
ENDBRANCH  15  20
ENDBRANCH  11  14
ENDBRANCH   5  10
ENDBRANCH   2   4
ENDBRANCH   1   2
BRANCH   1  31
ATOM     31  C   UNL     1       1.571  -2.666  -5.418  1.00  0.00     0.275 C 
BRANCH  31  32
ATOM     32  C   UNL     1       2.748  -2.447  -6.374  1.00  0.00     0.275 C 
BRANCH  32  33
ATOM     33  O   UNL     1       3.895  -1.878  -5.712  1.00  0.00    -0.458 OA
BRANCH  33  34
ATOM     34  C   UNL     1       3.967  -0.532  -5.785  1.00  0.00     0.338 C 
ATOM     35  O   UNL     1       3.203   0.221  -6.367  1.00  0.00    -0.246 OA
BRANCH  34  36
ATOM     36  C   UNL     1       5.092  -0.011  -4.996  1.00  0.00     0.060 A 
ATOM     37  C   UNL     1       4.832   0.434  -3.703  1.00  0.00     0.016 A 
ATOM     38  C   UNL     1       6.298   0.306  -5.613  1.00  0.00     0.016 A 
ATOM     39  C   UNL     1       5.682   1.326  -3.077  1.00  0.00     0.010 A 
ATOM     40  C   UNL     1       7.217   1.111  -4.931  1.00  0.00     0.010 A 
ATOM     41  C   UNL     1       6.887   1.674  -3.683  1.00  0.00    -0.014 A 
BRANCH  41  42
ATOM     42  C   UNL     1       7.747   2.700  -3.049  1.00  0.00     0.031 A 
ATOM     43  C   UNL     1       8.059   3.960  -3.805  1.00  0.00     0.074 A 
ATOM     44  C   UNL     1       8.202   2.525  -1.794  1.00  0.00     0.049 A 
ATOM     45  N   UNL     1       8.971   4.864  -3.566  1.00  0.00    -0.248 NA
ATOM     46  C   UNL     1       7.242   4.231  -5.001  1.00  0.00     0.031 C 
ATOM     47  C   UNL     1       7.881   1.392  -0.920  1.00  0.00     0.029 A 
ATOM     48  N   UNL     1       9.042   3.298  -1.035  1.00  0.00    -0.354 N 
ATOM     49  C   UNL     1       8.880   5.775  -4.611  1.00  0.00     0.074 A 
ATOM     50  C   UNL     1       7.828   5.314  -5.490  1.00  0.00     0.031 C 
ATOM     51  C   UNL     1       8.510   1.547   0.254  1.00  0.00     0.029 A 
ATOM     52  C   UNL     1       9.361   2.726   0.173  1.00  0.00     0.049 A 
ATOM     53  H   UNL     1       9.382   4.175  -1.326  1.00  0.00     0.167 HD
ATOM     54  C   UNL     1       9.617   6.893  -4.813  1.00  0.00     0.037 A 
ATOM     55  C   UNL     1      10.293   3.071   1.079  1.00  0.00     0.037 A 
ATOM     56  C   UNL     1      10.630   7.349  -3.898  1.00  0.00     0.049 A 
ATOM     57  C   UNL     1      11.150   4.272   0.800  1.00  0.00     0.074 A 
ATOM     58  C   UNL     1      11.460   8.451  -4.003  1.00  0.00     0.029 A 
ATOM     59  N   UNL     1      10.937   6.729  -2.694  1.00  0.00    -0.354 N 
ATOM     60  N   UNL     1      11.127   5.082  -0.232  1.00  0.00    -0.248 NA
ATOM     61  C   UNL     1      12.170   4.602   1.802  1.00  0.00     0.031 C 
ATOM     62  C   UNL     1      12.292   8.477  -2.879  1.00  0.00     0.029 A 
ATOM     63  C   UNL     1      11.944   7.423  -2.047  1.00  0.00     0.049 A 
ATOM     64  H   UNL     1      10.501   5.916  -2.350  1.00  0.00     0.167 HD
ATOM     65  C   UNL     1      12.109   6.033   0.009  1.00  0.00     0.074 A 
ATOM     66  C   UNL     1      12.697   5.705   1.292  1.00  0.00     0.031 C 
ATOM     67  C   UNL     1      12.494   7.081  -0.760  1.00  0.00     0.037 A 
BRANCH  54  68
ATOM     68  C   UNL     1       9.382   7.667  -6.077  1.00  0.00     0.057 A 
ATOM     69  C   UNL     1       8.215   8.410  -6.294  1.00  0.00     0.134 A 
ATOM     70  C   UNL     1      10.354   7.688  -7.087  1.00  0.00     0.134 A 
ATOM     71  F   UNL     1       7.234   8.419  -5.378  1.00  0.00    -0.206 F 
ATOM     72  C   UNL     1       8.013   9.127  -7.476  1.00  0.00     0.040 A 
ATOM     73  C   UNL     1      10.177   8.423  -8.260  1.00  0.00     0.040 A 
ATOM     74  F   UNL     1      11.497   7.000  -6.946  1.00  0.00    -0.206 F 
ATOM     75  C   UNL     1       9.001   9.141  -8.460  1.00  0.00     0.006 A 
ENDBRANCH  54  68
BRANCH  55  76
ATOM     76  C   UNL     1      10.510   2.229   2.283  1.00  0.00     0.057 A 
ATOM     77  C   UNL     1      10.232   2.709   3.567  1.00  0.00     0.134 A 
ATOM     78  C   UNL     1      11.007   0.922   2.179  1.00  0.00     0.134 A 
ATOM     79  F   UNL     1       9.770   3.957   3.735  1.00  0.00    -0.206 F 
ATOM     80  C   UNL     1      10.462   1.932   4.704  1.00  0.00     0.040 A 
ATOM     81  C   UNL     1      11.209   0.122   3.304  1.00  0.00     0.040 A 
ATOM     82  F   UNL     1      11.286   0.396   0.977  1.00  0.00    -0.206 F 
ATOM     83  C   UNL     1      10.946   0.632   4.573  1.00  0.00     0.006 A 
ENDBRANCH  55  76
BRANCH  67  84
ATOM     84  C   UNL     1      13.554   7.980  -0.198  1.00  0.00     0.057 A 
ATOM     85  C   UNL     1      14.893   7.583  -0.105  1.00  0.00     0.134 A 
ATOM     86  C   UNL     1      13.228   9.274   0.229  1.00  0.00     0.134 A 
ATOM     87  F   UNL     1      15.265   6.350  -0.483  1.00  0.00    -0.206 F 
ATOM     88  C   UNL     1      15.868   8.433   0.418  1.00  0.00     0.040 A 
ATOM     89  C   UNL     1      14.199  10.143   0.724  1.00  0.00     0.040 A 
ATOM     90  F   UNL     1      11.964   9.717   0.157  1.00  0.00    -0.206 F 
ATOM     91  C   UNL     1      15.522   9.720   0.827  1.00  0.00     0.006 A 
ENDBRANCH  67  84
ENDBRANCH  41  42
ENDBRANCH  34  36
ENDBRANCH  33  34
ENDBRANCH  32  33
ENDBRANCH  31  32
ENDBRANCH   1  31
TORSDOF 16
