REMARK SMILES C=CCN(CC(=O)OCCOC(=O)c1ccc(-c2c3nc(c(-c4c(F)cccc4F)c4ccc([nH]4)c(-c4c(F)cccc4F)c4nc(c(-c5c(F)cccc5F)c5ccc2[nH]5)C=C4)C=C3)cc1)c1ccc([N+](=O)[O-])cc1Br
REMARK SMILES IDX 9 1 8 2 6 3 7 4 5 5 4 6 3 7 2 8 1 9 68 10 69 11 76 12 70 13
REMARK SMILES IDX 75 14 77 15 71 16 72 17 73 18 74 19 10 20 11 21 12 22 13 23
REMARK SMILES IDX 14 24 15 25 67 26 16 27 66 28 17 29 18 30 19 31 60 32 20 33
REMARK SMILES IDX 65 34 59 35 61 36 21 37 64 38 58 39 57 40 22 42 48 43 31 44
REMARK SMILES IDX 47 45 32 46 35 47 46 48 62 49 33 50 34 51 45 53 63 54 36 55
REMARK SMILES IDX 23 56 24 57 29 58 25 59 26 60 28 61 30 62 27 63 49 64 50 65
REMARK SMILES IDX 55 66 51 67 52 68 54 69 56 70 53 71 37 72 38 73 43 74 39 75
REMARK SMILES IDX 40 76 42 77 44 78 41 79
REMARK H PARENT 61 41 35 52
REMARK Flexibility Score: inf
ROOT
ATOM      1  C   UNL     1      -5.641   2.089  -0.893  1.00  0.00     0.274 C 
ENDROOT
BRANCH   1   2
ATOM      2  O   UNL     1      -4.222   1.848  -0.922  1.00  0.00    -0.461 OA
BRANCH   2   3
ATOM      3  C   UNL     1      -3.611   2.067  -2.120  1.00  0.00     0.325 C 
ATOM      4  O   UNL     1      -4.203   2.382  -3.150  1.00  0.00    -0.250 OA
BRANCH   3   5
ATOM      5  C   UNL     1      -2.093   1.911  -2.091  1.00  0.00     0.239 C 
BRANCH   5   6
ATOM      6  N   UNL     1      -1.514   1.558  -0.788  1.00  0.00    -0.356 N 
BRANCH   6   7
ATOM      7  C   UNL     1      -1.481   0.166  -0.370  1.00  0.00     0.144 C 
BRANCH   7   8
ATOM      8  C   UNL     1      -0.157  -0.411  -0.780  1.00  0.00    -0.014 C 
ATOM      9  C   UNL     1       0.772  -0.877   0.064  1.00  0.00     0.006 C 
ENDBRANCH   7   8
ENDBRANCH   6   7
BRANCH   6  10
ATOM     10  C   UNL     1      -1.052   2.560   0.051  1.00  0.00     0.052 A 
ATOM     11  C   UNL     1      -1.768   2.846   1.226  1.00  0.00     0.034 A 
ATOM     12  C   UNL     1       0.089   3.345  -0.225  1.00  0.00     0.048 A 
ATOM     13  C   UNL     1      -1.406   3.902   2.068  1.00  0.00     0.088 A 
ATOM     14  C   UNL     1       0.472   4.398   0.614  1.00  0.00     0.103 A 
ATOM     15  Br  UNL     1       1.214   3.005  -1.726  1.00  0.00    -0.048 Br
ATOM     16  C   UNL     1      -0.294   4.681   1.747  1.00  0.00     0.270 A 
BRANCH  16  17
ATOM     17  N   UNL     1       0.067   5.818   2.595  1.00  0.00     0.062 N 
ATOM     18  O   UNL     1      -0.817   6.308   3.311  1.00  0.00    -0.258 OA
ATOM     19  O   UNL     1       1.235   6.228   2.535  1.00  0.00    -0.258 OA
ENDBRANCH  16  17
ENDBRANCH   6  10
ENDBRANCH   5   6
ENDBRANCH   3   5
ENDBRANCH   2   3
ENDBRANCH   1   2
BRANCH   1  20
ATOM     20  C   UNL     1      -5.946   3.478  -0.338  1.00  0.00     0.275 C 
BRANCH  20  21
ATOM     21  O   UNL     1      -5.272   4.483  -1.116  1.00  0.00    -0.458 OA
BRANCH  21  22
ATOM     22  C   UNL     1      -4.364   5.217  -0.438  1.00  0.00     0.338 C 
ATOM     23  O   UNL     1      -4.086   5.144   0.749  1.00  0.00    -0.246 OA
BRANCH  22  24
ATOM     24  C   UNL     1      -3.757   6.224  -1.320  1.00  0.00     0.060 A 
ATOM     25  C   UNL     1      -3.029   5.859  -2.457  1.00  0.00     0.016 A 
ATOM     26  C   UNL     1      -3.835   7.560  -0.924  1.00  0.00     0.016 A 
ATOM     27  C   UNL     1      -2.329   6.836  -3.171  1.00  0.00     0.010 A 
ATOM     28  C   UNL     1      -3.177   8.537  -1.664  1.00  0.00     0.010 A 
ATOM     29  C   UNL     1      -2.396   8.180  -2.775  1.00  0.00    -0.014 A 
BRANCH  29  30
ATOM     30  C   UNL     1      -1.654   9.247  -3.487  1.00  0.00     0.031 A 
ATOM     31  C   UNL     1      -0.510   9.941  -2.807  1.00  0.00     0.074 A 
ATOM     32  C   UNL     1      -2.073   9.655  -4.698  1.00  0.00     0.049 A 
ATOM     33  N   UNL     1       0.104  11.047  -3.141  1.00  0.00    -0.248 NA
ATOM     34  C   UNL     1       0.005   9.310  -1.581  1.00  0.00     0.031 C 
ATOM     35  C   UNL     1      -3.157   9.044  -5.467  1.00  0.00     0.029 A 
ATOM     36  N   UNL     1      -1.659  10.707  -5.475  1.00  0.00    -0.354 N 
ATOM     37  C   UNL     1       1.056  11.263  -2.153  1.00  0.00     0.074 A 
ATOM     38  C   UNL     1       0.940  10.174  -1.206  1.00  0.00     0.031 C 
ATOM     39  C   UNL     1      -3.341   9.747  -6.596  1.00  0.00     0.029 A 
ATOM     40  C   UNL     1      -2.426  10.885  -6.599  1.00  0.00     0.049 A 
ATOM     41  H   UNL     1      -0.889  11.277  -5.248  1.00  0.00     0.167 HD
ATOM     42  C   UNL     1       1.940  12.283  -2.046  1.00  0.00     0.037 A 
ATOM     43  C   UNL     1      -2.427  11.881  -7.505  1.00  0.00     0.037 A 
ATOM     44  C   UNL     1       2.054  13.360  -2.996  1.00  0.00     0.049 A 
ATOM     45  C   UNL     1      -1.468  13.024  -7.345  1.00  0.00     0.074 A 
ATOM     46  C   UNL     1       2.922  14.438  -2.981  1.00  0.00     0.029 A 
ATOM     47  N   UNL     1       1.272  13.490  -4.133  1.00  0.00    -0.354 N 
ATOM     48  N   UNL     1      -0.587  13.233  -6.397  1.00  0.00    -0.248 NA
ATOM     49  C   UNL     1      -1.509  14.073  -8.372  1.00  0.00     0.031 C 
ATOM     50  C   UNL     1       2.648  15.234  -4.099  1.00  0.00     0.029 A 
ATOM     51  C   UNL     1       1.631  14.635  -4.824  1.00  0.00     0.049 A 
ATOM     52  H   UNL     1       0.566  12.862  -4.409  1.00  0.00     0.167 HD
ATOM     53  C   UNL     1       0.043  14.426  -6.720  1.00  0.00     0.074 A 
ATOM     54  C   UNL     1      -0.554  14.894  -7.955  1.00  0.00     0.031 C 
ATOM     55  C   UNL     1       1.027  15.076  -6.054  1.00  0.00     0.037 A 
BRANCH  42  56
ATOM     56  C   UNL     1       2.838  12.297  -0.847  1.00  0.00     0.057 A 
ATOM     57  C   UNL     1       3.948  11.451  -0.748  1.00  0.00     0.134 A 
ATOM     58  C   UNL     1       2.612  13.197   0.202  1.00  0.00     0.134 A 
ATOM     59  F   UNL     1       4.211  10.559  -1.716  1.00  0.00    -0.206 F 
ATOM     60  C   UNL     1       4.797  11.490   0.360  1.00  0.00     0.040 A 
ATOM     61  C   UNL     1       3.463  13.257   1.307  1.00  0.00     0.040 A 
ATOM     62  F   UNL     1       1.566  14.037   0.166  1.00  0.00    -0.206 F 
ATOM     63  C   UNL     1       4.558  12.400   1.389  1.00  0.00     0.006 A 
ENDBRANCH  42  56
BRANCH  43  64
ATOM     64  C   UNL     1      -3.397  11.845  -8.623  1.00  0.00     0.057 A 
ATOM     65  C   UNL     1      -2.988  11.523  -9.921  1.00  0.00     0.134 A 
ATOM     66  C   UNL     1      -4.759  12.090  -8.413  1.00  0.00     0.134 A 
ATOM     67  F   UNL     1      -1.693  11.297 -10.184  1.00  0.00    -0.206 F 
ATOM     68  C   UNL     1      -3.901  11.444 -10.973  1.00  0.00     0.040 A 
ATOM     69  C   UNL     1      -5.686  11.996  -9.451  1.00  0.00     0.040 A 
ATOM     70  F   UNL     1      -5.210  12.399  -7.188  1.00  0.00    -0.206 F 
ATOM     71  C   UNL     1      -5.256  11.672 -10.737  1.00  0.00     0.006 A 
ENDBRANCH  43  64
BRANCH  55  72
ATOM     72  C   UNL     1       1.540  16.341  -6.669  1.00  0.00     0.057 A 
ATOM     73  C   UNL     1       0.844  17.549  -6.551  1.00  0.00     0.134 A 
ATOM     74  C   UNL     1       2.759  16.353  -7.357  1.00  0.00     0.134 A 
ATOM     75  F   UNL     1      -0.335  17.595  -5.915  1.00  0.00    -0.206 F 
ATOM     76  C   UNL     1       1.339  18.728  -7.111  1.00  0.00     0.040 A 
ATOM     77  C   UNL     1       3.271  17.528  -7.908  1.00  0.00     0.040 A 
ATOM     78  F   UNL     1       3.472  15.226  -7.499  1.00  0.00    -0.206 F 
ATOM     79  C   UNL     1       2.558  18.720  -7.787  1.00  0.00     0.006 A 
ENDBRANCH  55  72
ENDBRANCH  29  30
ENDBRANCH  22  24
ENDBRANCH  21  22
ENDBRANCH  20  21
ENDBRANCH   1  20
TORSDOF 16
