REMARK SMILES C[N@@H+]1CC2(CC[NH+](C(=O)c3cc(-c4ccncc4)n[nH]3)CC2)C[C@H]1C(=O)OCCOC(=O)c1ccc(-c2c3nc(c(-c4c(F)cccc4F)c4ccc([nH]4)c(-c4c(F)cccc4F)c4nc(c(-c5c(F)cccc5F)c5ccc2[nH]5)C=C4)C=C3)cc1
REMARK SMILES IDX 28 1 27 2 25 3 26 4 24 5 1 6 2 7 3 8 4 10 23 11 5 12 22 13
REMARK SMILES IDX 6 14 21 15 7 16 8 18 9 19 10 20 11 21 20 22 12 23 19 24
REMARK SMILES IDX 13 26 14 27 18 28 15 29 17 30 16 31 29 32 30 33 31 34 32 35
REMARK SMILES IDX 33 36 34 37 86 38 35 39 85 40 36 41 37 42 38 43 79 44 39 45
REMARK SMILES IDX 84 46 78 47 80 48 40 49 83 50 77 51 76 52 41 54 67 55 50 56
REMARK SMILES IDX 66 57 51 58 54 59 65 60 81 61 52 62 53 63 64 65 82 66 55 67
REMARK SMILES IDX 42 68 43 69 48 70 44 71 45 72 47 73 49 74 46 75 68 76 69 77
REMARK SMILES IDX 74 78 70 79 71 80 73 81 75 82 72 83 56 84 57 85 62 86 58 87
REMARK SMILES IDX 59 88 61 89 63 90 60 91
REMARK H PARENT 2 9 7 17 20 25 80 53 54 64
REMARK Flexibility Score: inf
ROOT
ATOM      1  C   UNL     1      -1.665   3.650  -3.547  1.00  0.00     0.274 C 
ENDROOT
BRANCH   1   2
ATOM      2  O   UNL     1      -0.882   3.036  -2.507  1.00  0.00    -0.458 OA
BRANCH   2   3
ATOM      3  C   UNL     1      -1.464   2.940  -1.282  1.00  0.00     0.365 C 
ATOM      4  O   UNL     1      -2.557   3.421  -0.996  1.00  0.00    -0.245 OA
BRANCH   3   5
ATOM      5  C   UNL     1      -0.618   2.186  -0.242  1.00  0.00     0.295 C 
ATOM      6  C   UNL     1       0.711   0.152  -0.059  1.00  0.00     0.333 C 
ATOM      7  N   UNL     1       0.465   1.369  -0.828  1.00  0.00    -0.325 N 
ATOM      8  C   UNL     1       1.644   2.236  -0.886  1.00  0.00     0.270 C 
ATOM      9  H   UNL     1       0.212   1.040  -1.760  1.00  0.00     0.348 HD
ATOM     10  C   UNL     1       1.492   3.302   0.222  1.00  0.00     0.036 C 
ATOM     11  C   UNL     1       0.049   3.145   0.726  1.00  0.00     0.091 C 
ATOM     12  C   UNL     1       1.701   4.721  -0.353  1.00  0.00     0.075 C 
ATOM     13  C   UNL     1       2.480   3.066   1.391  1.00  0.00     0.075 C 
ATOM     14  C   UNL     1       3.160   4.955  -0.721  1.00  0.00     0.271 C 
ATOM     15  C   UNL     1       3.927   3.399   1.026  1.00  0.00     0.271 C 
ATOM     16  N   UNL     1       4.006   4.735   0.451  1.00  0.00    -0.266 N 
ATOM     17  H   UNL     1       4.162   4.182   1.250  1.00  0.00     0.357 HD
BRANCH  16  18
ATOM     18  C   UNL     1       4.936   5.640   0.951  1.00  0.00     0.362 C 
ATOM     19  O   UNL     1       5.838   5.293   1.710  1.00  0.00    -0.224 OA
BRANCH  18  20
ATOM     20  C   UNL     1       4.827   7.008   0.527  1.00  0.00     0.163 A 
ATOM     21  C   UNL     1       3.762   7.886   0.478  1.00  0.00     0.068 A 
ATOM     22  N   UNL     1       5.905   7.742   0.127  1.00  0.00    -0.269 N 
ATOM     23  C   UNL     1       4.277   9.081  -0.085  1.00  0.00     0.093 A 
ATOM     24  N   UNL     1       5.588   8.962  -0.339  1.00  0.00    -0.175 NA
ATOM     25  H   UNL     1       6.830   7.409   0.176  1.00  0.00     0.190 HD
BRANCH  23  26
ATOM     26  C   UNL     1       3.546  10.298  -0.399  1.00  0.00     0.005 A 
ATOM     27  C   UNL     1       2.746  10.914   0.563  1.00  0.00     0.030 A 
ATOM     28  C   UNL     1       3.638  10.860  -1.673  1.00  0.00     0.030 A 
ATOM     29  C   UNL     1       2.073  12.070   0.207  1.00  0.00     0.111 A 
ATOM     30  C   UNL     1       2.915  12.010  -1.933  1.00  0.00     0.111 A 
ATOM     31  N   UNL     1       2.131  12.626  -1.022  1.00  0.00    -0.265 NA
ENDBRANCH  23  26
ENDBRANCH  18  20
ENDBRANCH  16  18
ENDBRANCH   3   5
ENDBRANCH   2   3
ENDBRANCH   1   2
BRANCH   1  32
ATOM     32  C   UNL     1      -2.288   2.593  -4.460  1.00  0.00     0.275 C 
BRANCH  32  33
ATOM     33  O   UNL     1      -3.235   1.783  -3.738  1.00  0.00    -0.458 OA
BRANCH  33  34
ATOM     34  C   UNL     1      -2.775   0.568  -3.363  1.00  0.00     0.338 C 
ATOM     35  O   UNL     1      -1.696   0.064  -3.616  1.00  0.00    -0.246 OA
BRANCH  34  36
ATOM     36  C   UNL     1      -3.759  -0.083  -2.487  1.00  0.00     0.060 A 
ATOM     37  C   UNL     1      -3.503  -0.102  -1.117  1.00  0.00     0.016 A 
ATOM     38  C   UNL     1      -4.828  -0.801  -3.017  1.00  0.00     0.016 A 
ATOM     39  C   UNL     1      -4.288  -0.865  -0.262  1.00  0.00     0.010 A 
ATOM     40  C   UNL     1      -5.629  -1.561  -2.157  1.00  0.00     0.010 A 
ATOM     41  C   UNL     1      -5.344  -1.622  -0.780  1.00  0.00    -0.014 A 
BRANCH  41  42
ATOM     42  C   UNL     1      -6.055  -2.577   0.105  1.00  0.00     0.031 A 
ATOM     43  C   UNL     1      -5.820  -4.052  -0.071  1.00  0.00     0.074 A 
ATOM     44  C   UNL     1      -6.849  -2.131   1.095  1.00  0.00     0.049 A 
ATOM     45  N   UNL     1      -6.416  -5.062   0.508  1.00  0.00    -0.248 NA
ATOM     46  C   UNL     1      -4.772  -4.441  -1.029  1.00  0.00     0.031 C 
ATOM     47  C   UNL     1      -7.088  -0.725   1.422  1.00  0.00     0.029 A 
ATOM     48  N   UNL     1      -7.598  -2.820   2.015  1.00  0.00    -0.354 N 
ATOM     49  C   UNL     1      -5.835  -6.203  -0.032  1.00  0.00     0.074 A 
ATOM     50  C   UNL     1      -4.853  -5.763  -0.998  1.00  0.00     0.031 C 
ATOM     51  C   UNL     1      -7.922  -0.656   2.473  1.00  0.00     0.029 A 
ATOM     52  C   UNL     1      -8.319  -2.008   2.855  1.00  0.00     0.049 A 
ATOM     53  H   UNL     1      -7.617  -3.803   2.067  1.00  0.00     0.167 HD
ATOM     54  C   UNL     1      -6.093  -7.501   0.259  1.00  0.00     0.037 A 
ATOM     55  C   UNL     1      -9.221  -2.322   3.804  1.00  0.00     0.037 A 
ATOM     56  C   UNL     1      -7.059  -7.932   1.235  1.00  0.00     0.049 A 
ATOM     57  C   UNL     1      -9.543  -3.770   4.055  1.00  0.00     0.074 A 
ATOM     58  C   UNL     1      -7.435  -9.221   1.570  1.00  0.00     0.029 A 
ATOM     59  N   UNL     1      -7.788  -7.077   2.049  1.00  0.00    -0.354 N 
ATOM     60  N   UNL     1      -9.036  -4.842   3.493  1.00  0.00    -0.248 NA
ATOM     61  C   UNL     1     -10.568  -4.053   5.070  1.00  0.00     0.031 C 
ATOM     62  C   UNL     1      -8.409  -9.145   2.572  1.00  0.00     0.029 A 
ATOM     63  C   UNL     1      -8.608  -7.811   2.889  1.00  0.00     0.049 A 
ATOM     64  H   UNL     1      -7.731  -6.095   2.031  1.00  0.00     0.167 HD
ATOM     65  C   UNL     1      -9.651  -5.922   4.112  1.00  0.00     0.074 A 
ATOM     66  C   UNL     1     -10.561  -5.377   5.098  1.00  0.00     0.031 C 
ATOM     67  C   UNL     1      -9.480  -7.248   3.886  1.00  0.00     0.037 A 
BRANCH  54  68
ATOM     68  C   UNL     1      -5.336  -8.544  -0.507  1.00  0.00     0.057 A 
ATOM     69  C   UNL     1      -3.980  -8.800  -0.265  1.00  0.00     0.134 A 
ATOM     70  C   UNL     1      -5.976  -9.320  -1.482  1.00  0.00     0.134 A 
ATOM     71  F   UNL     1      -3.304  -8.079   0.642  1.00  0.00    -0.206 F 
ATOM     72  C   UNL     1      -3.284  -9.779  -0.977  1.00  0.00     0.040 A 
ATOM     73  C   UNL     1      -5.297 -10.318  -2.183  1.00  0.00     0.040 A 
ATOM     74  F   UNL     1      -7.274  -9.127  -1.762  1.00  0.00    -0.206 F 
ATOM     75  C   UNL     1      -3.945 -10.546  -1.935  1.00  0.00     0.006 A 
ENDBRANCH  54  68
BRANCH  55  76
ATOM     76  C   UNL     1      -9.910  -1.254   4.572  1.00  0.00     0.057 A 
ATOM     77  C   UNL     1      -9.692  -1.094   5.946  1.00  0.00     0.134 A 
ATOM     78  C   UNL     1     -10.835  -0.398   3.963  1.00  0.00     0.134 A 
ATOM     79  F   UNL     1      -8.835  -1.899   6.592  1.00  0.00    -0.206 F 
ATOM     80  C   UNL     1     -10.389  -0.141   6.691  1.00  0.00     0.040 A 
ATOM     81  C   UNL     1     -11.518   0.578   4.690  1.00  0.00     0.040 A 
ATOM     82  F   UNL     1     -11.089  -0.498   2.650  1.00  0.00    -0.206 F 
ATOM     83  C   UNL     1     -11.303   0.701   6.061  1.00  0.00     0.006 A 
ENDBRANCH  55  76
BRANCH  67  84
ATOM     84  C   UNL     1     -10.236  -8.194   4.771  1.00  0.00     0.057 A 
ATOM     85  C   UNL     1     -11.616  -8.389   4.644  1.00  0.00     0.134 A 
ATOM     86  C   UNL     1      -9.562  -8.932   5.752  1.00  0.00     0.134 A 
ATOM     87  F   UNL     1     -12.320  -7.701   3.733  1.00  0.00    -0.206 F 
ATOM     88  C   UNL     1     -12.306  -9.266   5.483  1.00  0.00     0.040 A 
ATOM     89  C   UNL     1     -10.237  -9.830   6.580  1.00  0.00     0.040 A 
ATOM     90  F   UNL     1      -8.238  -8.797   5.919  1.00  0.00    -0.206 F 
ATOM     91  C   UNL     1     -11.615  -9.993   6.451  1.00  0.00     0.006 A 
ENDBRANCH  67  84
ENDBRANCH  41  42
ENDBRANCH  34  36
ENDBRANCH  33  34
ENDBRANCH  32  33
ENDBRANCH   1  32
TORSDOF 14
