REMARK SMILES CC1C[NH+]([C@H]2COC[C@@H]2C(=O)OCCOC(=O)c2ccc(-c3c4nc(c(-c5c(F)cccc5F)c5ccc([nH]5)c(-c5c(F)cccc5F)c5nc(c(-c6c(F)cccc6F)c6ccc3[nH]6)C=C5)C=C4)cc2)C1
REMARK SMILES IDX 14 1 13 2 12 3 10 4 11 5 9 6 5 7 6 8 7 9 8 10 4 11 1 12 2 13
REMARK SMILES IDX 3 14 72 15 15 17 16 18 17 19 18 20 19 21 71 22 20 23 70 24
REMARK SMILES IDX 21 25 22 26 23 27 64 28 24 29 69 30 63 31 65 32 25 33 68 34
REMARK SMILES IDX 62 35 61 36 26 38 52 39 35 40 51 41 36 42 39 43 50 44 66 45
REMARK SMILES IDX 37 46 38 47 49 49 67 50 40 51 27 52 28 53 33 54 29 55 30 56
REMARK SMILES IDX 32 57 34 58 31 59 53 60 54 61 59 62 55 63 56 64 58 65 60 66
REMARK SMILES IDX 57 67 41 68 42 69 47 70 43 71 44 72 46 73 48 74 45 75
REMARK H PARENT 4 16 65 37 39 48
REMARK Flexibility Score: inf
ROOT
ATOM      1  C   UNL     1       3.090   3.942  -1.716  1.00  0.00     0.275 C 
ENDROOT
BRANCH   1   2
ATOM      2  C   UNL     1       2.319   5.239  -1.948  1.00  0.00     0.274 C 
BRANCH   2   3
ATOM      3  O   UNL     1       1.114   5.286  -1.150  1.00  0.00    -0.462 OA
BRANCH   3   4
ATOM      4  C   UNL     1      -0.044   5.015  -1.819  1.00  0.00     0.317 C 
ATOM      5  O   UNL     1      -0.089   4.681  -2.996  1.00  0.00    -0.252 OA
BRANCH   4   6
ATOM      6  C   UNL     1      -1.265   5.281  -0.952  1.00  0.00     0.185 C 
ATOM      7  C   UNL     1      -1.390   4.322   0.230  1.00  0.00     0.227 C 
ATOM      8  C   UNL     1      -2.199   3.160  -0.364  1.00  0.00     0.226 C 
ATOM      9  O   UNL     1      -2.830   3.606  -1.569  1.00  0.00    -0.374 OA
ATOM     10  C   UNL     1      -2.521   4.994  -1.755  1.00  0.00     0.182 C 
BRANCH   7  11
ATOM     11  N   UNL     1      -1.957   4.983   1.431  1.00  0.00    -0.329 N 
ATOM     12  C   UNL     1      -4.553   3.467   3.026  1.00  0.00     0.020 C 
ATOM     13  C   UNL     1      -3.494   4.536   2.824  1.00  0.00     0.096 C 
ATOM     14  C   UNL     1      -2.060   4.034   2.560  1.00  0.00     0.271 C 
ATOM     15  C   UNL     1      -3.422   5.167   1.418  1.00  0.00     0.271 C 
ATOM     16  H   UNL     1      -1.370   5.816   1.478  1.00  0.00     0.348 HD
ENDBRANCH   7  11
ENDBRANCH   4   6
ENDBRANCH   3   4
ENDBRANCH   2   3
ENDBRANCH   1   2
BRANCH   1  17
ATOM     17  O   UNL     1       2.258   2.822  -2.058  1.00  0.00    -0.458 OA
BRANCH  17  18
ATOM     18  C   UNL     1       2.256   1.798  -1.178  1.00  0.00     0.338 C 
ATOM     19  O   UNL     1       2.956   1.689  -0.179  1.00  0.00    -0.246 OA
BRANCH  18  20
ATOM     20  C   UNL     1       1.228   0.799  -1.543  1.00  0.00     0.060 A 
ATOM     21  C   UNL     1       0.047   1.180  -2.179  1.00  0.00     0.016 A 
ATOM     22  C   UNL     1       1.380  -0.521  -1.114  1.00  0.00     0.016 A 
ATOM     23  C   UNL     1      -1.025   0.287  -2.252  1.00  0.00     0.010 A 
ATOM     24  C   UNL     1       0.343  -1.444  -1.298  1.00  0.00     0.010 A 
ATOM     25  C   UNL     1      -0.898  -1.041  -1.818  1.00  0.00    -0.014 A 
BRANCH  25  26
ATOM     26  C   UNL     1      -2.057  -1.985  -1.850  1.00  0.00     0.031 A 
ATOM     27  C   UNL     1      -2.462  -2.745  -0.608  1.00  0.00     0.074 A 
ATOM     28  C   UNL     1      -2.777  -2.169  -2.975  1.00  0.00     0.049 A 
ATOM     29  N   UNL     1      -3.254  -3.783  -0.491  1.00  0.00    -0.248 NA
ATOM     30  C   UNL     1      -1.886  -2.291   0.667  1.00  0.00     0.031 C 
ATOM     31  C   UNL     1      -2.572  -1.470  -4.244  1.00  0.00     0.029 A 
ATOM     32  N   UNL     1      -3.847  -2.995  -3.225  1.00  0.00    -0.354 N 
ATOM     33  C   UNL     1      -3.197  -4.159   0.847  1.00  0.00     0.074 A 
ATOM     34  C   UNL     1      -2.312  -3.223   1.508  1.00  0.00     0.031 C 
ATOM     35  C   UNL     1      -3.529  -1.836  -5.109  1.00  0.00     0.029 A 
ATOM     36  C   UNL     1      -4.341  -2.883  -4.502  1.00  0.00     0.049 A 
ATOM     37  H   UNL     1      -4.223  -3.608  -2.554  1.00  0.00     0.167 HD
ATOM     38  C   UNL     1      -3.817  -5.195   1.463  1.00  0.00     0.037 A 
ATOM     39  C   UNL     1      -5.303  -3.575  -5.141  1.00  0.00     0.037 A 
ATOM     40  C   UNL     1      -4.773  -6.067   0.830  1.00  0.00     0.049 A 
ATOM     41  C   UNL     1      -5.967  -4.727  -4.451  1.00  0.00     0.074 A 
ATOM     42  C   UNL     1      -5.470  -7.130   1.380  1.00  0.00     0.029 A 
ATOM     43  N   UNL     1      -5.191  -5.955  -0.486  1.00  0.00    -0.354 N 
ATOM     44  N   UNL     1      -5.807  -5.157  -3.224  1.00  0.00    -0.248 NA
ATOM     45  C   UNL     1      -6.910  -5.520  -5.252  1.00  0.00     0.031 C 
ATOM     46  C   UNL     1      -6.295  -7.675   0.388  1.00  0.00     0.029 A 
ATOM     47  C   UNL     1      -6.131  -6.933  -0.769  1.00  0.00     0.049 A 
ATOM     48  H   UNL     1      -4.867  -5.281  -1.126  1.00  0.00     0.167 HD
ATOM     49  C   UNL     1      -6.618  -6.277  -3.107  1.00  0.00     0.074 A 
ATOM     50  C   UNL     1      -7.290  -6.444  -4.380  1.00  0.00     0.031 C 
ATOM     51  C   UNL     1      -6.780  -7.099  -2.043  1.00  0.00     0.037 A 
BRANCH  38  52
ATOM     52  C   UNL     1      -3.446  -5.476   2.890  1.00  0.00     0.057 A 
ATOM     53  C   UNL     1      -3.899  -4.689   3.955  1.00  0.00     0.134 A 
ATOM     54  C   UNL     1      -2.643  -6.583   3.200  1.00  0.00     0.134 A 
ATOM     55  F   UNL     1      -4.658  -3.607   3.725  1.00  0.00    -0.206 F 
ATOM     56  C   UNL     1      -3.551  -4.981   5.276  1.00  0.00     0.040 A 
ATOM     57  C   UNL     1      -2.307  -6.898   4.518  1.00  0.00     0.040 A 
ATOM     58  F   UNL     1      -2.181  -7.383   2.227  1.00  0.00    -0.206 F 
ATOM     59  C   UNL     1      -2.757  -6.092   5.560  1.00  0.00     0.006 A 
ENDBRANCH  38  52
BRANCH  39  60
ATOM     60  C   UNL     1      -5.650  -3.219  -6.538  1.00  0.00     0.057 A 
ATOM     61  C   UNL     1      -6.857  -2.579  -6.833  1.00  0.00     0.134 A 
ATOM     62  C   UNL     1      -4.769  -3.466  -7.598  1.00  0.00     0.134 A 
ATOM     63  F   UNL     1      -7.751  -2.341  -5.862  1.00  0.00    -0.206 F 
ATOM     64  C   UNL     1      -7.172  -2.183  -8.134  1.00  0.00     0.040 A 
ATOM     65  C   UNL     1      -5.060  -3.054  -8.898  1.00  0.00     0.040 A 
ATOM     66  F   UNL     1      -3.597  -4.078  -7.375  1.00  0.00    -0.206 F 
ATOM     67  C   UNL     1      -6.265  -2.410  -9.168  1.00  0.00     0.006 A 
ENDBRANCH  39  60
BRANCH  51  68
ATOM     68  C   UNL     1      -7.723  -8.249  -2.215  1.00  0.00     0.057 A 
ATOM     69  C   UNL     1      -7.351  -9.398  -2.924  1.00  0.00     0.134 A 
ATOM     70  C   UNL     1      -9.007  -8.214  -1.660  1.00  0.00     0.134 A 
ATOM     71  F   UNL     1      -6.139  -9.483  -3.493  1.00  0.00    -0.206 F 
ATOM     72  C   UNL     1      -8.233 -10.466  -3.091  1.00  0.00     0.040 A 
ATOM     73  C   UNL     1      -9.892  -9.283  -1.806  1.00  0.00     0.040 A 
ATOM     74  F   UNL     1      -9.420  -7.142  -0.967  1.00  0.00    -0.206 F 
ATOM     75  C   UNL     1      -9.507 -10.411  -2.527  1.00  0.00     0.006 A 
ENDBRANCH  51  68
ENDBRANCH  25  26
ENDBRANCH  18  20
ENDBRANCH  17  18
ENDBRANCH   1  17
TORSDOF 12
