REMARK SMILES CCCCCNc1cncc(C(=O)OCCOC(=O)c2ccc(-c3c4nc(c(-c5c(F)cccc5F)c5ccc([nH]5)c(-c5c(F)cccc5F)c5nc(c(-c6c(F)cccc6F)c6ccc3[nH]6)C=C5)C=C4)cc2)n1
REMARK SMILES IDX 14 1 12 2 13 3 11 4 7 5 8 6 74 7 9 8 10 9 6 10 5 12 4 13
REMARK SMILES IDX 3 14 2 15 1 16 15 17 16 18 17 19 18 20 19 21 20 22 21 23
REMARK SMILES IDX 73 24 22 25 72 26 23 27 24 28 25 29 66 30 26 31 71 32 65 33
REMARK SMILES IDX 67 34 27 35 70 36 64 37 63 38 28 40 54 41 37 42 53 43 38 44
REMARK SMILES IDX 41 45 52 46 68 47 39 48 40 49 51 51 69 52 42 53 29 54 30 55
REMARK SMILES IDX 35 56 31 57 32 58 34 59 36 60 33 61 55 62 56 63 61 64 57 65
REMARK SMILES IDX 58 66 60 67 62 68 59 69 43 70 44 71 49 72 45 73 46 74 48 75
REMARK SMILES IDX 50 76 47 77
REMARK H PARENT 6 11 67 39 41 50
REMARK Flexibility Score: inf
ROOT
ATOM      1  O   UNL     1      -1.777  -5.854  -6.002  1.00  0.00    -0.457 OA
ENDROOT
BRANCH   1   2
ATOM      2  C   UNL     1      -3.075  -5.611  -5.668  1.00  0.00     0.358 C 
ATOM      3  O   UNL     1      -4.057  -5.937  -6.302  1.00  0.00    -0.244 OA
BRANCH   2   4
ATOM      4  C   UNL     1      -3.154  -4.965  -4.335  1.00  0.00     0.169 A 
ATOM      5  C   UNL     1      -2.252  -3.619  -2.711  1.00  0.00     0.145 A 
ATOM      6  C   UNL     1      -3.340  -3.927  -1.891  1.00  0.00     0.157 A 
ATOM      7  N   UNL     1      -2.148  -4.144  -3.948  1.00  0.00    -0.221 NA
ATOM      8  N   UNL     1      -4.362  -4.732  -2.272  1.00  0.00    -0.258 NA
ATOM      9  C   UNL     1      -4.248  -5.230  -3.524  1.00  0.00     0.147 A 
BRANCH   5  10
ATOM     10  N   UNL     1      -1.222  -2.788  -2.368  1.00  0.00    -0.369 N 
ATOM     11  H   UNL     1      -0.790  -2.263  -3.079  1.00  0.00     0.162 HD
BRANCH  10  12
ATOM     12  C   UNL     1      -0.735  -2.642  -1.016  1.00  0.00     0.114 C 
BRANCH  12  13
ATOM     13  C   UNL     1       0.791  -2.534  -1.028  1.00  0.00     0.021 C 
BRANCH  13  14
ATOM     14  C   UNL     1       1.356  -1.316  -1.770  1.00  0.00     0.002 C 
BRANCH  14  15
ATOM     15  C   UNL     1       0.836   0.041  -1.296  1.00  0.00    -0.003 C 
ATOM     16  C   UNL     1       1.111   0.307   0.175  1.00  0.00     0.004 C 
ENDBRANCH  14  15
ENDBRANCH  13  14
ENDBRANCH  12  13
ENDBRANCH  10  12
ENDBRANCH   5  10
ENDBRANCH   2   4
ENDBRANCH   1   2
BRANCH   1  17
ATOM     17  C   UNL     1      -1.559  -6.547  -7.247  1.00  0.00     0.275 C 
BRANCH  17  18
ATOM     18  C   UNL     1      -1.290  -8.033  -7.013  1.00  0.00     0.275 C 
BRANCH  18  19
ATOM     19  O   UNL     1      -2.466  -8.664  -6.472  1.00  0.00    -0.458 OA
BRANCH  19  20
ATOM     20  C   UNL     1      -2.310  -9.276  -5.278  1.00  0.00     0.338 C 
ATOM     21  O   UNL     1      -1.281  -9.409  -4.634  1.00  0.00    -0.246 OA
BRANCH  20  22
ATOM     22  C   UNL     1      -3.612  -9.751  -4.786  1.00  0.00     0.060 A 
ATOM     23  C   UNL     1      -4.588  -8.816  -4.456  1.00  0.00     0.016 A 
ATOM     24  C   UNL     1      -3.807 -11.097  -4.486  1.00  0.00     0.016 A 
ATOM     25  C   UNL     1      -5.709  -9.197  -3.725  1.00  0.00     0.010 A 
ATOM     26  C   UNL     1      -4.986 -11.496  -3.843  1.00  0.00     0.010 A 
ATOM     27  C   UNL     1      -5.929 -10.545  -3.408  1.00  0.00    -0.014 A 
BRANCH  27  28
ATOM     28  C   UNL     1      -7.092 -10.942  -2.561  1.00  0.00     0.031 A 
ATOM     29  C   UNL     1      -6.867 -11.680  -1.264  1.00  0.00     0.074 A 
ATOM     30  C   UNL     1      -8.352 -10.612  -2.912  1.00  0.00     0.049 A 
ATOM     31  N   UNL     1      -7.737 -12.265  -0.479  1.00  0.00    -0.248 NA
ATOM     32  C   UNL     1      -5.476 -11.787  -0.797  1.00  0.00     0.031 C 
ATOM     33  C   UNL     1      -8.731  -9.848  -4.101  1.00  0.00     0.029 A 
ATOM     34  N   UNL     1      -9.549 -10.863  -2.287  1.00  0.00    -0.354 N 
ATOM     35  C   UNL     1      -6.995 -12.869   0.529  1.00  0.00     0.074 A 
ATOM     36  C   UNL     1      -5.603 -12.577   0.259  1.00  0.00     0.031 C 
ATOM     37  C   UNL     1     -10.056  -9.639  -4.087  1.00  0.00     0.029 A 
ATOM     38  C   UNL     1     -10.635 -10.336  -2.943  1.00  0.00     0.049 A 
ATOM     39  H   UNL     1      -9.623 -11.373  -1.448  1.00  0.00     0.167 HD
ATOM     40  C   UNL     1      -7.431 -13.600   1.583  1.00  0.00     0.037 A 
ATOM     41  C   UNL     1     -11.952 -10.429  -2.681  1.00  0.00     0.037 A 
ATOM     42  C   UNL     1      -8.818 -13.828   1.898  1.00  0.00     0.049 A 
ATOM     43  C   UNL     1     -12.416 -11.255  -1.517  1.00  0.00     0.074 A 
ATOM     44  C   UNL     1      -9.360 -14.554   2.945  1.00  0.00     0.029 A 
ATOM     45  N   UNL     1      -9.884 -13.305   1.182  1.00  0.00    -0.354 N 
ATOM     46  N   UNL     1     -11.704 -11.902  -0.627  1.00  0.00    -0.248 NA
ATOM     47  C   UNL     1     -13.869 -11.389  -1.338  1.00  0.00     0.031 C 
ATOM     48  C   UNL     1     -10.755 -14.490   2.849  1.00  0.00     0.029 A 
ATOM     49  C   UNL     1     -11.081 -13.694   1.762  1.00  0.00     0.049 A 
ATOM     50  H   UNL     1      -9.803 -12.741   0.379  1.00  0.00     0.167 HD
ATOM     51  C   UNL     1     -12.619 -12.512   0.221  1.00  0.00     0.074 A 
ATOM     52  C   UNL     1     -13.938 -12.142  -0.249  1.00  0.00     0.031 C 
ATOM     53  C   UNL     1     -12.386 -13.314   1.287  1.00  0.00     0.037 A 
BRANCH  40  54
ATOM     54  C   UNL     1      -6.391 -14.242   2.455  1.00  0.00     0.057 A 
ATOM     55  C   UNL     1      -5.607 -13.507   3.352  1.00  0.00     0.134 A 
ATOM     56  C   UNL     1      -6.186 -15.628   2.404  1.00  0.00     0.134 A 
ATOM     57  F   UNL     1      -5.743 -12.175   3.439  1.00  0.00    -0.206 F 
ATOM     58  C   UNL     1      -4.637 -14.122   4.147  1.00  0.00     0.040 A 
ATOM     59  C   UNL     1      -5.238 -16.258   3.212  1.00  0.00     0.040 A 
ATOM     60  F   UNL     1      -6.909 -16.393   1.572  1.00  0.00    -0.206 F 
ATOM     61  C   UNL     1      -4.454 -15.502   4.082  1.00  0.00     0.006 A 
ENDBRANCH  40  54
BRANCH  41  62
ATOM     62  C   UNL     1     -12.931  -9.745  -3.563  1.00  0.00     0.057 A 
ATOM     63  C   UNL     1     -13.658  -8.639  -3.110  1.00  0.00     0.134 A 
ATOM     64  C   UNL     1     -13.153 -10.170  -4.879  1.00  0.00     0.134 A 
ATOM     65  F   UNL     1     -13.509  -8.202  -1.851  1.00  0.00    -0.206 F 
ATOM     66  C   UNL     1     -14.571  -7.978  -3.934  1.00  0.00     0.040 A 
ATOM     67  C   UNL     1     -14.043  -9.503  -5.721  1.00  0.00     0.040 A 
ATOM     68  F   UNL     1     -12.488 -11.225  -5.371  1.00  0.00    -0.206 F 
ATOM     69  C   UNL     1     -14.758  -8.405  -5.248  1.00  0.00     0.006 A 
ENDBRANCH  41  62
BRANCH  53  70
ATOM     70  C   UNL     1     -13.584 -13.817   2.034  1.00  0.00     0.057 A 
ATOM     71  C   UNL     1     -14.394 -14.838   1.525  1.00  0.00     0.134 A 
ATOM     72  C   UNL     1     -13.918 -13.285   3.285  1.00  0.00     0.134 A 
ATOM     73  F   UNL     1     -14.134 -15.378   0.324  1.00  0.00    -0.206 F 
ATOM     74  C   UNL     1     -15.511 -15.299   2.225  1.00  0.00     0.040 A 
ATOM     75  C   UNL     1     -15.020 -13.751   4.004  1.00  0.00     0.040 A 
ATOM     76  F   UNL     1     -13.178 -12.307   3.830  1.00  0.00    -0.206 F 
ATOM     77  C   UNL     1     -15.823 -14.757   3.470  1.00  0.00     0.006 A 
ENDBRANCH  53  70
ENDBRANCH  27  28
ENDBRANCH  20  22
ENDBRANCH  19  20
ENDBRANCH  18  19
ENDBRANCH  17  18
ENDBRANCH   1  17
TORSDOF 16
