REMARK SMILES COc1cc(C(=O)OCCOC(=O)c2ccc(-c3c4nc(c(-c5c(F)cccc5F)c5ccc([nH]5)c(-c5c(F)cccc5F)c5nc(c(-c6c(F)cccc6F)c6ccc3[nH]6)C=C5)C=C4)cc2)c([N+](=O)[O-])cc1O[C@H](C)[C@@H](C)O
REMARK SMILES IDX 9 1 8 2 6 3 7 4 5 5 3 6 4 7 73 8 72 9 68 10 2 11 1 12 74 13
REMARK SMILES IDX 75 14 76 15 77 16 78 17 79 18 69 20 70 21 71 22 10 23 11 24
REMARK SMILES IDX 12 25 13 26 14 27 15 28 67 29 16 30 66 31 17 32 18 33 19 34
REMARK SMILES IDX 60 35 20 36 65 37 59 38 61 39 21 40 64 41 58 42 57 43 22 45
REMARK SMILES IDX 48 46 31 47 47 48 32 49 35 50 46 51 62 52 33 53 34 54 45 56
REMARK SMILES IDX 63 57 36 58 23 59 24 60 29 61 25 62 26 63 28 64 30 65 27 66
REMARK SMILES IDX 49 67 50 68 55 69 51 70 52 71 54 72 56 73 53 74 37 75 38 76
REMARK SMILES IDX 43 77 39 78 40 79 42 80 44 81 41 82
REMARK H PARENT 79 19 61 44 35 55
REMARK Flexibility Score: inf
ROOT
ATOM      1  C   UNL     1       0.195  -0.285  -7.815  1.00  0.00     0.275 C 
ENDROOT
BRANCH   1   2
ATOM      2  O   UNL     1       0.804  -0.278  -6.507  1.00  0.00    -0.458 OA
BRANCH   2   3
ATOM      3  C   UNL     1       1.240   0.914  -6.032  1.00  0.00     0.345 C 
ATOM      4  O   UNL     1       1.123   2.013  -6.545  1.00  0.00    -0.246 OA
BRANCH   3   5
ATOM      5  C   UNL     1       1.739   0.698  -4.660  1.00  0.00     0.141 A 
ATOM      6  C   UNL     1       1.353   1.105  -2.303  1.00  0.00     0.162 A 
ATOM      7  C   UNL     1       1.178   1.472  -3.644  1.00  0.00     0.073 A 
ATOM      8  C   UNL     1       2.156   0.003  -1.943  1.00  0.00     0.168 A 
ATOM      9  C   UNL     1       2.845  -0.658  -2.958  1.00  0.00     0.137 A 
ATOM     10  C   UNL     1       2.610  -0.328  -4.306  1.00  0.00     0.287 A 
BRANCH   6  11
ATOM     11  O   UNL     1       0.539   1.782  -1.428  1.00  0.00    -0.493 OA
ATOM     12  C   UNL     1       1.256   2.446  -0.390  1.00  0.00     0.278 C 
ENDBRANCH   6  11
BRANCH   8  13
ATOM     13  O   UNL     1       2.041  -0.446  -0.663  1.00  0.00    -0.484 OA
BRANCH  13  14
ATOM     14  C   UNL     1       3.035  -1.196   0.071  1.00  0.00     0.198 C 
ATOM     15  C   UNL     1       3.355  -2.566  -0.532  1.00  0.00     0.056 C 
BRANCH  14  16
ATOM     16  C   UNL     1       2.429  -1.352   1.504  1.00  0.00     0.151 C 
ATOM     17  C   UNL     1       3.223  -2.222   2.473  1.00  0.00     0.042 C 
BRANCH  16  18
ATOM     18  O   UNL     1       2.288  -0.063   2.121  1.00  0.00    -0.390 OA
ATOM     19  H   UNL     1       3.165   0.331   2.251  1.00  0.00     0.211 HD
ENDBRANCH  16  18
ENDBRANCH  14  16
ENDBRANCH  13  14
ENDBRANCH   8  13
BRANCH  10  20
ATOM     20  N   UNL     1       3.285  -1.107  -5.332  1.00  0.00     0.063 N 
ATOM     21  O   UNL     1       3.782  -0.487  -6.281  1.00  0.00    -0.258 OA
ATOM     22  O   UNL     1       3.356  -2.331  -5.159  1.00  0.00    -0.258 OA
ENDBRANCH  10  20
ENDBRANCH   3   5
ENDBRANCH   2   3
ENDBRANCH   1   2
BRANCH   1  23
ATOM     23  C   UNL     1      -1.228  -0.839  -7.726  1.00  0.00     0.275 C 
BRANCH  23  24
ATOM     24  O   UNL     1      -2.056   0.101  -7.016  1.00  0.00    -0.458 OA
BRANCH  24  25
ATOM     25  C   UNL     1      -2.634  -0.358  -5.883  1.00  0.00     0.338 C 
ATOM     26  O   UNL     1      -2.637  -1.494  -5.445  1.00  0.00    -0.246 OA
BRANCH  25  27
ATOM     27  C   UNL     1      -3.127   0.801  -5.127  1.00  0.00     0.060 A 
ATOM     28  C   UNL     1      -2.309   1.284  -4.107  1.00  0.00     0.016 A 
ATOM     29  C   UNL     1      -4.378   1.369  -5.364  1.00  0.00     0.016 A 
ATOM     30  C   UNL     1      -2.724   2.356  -3.324  1.00  0.00     0.010 A 
ATOM     31  C   UNL     1      -4.803   2.442  -4.569  1.00  0.00     0.010 A 
ATOM     32  C   UNL     1      -3.982   2.936  -3.537  1.00  0.00    -0.014 A 
BRANCH  32  33
ATOM     33  C   UNL     1      -4.458   3.977  -2.592  1.00  0.00     0.031 A 
ATOM     34  C   UNL     1      -5.450   3.613  -1.524  1.00  0.00     0.074 A 
ATOM     35  C   UNL     1      -3.937   5.218  -2.623  1.00  0.00     0.049 A 
ATOM     36  N   UNL     1      -5.975   4.362  -0.588  1.00  0.00    -0.248 NA
ATOM     37  C   UNL     1      -5.912   2.217  -1.511  1.00  0.00     0.031 C 
ATOM     38  C   UNL     1      -2.926   5.687  -3.568  1.00  0.00     0.029 A 
ATOM     39  N   UNL     1      -4.170   6.302  -1.812  1.00  0.00    -0.354 N 
ATOM     40  C   UNL     1      -6.843   3.535   0.114  1.00  0.00     0.074 A 
ATOM     41  C   UNL     1      -6.788   2.233  -0.517  1.00  0.00     0.031 C 
ATOM     42  C   UNL     1      -2.594   6.952  -3.259  1.00  0.00     0.029 A 
ATOM     43  C   UNL     1      -3.394   7.393  -2.118  1.00  0.00     0.049 A 
ATOM     44  H   UNL     1      -4.830   6.297  -1.082  1.00  0.00     0.167 HD
ATOM     45  C   UNL     1      -7.612   3.829   1.190  1.00  0.00     0.037 A 
ATOM     46  C   UNL     1      -3.333   8.608  -1.541  1.00  0.00     0.037 A 
ATOM     47  C   UNL     1      -7.654   5.112   1.839  1.00  0.00     0.049 A 
ATOM     48  C   UNL     1      -4.221   8.922  -0.368  1.00  0.00     0.074 A 
ATOM     49  C   UNL     1      -8.412   5.506   2.929  1.00  0.00     0.029 A 
ATOM     50  N   UNL     1      -6.895   6.210   1.464  1.00  0.00    -0.354 N 
ATOM     51  N   UNL     1      -5.065   8.143   0.263  1.00  0.00    -0.248 NA
ATOM     52  C   UNL     1      -4.151  10.291   0.165  1.00  0.00     0.031 C 
ATOM     53  C   UNL     1      -8.130   6.851   3.198  1.00  0.00     0.029 A 
ATOM     54  C   UNL     1      -7.171   7.284   2.296  1.00  0.00     0.049 A 
ATOM     55  H   UNL     1      -6.254   6.225   0.717  1.00  0.00     0.167 HD
ATOM     56  C   UNL     1      -5.614   8.919   1.276  1.00  0.00     0.074 A 
ATOM     57  C   UNL     1      -4.995  10.226   1.186  1.00  0.00     0.031 C 
ATOM     58  C   UNL     1      -6.548   8.579   2.197  1.00  0.00     0.037 A 
BRANCH  45  59
ATOM     59  C   UNL     1      -8.500   2.737   1.705  1.00  0.00     0.057 A 
ATOM     60  C   UNL     1      -7.993   1.646   2.422  1.00  0.00     0.134 A 
ATOM     61  C   UNL     1      -9.880   2.774   1.470  1.00  0.00     0.134 A 
ATOM     62  F   UNL     1      -6.678   1.543   2.663  1.00  0.00    -0.206 F 
ATOM     63  C   UNL     1      -8.825   0.614   2.862  1.00  0.00     0.040 A 
ATOM     64  C   UNL     1     -10.725   1.760   1.925  1.00  0.00     0.040 A 
ATOM     65  F   UNL     1     -10.429   3.793   0.791  1.00  0.00    -0.206 F 
ATOM     66  C   UNL     1     -10.195   0.672   2.616  1.00  0.00     0.006 A 
ENDBRANCH  45  59
BRANCH  46  67
ATOM     67  C   UNL     1      -2.381   9.623  -2.053  1.00  0.00     0.057 A 
ATOM     68  C   UNL     1      -1.246   9.981  -1.317  1.00  0.00     0.134 A 
ATOM     69  C   UNL     1      -2.584  10.262  -3.281  1.00  0.00     0.134 A 
ATOM     70  F   UNL     1      -1.012   9.421  -0.121  1.00  0.00    -0.206 F 
ATOM     71  C   UNL     1      -0.348  10.943  -1.782  1.00  0.00     0.040 A 
ATOM     72  C   UNL     1      -1.684  11.211  -3.767  1.00  0.00     0.040 A 
ATOM     73  F   UNL     1      -3.657   9.965  -4.029  1.00  0.00    -0.206 F 
ATOM     74  C   UNL     1      -0.564  11.557  -3.014  1.00  0.00     0.006 A 
ENDBRANCH  46  67
BRANCH  58  75
ATOM     75  C   UNL     1      -6.938   9.629   3.194  1.00  0.00     0.057 A 
ATOM     76  C   UNL     1      -7.757  10.710   2.844  1.00  0.00     0.134 A 
ATOM     77  C   UNL     1      -6.502   9.549   4.523  1.00  0.00     0.134 A 
ATOM     78  F   UNL     1      -8.196  10.850   1.584  1.00  0.00    -0.206 F 
ATOM     79  C   UNL     1      -8.111  11.687   3.776  1.00  0.00     0.040 A 
ATOM     80  C   UNL     1      -6.865  10.510   5.468  1.00  0.00     0.040 A 
ATOM     81  F   UNL     1      -5.719   8.536   4.924  1.00  0.00    -0.206 F 
ATOM     82  C   UNL     1      -7.667  11.586   5.093  1.00  0.00     0.006 A 
ENDBRANCH  58  75
ENDBRANCH  32  33
ENDBRANCH  25  27
ENDBRANCH  24  25
ENDBRANCH  23  24
ENDBRANCH   1  23
TORSDOF 17
