REMARK SMILES Cc1cc(S(F)(F)(F)(F)F)cc2c1O[C@H](C(F)(F)F)C(C(=O)OCCOC(=O)c1ccc(-c3c4nc(c(-c5c(F)cccc5F)c5ccc([nH]5)c(-c5c(F)cccc5F)c5nc(c(-c6c(F)cccc6F)c6ccc3[nH]6)C=C5)C=C4)cc1)=C2
REMARK SMILES IDX 25 1 24 2 23 3 21 4 22 5 20 6 1 7 2 8 3 9 13 10 4 11 12 12
REMARK SMILES IDX 14 13 11 14 83 15 15 16 5 17 6 18 7 19 8 20 9 21 10 22 16 23
REMARK SMILES IDX 17 24 18 25 19 26 26 27 27 28 28 29 29 30 30 31 82 32 31 33
REMARK SMILES IDX 81 34 32 35 33 36 34 37 75 38 35 39 80 40 74 41 76 42 36 43
REMARK SMILES IDX 79 44 73 45 72 46 37 48 63 49 46 50 62 51 47 52 50 53 61 54
REMARK SMILES IDX 77 55 48 56 49 57 60 59 78 60 51 61 38 62 39 63 44 64 40 65
REMARK SMILES IDX 41 66 43 67 45 68 42 69 64 70 65 71 70 72 66 73 67 74 69 75
REMARK SMILES IDX 71 76 68 77 52 78 53 79 58 80 54 81 55 82 57 83 59 84 56 85
REMARK H PARENT 76 47 50 58
REMARK Flexibility Score: inf
ROOT
ATOM      1  C   UNL     1      -1.537  -3.406   8.152  1.00  0.00     0.275 C 
ENDROOT
BRANCH   1   2
ATOM      2  C   UNL     1      -2.472  -3.607   6.971  1.00  0.00     0.275 C 
BRANCH   2   3
ATOM      3  O   UNL     1      -1.919  -2.987   5.819  1.00  0.00    -0.459 OA
BRANCH   3   4
ATOM      4  C   UNL     1      -1.661  -1.591   5.819  1.00  0.00     0.338 C 
ATOM      5  O   UNL     1      -1.925  -0.895   6.850  1.00  0.00    -0.246 OA
BRANCH   4   6
ATOM      6  C   UNL     1      -1.070  -0.927   4.586  1.00  0.00     0.087 C 
ATOM      7  C   UNL     1       1.068   0.069  -0.023  1.00  0.00     0.048 C 
ATOM      8  C   UNL     1       0.561   0.860   1.172  1.00  0.00    -0.007 A 
ATOM      9  C   UNL     1       0.806   2.216   1.190  1.00  0.00     0.031 A 
ATOM     10  C   UNL     1       0.018   0.247   2.300  1.00  0.00     0.130 A 
ATOM     11  C   UNL     1       0.521   2.973   2.320  1.00  0.00     0.108 A 
ATOM     12  C   UNL     1      -0.275   1.022   3.445  1.00  0.00     0.019 A 
ATOM     13  O   UNL     1      -0.265  -1.193   2.343  1.00  0.00    -0.475 OA
ATOM     14  C   UNL     1      -0.017   2.394   3.434  1.00  0.00     0.036 A 
ATOM     15  C   UNL     1      -0.844   0.352   4.615  1.00  0.00     0.027 C 
ATOM     16  C   UNL     1      -0.791  -1.717   3.470  1.00  0.00     0.316 C 
BRANCH  11  17
ATOM     17  S   UNL     1       0.869   4.749   2.315  1.00  0.00     0.310 S 
ATOM     18  F   UNL     1       1.140   4.762   3.878  1.00  0.00    -0.094 F 
ATOM     19  F   UNL     1      -0.647   5.021   2.645  1.00  0.00    -0.094 F 
ATOM     20  F   UNL     1       1.171   6.274   2.312  1.00  0.00    -0.094 F 
ATOM     21  F   UNL     1       2.408   4.452   2.124  1.00  0.00    -0.094 F 
ATOM     22  F   UNL     1       0.598   3.196   2.428  1.00  0.00    -0.094 F 
ENDBRANCH  11  17
BRANCH  16  23
ATOM     23  C   UNL     1      -2.180  -2.134   3.015  1.00  0.00     0.430 C 
ATOM     24  F   UNL     1      -2.076  -2.966   1.983  1.00  0.00    -0.167 F 
ATOM     25  F   UNL     1      -2.809  -2.745   4.015  1.00  0.00    -0.167 F 
ATOM     26  F   UNL     1      -2.869  -1.057   2.650  1.00  0.00    -0.167 F 
ENDBRANCH  16  23
ENDBRANCH   4   6
ENDBRANCH   3   4
ENDBRANCH   2   3
ENDBRANCH   1   2
BRANCH   1  27
ATOM     27  O   UNL     1      -1.373  -2.017   8.395  1.00  0.00    -0.458 OA
BRANCH  27  28
ATOM     28  C   UNL     1      -0.833  -1.178   7.385  1.00  0.00     0.338 C 
ATOM     29  O   UNL     1      -0.497  -1.671   6.262  1.00  0.00    -0.246 OA
BRANCH  28  30
ATOM     30  C   UNL     1      -0.657   0.309   7.645  1.00  0.00     0.060 A 
ATOM     31  C   UNL     1      -1.063   1.257   6.711  1.00  0.00     0.016 A 
ATOM     32  C   UNL     1      -0.140   0.731   8.778  1.00  0.00     0.016 A 
ATOM     33  C   UNL     1      -1.367   2.544   7.209  1.00  0.00     0.010 A 
ATOM     34  C   UNL     1       0.007   2.099   9.034  1.00  0.00     0.010 A 
ATOM     35  C   UNL     1      -0.589   2.993   8.275  1.00  0.00    -0.014 A 
BRANCH  35  36
ATOM     36  C   UNL     1      -0.434   4.479   8.553  1.00  0.00     0.031 A 
ATOM     37  C   UNL     1       0.863   4.993   8.511  1.00  0.00     0.074 A 
ATOM     38  C   UNL     1      -1.565   5.248   8.771  1.00  0.00     0.049 A 
ATOM     39  N   UNL     1       1.237   6.268   8.632  1.00  0.00    -0.248 NA
ATOM     40  C   UNL     1       2.068   4.174   8.314  1.00  0.00     0.031 C 
ATOM     41  C   UNL     1      -2.877   4.738   8.806  1.00  0.00     0.029 A 
ATOM     42  N   UNL     1      -1.634   6.606   8.988  1.00  0.00    -0.354 N 
ATOM     43  C   UNL     1       2.563   6.372   8.518  1.00  0.00     0.074 A 
ATOM     44  C   UNL     1       3.117   5.026   8.318  1.00  0.00     0.031 C 
ATOM     45  C   UNL     1      -3.724   5.771   9.053  1.00  0.00     0.029 A 
ATOM     46  C   UNL     1      -2.956   6.945   9.175  1.00  0.00     0.049 A 
ATOM     47  H   UNL     1      -0.871   7.228   9.006  1.00  0.00     0.167 HD
ATOM     48  C   UNL     1       3.331   7.536   8.571  1.00  0.00     0.037 A 
ATOM     49  C   UNL     1      -3.482   8.199   9.439  1.00  0.00     0.037 A 
ATOM     50  C   UNL     1       2.801   8.797   8.793  1.00  0.00     0.049 A 
ATOM     51  C   UNL     1      -2.707   9.357   9.551  1.00  0.00     0.074 A 
ATOM     52  C   UNL     1       3.560   9.982   8.842  1.00  0.00     0.029 A 
ATOM     53  N   UNL     1       1.482   9.133   9.004  1.00  0.00    -0.354 N 
ATOM     54  N   UNL     1      -1.387   9.466   9.398  1.00  0.00    -0.248 NA
ATOM     55  C   UNL     1      -3.249  10.685   9.863  1.00  0.00     0.031 C 
ATOM     56  C   UNL     1       2.712  11.016   9.088  1.00  0.00     0.029 A 
ATOM     57  C   UNL     1       1.409  10.494   9.198  1.00  0.00     0.049 A 
ATOM     58  H   UNL     1       0.722   8.507   9.014  1.00  0.00     0.167 HD
ATOM     59  C   UNL     1      -1.008  10.735   9.560  1.00  0.00     0.074 A 
ATOM     60  C   UNL     1      -2.200  11.537   9.869  1.00  0.00     0.031 C 
ATOM     61  C   UNL     1       0.282  11.258   9.460  1.00  0.00     0.037 A 
BRANCH  48  62
ATOM     62  C   UNL     1       4.833   7.414   8.375  1.00  0.00     0.057 A 
ATOM     63  C   UNL     1       5.648   7.806   9.332  1.00  0.00     0.134 A 
ATOM     64  C   UNL     1       5.334   6.887   7.180  1.00  0.00     0.134 A 
ATOM     65  F   UNL     1       5.173   8.316  10.465  1.00  0.00    -0.206 F 
ATOM     66  C   UNL     1       7.017   7.673   9.129  1.00  0.00     0.040 A 
ATOM     67  C   UNL     1       6.598   6.534   7.077  1.00  0.00     0.040 A 
ATOM     68  F   UNL     1       4.524   6.740   6.136  1.00  0.00    -0.206 F 
ATOM     69  C   UNL     1       7.425   6.703   8.187  1.00  0.00     0.006 A 
ENDBRANCH  48  62
BRANCH  49  70
ATOM     70  C   UNL     1      -4.986   8.323   9.619  1.00  0.00     0.057 A 
ATOM     71  C   UNL     1      -5.584   7.652  10.579  1.00  0.00     0.134 A 
ATOM     72  C   UNL     1      -5.719   9.150   8.760  1.00  0.00     0.134 A 
ATOM     73  F   UNL     1      -4.889   6.859  11.390  1.00  0.00    -0.206 F 
ATOM     74  C   UNL     1      -6.959   7.792  10.726  1.00  0.00     0.040 A 
ATOM     75  C   UNL     1      -6.963   9.476   9.039  1.00  0.00     0.040 A 
ATOM     76  F   UNL     1      -5.152   9.611   7.649  1.00  0.00    -0.206 F 
ATOM     77  C   UNL     1      -7.532   8.975  10.208  1.00  0.00     0.006 A 
ENDBRANCH  49  70
BRANCH  61  78
ATOM     78  C   UNL     1       0.463  12.755   9.648  1.00  0.00     0.057 A 
ATOM     79  C   UNL     1       0.971  13.474   8.670  1.00  0.00     0.134 A 
ATOM     80  C   UNL     1       0.112  13.349  10.866  1.00  0.00     0.134 A 
ATOM     81  F   UNL     1       1.313  12.909   7.516  1.00  0.00    -0.206 F 
ATOM     82  C   UNL     1       1.142  14.839   8.874  1.00  0.00     0.040 A 
ATOM     83  C   UNL     1       0.041  14.658  10.981  1.00  0.00     0.040 A 
ATOM     84  F   UNL     1      -0.153  12.581  11.919  1.00  0.00    -0.206 F 
ATOM     85  C   UNL     1       0.327  15.437   9.861  1.00  0.00     0.006 A 
ENDBRANCH  61  78
ENDBRANCH  35  36
ENDBRANCH  28  30
ENDBRANCH  27  28
ENDBRANCH   1  27
TORSDOF 13
