REMARK SMILES O=C(OCCOC(=O)[C@@H](Cc1ccccc1)N1C(=O)/C(=C/c2ccncc2)SC1=S)c1ccc(-c2c3nc(c(-c4c(F)cccc4F)c4ccc([nH]4)c(-c4c(F)cccc4F)c4nc(c(-c5c(F)cccc5F)c5ccc2[nH]5)C=C4)C=C3)cc1
REMARK SMILES IDX 4 1 3 2 2 3 1 4 31 5 32 6 84 7 33 8 83 9 34 10 35 11 36 12
REMARK SMILES IDX 77 13 37 14 82 15 76 16 78 17 38 18 81 19 75 20 74 21 39 23
REMARK SMILES IDX 65 24 48 25 64 26 49 27 52 28 63 29 79 30 50 31 51 32 62 34
REMARK SMILES IDX 80 35 53 36 40 37 41 38 46 39 42 40 43 41 45 42 47 43 44 44
REMARK SMILES IDX 66 45 67 46 72 47 68 48 69 49 71 50 73 51 70 52 54 53 55 54
REMARK SMILES IDX 60 55 56 56 57 57 59 58 61 59 58 60 5 61 6 62 7 63 8 64 9 65
REMARK SMILES IDX 10 66 11 67 12 68 16 69 13 70 15 71 14 72 17 73 18 74 29 75
REMARK SMILES IDX 19 76 20 77 28 78 30 79 21 80 22 81 23 82 27 83 24 84 26 85
REMARK SMILES IDX 25 86
REMARK H PARENT 78 22 52 33
REMARK Flexibility Score: inf
ROOT
ATOM      1  C   UNL     1       3.865  -1.137  -1.973  1.00  0.00     0.275 C 
ENDROOT
BRANCH   1   2
ATOM      2  O   UNL     1       2.731  -1.475  -1.161  1.00  0.00    -0.458 OA
BRANCH   2   3
ATOM      3  C   UNL     1       2.489  -1.100   0.115  1.00  0.00     0.338 C 
ATOM      4  O   UNL     1       1.362  -1.277   0.576  1.00  0.00    -0.246 OA
BRANCH   3   5
ATOM      5  C   UNL     1       3.462  -0.395   1.006  1.00  0.00     0.060 A 
ATOM      6  C   UNL     1       5.044   0.165   0.497  1.00  0.00     0.016 A 
ATOM      7  C   UNL     1       2.738   0.067   2.578  1.00  0.00     0.016 A 
ATOM      8  C   UNL     1       5.939   1.288   1.552  1.00  0.00     0.010 A 
ATOM      9  C   UNL     1       3.481   1.199   3.701  1.00  0.00     0.010 A 
ATOM     10  C   UNL     1       5.116   1.873   3.313  1.00  0.00    -0.014 A 
BRANCH  10  11
ATOM     11  C   UNL     1       5.490   2.694   4.600  1.00  0.00     0.031 A 
ATOM     12  C   UNL     1       5.982   1.898   5.772  1.00  0.00     0.074 A 
ATOM     13  C   UNL     1       5.440   4.043   4.697  1.00  0.00     0.049 A 
ATOM     14  N   UNL     1       6.895   2.206   6.648  1.00  0.00    -0.248 NA
ATOM     15  C   UNL     1       5.393   0.561   5.968  1.00  0.00     0.031 C 
ATOM     16  C   UNL     1       4.720   4.954   3.815  1.00  0.00     0.029 A 
ATOM     17  N   UNL     1       6.261   4.884   5.415  1.00  0.00    -0.354 N 
ATOM     18  C   UNL     1       7.034   1.076   7.439  1.00  0.00     0.074 A 
ATOM     19  C   UNL     1       6.108   0.082   6.967  1.00  0.00     0.031 C 
ATOM     20  C   UNL     1       5.354   6.136   3.786  1.00  0.00     0.029 A 
ATOM     21  C   UNL     1       6.401   6.119   4.798  1.00  0.00     0.049 A 
ATOM     22  H   UNL     1       6.696   4.638   6.263  1.00  0.00     0.167 HD
ATOM     23  C   UNL     1       7.859   0.899   8.491  1.00  0.00     0.037 A 
ATOM     24  C   UNL     1       7.294   7.104   5.028  1.00  0.00     0.037 A 
ATOM     25  C   UNL     1       8.630   1.976   9.032  1.00  0.00     0.049 A 
ATOM     26  C   UNL     1       8.191   6.912   6.215  1.00  0.00     0.074 A 
ATOM     27  C   UNL     1       9.414   2.000  10.165  1.00  0.00     0.029 A 
ATOM     28  N   UNL     1       8.643   3.258   8.493  1.00  0.00    -0.354 N 
ATOM     29  N   UNL     1       8.390   5.830   6.929  1.00  0.00    -0.248 NA
ATOM     30  C   UNL     1       8.911   8.098   6.691  1.00  0.00     0.031 C 
ATOM     31  C   UNL     1       9.829   3.322  10.360  1.00  0.00     0.029 A 
ATOM     32  C   UNL     1       9.396   4.093   9.290  1.00  0.00     0.049 A 
ATOM     33  H   UNL     1       8.184   3.529   7.665  1.00  0.00     0.167 HD
ATOM     34  C   UNL     1       9.230   6.207   7.963  1.00  0.00     0.074 A 
ATOM     35  C   UNL     1       9.550   7.607   7.742  1.00  0.00     0.031 C 
ATOM     36  C   UNL     1       9.675   5.481   9.018  1.00  0.00     0.037 A 
BRANCH  23  37
ATOM     37  C   UNL     1       7.812  -0.441   9.156  1.00  0.00     0.057 A 
ATOM     38  C   UNL     1       8.278  -1.604   8.524  1.00  0.00     0.134 A 
ATOM     39  C   UNL     1       7.184  -0.587  10.397  1.00  0.00     0.134 A 
ATOM     40  F   UNL     1       8.836  -1.541   7.304  1.00  0.00    -0.206 F 
ATOM     41  C   UNL     1       8.095  -2.866   9.093  1.00  0.00     0.040 A 
ATOM     42  C   UNL     1       7.021  -1.839  10.989  1.00  0.00     0.040 A 
ATOM     43  F   UNL     1       6.682   0.480  11.036  1.00  0.00    -0.206 F 
ATOM     44  C   UNL     1       7.467  -2.984  10.332  1.00  0.00     0.006 A 
ENDBRANCH  23  37
BRANCH  24  45
ATOM     45  C   UNL     1       7.312   8.380   4.255  1.00  0.00     0.057 A 
ATOM     46  C   UNL     1       8.458   8.852   3.593  1.00  0.00     0.134 A 
ATOM     47  C   UNL     1       6.197   9.225   4.252  1.00  0.00     0.134 A 
ATOM     48  F   UNL     1       9.589   8.131   3.599  1.00  0.00    -0.206 F 
ATOM     49  C   UNL     1       8.486  10.101   2.958  1.00  0.00     0.040 A 
ATOM     50  C   UNL     1       6.212  10.468   3.621  1.00  0.00     0.040 A 
ATOM     51  F   UNL     1       5.068   8.863   4.878  1.00  0.00    -0.206 F 
ATOM     52  C   UNL     1       7.354  10.910   2.963  1.00  0.00     0.006 A 
ENDBRANCH  24  45
BRANCH  36  53
ATOM     53  C   UNL     1      10.604   6.180   9.954  1.00  0.00     0.057 A 
ATOM     54  C   UNL     1      10.183   7.207  10.805  1.00  0.00     0.134 A 
ATOM     55  C   UNL     1      11.947   5.790  10.006  1.00  0.00     0.134 A 
ATOM     56  F   UNL     1       8.908   7.628  10.790  1.00  0.00    -0.206 F 
ATOM     57  C   UNL     1      11.083   7.858  11.645  1.00  0.00     0.040 A 
ATOM     58  C   UNL     1      12.844   6.401  10.874  1.00  0.00     0.040 A 
ATOM     59  F   UNL     1      12.401   4.799   9.222  1.00  0.00    -0.206 F 
ATOM     60  C   UNL     1      12.415   7.450  11.685  1.00  0.00     0.006 A 
ENDBRANCH  36  53
ENDBRANCH  10  11
ENDBRANCH   3   5
ENDBRANCH   2   3
ENDBRANCH   1   2
BRANCH   1  61
ATOM     61  C   UNL     1       3.824   0.318  -2.457  1.00  0.00     0.274 C 
BRANCH  61  62
ATOM     62  O   UNL     1       3.527   1.209  -1.366  1.00  0.00    -0.461 OA
BRANCH  62  63
ATOM     63  C   UNL     1       2.422   1.988  -1.393  1.00  0.00     0.329 C 
ATOM     64  O   UNL     1       1.638   2.053  -2.329  1.00  0.00    -0.250 OA
BRANCH  63  65
ATOM     65  C   UNL     1       2.359   2.891  -0.153  1.00  0.00     0.206 C 
BRANCH  65  66
ATOM     66  C   UNL     1       2.647   2.224   1.223  1.00  0.00     0.073 C 
BRANCH  66  67
ATOM     67  C   UNL     1       4.102   1.733   1.684  1.00  0.00    -0.045 A 
ATOM     68  C   UNL     1       4.930   0.121   2.602  1.00  0.00     0.004 A 
ATOM     69  C   UNL     1       5.156   3.209   1.595  1.00  0.00     0.004 A 
ATOM     70  C   UNL     1       6.614   0.236   3.239  1.00  0.00     0.000 A 
ATOM     71  C   UNL     1       6.780   3.178   2.285  1.00  0.00     0.000 A 
ATOM     72  C   UNL     1       7.470   1.755   3.075  1.00  0.00     0.000 A 
ENDBRANCH  66  67
ENDBRANCH  65  66
BRANCH  65  73
ATOM     73  N   UNL     1       2.806   4.288  -0.290  1.00  0.00    -0.278 N 
ATOM     74  C   UNL     1       2.149   5.236   0.496  1.00  0.00     0.267 C 
ATOM     75  C   UNL     1       3.933   4.726  -0.959  1.00  0.00     0.149 C 
ATOM     76  O   UNL     1       1.193   5.034   1.233  1.00  0.00    -0.268 OA
ATOM     77  C   UNL     1       2.805   6.559   0.369  1.00  0.00     0.081 C 
ATOM     78  S   UNL     1       4.250   6.398  -0.546  1.00  0.00    -0.054 SA
ATOM     79  S   UNL     1       4.966   3.939  -2.001  1.00  0.00    -0.052 S 
ATOM     80  C   UNL     1       2.296   7.688   0.887  1.00  0.00     0.029 C 
BRANCH  80  81
ATOM     81  C   UNL     1       2.860   9.023   0.638  1.00  0.00    -0.021 A 
ATOM     82  C   UNL     1       3.187   9.417  -0.664  1.00  0.00     0.028 A 
ATOM     83  C   UNL     1       3.062   9.928   1.675  1.00  0.00     0.028 A 
ATOM     84  C   UNL     1       3.812  10.632  -0.863  1.00  0.00     0.111 A 
ATOM     85  C   UNL     1       3.636  11.152   1.363  1.00  0.00     0.111 A 
ATOM     86  N   UNL     1       4.047  11.512   0.127  1.00  0.00    -0.265 NA
ENDBRANCH  80  81
ENDBRANCH  65  73
ENDBRANCH  63  65
ENDBRANCH  62  63
ENDBRANCH  61  62
ENDBRANCH   1  61
TORSDOF 15
