REMARK SMILES C[C@@H](C(=O)OCCOC(=O)c1ccc(-c2c3nc(c(-c4c(F)cccc4F)c4ccc([nH]4)c(-c4c(F)cccc4F)c4nc(c(-c5c(F)cccc5F)c5ccc2[nH]5)C=C4)C=C3)cc1)c1ccc(-c2cccc(OC(=O)Nc3ccccc3)c2)c(F)c1
REMARK SMILES IDX 5 1 3 2 4 3 2 4 1 5 65 6 66 7 87 8 67 9 85 10 68 11 86 12
REMARK SMILES IDX 69 13 70 14 84 15 71 16 73 17 72 18 74 19 75 20 76 21 77 22
REMARK SMILES IDX 78 24 79 25 83 26 80 27 82 28 81 29 6 30 7 31 8 32 9 33
REMARK SMILES IDX 10 34 11 35 12 36 64 37 13 38 63 39 14 40 15 41 16 42 57 43
REMARK SMILES IDX 17 44 62 45 56 46 58 47 18 48 61 49 55 50 54 51 19 53 45 54
REMARK SMILES IDX 28 55 44 56 29 57 32 58 43 59 59 60 30 61 31 62 42 64 60 65
REMARK SMILES IDX 33 66 20 67 21 68 26 69 22 70 23 71 25 72 27 73 24 74 46 75
REMARK SMILES IDX 47 76 52 77 48 78 49 79 51 80 53 81 50 82 34 83 35 84 40 85
REMARK SMILES IDX 36 86 37 87 39 88 41 89 38 90
REMARK H PARENT 77 23 58 52 32 63
REMARK Flexibility Score: inf
ROOT
ATOM      1  O   UNL     1       2.316   1.722  -1.704  1.00  0.00    -0.462 OA
ENDROOT
BRANCH   1   2
ATOM      2  C   UNL     1       1.270   2.277  -1.032  1.00  0.00     0.313 C 
ATOM      3  O   UNL     1       0.737   3.334  -1.355  1.00  0.00    -0.252 OA
BRANCH   2   4
ATOM      4  C   UNL     1       0.866   1.464   0.210  1.00  0.00     0.126 C 
ATOM      5  C   UNL     1       1.566   0.099   0.274  1.00  0.00     0.025 C 
BRANCH   4   6
ATOM      6  C   UNL     1      -0.655   1.381   0.369  1.00  0.00    -0.031 A 
ATOM      7  C   UNL     1      -1.384   2.539   0.693  1.00  0.00     0.005 A 
ATOM      8  C   UNL     1      -1.379   0.197   0.176  1.00  0.00     0.044 A 
ATOM      9  C   UNL     1      -2.783   2.516   0.802  1.00  0.00     0.012 A 
ATOM     10  C   UNL     1      -2.773   0.180   0.296  1.00  0.00     0.131 A 
ATOM     11  C   UNL     1      -3.510   1.331   0.604  1.00  0.00     0.018 A 
ATOM     12  F   UNL     1      -3.400  -0.985   0.067  1.00  0.00    -0.206 F 
BRANCH  11  13
ATOM     13  C   UNL     1      -4.982   1.308   0.710  1.00  0.00    -0.012 A 
ATOM     14  C   UNL     1      -5.784   2.272   0.070  1.00  0.00     0.009 A 
ATOM     15  C   UNL     1      -5.629   0.324   1.475  1.00  0.00     0.056 A 
ATOM     16  C   UNL     1      -7.178   2.239   0.170  1.00  0.00     0.004 A 
ATOM     17  C   UNL     1      -7.015   0.332   1.620  1.00  0.00     0.133 A 
ATOM     18  C   UNL     1      -7.797   1.264   0.942  1.00  0.00     0.047 A 
BRANCH  17  19
ATOM     19  O   UNL     1      -7.730  -0.544   2.459  1.00  0.00    -0.410 OA
BRANCH  19  20
ATOM     20  C   UNL     1      -7.212  -0.944   3.683  1.00  0.00     0.417 C 
ATOM     21  O   UNL     1      -6.024  -0.978   3.988  1.00  0.00    -0.224 OA
ATOM     22  N   UNL     1      -8.152  -1.214   4.646  1.00  0.00    -0.291 N 
ATOM     23  H   UNL     1      -7.778  -1.463   5.523  1.00  0.00     0.173 HD
BRANCH  22  24
ATOM     24  C   UNL     1      -9.553  -1.196   4.596  1.00  0.00     0.044 A 
ATOM     25  C   UNL     1     -10.219  -1.059   5.821  1.00  0.00     0.026 A 
ATOM     26  C   UNL     1     -10.306  -1.310   3.427  1.00  0.00     0.026 A 
ATOM     27  C   UNL     1     -11.613  -0.992   5.872  1.00  0.00     0.002 A 
ATOM     28  C   UNL     1     -11.703  -1.258   3.479  1.00  0.00     0.002 A 
ATOM     29  C   UNL     1     -12.355  -1.090   4.699  1.00  0.00     0.000 A 
ENDBRANCH  22  24
ENDBRANCH  19  20
ENDBRANCH  17  19
ENDBRANCH  11  13
ENDBRANCH   4   6
ENDBRANCH   2   4
ENDBRANCH   1   2
BRANCH   1  30
ATOM     30  C   UNL     1       2.760   2.399  -2.897  1.00  0.00     0.274 C 
BRANCH  30  31
ATOM     31  C   UNL     1       2.308   1.635  -4.140  1.00  0.00     0.275 C 
BRANCH  31  32
ATOM     32  O   UNL     1       0.877   1.711  -4.268  1.00  0.00    -0.458 OA
BRANCH  32  33
ATOM     33  C   UNL     1       0.204   0.561  -4.040  1.00  0.00     0.338 C 
ATOM     34  O   UNL     1       0.663  -0.539  -3.786  1.00  0.00    -0.246 OA
BRANCH  33  35
ATOM     35  C   UNL     1      -1.240   0.830  -4.104  1.00  0.00     0.060 A 
ATOM     36  C   UNL     1      -1.828   1.563  -3.080  1.00  0.00     0.016 A 
ATOM     37  C   UNL     1      -2.029   0.252  -5.099  1.00  0.00     0.016 A 
ATOM     38  C   UNL     1      -3.214   1.642  -2.997  1.00  0.00     0.010 A 
ATOM     39  C   UNL     1      -3.422   0.403  -5.053  1.00  0.00     0.010 A 
ATOM     40  C   UNL     1      -4.036   1.062  -3.974  1.00  0.00    -0.014 A 
BRANCH  40  41
ATOM     41  C   UNL     1      -5.519   1.093  -3.805  1.00  0.00     0.031 A 
ATOM     42  C   UNL     1      -6.298  -0.194  -3.686  1.00  0.00     0.074 A 
ATOM     43  C   UNL     1      -6.171   2.267  -3.672  1.00  0.00     0.049 A 
ATOM     44  N   UNL     1      -7.596  -0.377  -3.643  1.00  0.00    -0.248 NA
ATOM     45  C   UNL     1      -5.519  -1.440  -3.625  1.00  0.00     0.031 C 
ATOM     46  C   UNL     1      -5.543   3.589  -3.674  1.00  0.00     0.029 A 
ATOM     47  N   UNL     1      -7.499   2.536  -3.442  1.00  0.00    -0.354 N 
ATOM     48  C   UNL     1      -7.785  -1.754  -3.637  1.00  0.00     0.074 A 
ATOM     49  C   UNL     1      -6.472  -2.361  -3.656  1.00  0.00     0.031 C 
ATOM     50  C   UNL     1      -6.459   4.511  -3.338  1.00  0.00     0.029 A 
ATOM     51  C   UNL     1      -7.758   3.863  -3.196  1.00  0.00     0.049 A 
ATOM     52  H   UNL     1      -8.199   1.843  -3.453  1.00  0.00     0.167 HD
ATOM     53  C   UNL     1      -8.950  -2.447  -3.635  1.00  0.00     0.037 A 
ATOM     54  C   UNL     1      -8.911   4.486  -2.881  1.00  0.00     0.037 A 
ATOM     55  C   UNL     1     -10.253  -1.846  -3.520  1.00  0.00     0.049 A 
ATOM     56  C   UNL     1     -10.188   3.694  -2.847  1.00  0.00     0.074 A 
ATOM     57  C   UNL     1     -11.494  -2.461  -3.545  1.00  0.00     0.029 A 
ATOM     58  N   UNL     1     -10.480  -0.494  -3.320  1.00  0.00    -0.354 N 
ATOM     59  N   UNL     1     -10.364   2.399  -2.947  1.00  0.00    -0.248 NA
ATOM     60  C   UNL     1     -11.434   4.459  -2.692  1.00  0.00     0.031 C 
ATOM     61  C   UNL     1     -12.474  -1.474  -3.391  1.00  0.00     0.029 A 
ATOM     62  C   UNL     1     -11.842  -0.253  -3.231  1.00  0.00     0.049 A 
ATOM     63  H   UNL     1      -9.779   0.193  -3.251  1.00  0.00     0.167 HD
ATOM     64  C   UNL     1     -11.736   2.196  -2.882  1.00  0.00     0.074 A 
ATOM     65  C   UNL     1     -12.343   3.495  -2.676  1.00  0.00     0.031 C 
ATOM     66  C   UNL     1     -12.433   1.042  -3.014  1.00  0.00     0.037 A 
BRANCH  53  67
ATOM     67  C   UNL     1      -8.874  -3.933  -3.835  1.00  0.00     0.057 A 
ATOM     68  C   UNL     1      -8.462  -4.812  -2.829  1.00  0.00     0.134 A 
ATOM     69  C   UNL     1      -9.263  -4.491  -5.061  1.00  0.00     0.134 A 
ATOM     70  F   UNL     1      -8.066  -4.343  -1.636  1.00  0.00    -0.206 F 
ATOM     71  C   UNL     1      -8.418  -6.193  -3.041  1.00  0.00     0.040 A 
ATOM     72  C   UNL     1      -9.248  -5.870  -5.277  1.00  0.00     0.040 A 
ATOM     73  F   UNL     1      -9.678  -3.705  -6.066  1.00  0.00    -0.206 F 
ATOM     74  C   UNL     1      -8.818  -6.725  -4.266  1.00  0.00     0.006 A 
ENDBRANCH  53  67
BRANCH  54  75
ATOM     75  C   UNL     1      -8.921   5.936  -2.552  1.00  0.00     0.057 A 
ATOM     76  C   UNL     1      -9.264   6.368  -1.264  1.00  0.00     0.134 A 
ATOM     77  C   UNL     1      -8.611   6.920  -3.498  1.00  0.00     0.134 A 
ATOM     78  F   UNL     1      -9.595   5.475  -0.320  1.00  0.00    -0.206 F 
ATOM     79  C   UNL     1      -9.310   7.723  -0.933  1.00  0.00     0.040 A 
ATOM     80  C   UNL     1      -8.619   8.277  -3.171  1.00  0.00     0.040 A 
ATOM     81  F   UNL     1      -8.277   6.575  -4.750  1.00  0.00    -0.206 F 
ATOM     82  C   UNL     1      -8.978   8.682  -1.887  1.00  0.00     0.006 A 
ENDBRANCH  54  75
BRANCH  66  83
ATOM     83  C   UNL     1     -13.929   1.129  -2.943  1.00  0.00     0.057 A 
ATOM     84  C   UNL     1     -14.679   1.679  -3.991  1.00  0.00     0.134 A 
ATOM     85  C   UNL     1     -14.629   0.619  -1.843  1.00  0.00     0.134 A 
ATOM     86  F   UNL     1     -14.066   2.193  -5.068  1.00  0.00    -0.206 F 
ATOM     87  C   UNL     1     -16.072   1.737  -3.938  1.00  0.00     0.040 A 
ATOM     88  C   UNL     1     -16.023   0.651  -1.789  1.00  0.00     0.040 A 
ATOM     89  F   UNL     1     -13.971   0.070  -0.810  1.00  0.00    -0.206 F 
ATOM     90  C   UNL     1     -16.748   1.216  -2.837  1.00  0.00     0.006 A 
ENDBRANCH  66  83
ENDBRANCH  40  41
ENDBRANCH  33  35
ENDBRANCH  32  33
ENDBRANCH  31  32
ENDBRANCH  30  31
ENDBRANCH   1  30
TORSDOF 16
