REMARK SMILES O=C(OCCOC(=O)C1(Cc2ccncc2)Cc2ccccc2C1)c1ccc(-c2c3nc(c(-c4c(F)cccc4F)c4ccc([nH]4)c(-c4c(F)cccc4F)c4nc(c(-c5c(F)cccc5F)c5ccc2[nH]5)C=C4)C=C3)cc1
REMARK SMILES IDX 4 1 3 2 2 3 1 4 25 5 26 6 78 7 27 8 77 9 28 10 29 11 30 12
REMARK SMILES IDX 71 13 31 14 76 15 70 16 72 17 32 18 75 19 69 20 68 21 33 23
REMARK SMILES IDX 59 24 42 25 58 26 43 27 46 28 57 29 73 30 44 31 45 32 56 34
REMARK SMILES IDX 74 35 47 36 34 37 35 38 40 39 36 40 37 41 39 42 41 43 38 44
REMARK SMILES IDX 60 45 61 46 66 47 62 48 63 49 65 50 67 51 64 52 48 53 49 54
REMARK SMILES IDX 54 55 50 56 51 57 53 58 55 59 52 60 5 61 6 62 7 63 8 64 9 65
REMARK SMILES IDX 17 66 24 67 18 68 23 69 19 70 22 71 20 72 21 73 10 74 11 75
REMARK SMILES IDX 12 76 16 77 13 78 15 79 14 80
REMARK H PARENT 72 22 46 33
REMARK Flexibility Score: inf
ROOT
ATOM      1  C   UNL     1       4.359   0.081  -1.516  1.00  0.00     0.275 C 
ENDROOT
BRANCH   1   2
ATOM      2  O   UNL     1       3.379  -0.815  -0.969  1.00  0.00    -0.458 OA
BRANCH   2   3
ATOM      3  C   UNL     1       3.215  -1.234   0.307  1.00  0.00     0.338 C 
ATOM      4  O   UNL     1       2.203  -1.882   0.573  1.00  0.00    -0.246 OA
BRANCH   3   5
ATOM      5  C   UNL     1       4.126  -0.865   1.445  1.00  0.00     0.060 A 
ATOM      6  C   UNL     1       5.404  -0.297   1.357  1.00  0.00     0.016 A 
ATOM      7  C   UNL     1       3.578  -1.021   2.726  1.00  0.00     0.016 A 
ATOM      8  C   UNL     1       6.030   0.278   2.474  1.00  0.00     0.010 A 
ATOM      9  C   UNL     1       4.190  -0.440   3.838  1.00  0.00     0.010 A 
ATOM     10  C   UNL     1       5.401   0.265   3.715  1.00  0.00    -0.014 A 
BRANCH  10  11
ATOM     11  C   UNL     1       6.042   0.856   4.916  1.00  0.00     0.031 A 
ATOM     12  C   UNL     1       6.449  -0.104   5.994  1.00  0.00     0.074 A 
ATOM     13  C   UNL     1       6.218   2.187   5.077  1.00  0.00     0.049 A 
ATOM     14  N   UNL     1       6.982   0.132   7.161  1.00  0.00    -0.248 NA
ATOM     15  C   UNL     1       6.196  -1.533   5.724  1.00  0.00     0.031 C 
ATOM     16  C   UNL     1       5.864   3.232   4.112  1.00  0.00     0.029 A 
ATOM     17  N   UNL     1       6.713   2.901   6.144  1.00  0.00    -0.354 N 
ATOM     18  C   UNL     1       7.165  -1.120   7.728  1.00  0.00     0.074 A 
ATOM     19  C   UNL     1       6.513  -2.085   6.879  1.00  0.00     0.031 C 
ATOM     20  C   UNL     1       6.085   4.444   4.655  1.00  0.00     0.029 A 
ATOM     21  C   UNL     1       6.638   4.270   5.991  1.00  0.00     0.049 A 
ATOM     22  H   UNL     1       7.087   2.472   6.948  1.00  0.00     0.167 HD
ATOM     23  C   UNL     1       7.918  -1.458   8.796  1.00  0.00     0.037 A 
ATOM     24  C   UNL     1       6.994   5.260   6.836  1.00  0.00     0.037 A 
ATOM     25  C   UNL     1       8.572  -0.494   9.627  1.00  0.00     0.049 A 
ATOM     26  C   UNL     1       7.674   4.876   8.125  1.00  0.00     0.074 A 
ATOM     27  C   UNL     1       9.385  -0.701  10.721  1.00  0.00     0.029 A 
ATOM     28  N   UNL     1       8.463   0.879   9.448  1.00  0.00    -0.354 N 
ATOM     29  N   UNL     1       7.954   3.681   8.588  1.00  0.00    -0.248 NA
ATOM     30  C   UNL     1       8.138   5.976   8.982  1.00  0.00     0.031 C 
ATOM     31  C   UNL     1       9.728   0.554  11.238  1.00  0.00     0.029 A 
ATOM     32  C   UNL     1       9.172   1.538  10.432  1.00  0.00     0.049 A 
ATOM     33  H   UNL     1       7.956   1.317   8.726  1.00  0.00     0.167 HD
ATOM     34  C   UNL     1       8.699   3.884   9.742  1.00  0.00     0.074 A 
ATOM     35  C   UNL     1       8.798   5.319   9.924  1.00  0.00     0.031 C 
ATOM     36  C   UNL     1       9.275   2.970  10.561  1.00  0.00     0.037 A 
BRANCH  23  37
ATOM     37  C   UNL     1       8.075  -2.928   9.043  1.00  0.00     0.057 A 
ATOM     38  C   UNL     1       8.761  -3.748   8.130  1.00  0.00     0.134 A 
ATOM     39  C   UNL     1       7.429  -3.551  10.113  1.00  0.00     0.134 A 
ATOM     40  F   UNL     1       9.370  -3.213   7.059  1.00  0.00    -0.206 F 
ATOM     41  C   UNL     1       8.741  -5.138   8.237  1.00  0.00     0.040 A 
ATOM     42  C   UNL     1       7.431  -4.941  10.249  1.00  0.00     0.040 A 
ATOM     43  F   UNL     1       6.749  -2.828  11.014  1.00  0.00    -0.206 F 
ATOM     44  C   UNL     1       8.070  -5.738   9.299  1.00  0.00     0.006 A 
ENDBRANCH  23  37
BRANCH  24  45
ATOM     45  C   UNL     1       6.811   6.699   6.494  1.00  0.00     0.057 A 
ATOM     46  C   UNL     1       7.898   7.507   6.136  1.00  0.00     0.134 A 
ATOM     47  C   UNL     1       5.569   7.331   6.618  1.00  0.00     0.134 A 
ATOM     48  F   UNL     1       9.128   6.979   6.048  1.00  0.00    -0.206 F 
ATOM     49  C   UNL     1       7.760   8.884   5.930  1.00  0.00     0.040 A 
ATOM     50  C   UNL     1       5.409   8.702   6.389  1.00  0.00     0.040 A 
ATOM     51  F   UNL     1       4.496   6.637   7.017  1.00  0.00    -0.206 F 
ATOM     52  C   UNL     1       6.510   9.486   6.053  1.00  0.00     0.006 A 
ENDBRANCH  24  45
BRANCH  36  53
ATOM     53  C   UNL     1      10.133   3.489  11.672  1.00  0.00     0.057 A 
ATOM     54  C   UNL     1       9.594   4.105  12.806  1.00  0.00     0.134 A 
ATOM     55  C   UNL     1      11.521   3.296  11.631  1.00  0.00     0.134 A 
ATOM     56  F   UNL     1       8.275   4.332  12.895  1.00  0.00    -0.206 F 
ATOM     57  C   UNL     1      10.408   4.523  13.858  1.00  0.00     0.040 A 
ATOM     58  C   UNL     1      12.340   3.678  12.691  1.00  0.00     0.040 A 
ATOM     59  F   UNL     1      12.096   2.703  10.573  1.00  0.00    -0.206 F 
ATOM     60  C   UNL     1      11.783   4.297  13.808  1.00  0.00     0.006 A 
ENDBRANCH  36  53
ENDBRANCH  10  11
ENDBRANCH   3   5
ENDBRANCH   2   3
ENDBRANCH   1   2
BRANCH   1  61
ATOM     61  C   UNL     1       4.172   1.550  -1.121  1.00  0.00     0.274 C 
BRANCH  61  62
ATOM     62  O   UNL     1       3.492   1.696   0.141  1.00  0.00    -0.462 OA
BRANCH  62  63
ATOM     63  C   UNL     1       2.686   2.782   0.266  1.00  0.00     0.313 C 
ATOM     64  O   UNL     1       2.545   3.616  -0.627  1.00  0.00    -0.252 OA
BRANCH  63  65
ATOM     65  C   UNL     1       1.982   2.884   1.623  1.00  0.00     0.080 C 
ATOM     66  C   UNL     1       2.623   2.027   2.728  1.00  0.00     0.055 C 
ATOM     67  C   UNL     1       2.194   4.342   2.132  1.00  0.00     0.055 C 
ATOM     68  C   UNL     1       2.464   2.851   3.963  1.00  0.00    -0.044 A 
ATOM     69  C   UNL     1       2.278   4.186   3.619  1.00  0.00    -0.044 A 
ATOM     70  C   UNL     1       2.586   2.450   5.284  1.00  0.00     0.004 A 
ATOM     71  C   UNL     1       2.276   5.166   4.593  1.00  0.00     0.004 A 
ATOM     72  C   UNL     1       2.567   3.427   6.274  1.00  0.00     0.000 A 
ATOM     73  C   UNL     1       2.417   4.776   5.928  1.00  0.00     0.000 A 
BRANCH  65  74
ATOM     74  C   UNL     1       0.514   2.397   1.539  1.00  0.00     0.055 C 
BRANCH  74  75
ATOM     75  C   UNL     1      -0.354   3.070   0.523  1.00  0.00    -0.044 A 
ATOM     76  C   UNL     1      -0.422   2.580  -0.782  1.00  0.00     0.024 A 
ATOM     77  C   UNL     1      -1.088   4.207   0.857  1.00  0.00     0.024 A 
ATOM     78  C   UNL     1      -1.178   3.276  -1.707  1.00  0.00     0.111 A 
ATOM     79  C   UNL     1      -1.822   4.827  -0.138  1.00  0.00     0.111 A 
ATOM     80  N   UNL     1      -1.881   4.391  -1.414  1.00  0.00    -0.265 NA
ENDBRANCH  74  75
ENDBRANCH  65  74
ENDBRANCH  63  65
ENDBRANCH  62  63
ENDBRANCH  61  62
ENDBRANCH   1  61
TORSDOF 13
