REMARK SMILES O=C(C[N@@H+](C[C@@H]1COc2ccccc2O1)CC(F)(F)F)OCCOC(=O)c1ccc(-c2c3nc(c(-c4c(F)cccc4F)c4ccc([nH]4)c(-c4c(F)cccc4F)c4nc(c(-c5c(F)cccc5F)c5ccc2[nH]5)C=C4)C=C3)cc1
REMARK SMILES IDX 22 1 21 2 2 3 1 4 3 5 4 6 5 8 6 9 7 10 15 11 8 12 14 13 9 14
REMARK SMILES IDX 13 15 10 16 12 17 11 18 16 19 17 20 18 21 19 22 20 23 23 24
REMARK SMILES IDX 24 25 25 26 26 27 27 28 28 29 80 30 29 31 79 32 30 33 31 34
REMARK SMILES IDX 32 35 73 36 33 37 78 38 72 39 74 40 34 41 77 42 71 43 70 44
REMARK SMILES IDX 35 46 61 47 44 48 60 49 45 50 48 51 59 52 75 53 46 54 47 55
REMARK SMILES IDX 58 57 76 58 49 59 36 60 37 61 42 62 38 63 39 64 41 65 43 66
REMARK SMILES IDX 40 67 62 68 63 69 68 70 64 71 65 72 67 73 69 74 66 75 50 76
REMARK SMILES IDX 51 77 56 78 52 79 53 80 55 81 57 82 54 83
REMARK H PARENT 4 7 74 45 48 56
REMARK Flexibility Score: inf
ROOT
ATOM      1  C   UNL     1       4.907  -0.660  -1.295  1.00  0.00     0.274 C 
ENDROOT
BRANCH   1   2
ATOM      2  O   UNL     1       3.672  -1.249  -0.838  1.00  0.00    -0.458 OA
BRANCH   2   3
ATOM      3  C   UNL     1       2.887  -0.746   0.146  1.00  0.00     0.361 C 
ATOM      4  O   UNL     1       1.848  -1.334   0.445  1.00  0.00    -0.245 OA
BRANCH   3   5
ATOM      5  C   UNL     1       3.281   0.582   0.778  1.00  0.00     0.386 C 
BRANCH   5   6
ATOM      6  N   UNL     1       3.795   0.521   2.159  1.00  0.00    -0.315 N 
ATOM      7  H   UNL     1       4.417  -0.286   2.178  1.00  0.00     0.348 HD
BRANCH   6   8
ATOM      8  C   UNL     1       4.637   1.709   2.472  1.00  0.00     0.312 C 
BRANCH   8   9
ATOM      9  C   UNL     1       3.908   3.064   2.743  1.00  0.00     0.265 C 
ATOM     10  C   UNL     1       4.056   3.531   4.207  1.00  0.00     0.281 C 
ATOM     11  O   UNL     1       2.513   2.950   2.410  1.00  0.00    -0.477 OA
ATOM     12  O   UNL     1       3.924   2.459   5.158  1.00  0.00    -0.486 OA
ATOM     13  C   UNL     1       2.044   1.942   3.209  1.00  0.00     0.162 A 
ATOM     14  C   UNL     1       2.972   1.583   4.723  1.00  0.00     0.161 A 
ATOM     15  C   UNL     1       0.970   0.706   2.486  1.00  0.00     0.050 A 
ATOM     16  C   UNL     1       2.788   0.012   5.532  1.00  0.00     0.050 A 
ATOM     17  C   UNL     1       0.790  -0.896   3.298  1.00  0.00     0.004 A 
ATOM     18  C   UNL     1       1.739  -1.252   4.779  1.00  0.00     0.004 A 
ENDBRANCH   8   9
ENDBRANCH   6   8
BRANCH   6  19
ATOM     19  C   UNL     1       2.710   0.004   3.387  1.00  0.00     0.379 C 
BRANCH  19  20
ATOM     20  C   UNL     1       1.024   0.747   4.593  1.00  0.00     0.438 C 
ATOM     21  F   UNL     1      -0.309   0.780   4.082  1.00  0.00    -0.165 F 
ATOM     22  F   UNL     1       0.675   0.161   5.842  1.00  0.00    -0.165 F 
ATOM     23  F   UNL     1       1.010   2.097   5.065  1.00  0.00    -0.165 F 
ENDBRANCH  19  20
ENDBRANCH   6  19
ENDBRANCH   5   6
ENDBRANCH   3   5
ENDBRANCH   2   3
ENDBRANCH   1   2
BRANCH   1  24
ATOM     24  C   UNL     1       4.679   0.340  -2.442  1.00  0.00     0.275 C 
BRANCH  24  25
ATOM     25  O   UNL     1       4.130   1.605  -1.989  1.00  0.00    -0.458 OA
BRANCH  25  26
ATOM     26  C   UNL     1       2.803   1.814  -2.208  1.00  0.00     0.338 C 
ATOM     27  O   UNL     1       2.053   1.055  -2.796  1.00  0.00    -0.246 OA
BRANCH  26  28
ATOM     28  C   UNL     1       2.317   3.022  -1.472  1.00  0.00     0.060 A 
ATOM     29  C   UNL     1       1.009   3.001  -0.964  1.00  0.00     0.016 A 
ATOM     30  C   UNL     1       3.111   4.152  -1.246  1.00  0.00     0.016 A 
ATOM     31  C   UNL     1       0.494   4.092  -0.244  1.00  0.00     0.010 A 
ATOM     32  C   UNL     1       2.588   5.252  -0.537  1.00  0.00     0.010 A 
ATOM     33  C   UNL     1       1.269   5.241  -0.039  1.00  0.00    -0.014 A 
BRANCH  33  34
ATOM     34  C   UNL     1       0.663   6.470   0.566  1.00  0.00     0.031 A 
ATOM     35  C   UNL     1       0.178   7.569  -0.340  1.00  0.00     0.074 A 
ATOM     36  C   UNL     1       0.506   6.631   1.896  1.00  0.00     0.049 A 
ATOM     37  N   UNL     1      -0.387   8.710  -0.030  1.00  0.00    -0.248 NA
ATOM     38  C   UNL     1       0.333   7.346  -1.785  1.00  0.00     0.031 C 
ATOM     39  C   UNL     1       0.840   5.639   2.904  1.00  0.00     0.029 A 
ATOM     40  N   UNL     1       0.031   7.691   2.636  1.00  0.00    -0.354 N 
ATOM     41  C   UNL     1      -0.686   9.324  -1.237  1.00  0.00     0.074 A 
ATOM     42  C   UNL     1      -0.185   8.458  -2.285  1.00  0.00     0.031 C 
ATOM     43  C   UNL     1       0.627   6.142   4.130  1.00  0.00     0.029 A 
ATOM     44  C   UNL     1       0.113   7.500   3.998  1.00  0.00     0.049 A 
ATOM     45  H   UNL     1      -0.333   8.510   2.229  1.00  0.00     0.167 HD
ATOM     46  C   UNL     1      -1.343  10.487  -1.458  1.00  0.00     0.037 A 
ATOM     47  C   UNL     1      -0.194   8.313   5.028  1.00  0.00     0.037 A 
ATOM     48  C   UNL     1      -1.831  11.370  -0.430  1.00  0.00     0.049 A 
ATOM     49  C   UNL     1      -0.814   9.656   4.753  1.00  0.00     0.074 A 
ATOM     50  C   UNL     1      -2.512  12.567  -0.577  1.00  0.00     0.029 A 
ATOM     51  N   UNL     1      -1.683  11.164   0.933  1.00  0.00    -0.354 N 
ATOM     52  N   UNL     1      -1.136  10.197   3.605  1.00  0.00    -0.248 NA
ATOM     53  C   UNL     1      -1.142  10.490   5.920  1.00  0.00     0.031 C 
ATOM     54  C   UNL     1      -2.725  13.114   0.692  1.00  0.00     0.029 A 
ATOM     55  C   UNL     1      -2.230  12.229   1.634  1.00  0.00     0.049 A 
ATOM     56  H   UNL     1      -1.254  10.379   1.342  1.00  0.00     0.167 HD
ATOM     57  C   UNL     1      -1.744  11.408   3.913  1.00  0.00     0.074 A 
ATOM     58  C   UNL     1      -1.759  11.517   5.355  1.00  0.00     0.031 C 
ATOM     59  C   UNL     1      -2.249  12.342   3.070  1.00  0.00     0.037 A 
BRANCH  46  60
ATOM     60  C   UNL     1      -1.574  10.881  -2.887  1.00  0.00     0.057 A 
ATOM     61  C   UNL     1      -2.508  10.214  -3.690  1.00  0.00     0.134 A 
ATOM     62  C   UNL     1      -0.895  11.970  -3.448  1.00  0.00     0.134 A 
ATOM     63  F   UNL     1      -3.180   9.154  -3.215  1.00  0.00    -0.206 F 
ATOM     64  C   UNL     1      -2.748  10.607  -5.007  1.00  0.00     0.040 A 
ATOM     65  C   UNL     1      -1.146  12.388  -4.755  1.00  0.00     0.040 A 
ATOM     66  F   UNL     1       0.008  12.653  -2.729  1.00  0.00    -0.206 F 
ATOM     67  C   UNL     1      -2.072  11.704  -5.539  1.00  0.00     0.006 A 
ENDBRANCH  46  60
BRANCH  47  68
ATOM     68  C   UNL     1       0.071   7.893   6.432  1.00  0.00     0.057 A 
ATOM     69  C   UNL     1      -0.973   7.664   7.337  1.00  0.00     0.134 A 
ATOM     70  C   UNL     1       1.379   7.790   6.921  1.00  0.00     0.134 A 
ATOM     71  F   UNL     1      -2.248   7.775   6.938  1.00  0.00    -0.206 F 
ATOM     72  C   UNL     1      -0.728   7.389   8.684  1.00  0.00     0.040 A 
ATOM     73  C   UNL     1       1.639   7.489   8.260  1.00  0.00     0.040 A 
ATOM     74  F   UNL     1       2.426   7.997   6.108  1.00  0.00    -0.206 F 
ATOM     75  C   UNL     1       0.583   7.302   9.149  1.00  0.00     0.006 A 
ENDBRANCH  47  68
BRANCH  59  76
ATOM     76  C   UNL     1      -2.895  13.551   3.687  1.00  0.00     0.057 A 
ATOM     77  C   UNL     1      -2.152  14.523   4.371  1.00  0.00     0.134 A 
ATOM     78  C   UNL     1      -4.278  13.753   3.585  1.00  0.00     0.134 A 
ATOM     79  F   UNL     1      -0.826  14.387   4.518  1.00  0.00    -0.206 F 
ATOM     80  C   UNL     1      -2.765  15.631   4.961  1.00  0.00     0.040 A 
ATOM     81  C   UNL     1      -4.897  14.873   4.142  1.00  0.00     0.040 A 
ATOM     82  F   UNL     1      -5.050  12.869   2.936  1.00  0.00    -0.206 F 
ATOM     83  C   UNL     1      -4.141  15.811   4.842  1.00  0.00     0.006 A 
ENDBRANCH  59  76
ENDBRANCH  33  34
ENDBRANCH  26  28
ENDBRANCH  25  26
ENDBRANCH  24  25
ENDBRANCH   1  24
TORSDOF 16
