REMARK SMILES O=C(Nc1ccc(C(=O)OCCOC(=O)c2ccc(-c3c4nc(c(-c5c(F)cccc5F)c5ccc([nH]5)c(-c5c(F)cccc5F)c5nc(c(-c6c(F)cccc6F)c6ccc3[nH]6)C=C5)C=C4)cc2)cc1)c1cc(F)cc(Br)c1
REMARK SMILES IDX 11 1 10 2 8 3 9 4 7 5 4 6 5 7 71 8 6 9 70 10 3 11 1 12 2 13
REMARK SMILES IDX 72 15 73 16 79 17 74 18 77 19 75 20 76 21 78 22 12 23 13 24
REMARK SMILES IDX 14 25 15 26 16 27 17 28 69 29 18 30 68 31 19 32 20 33 21 34
REMARK SMILES IDX 62 35 22 36 67 37 61 38 63 39 23 40 66 41 60 42 59 43 24 45
REMARK SMILES IDX 50 46 33 47 49 48 34 49 37 50 48 51 64 52 35 53 36 54 47 56
REMARK SMILES IDX 65 57 38 58 25 59 26 60 31 61 27 62 28 63 30 64 32 65 29 66
REMARK SMILES IDX 51 67 52 68 57 69 53 70 54 71 56 72 58 73 55 74 39 75 40 76
REMARK SMILES IDX 45 77 41 78 42 79 44 80 46 81 43 82
REMARK H PARENT 3 14 63 44 37 55
REMARK Flexibility Score: inf
ROOT
ATOM      1  C   UNL     1      10.498  -1.044  -0.262  1.00  0.00     0.275 C 
ENDROOT
BRANCH   1   2
ATOM      2  O   UNL     1       9.067  -1.215  -0.319  1.00  0.00    -0.458 OA
BRANCH   2   3
ATOM      3  C   UNL     1       8.365  -0.104  -0.650  1.00  0.00     0.338 C 
ATOM      4  O   UNL     1       8.814   1.008  -0.853  1.00  0.00    -0.246 OA
BRANCH   3   5
ATOM      5  C   UNL     1       6.925  -0.414  -0.813  1.00  0.00     0.060 A 
ATOM      6  C   UNL     1       4.145  -0.566  -0.927  1.00  0.00     0.041 A 
ATOM      7  C   UNL     1       4.826   0.115  -1.926  1.00  0.00     0.027 A 
ATOM      8  C   UNL     1       4.856  -1.301   0.034  1.00  0.00     0.027 A 
ATOM      9  C   UNL     1       6.208   0.239  -1.825  1.00  0.00     0.018 A 
ATOM     10  C   UNL     1       6.251  -1.234   0.089  1.00  0.00     0.018 A 
BRANCH   6  11
ATOM     11  N   UNL     1       2.763  -0.343  -0.845  1.00  0.00    -0.322 N 
ATOM     12  O   UNL     1       0.813   0.061   0.258  1.00  0.00    -0.269 OA
ATOM     13  C   UNL     1       2.037  -0.027   0.288  1.00  0.00     0.255 C 
ATOM     14  H   UNL     1       2.255  -0.419  -1.685  1.00  0.00     0.170 HD
BRANCH  13  15
ATOM     15  C   UNL     1       2.751   0.296   1.546  1.00  0.00     0.044 A 
ATOM     16  C   UNL     1       3.782   1.245   1.569  1.00  0.00     0.053 A 
ATOM     17  C   UNL     1       2.419  -0.419   2.698  1.00  0.00     0.029 A 
ATOM     18  C   UNL     1       4.539   1.391   2.723  1.00  0.00     0.125 A 
ATOM     19  C   UNL     1       3.185  -0.242   3.849  1.00  0.00     0.021 A 
ATOM     20  F   UNL     1       5.578   2.236   2.726  1.00  0.00    -0.207 F 
ATOM     21  C   UNL     1       4.259   0.647   3.863  1.00  0.00     0.055 A 
ATOM     22  Br  UNL     1       2.792  -1.256   5.394  1.00  0.00    -0.051 Br
ENDBRANCH  13  15
ENDBRANCH   6  11
ENDBRANCH   3   5
ENDBRANCH   2   3
ENDBRANCH   1   2
BRANCH   1  23
ATOM     23  C   UNL     1      11.163  -1.591  -1.525  1.00  0.00     0.275 C 
BRANCH  23  24
ATOM     24  O   UNL     1      10.799  -0.796  -2.669  1.00  0.00    -0.458 OA
BRANCH  24  25
ATOM     25  C   UNL     1       9.941  -1.379  -3.537  1.00  0.00     0.338 C 
ATOM     26  O   UNL     1       9.481  -2.509  -3.489  1.00  0.00    -0.246 OA
BRANCH  25  27
ATOM     27  C   UNL     1       9.555  -0.415  -4.578  1.00  0.00     0.060 A 
ATOM     28  C   UNL     1       8.770   0.673  -4.218  1.00  0.00     0.016 A 
ATOM     29  C   UNL     1       9.835  -0.654  -5.920  1.00  0.00     0.016 A 
ATOM     30  C   UNL     1       8.155   1.453  -5.190  1.00  0.00     0.010 A 
ATOM     31  C   UNL     1       9.340   0.227  -6.892  1.00  0.00     0.010 A 
ATOM     32  C   UNL     1       8.473   1.279  -6.541  1.00  0.00    -0.014 A 
BRANCH  32  33
ATOM     33  C   UNL     1       7.942   2.223  -7.568  1.00  0.00     0.031 A 
ATOM     34  C   UNL     1       7.211   1.707  -8.779  1.00  0.00     0.074 A 
ATOM     35  C   UNL     1       8.149   3.551  -7.430  1.00  0.00     0.049 A 
ATOM     36  N   UNL     1       6.896   2.336  -9.883  1.00  0.00    -0.248 NA
ATOM     37  C   UNL     1       6.789   0.297  -8.754  1.00  0.00     0.031 C 
ATOM     38  C   UNL     1       8.807   4.198  -6.291  1.00  0.00     0.029 A 
ATOM     39  N   UNL     1       7.841   4.601  -8.264  1.00  0.00    -0.354 N 
ATOM     40  C   UNL     1       6.303   1.387 -10.707  1.00  0.00     0.074 A 
ATOM     41  C   UNL     1       6.287   0.141  -9.973  1.00  0.00     0.031 C 
ATOM     42  C   UNL     1       8.836   5.523  -6.485  1.00  0.00     0.029 A 
ATOM     43  C   UNL     1       8.309   5.812  -7.810  1.00  0.00     0.049 A 
ATOM     44  H   UNL     1       7.336   4.495  -9.102  1.00  0.00     0.167 HD
ATOM     45  C   UNL     1       5.827   1.547 -11.966  1.00  0.00     0.037 A 
ATOM     46  C   UNL     1       8.387   7.013  -8.415  1.00  0.00     0.037 A 
ATOM     47  C   UNL     1       5.794   2.807 -12.665  1.00  0.00     0.049 A 
ATOM     48  C   UNL     1       7.901   7.148  -9.827  1.00  0.00     0.074 A 
ATOM     49  C   UNL     1       5.273   3.081 -13.918  1.00  0.00     0.029 A 
ATOM     50  N   UNL     1       6.299   3.999 -12.171  1.00  0.00    -0.354 N 
ATOM     51  N   UNL     1       7.353   6.242 -10.600  1.00  0.00    -0.248 NA
ATOM     52  C   UNL     1       8.067   8.462 -10.462  1.00  0.00     0.031 C 
ATOM     53  C   UNL     1       5.514   4.428 -14.206  1.00  0.00     0.029 A 
ATOM     54  C   UNL     1       6.138   5.003 -13.111  1.00  0.00     0.049 A 
ATOM     55  H   UNL     1       6.712   4.115 -11.285  1.00  0.00     0.167 HD
ATOM     56  C   UNL     1       7.101   6.878 -11.807  1.00  0.00     0.074 A 
ATOM     57  C   UNL     1       7.531   8.252 -11.656  1.00  0.00     0.031 C 
ATOM     58  C   UNL     1       6.570   6.366 -12.943  1.00  0.00     0.037 A 
BRANCH  45  59
ATOM     59  C   UNL     1       5.336   0.333 -12.701  1.00  0.00     0.057 A 
ATOM     60  C   UNL     1       4.112  -0.278 -12.410  1.00  0.00     0.134 A 
ATOM     61  C   UNL     1       6.070  -0.173 -13.784  1.00  0.00     0.134 A 
ATOM     62  F   UNL     1       3.365   0.151 -11.382  1.00  0.00    -0.206 F 
ATOM     63  C   UNL     1       3.637  -1.354 -13.164  1.00  0.00     0.040 A 
ATOM     64  C   UNL     1       5.596  -1.232 -14.559  1.00  0.00     0.040 A 
ATOM     65  F   UNL     1       7.248   0.372 -14.122  1.00  0.00    -0.206 F 
ATOM     66  C   UNL     1       4.375  -1.827 -14.249  1.00  0.00     0.006 A 
ENDBRANCH  45  59
BRANCH  46  67
ATOM     67  C   UNL     1       9.037   8.156  -7.721  1.00  0.00     0.057 A 
ATOM     68  C   UNL     1       8.309   9.291  -7.348  1.00  0.00     0.134 A 
ATOM     69  C   UNL     1      10.408   8.145  -7.426  1.00  0.00     0.134 A 
ATOM     70  F   UNL     1       7.000   9.374  -7.624  1.00  0.00    -0.206 F 
ATOM     71  C   UNL     1       8.922  10.380  -6.725  1.00  0.00     0.040 A 
ATOM     72  C   UNL     1      11.026   9.210  -6.772  1.00  0.00     0.040 A 
ATOM     73  F   UNL     1      11.163   7.086  -7.753  1.00  0.00    -0.206 F 
ATOM     74  C   UNL     1      10.284  10.338  -6.428  1.00  0.00     0.006 A 
ENDBRANCH  46  67
BRANCH  58  75
ATOM     75  C   UNL     1       6.405   7.304 -14.100  1.00  0.00     0.057 A 
ATOM     76  C   UNL     1       7.502   7.742 -14.852  1.00  0.00     0.134 A 
ATOM     77  C   UNL     1       5.134   7.743 -14.487  1.00  0.00     0.134 A 
ATOM     78  F   UNL     1       8.747   7.370 -14.519  1.00  0.00    -0.206 F 
ATOM     79  C   UNL     1       7.340   8.599 -15.941  1.00  0.00     0.040 A 
ATOM     80  C   UNL     1       4.957   8.579 -15.590  1.00  0.00     0.040 A 
ATOM     81  F   UNL     1       4.043   7.355 -13.810  1.00  0.00    -0.206 F 
ATOM     82  C   UNL     1       6.064   9.013 -16.317  1.00  0.00     0.006 A 
ENDBRANCH  58  75
ENDBRANCH  32  33
ENDBRANCH  25  27
ENDBRANCH  24  25
ENDBRANCH  23  24
ENDBRANCH   1  23
TORSDOF 13
