REMARK SMILES O=C(OCCOC(=O)[C@@H]1CCC[N@@H+](Cc2ccc(F)cc2Cl)C1)c1ccc(-c2c3nc(c(-c4c(F)cccc4F)c4ccc([nH]4)c(-c4c(F)cccc4F)c4nc(c(-c5c(F)cccc5F)c5ccc2[nH]5)C=C4)C=C3)cc1
REMARK SMILES IDX 4 1 3 2 2 3 1 4 24 5 25 6 77 7 26 8 76 9 27 10 28 11 29 12
REMARK SMILES IDX 70 13 30 14 75 15 69 16 71 17 31 18 74 19 68 20 67 21 32 23
REMARK SMILES IDX 58 24 41 25 57 26 42 27 45 28 56 29 72 30 43 31 44 32 55 34
REMARK SMILES IDX 73 35 46 36 33 37 34 38 39 39 35 40 36 41 38 42 40 43 37 44
REMARK SMILES IDX 59 45 60 46 65 47 61 48 62 49 64 50 66 51 63 52 47 53 48 54
REMARK SMILES IDX 53 55 49 56 50 57 52 58 54 59 51 60 5 61 6 62 7 63 8 64 9 65
REMARK SMILES IDX 10 66 23 67 11 68 13 69 12 70 14 72 15 73 16 74 21 75 17 76
REMARK SMILES IDX 20 77 22 78 18 79 19 80
REMARK H PARENT 71 22 45 33 13 71
REMARK Flexibility Score: inf
ROOT
ATOM      1  C   UNL     1       4.862  -1.572   0.121  1.00  0.00     0.275 C 
ENDROOT
BRANCH   1   2
ATOM      2  O   UNL     1       3.843  -0.883   0.856  1.00  0.00    -0.458 OA
BRANCH   2   3
ATOM      3  C   UNL     1       3.990   0.353   1.394  1.00  0.00     0.338 C 
ATOM      4  O   UNL     1       3.471   0.617   2.475  1.00  0.00    -0.246 OA
BRANCH   3   5
ATOM      5  C   UNL     1       4.518   1.481   0.561  1.00  0.00     0.060 A 
ATOM      6  C   UNL     1       5.551   1.411  -0.382  1.00  0.00     0.016 A 
ATOM      7  C   UNL     1       3.860   2.710   0.723  1.00  0.00     0.016 A 
ATOM      8  C   UNL     1       5.851   2.494  -1.215  1.00  0.00     0.010 A 
ATOM      9  C   UNL     1       4.119   3.779  -0.136  1.00  0.00     0.010 A 
ATOM     10  C   UNL     1       5.122   3.678  -1.114  1.00  0.00    -0.014 A 
BRANCH  10  11
ATOM     11  C   UNL     1       5.542   4.888  -1.853  1.00  0.00     0.031 A 
ATOM     12  C   UNL     1       6.115   6.002  -1.028  1.00  0.00     0.074 A 
ATOM     13  C   UNL     1       5.400   5.016  -3.186  1.00  0.00     0.049 A 
ATOM     14  N   UNL     1       6.423   7.222  -1.368  1.00  0.00    -0.248 NA
ATOM     15  C   UNL     1       6.296   5.709   0.406  1.00  0.00     0.031 C 
ATOM     16  C   UNL     1       4.839   4.014  -4.093  1.00  0.00     0.029 A 
ATOM     17  N   UNL     1       5.718   6.066  -4.012  1.00  0.00    -0.354 N 
ATOM     18  C   UNL     1       6.777   7.845  -0.179  1.00  0.00     0.074 A 
ATOM     19  C   UNL     1       6.523   6.913   0.892  1.00  0.00     0.031 C 
ATOM     20  C   UNL     1       4.863   4.494  -5.351  1.00  0.00     0.029 A 
ATOM     21  C   UNL     1       5.430   5.840  -5.338  1.00  0.00     0.049 A 
ATOM     22  H   UNL     1       6.116   6.904  -3.685  1.00  0.00     0.167 HD
ATOM     23  C   UNL     1       7.336   9.061   0.005  1.00  0.00     0.037 A 
ATOM     24  C   UNL     1       5.622   6.637  -6.408  1.00  0.00     0.037 A 
ATOM     25  C   UNL     1       7.660   9.943  -1.075  1.00  0.00     0.049 A 
ATOM     26  C   UNL     1       6.263   7.989  -6.194  1.00  0.00     0.074 A 
ATOM     27  C   UNL     1       8.270  11.179  -1.032  1.00  0.00     0.029 A 
ATOM     28  N   UNL     1       7.409   9.653  -2.410  1.00  0.00    -0.354 N 
ATOM     29  N   UNL     1       6.652   8.552  -5.074  1.00  0.00    -0.248 NA
ATOM     30  C   UNL     1       6.508   8.808  -7.390  1.00  0.00     0.031 C 
ATOM     31  C   UNL     1       8.371  11.650  -2.346  1.00  0.00     0.029 A 
ATOM     32  C   UNL     1       7.859  10.687  -3.205  1.00  0.00     0.049 A 
ATOM     33  H   UNL     1       6.976   8.833  -2.739  1.00  0.00     0.167 HD
ATOM     34  C   UNL     1       7.229   9.764  -5.433  1.00  0.00     0.074 A 
ATOM     35  C   UNL     1       7.136   9.857  -6.875  1.00  0.00     0.031 C 
ATOM     36  C   UNL     1       7.789  10.716  -4.645  1.00  0.00     0.037 A 
BRANCH  23  37
ATOM     37  C   UNL     1       7.625   9.445   1.425  1.00  0.00     0.057 A 
ATOM     38  C   UNL     1       8.573   8.754   2.197  1.00  0.00     0.134 A 
ATOM     39  C   UNL     1       6.856  10.420   2.069  1.00  0.00     0.134 A 
ATOM     40  F   UNL     1       9.321   7.784   1.646  1.00  0.00    -0.206 F 
ATOM     41  C   UNL     1       8.686   8.959   3.572  1.00  0.00     0.040 A 
ATOM     42  C   UNL     1       6.989  10.663   3.437  1.00  0.00     0.040 A 
ATOM     43  F   UNL     1       5.935  11.120   1.390  1.00  0.00    -0.206 F 
ATOM     44  C   UNL     1       7.888   9.915   4.196  1.00  0.00     0.006 A 
ENDBRANCH  23  37
BRANCH  24  45
ATOM     45  C   UNL     1       5.266   6.178  -7.778  1.00  0.00     0.057 A 
ATOM     46  C   UNL     1       6.259   5.886  -8.723  1.00  0.00     0.134 A 
ATOM     47  C   UNL     1       3.935   6.056  -8.195  1.00  0.00     0.134 A 
ATOM     48  F   UNL     1       7.555   5.998  -8.394  1.00  0.00    -0.206 F 
ATOM     49  C   UNL     1       5.945   5.521 -10.034  1.00  0.00     0.040 A 
ATOM     50  C   UNL     1       3.606   5.672  -9.498  1.00  0.00     0.040 A 
ATOM     51  F   UNL     1       2.932   6.312  -7.342  1.00  0.00    -0.206 F 
ATOM     52  C   UNL     1       4.613   5.413 -10.425  1.00  0.00     0.006 A 
ENDBRANCH  24  45
BRANCH  36  53
ATOM     53  C   UNL     1       8.411  11.902  -5.318  1.00  0.00     0.057 A 
ATOM     54  C   UNL     1       7.639  12.936  -5.857  1.00  0.00     0.134 A 
ATOM     55  C   UNL     1       9.803  12.063  -5.307  1.00  0.00     0.134 A 
ATOM     56  F   UNL     1       6.302  12.834  -5.902  1.00  0.00    -0.206 F 
ATOM     57  C   UNL     1       8.231  14.094  -6.362  1.00  0.00     0.040 A 
ATOM     58  C   UNL     1      10.404  13.227  -5.785  1.00  0.00     0.040 A 
ATOM     59  F   UNL     1      10.596  11.110  -4.793  1.00  0.00    -0.206 F 
ATOM     60  C   UNL     1       9.616  14.247  -6.313  1.00  0.00     0.006 A 
ENDBRANCH  36  53
ENDBRANCH  10  11
ENDBRANCH   3   5
ENDBRANCH   2   3
ENDBRANCH   1   2
BRANCH   1  61
ATOM     61  C   UNL     1       4.561  -1.656  -1.379  1.00  0.00     0.274 C 
BRANCH  61  62
ATOM     62  O   UNL     1       3.893  -0.493  -1.907  1.00  0.00    -0.462 OA
BRANCH  62  63
ATOM     63  C   UNL     1       2.538  -0.638  -2.054  1.00  0.00     0.314 C 
ATOM     64  O   UNL     1       1.935  -1.649  -1.741  1.00  0.00    -0.252 OA
BRANCH  63  65
ATOM     65  C   UNL     1       1.928   0.542  -2.815  1.00  0.00     0.154 C 
ATOM     66  C   UNL     1       2.107   1.915  -2.181  1.00  0.00     0.027 C 
ATOM     67  C   UNL     1       0.432   0.312  -3.028  1.00  0.00     0.277 C 
ATOM     68  C   UNL     1       1.269   2.091  -0.918  1.00  0.00     0.062 C 
ATOM     69  N   UNL     1      -0.302   0.402  -1.764  1.00  0.00    -0.330 N 
ATOM     70  C   UNL     1      -0.186   1.711  -1.121  1.00  0.00     0.262 C 
ATOM     71  H   UNL     1       0.175  -0.243  -1.134  1.00  0.00     0.348 HD
BRANCH  69  72
ATOM     72  C   UNL     1      -1.676  -0.115  -1.830  1.00  0.00     0.300 C 
BRANCH  72  73
ATOM     73  C   UNL     1      -2.690   0.914  -2.287  1.00  0.00     0.025 A 
ATOM     74  C   UNL     1      -2.648   1.348  -3.627  1.00  0.00     0.014 A 
ATOM     75  C   UNL     1      -3.538   1.584  -1.387  1.00  0.00     0.052 A 
ATOM     76  C   UNL     1      -3.326   2.496  -4.021  1.00  0.00     0.040 A 
ATOM     77  C   UNL     1      -4.237   2.720  -1.793  1.00  0.00     0.060 A 
ATOM     78  Cl  UNL     1      -3.724   1.091   0.259  1.00  0.00    -0.084 Cl
ATOM     79  C   UNL     1      -4.098   3.181  -3.094  1.00  0.00     0.124 A 
ATOM     80  F   UNL     1      -4.711   4.313  -3.460  1.00  0.00    -0.207 F 
ENDBRANCH  72  73
ENDBRANCH  69  72
ENDBRANCH  63  65
ENDBRANCH  62  63
ENDBRANCH  61  62
ENDBRANCH   1  61
TORSDOF 13
