REMARK SMILES Nc1oc2ccc(F)cc2c(=O)c1[C@@H]1[NH2+][C@H](C(=O)OCCOC(=O)c2ccc(-c3c4nc(c(-c5c(F)cccc5F)c5ccc([nH]5)c(-c5c(F)cccc5F)c5nc(c(-c6c(F)cccc6F)c6ccc3[nH]6)C=C5)C=C4)cc2)CS1
REMARK SMILES IDX 20 1 19 2 17 3 18 4 16 5 14 6 15 7 80 8 79 11 13 12 2 13
REMARK SMILES IDX 3 14 4 15 11 16 5 17 10 18 12 19 6 20 9 21 7 22 8 23 1 24
REMARK SMILES IDX 21 27 22 28 23 29 24 30 25 31 26 32 78 33 27 34 77 35 28 36
REMARK SMILES IDX 29 37 30 38 71 39 31 40 76 41 70 42 72 43 32 44 75 45 69 46
REMARK SMILES IDX 68 47 33 49 59 50 42 51 58 52 43 53 46 54 57 55 73 56 44 57
REMARK SMILES IDX 45 58 56 60 74 61 47 62 34 63 35 64 40 65 36 66 37 67 39 68
REMARK SMILES IDX 41 69 38 70 60 71 61 72 66 73 62 74 63 75 65 76 67 77 64 78
REMARK SMILES IDX 48 79 49 80 54 81 50 82 51 83 53 84 55 85 52 86
REMARK H PARENT 15 9 15 10 1 25 1 26 72 48 46 59
REMARK Flexibility Score: inf
ROOT
ATOM      1  C   UNL     1      -1.804  -0.344   0.887  1.00  0.00     0.274 C 
ENDROOT
BRANCH   1   2
ATOM      2  O   UNL     1      -0.566  -1.064   0.742  1.00  0.00    -0.458 OA
BRANCH   2   3
ATOM      3  C   UNL     1       0.538  -0.563   1.358  1.00  0.00     0.365 C 
ATOM      4  O   UNL     1       0.547   0.460   2.039  1.00  0.00    -0.245 OA
BRANCH   3   5
ATOM      5  C   UNL     1       1.773  -1.473   1.228  1.00  0.00     0.304 C 
ATOM      6  C   UNL     1       2.169  -2.011  -1.078  1.00  0.00     0.283 C 
ATOM      7  N   UNL     1       1.670  -2.530   0.198  1.00  0.00    -0.319 N 
ATOM      8  S   UNL     1       3.552  -0.905  -0.687  1.00  0.00    -0.087 SA
ATOM      9  H   UNL     1       2.227  -3.336   0.479  1.00  0.00     0.348 HD
ATOM     10  H   UNL     1       0.695  -2.812   0.094  1.00  0.00     0.348 HD
ATOM     11  C   UNL     1       3.057  -0.672   1.039  1.00  0.00     0.153 C 
BRANCH   6  12
ATOM     12  C   UNL     1       1.065  -1.425  -1.923  1.00  0.00     0.128 A 
ATOM     13  C   UNL     1       0.654  -0.141  -2.041  1.00  0.00     0.205 A 
ATOM     14  O   UNL     1      -0.449   0.251  -2.781  1.00  0.00    -0.440 OA
ATOM     15  C   UNL     1      -1.126  -0.669  -3.525  1.00  0.00     0.140 A 
ATOM     16  C   UNL     1       0.345  -2.457  -2.727  1.00  0.00     0.205 A 
ATOM     17  C   UNL     1      -2.192  -0.203  -4.295  1.00  0.00     0.051 A 
ATOM     18  C   UNL     1      -0.776  -2.010  -3.556  1.00  0.00     0.068 A 
ATOM     19  O   UNL     1       0.679  -3.637  -2.747  1.00  0.00    -0.288 OA
ATOM     20  C   UNL     1      -2.885  -1.087  -5.121  1.00  0.00     0.043 A 
ATOM     21  C   UNL     1      -1.466  -2.904  -4.379  1.00  0.00     0.055 A 
ATOM     22  C   UNL     1      -2.510  -2.428  -5.161  1.00  0.00     0.124 A 
ATOM     23  F   UNL     1      -3.164  -3.268  -5.973  1.00  0.00    -0.207 F 
BRANCH  13  24
ATOM     24  N   UNL     1       1.238   0.929  -1.427  1.00  0.00    -0.369 N 
ATOM     25  H   UNL     1       0.875   1.833  -1.566  1.00  0.00     0.159 HD
ATOM     26  H   UNL     1       2.021   0.796  -0.846  1.00  0.00     0.159 HD
ENDBRANCH  13  24
ENDBRANCH   6  12
ENDBRANCH   3   5
ENDBRANCH   2   3
ENDBRANCH   1   2
BRANCH   1  27
ATOM     27  C   UNL     1      -2.820  -1.193   1.653  1.00  0.00     0.275 C 
BRANCH  27  28
ATOM     28  O   UNL     1      -2.465  -1.272   3.045  1.00  0.00    -0.458 OA
BRANCH  28  29
ATOM     29  C   UNL     1      -1.635  -2.290   3.368  1.00  0.00     0.338 C 
ATOM     30  O   UNL     1      -1.238  -3.193   2.655  1.00  0.00    -0.246 OA
BRANCH  29  31
ATOM     31  C   UNL     1      -1.109  -2.048   4.717  1.00  0.00     0.060 A 
ATOM     32  C   UNL     1      -1.941  -2.059   5.834  1.00  0.00     0.016 A 
ATOM     33  C   UNL     1       0.266  -1.844   4.850  1.00  0.00     0.016 A 
ATOM     34  C   UNL     1      -1.379  -1.852   7.095  1.00  0.00     0.010 A 
ATOM     35  C   UNL     1       0.828  -1.651   6.103  1.00  0.00     0.010 A 
ATOM     36  C   UNL     1       0.006  -1.647   7.233  1.00  0.00    -0.014 A 
BRANCH  36  37
ATOM     37  C   UNL     1       0.614  -1.484   8.568  1.00  0.00     0.031 A 
ATOM     38  C   UNL     1       1.123  -0.148   9.019  1.00  0.00     0.074 A 
ATOM     39  C   UNL     1       0.744  -2.571   9.348  1.00  0.00     0.049 A 
ATOM     40  N   UNL     1       1.587   0.201  10.190  1.00  0.00    -0.248 NA
ATOM     41  C   UNL     1       1.133   0.931   8.019  1.00  0.00     0.031 C 
ATOM     42  C   UNL     1       0.375  -3.935   8.960  1.00  0.00     0.029 A 
ATOM     43  N   UNL     1       1.213  -2.701  10.627  1.00  0.00    -0.354 N 
ATOM     44  C   UNL     1       1.929   1.542  10.075  1.00  0.00     0.074 A 
ATOM     45  C   UNL     1       1.680   1.926   8.703  1.00  0.00     0.031 C 
ATOM     46  C   UNL     1       0.591  -4.758   9.998  1.00  0.00     0.029 A 
ATOM     47  C   UNL     1       1.117  -3.980  11.115  1.00  0.00     0.049 A 
ATOM     48  H   UNL     1       1.583  -1.951  11.146  1.00  0.00     0.167 HD
ATOM     49  C   UNL     1       2.383   2.378  11.039  1.00  0.00     0.037 A 
ATOM     50  C   UNL     1       1.395  -4.459  12.340  1.00  0.00     0.037 A 
ATOM     51  C   UNL     1       2.629   1.976  12.399  1.00  0.00     0.049 A 
ATOM     52  C   UNL     1       1.864  -3.505  13.399  1.00  0.00     0.074 A 
ATOM     53  C   UNL     1       3.029   2.750  13.474  1.00  0.00     0.029 A 
ATOM     54  N   UNL     1       2.506   0.675  12.867  1.00  0.00    -0.354 N 
ATOM     55  N   UNL     1       2.073  -2.213  13.315  1.00  0.00    -0.248 NA
ATOM     56  C   UNL     1       2.118  -4.073  14.729  1.00  0.00     0.031 C 
ATOM     57  C   UNL     1       3.178   1.910  14.585  1.00  0.00     0.029 A 
ATOM     58  C   UNL     1       2.837   0.620  14.210  1.00  0.00     0.049 A 
ATOM     59  H   UNL     1       2.224  -0.096  12.323  1.00  0.00     0.167 HD
ATOM     60  C   UNL     1       2.464  -1.809  14.583  1.00  0.00     0.074 A 
ATOM     61  C   UNL     1       2.442  -2.991  15.422  1.00  0.00     0.031 C 
ATOM     62  C   UNL     1       2.814  -0.573  15.017  1.00  0.00     0.037 A 
BRANCH  49  63
ATOM     63  C   UNL     1       2.619   3.809  10.652  1.00  0.00     0.057 A 
ATOM     64  C   UNL     1       3.915   4.333  10.577  1.00  0.00     0.134 A 
ATOM     65  C   UNL     1       1.555   4.676  10.368  1.00  0.00     0.134 A 
ATOM     66  F   UNL     1       4.980   3.560  10.840  1.00  0.00    -0.206 F 
ATOM     67  C   UNL     1       4.144   5.666  10.230  1.00  0.00     0.040 A 
ATOM     68  C   UNL     1       1.772   6.004   9.996  1.00  0.00     0.040 A 
ATOM     69  F   UNL     1       0.289   4.234  10.410  1.00  0.00    -0.206 F 
ATOM     70  C   UNL     1       3.071   6.504   9.931  1.00  0.00     0.006 A 
ENDBRANCH  49  63
BRANCH  50  71
ATOM     71  C   UNL     1       1.163  -5.891  12.644  1.00  0.00     0.057 A 
ATOM     72  C   UNL     1       1.992  -6.893  12.128  1.00  0.00     0.134 A 
ATOM     73  C   UNL     1       0.093  -6.289  13.453  1.00  0.00     0.134 A 
ATOM     74  F   UNL     1       3.026  -6.575  11.336  1.00  0.00    -0.206 F 
ATOM     75  C   UNL     1       1.766  -8.242  12.407  1.00  0.00     0.040 A 
ATOM     76  C   UNL     1      -0.134  -7.631  13.757  1.00  0.00     0.040 A 
ATOM     77  F   UNL     1      -0.730  -5.371  13.983  1.00  0.00    -0.206 F 
ATOM     78  C   UNL     1       0.703  -8.613  13.229  1.00  0.00     0.006 A 
ENDBRANCH  50  71
BRANCH  62  79
ATOM     79  C   UNL     1       3.186  -0.452  16.463  1.00  0.00     0.057 A 
ATOM     80  C   UNL     1       2.319   0.162  17.375  1.00  0.00     0.134 A 
ATOM     81  C   UNL     1       4.404  -0.942  16.951  1.00  0.00     0.134 A 
ATOM     82  F   UNL     1       1.140   0.655  16.969  1.00  0.00    -0.206 F 
ATOM     83  C   UNL     1       2.650   0.280  18.725  1.00  0.00     0.040 A 
ATOM     84  C   UNL     1       4.735  -0.850  18.303  1.00  0.00     0.040 A 
ATOM     85  F   UNL     1       5.268  -1.555  16.128  1.00  0.00    -0.206 F 
ATOM     86  C   UNL     1       3.857  -0.234  19.194  1.00  0.00     0.006 A 
ENDBRANCH  62  79
ENDBRANCH  36  37
ENDBRANCH  29  31
ENDBRANCH  28  29
ENDBRANCH  27  28
ENDBRANCH   1  27
TORSDOF 13
