REMARK SMILES Cc1cccc(S(=O)(=O)Nc2cc(C(=O)OCCOC(=O)c3ccc(-c4c5nc(c(-c6c(F)cccc6F)c6ccc([nH]6)c(-c6c(F)cccc6F)c6nc(c(-c7c(F)cccc7F)c7ccc4[nH]7)C=C6)C=C5)cc3)ccc2N2CCC[C@H](C[NH+]3CCCC3)C2)c1
REMARK SMILES IDX 17 1 16 2 14 3 15 4 13 5 11 6 12 7 78 8 77 9 76 10 10 11
REMARK SMILES IDX 7 13 8 14 9 15 6 16 1 17 2 18 3 19 91 20 4 21 5 22 79 23
REMARK SMILES IDX 80 24 90 25 81 26 83 27 82 28 84 29 85 30 86 31 89 32 87 34
REMARK SMILES IDX 88 35 18 36 19 37 20 38 21 39 22 40 23 41 75 42 24 43 74 44
REMARK SMILES IDX 25 45 26 46 27 47 68 48 28 49 73 50 67 51 69 52 29 53 72 54
REMARK SMILES IDX 66 55 65 56 30 58 56 59 39 60 55 61 40 62 43 63 54 64 70 65
REMARK SMILES IDX 41 66 42 67 53 69 71 70 44 71 31 72 32 73 37 74 33 75 34 76
REMARK SMILES IDX 36 77 38 78 35 79 57 80 58 81 63 82 59 83 60 84 62 85 64 86
REMARK SMILES IDX 61 87 45 88 46 89 51 90 47 91 48 92 50 93 52 94 49 95
REMARK H PARENT 10 12 85 33 69 57 43 68
REMARK Flexibility Score: inf
ROOT
ATOM      1  C   UNL     1       2.442   1.669  -4.839  1.00  0.00     0.275 C 
ENDROOT
BRANCH   1   2
ATOM      2  O   UNL     1       2.212   2.872  -4.091  1.00  0.00    -0.458 OA
BRANCH   2   3
ATOM      3  C   UNL     1       1.690   2.598  -2.881  1.00  0.00     0.338 C 
ATOM      4  O   UNL     1       1.462   1.482  -2.439  1.00  0.00    -0.246 OA
BRANCH   3   5
ATOM      5  C   UNL     1       1.341   3.744  -2.044  1.00  0.00     0.062 A 
ATOM      6  C   UNL     1      -0.218   4.132  -0.216  1.00  0.00     0.073 A 
ATOM      7  C   UNL     1       0.071   3.630  -1.483  1.00  0.00     0.044 A 
ATOM      8  C   UNL     1       0.746   4.965   0.429  1.00  0.00     0.061 A 
ATOM      9  C   UNL     1       1.993   5.149  -0.239  1.00  0.00     0.029 A 
ATOM     10  C   UNL     1       2.309   4.531  -1.451  1.00  0.00     0.018 A 
BRANCH   6  11
ATOM     11  N   UNL     1      -1.340   3.562   0.486  1.00  0.00    -0.277 N 
ATOM     12  H   UNL     1      -1.323   3.610   1.469  1.00  0.00     0.180 HD
BRANCH  11  13
ATOM     13  S   UNL     1      -2.678   2.822  -0.220  1.00  0.00     0.261 S 
ATOM     14  O   UNL     1      -3.015   3.530  -1.437  1.00  0.00    -0.201 OA
ATOM     15  O   UNL     1      -3.633   2.742   0.869  1.00  0.00    -0.201 OA
BRANCH  13  16
ATOM     16  C   UNL     1      -2.333   1.125  -0.679  1.00  0.00     0.088 A 
ATOM     17  C   UNL     1       0.446  -1.233  -1.825  1.00  0.00     0.044 C 
ATOM     18  C   UNL     1      -0.897  -0.685  -1.445  1.00  0.00    -0.050 A 
ATOM     19  C   UNL     1      -2.017  -1.470  -1.717  1.00  0.00     0.003 A 
ATOM     20  C   UNL     1      -1.057   0.599  -0.877  1.00  0.00     0.025 A 
ATOM     21  C   UNL     1      -3.288  -0.974  -1.461  1.00  0.00     0.002 A 
ATOM     22  C   UNL     1      -3.447   0.321  -0.961  1.00  0.00     0.022 A 
ENDBRANCH  13  16
ENDBRANCH  11  13
ENDBRANCH   6  11
BRANCH   8  23
ATOM     23  N   UNL     1       0.614   5.620   1.664  1.00  0.00    -0.369 N 
ATOM     24  C   UNL     1       0.836   7.081   1.632  1.00  0.00     0.116 C 
ATOM     25  C   UNL     1      -0.199   5.131   2.779  1.00  0.00     0.126 C 
ATOM     26  C   UNL     1       1.433   7.552   2.953  1.00  0.00     0.022 C 
ATOM     27  C   UNL     1       0.325   5.619   4.152  1.00  0.00     0.064 C 
ATOM     28  C   UNL     1       0.534   7.139   4.110  1.00  0.00     0.013 C 
BRANCH  27  29
ATOM     29  C   UNL     1       1.563   4.785   4.575  1.00  0.00     0.267 C 
BRANCH  29  30
ATOM     30  N   UNL     1       2.050   4.840   5.958  1.00  0.00    -0.335 N 
ATOM     31  C   UNL     1       1.066   4.540   6.995  1.00  0.00     0.262 C 
ATOM     32  C   UNL     1       2.764   6.049   6.356  1.00  0.00     0.262 C 
ATOM     33  H   UNL     1       2.723   4.076   5.905  1.00  0.00     0.348 HD
ATOM     34  C   UNL     1       0.671   5.886   7.567  1.00  0.00     0.067 C 
ATOM     35  C   UNL     1       1.939   6.713   7.456  1.00  0.00     0.067 C 
ENDBRANCH  29  30
ENDBRANCH  27  29
ENDBRANCH   8  23
ENDBRANCH   3   5
ENDBRANCH   2   3
ENDBRANCH   1   2
BRANCH   1  36
ATOM     36  C   UNL     1       3.815   1.655  -5.497  1.00  0.00     0.275 C 
BRANCH  36  37
ATOM     37  O   UNL     1       4.905   2.357  -4.831  1.00  0.00    -0.458 OA
BRANCH  37  38
ATOM     38  C   UNL     1       5.187   2.530  -3.518  1.00  0.00     0.338 C 
ATOM     39  O   UNL     1       5.824   3.508  -3.135  1.00  0.00    -0.246 OA
BRANCH  38  40
ATOM     40  C   UNL     1       4.749   1.532  -2.520  1.00  0.00     0.060 A 
ATOM     41  C   UNL     1       4.551   1.916  -1.173  1.00  0.00     0.016 A 
ATOM     42  C   UNL     1       4.527   0.220  -2.896  1.00  0.00     0.016 A 
ATOM     43  C   UNL     1       4.051   1.011  -0.223  1.00  0.00     0.010 A 
ATOM     44  C   UNL     1       3.936  -0.635  -1.993  1.00  0.00     0.010 A 
ATOM     45  C   UNL     1       3.739  -0.276  -0.638  1.00  0.00    -0.014 A 
BRANCH  45  46
ATOM     46  C   UNL     1       3.413  -1.425   0.221  1.00  0.00     0.031 A 
ATOM     47  C   UNL     1       2.110  -1.685   0.881  1.00  0.00     0.074 A 
ATOM     48  C   UNL     1       4.337  -2.409   0.091  1.00  0.00     0.049 A 
ATOM     49  N   UNL     1       1.691  -2.889   1.074  1.00  0.00    -0.248 NA
ATOM     50  C   UNL     1       1.129  -0.691   1.330  1.00  0.00     0.031 C 
ATOM     51  C   UNL     1       4.281  -3.833   0.372  1.00  0.00     0.029 A 
ATOM     52  N   UNL     1       5.694  -2.191  -0.199  1.00  0.00    -0.354 N 
ATOM     53  C   UNL     1       0.418  -2.856   1.587  1.00  0.00     0.074 A 
ATOM     54  C   UNL     1       0.070  -1.462   1.658  1.00  0.00     0.031 C 
ATOM     55  C   UNL     1       5.532  -4.266   0.617  1.00  0.00     0.029 A 
ATOM     56  C   UNL     1       6.382  -3.083   0.636  1.00  0.00     0.049 A 
ATOM     57  H   UNL     1       6.077  -1.554  -0.844  1.00  0.00     0.167 HD
ATOM     58  C   UNL     1      -0.137  -4.048   1.936  1.00  0.00     0.037 A 
ATOM     59  C   UNL     1       6.989  -2.559   1.743  1.00  0.00     0.037 A 
ATOM     60  C   UNL     1       0.939  -4.909   2.402  1.00  0.00     0.049 A 
ATOM     61  C   UNL     1       6.354  -3.079   3.014  1.00  0.00     0.074 A 
ATOM     62  C   UNL     1       1.687  -5.941   1.872  1.00  0.00     0.029 A 
ATOM     63  N   UNL     1       1.608  -4.468   3.535  1.00  0.00    -0.354 N 
ATOM     64  N   UNL     1       5.109  -3.469   3.115  1.00  0.00    -0.248 NA
ATOM     65  C   UNL     1       7.109  -3.299   4.240  1.00  0.00     0.031 C 
ATOM     66  C   UNL     1       2.898  -6.008   2.627  1.00  0.00     0.029 A 
ATOM     67  C   UNL     1       2.851  -5.043   3.623  1.00  0.00     0.049 A 
ATOM     68  H   UNL     1       1.240  -3.828   4.187  1.00  0.00     0.167 HD
ATOM     69  C   UNL     1       4.913  -4.053   4.339  1.00  0.00     0.074 A 
ATOM     70  C   UNL     1       6.189  -3.900   5.013  1.00  0.00     0.031 C 
ATOM     71  C   UNL     1       3.738  -4.647   4.705  1.00  0.00     0.037 A 
BRANCH  58  72
ATOM     72  C   UNL     1      -1.570  -4.492   1.830  1.00  0.00     0.057 A 
ATOM     73  C   UNL     1      -1.896  -5.860   1.982  1.00  0.00     0.134 A 
ATOM     74  C   UNL     1      -2.632  -3.687   1.394  1.00  0.00     0.134 A 
ATOM     75  F   UNL     1      -0.993  -6.755   2.409  1.00  0.00    -0.206 F 
ATOM     76  C   UNL     1      -3.154  -6.391   1.665  1.00  0.00     0.040 A 
ATOM     77  C   UNL     1      -3.900  -4.206   1.077  1.00  0.00     0.040 A 
ATOM     78  F   UNL     1      -2.487  -2.367   1.241  1.00  0.00    -0.206 F 
ATOM     79  C   UNL     1      -4.160  -5.565   1.194  1.00  0.00     0.006 A 
ENDBRANCH  58  72
BRANCH  59  80
ATOM     80  C   UNL     1       7.532  -1.179   1.490  1.00  0.00     0.057 A 
ATOM     81  C   UNL     1       8.412  -1.010   0.395  1.00  0.00     0.134 A 
ATOM     82  C   UNL     1       6.954  -0.013   2.000  1.00  0.00     0.134 A 
ATOM     83  F   UNL     1       9.002  -2.080  -0.164  1.00  0.00    -0.206 F 
ATOM     84  C   UNL     1       8.601   0.224  -0.238  1.00  0.00     0.040 A 
ATOM     85  C   UNL     1       7.168   1.239   1.394  1.00  0.00     0.040 A 
ATOM     86  F   UNL     1       6.095  -0.067   3.028  1.00  0.00    -0.206 F 
ATOM     87  C   UNL     1       7.957   1.353   0.249  1.00  0.00     0.006 A 
ENDBRANCH  59  80
BRANCH  71  88
ATOM     88  C   UNL     1       3.315  -4.935   6.130  1.00  0.00     0.057 A 
ATOM     89  C   UNL     1       3.822  -4.253   7.246  1.00  0.00     0.134 A 
ATOM     90  C   UNL     1       2.220  -5.789   6.403  1.00  0.00     0.134 A 
ATOM     91  F   UNL     1       4.762  -3.307   7.128  1.00  0.00    -0.206 F 
ATOM     92  C   UNL     1       3.334  -4.461   8.541  1.00  0.00     0.040 A 
ATOM     93  C   UNL     1       1.679  -5.949   7.682  1.00  0.00     0.040 A 
ATOM     94  F   UNL     1       1.595  -6.476   5.435  1.00  0.00    -0.206 F 
ATOM     95  C   UNL     1       2.251  -5.299   8.762  1.00  0.00     0.006 A 
ENDBRANCH  71  88
ENDBRANCH  45  46
ENDBRANCH  38  40
ENDBRANCH  37  38
ENDBRANCH  36  37
ENDBRANCH   1  36
TORSDOF 17
