REMARK SMILES CCCSc1nc2n(n1)[C@@H](c1ccccc1C(=O)OCCOC(=O)c1ccc(-c3c4nc(c(-c5c(F)cccc5F)c5ccc([nH]5)c(-c5c(F)cccc5F)c5nc(c(-c6c(F)cccc6F)c6ccc3[nH]6)C=C5)C=C4)cc1)C(C(=O)Nc1cccc(C)c1C)=C(C)N2
REMARK SMILES IDX 20 1 19 2 17 3 18 4 16 5 11 6 12 7 13 8 15 9 14 10 10 11
REMARK SMILES IDX 5 12 6 13 9 14 7 15 8 16 93 17 91 18 79 20 92 21 4 22 3 23
REMARK SMILES IDX 2 24 1 25 80 26 81 27 82 28 83 30 84 31 89 32 85 33 87 34
REMARK SMILES IDX 90 35 86 36 88 37 21 38 22 39 23 40 24 41 25 42 26 43 78 44
REMARK SMILES IDX 27 45 77 46 28 47 29 48 30 49 71 50 31 51 76 52 70 53 72 54
REMARK SMILES IDX 32 55 75 56 69 57 68 58 33 60 59 61 42 62 58 63 43 64 46 65
REMARK SMILES IDX 57 66 73 67 44 68 45 69 56 71 74 72 47 73 34 74 35 75 40 76
REMARK SMILES IDX 36 77 37 78 39 79 41 80 38 81 60 82 61 83 66 84 62 85 63 86
REMARK SMILES IDX 65 87 67 88 64 89 48 90 49 91 54 92 50 93 51 94 53 95 55 96
REMARK SMILES IDX 52 97
REMARK H PARENT 93 19 82 29 72 59 46 70
REMARK Flexibility Score: inf
ROOT
ATOM      1  C   UNL     1       1.788  -5.764  -3.261  1.00  0.00     0.275 C 
ENDROOT
BRANCH   1   2
ATOM      2  O   UNL     1       0.854  -4.683  -3.451  1.00  0.00    -0.458 OA
BRANCH   2   3
ATOM      3  C   UNL     1      -0.251  -4.893  -4.210  1.00  0.00     0.338 C 
ATOM      4  O   UNL     1      -0.579  -5.970  -4.692  1.00  0.00    -0.246 OA
BRANCH   3   5
ATOM      5  C   UNL     1      -1.041  -3.630  -4.368  1.00  0.00     0.065 A 
ATOM      6  C   UNL     1      -0.486  -2.324  -4.328  1.00  0.00    -0.004 A 
ATOM      7  C   UNL     1      -1.363  -1.241  -4.598  1.00  0.00     0.007 A 
ATOM      8  C   UNL     1      -2.714  -1.431  -4.891  1.00  0.00     0.000 A 
ATOM      9  C   UNL     1      -2.404  -3.805  -4.691  1.00  0.00     0.016 A 
ATOM     10  C   UNL     1      -3.234  -2.714  -4.949  1.00  0.00     0.001 A 
BRANCH   6  11
ATOM     11  C   UNL     1       1.029  -2.067  -4.157  1.00  0.00     0.180 C 
ATOM     12  C   UNL     1       1.085   1.092  -2.630  1.00  0.00     0.210 A 
ATOM     13  N   UNL     1       1.824   1.418  -3.741  1.00  0.00    -0.185 NA
ATOM     14  N   UNL     1       0.788  -0.206  -2.505  1.00  0.00    -0.141 NA
ATOM     15  C   UNL     1       1.917   0.279  -4.377  1.00  0.00     0.227 A 
ATOM     16  N   UNL     1       1.288  -0.698  -3.656  1.00  0.00    -0.218 N 
ATOM     17  N   UNL     1       2.416  -0.020  -5.589  1.00  0.00    -0.328 N 
ATOM     18  C   UNL     1       2.336  -1.283  -6.160  1.00  0.00     0.026 C 
ATOM     19  H   UNL     1       2.862   0.694  -6.099  1.00  0.00     0.169 HD
ATOM     20  C   UNL     1       1.790  -2.308  -5.467  1.00  0.00     0.065 C 
ATOM     21  C   UNL     1       2.816  -1.394  -7.582  1.00  0.00     0.065 C 
BRANCH  12  22
ATOM     22  S   UNL     1       0.297   2.299  -1.653  1.00  0.00    -0.084 SA
BRANCH  22  23
ATOM     23  C   UNL     1       1.174   2.177  -0.077  1.00  0.00     0.078 C 
BRANCH  23  24
ATOM     24  C   UNL     1       0.604   1.148   0.901  1.00  0.00     0.008 C 
ATOM     25  C   UNL     1       1.071  -0.278   0.657  1.00  0.00     0.005 C 
ENDBRANCH  23  24
ENDBRANCH  22  23
ENDBRANCH  12  22
BRANCH  20  26
ATOM     26  C   UNL     1       1.754  -3.671  -6.047  1.00  0.00     0.255 C 
ATOM     27  O   UNL     1       0.775  -4.042  -6.691  1.00  0.00    -0.269 OA
ATOM     28  N   UNL     1       2.801  -4.547  -5.846  1.00  0.00    -0.322 N 
ATOM     29  H   UNL     1       2.635  -5.412  -5.407  1.00  0.00     0.170 HD
BRANCH  28  30
ATOM     30  C   UNL     1       4.105  -4.214  -6.264  1.00  0.00     0.044 A 
ATOM     31  C   UNL     1       4.441  -4.668  -7.547  1.00  0.00     0.026 A 
ATOM     32  C   UNL     1       4.931  -3.317  -5.570  1.00  0.00    -0.025 A 
ATOM     33  C   UNL     1       5.493  -4.082  -8.231  1.00  0.00     0.002 A 
ATOM     34  C   UNL     1       5.945  -2.665  -6.300  1.00  0.00    -0.046 A 
ATOM     35  C   UNL     1       4.763  -3.062  -4.098  1.00  0.00     0.047 C 
ATOM     36  C   UNL     1       6.206  -3.050  -7.629  1.00  0.00     0.004 A 
ATOM     37  C   UNL     1       6.673  -1.460  -5.768  1.00  0.00     0.044 C 
ENDBRANCH  28  30
ENDBRANCH  20  26
ENDBRANCH   6  11
ENDBRANCH   3   5
ENDBRANCH   2   3
ENDBRANCH   1   2
BRANCH   1  38
ATOM     38  C   UNL     1       1.567  -6.494  -1.955  1.00  0.00     0.275 C 
BRANCH  38  39
ATOM     39  O   UNL     1       0.374  -7.239  -2.077  1.00  0.00    -0.458 OA
BRANCH  39  40
ATOM     40  C   UNL     1      -0.749  -6.520  -1.865  1.00  0.00     0.338 C 
ATOM     41  O   UNL     1      -0.838  -5.374  -1.460  1.00  0.00    -0.246 OA
BRANCH  40  42
ATOM     42  C   UNL     1      -1.892  -7.402  -2.079  1.00  0.00     0.060 A 
ATOM     43  C   UNL     1      -3.135  -6.824  -1.818  1.00  0.00     0.016 A 
ATOM     44  C   UNL     1      -1.645  -8.776  -1.995  1.00  0.00     0.016 A 
ATOM     45  C   UNL     1      -4.035  -7.581  -1.121  1.00  0.00     0.010 A 
ATOM     46  C   UNL     1      -2.511  -9.510  -1.247  1.00  0.00     0.010 A 
ATOM     47  C   UNL     1      -3.642  -8.868  -0.746  1.00  0.00    -0.014 A 
BRANCH  47  48
ATOM     48  C   UNL     1      -4.529  -9.638   0.082  1.00  0.00     0.031 A 
ATOM     49  C   UNL     1      -5.668 -10.137  -0.715  1.00  0.00     0.074 A 
ATOM     50  C   UNL     1      -4.179  -9.959   1.341  1.00  0.00     0.049 A 
ATOM     51  N   UNL     1      -6.916  -9.842  -0.581  1.00  0.00    -0.248 NA
ATOM     52  C   UNL     1      -5.354 -10.860  -1.966  1.00  0.00     0.031 C 
ATOM     53  C   UNL     1      -2.900  -9.691   2.011  1.00  0.00     0.029 A 
ATOM     54  N   UNL     1      -4.840 -10.726   2.244  1.00  0.00    -0.354 N 
ATOM     55  C   UNL     1      -7.556 -10.570  -1.577  1.00  0.00     0.074 A 
ATOM     56  C   UNL     1      -6.555 -10.939  -2.535  1.00  0.00     0.031 C 
ATOM     57  C   UNL     1      -2.793 -10.488   3.098  1.00  0.00     0.029 A 
ATOM     58  C   UNL     1      -4.032 -11.226   3.260  1.00  0.00     0.049 A 
ATOM     59  H   UNL     1      -5.805 -10.912   2.185  1.00  0.00     0.167 HD
ATOM     60  C   UNL     1      -8.766 -11.133  -1.331  1.00  0.00     0.037 A 
ATOM     61  C   UNL     1      -4.356 -12.259   4.076  1.00  0.00     0.037 A 
ATOM     62  C   UNL     1      -9.424 -10.472  -0.231  1.00  0.00     0.049 A 
ATOM     63  C   UNL     1      -5.825 -12.465   3.962  1.00  0.00     0.074 A 
ATOM     64  C   UNL     1      -9.822  -9.175   0.023  1.00  0.00     0.029 A 
ATOM     65  N   UNL     1      -9.391 -11.107   0.985  1.00  0.00    -0.354 N 
ATOM     66  N   UNL     1      -6.717 -11.620   4.399  1.00  0.00    -0.248 NA
ATOM     67  C   UNL     1      -6.299 -13.393   2.946  1.00  0.00     0.031 C 
ATOM     68  C   UNL     1      -9.595  -8.978   1.417  1.00  0.00     0.029 A 
ATOM     69  C   UNL     1      -9.134 -10.179   1.959  1.00  0.00     0.049 A 
ATOM     70  H   UNL     1      -9.529 -12.071   1.133  1.00  0.00     0.167 HD
ATOM     71  C   UNL     1      -7.704 -11.608   3.421  1.00  0.00     0.074 A 
ATOM     72  C   UNL     1      -7.441 -12.791   2.606  1.00  0.00     0.031 C 
ATOM     73  C   UNL     1      -8.447 -10.483   3.195  1.00  0.00     0.037 A 
BRANCH  60  74
ATOM     74  C   UNL     1      -9.107 -12.540  -1.761  1.00  0.00     0.057 A 
ATOM     75  C   UNL     1     -10.422 -12.993  -1.580  1.00  0.00     0.134 A 
ATOM     76  C   UNL     1      -8.162 -13.551  -2.059  1.00  0.00     0.134 A 
ATOM     77  F   UNL     1     -11.406 -12.135  -1.273  1.00  0.00    -0.206 F 
ATOM     78  C   UNL     1     -10.757 -14.352  -1.615  1.00  0.00     0.040 A 
ATOM     79  C   UNL     1      -8.497 -14.902  -2.152  1.00  0.00     0.040 A 
ATOM     80  F   UNL     1      -6.851 -13.316  -2.175  1.00  0.00    -0.206 F 
ATOM     81  C   UNL     1      -9.792 -15.312  -1.896  1.00  0.00     0.006 A 
ENDBRANCH  60  74
BRANCH  61  82
ATOM     82  C   UNL     1      -3.464 -13.297   4.645  1.00  0.00     0.057 A 
ATOM     83  C   UNL     1      -3.904 -14.128   5.686  1.00  0.00     0.134 A 
ATOM     84  C   UNL     1      -2.273 -13.688   4.008  1.00  0.00     0.134 A 
ATOM     85  F   UNL     1      -5.051 -13.864   6.327  1.00  0.00    -0.206 F 
ATOM     86  C   UNL     1      -3.215 -15.292   6.053  1.00  0.00     0.040 A 
ATOM     87  C   UNL     1      -1.570 -14.841   4.371  1.00  0.00     0.040 A 
ATOM     88  F   UNL     1      -1.796 -13.016   2.950  1.00  0.00    -0.206 F 
ATOM     89  C   UNL     1      -2.050 -15.657   5.387  1.00  0.00     0.006 A 
ENDBRANCH  61  82
BRANCH  73  90
ATOM     90  C   UNL     1      -8.379  -9.389   4.228  1.00  0.00     0.057 A 
ATOM     91  C   UNL     1      -7.213  -8.689   4.578  1.00  0.00     0.134 A 
ATOM     92  C   UNL     1      -9.572  -8.954   4.816  1.00  0.00     0.134 A 
ATOM     93  F   UNL     1      -6.039  -8.958   3.991  1.00  0.00    -0.206 F 
ATOM     94  C   UNL     1      -7.227  -7.651   5.515  1.00  0.00     0.040 A 
ATOM     95  C   UNL     1      -9.607  -7.892   5.722  1.00  0.00     0.040 A 
ATOM     96  F   UNL     1     -10.738  -9.534   4.487  1.00  0.00    -0.206 F 
ATOM     97  C   UNL     1      -8.429  -7.248   6.088  1.00  0.00     0.006 A 
ENDBRANCH  73  90
ENDBRANCH  47  48
ENDBRANCH  40  42
ENDBRANCH  39  40
ENDBRANCH  38  39
ENDBRANCH   1  38
TORSDOF 17
