REMARK SMILES Cc1cccc(CNC(=O)N[C@@H](CC2=c3ccccc3=NC2)C(=O)OCCOC(=O)c2ccc(-c3c4nc(c(-c5c(F)cccc5F)c5ccc([nH]5)c(-c5c(F)cccc5F)c5nc(c(-c6c(F)cccc6F)c6ccc3[nH]6)C=C5)C=C4)cc2)c1
REMARK SMILES IDX 26 1 25 2 23 3 24 4 12 5 11 6 8 7 9 8 10 10 7 12 6 13 1 14
REMARK SMILES IDX 2 15 3 16 85 17 4 18 5 19 13 20 14 21 15 22 22 23 16 24
REMARK SMILES IDX 20 25 21 26 17 27 19 28 18 29 27 30 28 31 29 32 30 33 31 34
REMARK SMILES IDX 32 35 84 36 33 37 83 38 34 39 35 40 36 41 77 42 37 43 82 44
REMARK SMILES IDX 76 45 78 46 38 47 81 48 75 49 74 50 39 52 65 53 48 54 64 55
REMARK SMILES IDX 49 56 52 57 63 58 79 59 50 60 51 61 62 63 80 64 53 65 40 66
REMARK SMILES IDX 41 67 46 68 42 69 43 70 45 71 47 72 44 73 66 74 67 75 72 76
REMARK SMILES IDX 68 77 69 78 71 79 73 80 70 81 54 82 55 83 60 84 56 85 57 86
REMARK SMILES IDX 59 87 61 88 58 89
REMARK H PARENT 8 9 11 11 78 51 52 62
REMARK Flexibility Score: inf
ROOT
ATOM      1  C   UNL     1      -5.383  -1.267   4.089  1.00  0.00     0.274 C 
ENDROOT
BRANCH   1   2
ATOM      2  O   UNL     1      -5.370   0.161   3.888  1.00  0.00    -0.461 OA
BRANCH   2   3
ATOM      3  C   UNL     1      -4.270   0.730   3.102  1.00  0.00     0.329 C 
ATOM      4  O   UNL     1      -3.305  -0.059   3.363  1.00  0.00    -0.250 OA
BRANCH   3   5
ATOM      5  C   UNL     1      -4.490   2.370   1.673  1.00  0.00     0.198 C 
BRANCH   5   6
ATOM      6  N   UNL     1      -4.683   2.328   0.012  1.00  0.00    -0.324 N 
ATOM      7  N   UNL     1      -2.759   2.789  -1.339  1.00  0.00    -0.334 N 
ATOM      8  C   UNL     1      -4.056   2.611  -1.125  1.00  0.00     0.315 C 
ATOM      9  H   UNL     1      -2.601   3.055  -2.274  1.00  0.00     0.165 HD
ATOM     10  O   UNL     1      -4.787   2.709  -2.118  1.00  0.00    -0.249 OA
ATOM     11  H   UNL     1      -5.574   1.965  -0.197  1.00  0.00     0.166 HD
BRANCH   7  12
ATOM     12  C   UNL     1      -1.502   2.713  -0.619  1.00  0.00     0.153 C 
BRANCH  12  13
ATOM     13  C   UNL     1      -0.744   1.405  -0.792  1.00  0.00    -0.028 A 
ATOM     14  C   UNL     1       2.734   0.020   0.054  1.00  0.00     0.044 C 
ATOM     15  C   UNL     1       1.297   0.106  -0.375  1.00  0.00    -0.051 A 
ATOM     16  C   UNL     1       0.611  -1.068  -0.705  1.00  0.00     0.003 A 
ATOM     17  C   UNL     1       0.611   1.333  -0.409  1.00  0.00     0.009 A 
ATOM     18  C   UNL     1      -0.715  -1.010  -1.123  1.00  0.00     0.001 A 
ATOM     19  C   UNL     1      -1.375   0.218  -1.200  1.00  0.00     0.005 A 
ENDBRANCH  12  13
ENDBRANCH   7  12
ENDBRANCH   5   6
BRANCH   5  20
ATOM     20  C   UNL     1      -5.417   3.950   1.729  1.00  0.00     0.070 C 
BRANCH  20  21
ATOM     21  C   UNL     1      -6.925   4.211   1.877  1.00  0.00    -0.037 C 
ATOM     22  C   UNL     1      -8.035   3.476   1.742  1.00  0.00     0.001 A 
ATOM     23  C   UNL     1      -7.332   5.534   2.498  1.00  0.00     0.174 C 
ATOM     24  C   UNL     1      -8.430   2.241   1.146  1.00  0.00     0.010 A 
ATOM     25  C   UNL     1      -8.878   4.070   2.808  1.00  0.00     0.065 A 
ATOM     26  N   UNL     1      -8.588   5.263   3.222  1.00  0.00    -0.280 NA
ATOM     27  C   UNL     1      -9.374   1.490   1.741  1.00  0.00     0.001 A 
ATOM     28  C   UNL     1      -9.864   3.168   3.450  1.00  0.00     0.028 A 
ATOM     29  C   UNL     1     -10.013   1.923   2.969  1.00  0.00     0.002 A 
ENDBRANCH  20  21
ENDBRANCH   5  20
ENDBRANCH   3   5
ENDBRANCH   2   3
ENDBRANCH   1   2
BRANCH   1  30
ATOM     30  C   UNL     1      -5.826  -1.967   2.796  1.00  0.00     0.275 C 
BRANCH  30  31
ATOM     31  O   UNL     1      -4.823  -2.003   1.741  1.00  0.00    -0.458 OA
BRANCH  31  32
ATOM     32  C   UNL     1      -4.781  -1.116   0.708  1.00  0.00     0.338 C 
ATOM     33  O   UNL     1      -4.619  -1.426  -0.459  1.00  0.00    -0.246 OA
BRANCH  32  34
ATOM     34  C   UNL     1      -4.636   0.284   1.141  1.00  0.00     0.060 A 
ATOM     35  C   UNL     1      -2.971   0.886   1.477  1.00  0.00     0.016 A 
ATOM     36  C   UNL     1      -6.015   1.022   1.998  1.00  0.00     0.016 A 
ATOM     37  C   UNL     1      -2.663   2.055   2.828  1.00  0.00     0.010 A 
ATOM     38  C   UNL     1      -5.716   2.203   3.342  1.00  0.00     0.010 A 
ATOM     39  C   UNL     1      -4.036   2.669   3.774  1.00  0.00    -0.014 A 
BRANCH  39  40
ATOM     40  C   UNL     1      -3.990   2.933   5.215  1.00  0.00     0.031 A 
ATOM     41  C   UNL     1      -4.743   4.093   5.703  1.00  0.00     0.074 A 
ATOM     42  C   UNL     1      -3.698   1.887   6.017  1.00  0.00     0.049 A 
ATOM     43  N   UNL     1      -5.700   4.044   6.566  1.00  0.00    -0.248 NA
ATOM     44  C   UNL     1      -4.487   5.420   5.137  1.00  0.00     0.031 C 
ATOM     45  C   UNL     1      -4.107   1.640   7.393  1.00  0.00     0.029 A 
ATOM     46  N   UNL     1      -2.851   0.831   5.760  1.00  0.00    -0.354 N 
ATOM     47  C   UNL     1      -6.089   5.343   6.795  1.00  0.00     0.074 A 
ATOM     48  C   UNL     1      -5.389   6.149   5.797  1.00  0.00     0.031 C 
ATOM     49  C   UNL     1      -3.328   0.676   7.919  1.00  0.00     0.029 A 
ATOM     50  C   UNL     1      -2.314   0.328   6.935  1.00  0.00     0.049 A 
ATOM     51  H   UNL     1      -2.653   0.480   4.861  1.00  0.00     0.167 HD
ATOM     52  C   UNL     1      -6.194   5.822   8.062  1.00  0.00     0.037 A 
ATOM     53  C   UNL     1      -0.968   0.474   7.107  1.00  0.00     0.037 A 
ATOM     54  C   UNL     1      -5.310   5.134   8.981  1.00  0.00     0.049 A 
ATOM     55  C   UNL     1      -0.685   1.672   7.990  1.00  0.00     0.074 A 
ATOM     56  C   UNL     1      -5.437   4.028   9.800  1.00  0.00     0.029 A 
ATOM     57  N   UNL     1      -3.950   5.420   8.909  1.00  0.00    -0.354 N 
ATOM     58  N   UNL     1      -1.551   2.622   8.240  1.00  0.00    -0.248 NA
ATOM     59  C   UNL     1       0.558   1.846   8.731  1.00  0.00     0.031 C 
ATOM     60  C   UNL     1      -4.122   3.595  10.140  1.00  0.00     0.029 A 
ATOM     61  C   UNL     1      -3.201   4.463   9.568  1.00  0.00     0.049 A 
ATOM     62  H   UNL     1      -3.571   6.203   8.449  1.00  0.00     0.167 HD
ATOM     63  C   UNL     1      -1.041   3.481   9.169  1.00  0.00     0.074 A 
ATOM     64  C   UNL     1       0.283   2.951   9.446  1.00  0.00     0.031 C 
ATOM     65  C   UNL     1      -1.742   4.555   9.646  1.00  0.00     0.037 A 
BRANCH  52  66
ATOM     66  C   UNL     1      -7.414   6.644   8.368  1.00  0.00     0.057 A 
ATOM     67  C   UNL     1      -7.887   6.789   9.680  1.00  0.00     0.134 A 
ATOM     68  C   UNL     1      -8.212   7.256   7.372  1.00  0.00     0.134 A 
ATOM     69  F   UNL     1      -7.223   6.263  10.719  1.00  0.00    -0.206 F 
ATOM     70  C   UNL     1      -9.081   7.462   9.978  1.00  0.00     0.040 A 
ATOM     71  C   UNL     1      -9.402   7.933   7.658  1.00  0.00     0.040 A 
ATOM     72  F   UNL     1      -7.875   7.215   6.075  1.00  0.00    -0.206 F 
ATOM     73  C   UNL     1      -9.846   8.031   8.967  1.00  0.00     0.006 A 
ENDBRANCH  52  66
BRANCH  53  74
ATOM     74  C   UNL     1      -0.218   0.021   5.890  1.00  0.00     0.057 A 
ATOM     75  C   UNL     1      -0.378  -1.335   5.527  1.00  0.00     0.134 A 
ATOM     76  C   UNL     1       0.237   0.883   4.887  1.00  0.00     0.134 A 
ATOM     77  F   UNL     1      -0.795  -2.227   6.440  1.00  0.00    -0.206 F 
ATOM     78  C   UNL     1      -0.262  -1.776   4.206  1.00  0.00     0.040 A 
ATOM     79  C   UNL     1       0.397   0.440   3.562  1.00  0.00     0.040 A 
ATOM     80  F   UNL     1       0.394   2.193   5.126  1.00  0.00    -0.206 F 
ATOM     81  C   UNL     1       0.091  -0.875   3.212  1.00  0.00     0.006 A 
ENDBRANCH  53  74
BRANCH  65  82
ATOM     82  C   UNL     1      -1.091   5.734  10.335  1.00  0.00     0.057 A 
ATOM     83  C   UNL     1       0.260   6.081  10.166  1.00  0.00     0.134 A 
ATOM     84  C   UNL     1      -1.846   6.657  11.090  1.00  0.00     0.134 A 
ATOM     85  F   UNL     1       1.064   5.409   9.331  1.00  0.00    -0.206 F 
ATOM     86  C   UNL     1       0.845   7.184  10.798  1.00  0.00     0.040 A 
ATOM     87  C   UNL     1      -1.290   7.804  11.664  1.00  0.00     0.040 A 
ATOM     88  F   UNL     1      -3.166   6.510  11.273  1.00  0.00    -0.206 F 
ATOM     89  C   UNL     1       0.068   8.054  11.547  1.00  0.00     0.006 A 
ENDBRANCH  65  82
ENDBRANCH  39  40
ENDBRANCH  32  34
ENDBRANCH  31  32
ENDBRANCH  30  31
ENDBRANCH   1  30
TORSDOF 16
