REMARK SMILES C[C@@H]1[C@H](C(=O)OCCOC(=O)c2ccc(-c3c4nc(c(-c5c(F)cccc5F)c5ccc([nH]5)c(-c5c(F)cccc5F)c5nc(c(-c6c(F)cccc6F)c6ccc3[nH]6)C=C5)C=C4)cc2)CC[N@@H+]1Cc1ccc2c(c1)CCN2C
REMARK SMILES IDX 7 1 6 2 4 3 5 4 3 5 1 6 2 7 68 8 66 9 67 10 69 12 70 13
REMARK SMILES IDX 71 14 75 15 72 16 74 17 73 18 76 19 78 20 77 21 79 22 8 23
REMARK SMILES IDX 9 24 10 25 11 26 12 27 13 28 65 29 14 30 64 31 15 32 16 33
REMARK SMILES IDX 17 34 58 35 18 36 63 37 57 38 59 39 19 40 62 41 56 42 55 43
REMARK SMILES IDX 20 45 46 46 29 47 45 48 30 49 33 50 44 51 60 52 31 53 32 54
REMARK SMILES IDX 43 56 61 57 34 58 21 59 22 60 27 61 23 62 24 63 26 64 28 65
REMARK SMILES IDX 25 66 47 67 48 68 53 69 49 70 50 71 52 72 54 73 51 74 35 75
REMARK SMILES IDX 36 76 41 77 37 78 38 79 40 80 42 81 39 82
REMARK H PARENT 68 11 59 44 33 55
REMARK Flexibility Score: inf
ROOT
ATOM      1  C   UNL     1       1.938   3.898   1.094  1.00  0.00     0.274 C 
ENDROOT
BRANCH   1   2
ATOM      2  O   UNL     1       1.531   2.550   0.795  1.00  0.00    -0.462 OA
BRANCH   2   3
ATOM      3  C   UNL     1       0.287   2.369   0.306  1.00  0.00     0.315 C 
ATOM      4  O   UNL     1      -0.548   3.265   0.208  1.00  0.00    -0.252 OA
BRANCH   3   5
ATOM      5  C   UNL     1       0.013   0.977  -0.227  1.00  0.00     0.162 C 
ATOM      6  C   UNL     1       2.239  -0.077   0.708  1.00  0.00     0.076 C 
ATOM      7  C   UNL     1       0.984  -0.217  -0.142  1.00  0.00     0.195 C 
ATOM      8  N   UNL     1       0.115  -1.396   0.072  1.00  0.00    -0.328 N 
ATOM      9  C   UNL     1      -1.307   0.452   0.317  1.00  0.00     0.083 C 
ATOM     10  C   UNL     1      -1.275  -0.999  -0.110  1.00  0.00     0.263 C 
ATOM     11  H   UNL     1       0.408  -2.047  -0.657  1.00  0.00     0.348 HD
BRANCH   8  12
ATOM     12  C   UNL     1       0.381  -2.358   1.140  1.00  0.00     0.299 C 
BRANCH  12  13
ATOM     13  C   UNL     1       0.272  -1.877   2.573  1.00  0.00     0.007 A 
ATOM     14  C   UNL     1       1.429  -1.801   3.380  1.00  0.00     0.012 A 
ATOM     15  C   UNL     1      -0.961  -1.524   3.137  1.00  0.00     0.015 A 
ATOM     16  C   UNL     1       1.379  -1.309   4.690  1.00  0.00     0.026 A 
ATOM     17  C   UNL     1      -0.993  -1.039   4.434  1.00  0.00    -0.022 A 
ATOM     18  C   UNL     1       0.160  -0.918   5.208  1.00  0.00     0.040 A 
ATOM     19  C   UNL     1      -2.151  -0.457   5.173  1.00  0.00     0.059 C 
ATOM     20  N   UNL     1      -0.101  -0.382   6.471  1.00  0.00    -0.374 N 
ATOM     21  C   UNL     1      -1.565  -0.352   6.592  1.00  0.00     0.121 C 
ATOM     22  C   UNL     1       0.702   0.728   6.935  1.00  0.00     0.143 C 
ENDBRANCH  12  13
ENDBRANCH   8  12
ENDBRANCH   3   5
ENDBRANCH   2   3
ENDBRANCH   1   2
BRANCH   1  23
ATOM     23  C   UNL     1       2.977   4.355   0.070  1.00  0.00     0.275 C 
BRANCH  23  24
ATOM     24  O   UNL     1       2.382   4.476  -1.238  1.00  0.00    -0.458 OA
BRANCH  24  25
ATOM     25  C   UNL     1       2.573   3.422  -2.059  1.00  0.00     0.338 C 
ATOM     26  O   UNL     1       3.211   2.402  -1.838  1.00  0.00    -0.246 OA
BRANCH  25  27
ATOM     27  C   UNL     1       1.812   3.617  -3.297  1.00  0.00     0.060 A 
ATOM     28  C   UNL     1       0.522   3.097  -3.373  1.00  0.00     0.016 A 
ATOM     29  C   UNL     1       2.412   4.190  -4.417  1.00  0.00     0.016 A 
ATOM     30  C   UNL     1      -0.155   3.078  -4.586  1.00  0.00     0.010 A 
ATOM     31  C   UNL     1       1.702   4.237  -5.621  1.00  0.00     0.010 A 
ATOM     32  C   UNL     1       0.423   3.659  -5.720  1.00  0.00    -0.014 A 
BRANCH  32  33
ATOM     33  C   UNL     1      -0.309   3.643  -7.010  1.00  0.00     0.031 A 
ATOM     34  C   UNL     1       0.225   2.854  -8.171  1.00  0.00     0.074 A 
ATOM     35  C   UNL     1      -1.470   4.315  -7.128  1.00  0.00     0.049 A 
ATOM     36  N   UNL     1      -0.186   2.832  -9.413  1.00  0.00    -0.248 NA
ATOM     37  C   UNL     1       1.374   1.977  -7.901  1.00  0.00     0.031 C 
ATOM     38  C   UNL     1      -2.126   5.068  -6.056  1.00  0.00     0.029 A 
ATOM     39  N   UNL     1      -2.309   4.467  -8.202  1.00  0.00    -0.354 N 
ATOM     40  C   UNL     1       0.676   1.973 -10.081  1.00  0.00     0.074 A 
ATOM     41  C   UNL     1       1.634   1.492  -9.107  1.00  0.00     0.031 C 
ATOM     42  C   UNL     1      -3.276   5.581  -6.520  1.00  0.00     0.029 A 
ATOM     43  C   UNL     1      -3.402   5.254  -7.936  1.00  0.00     0.049 A 
ATOM     44  H   UNL     1      -2.142   4.053  -9.079  1.00  0.00     0.167 HD
ATOM     45  C   UNL     1       0.668   1.621 -11.388  1.00  0.00     0.037 A 
ATOM     46  C   UNL     1      -4.378   5.695  -8.751  1.00  0.00     0.037 A 
ATOM     47  C   UNL     1      -0.307   2.075 -12.345  1.00  0.00     0.049 A 
ATOM     48  C   UNL     1      -4.339   5.327 -10.205  1.00  0.00     0.074 A 
ATOM     49  C   UNL     1      -0.390   1.790 -13.697  1.00  0.00     0.029 A 
ATOM     50  N   UNL     1      -1.380   2.899 -12.042  1.00  0.00    -0.354 N 
ATOM     51  N   UNL     1      -3.477   4.572 -10.842  1.00  0.00    -0.248 NA
ATOM     52  C   UNL     1      -5.393   5.891 -11.059  1.00  0.00     0.031 C 
ATOM     53  C   UNL     1      -1.504   2.460 -14.217  1.00  0.00     0.029 A 
ATOM     54  C   UNL     1      -2.129   3.138 -13.182  1.00  0.00     0.049 A 
ATOM     55  H   UNL     1      -1.580   3.261 -11.149  1.00  0.00     0.167 HD
ATOM     56  C   UNL     1      -3.887   4.563 -12.167  1.00  0.00     0.074 A 
ATOM     57  C   UNL     1      -5.086   5.375 -12.240  1.00  0.00     0.031 C 
ATOM     58  C   UNL     1      -3.319   3.946 -13.230  1.00  0.00     0.037 A 
BRANCH  45  59
ATOM     59  C   UNL     1       1.768   0.722 -11.866  1.00  0.00     0.057 A 
ATOM     60  C   UNL     1       1.771  -0.651 -11.595  1.00  0.00     0.134 A 
ATOM     61  C   UNL     1       2.823   1.236 -12.630  1.00  0.00     0.134 A 
ATOM     62  F   UNL     1       0.797  -1.201 -10.855  1.00  0.00    -0.206 F 
ATOM     63  C   UNL     1       2.796  -1.481 -12.056  1.00  0.00     0.040 A 
ATOM     64  C   UNL     1       3.843   0.414 -13.111  1.00  0.00     0.040 A 
ATOM     65  F   UNL     1       2.876   2.544 -12.924  1.00  0.00    -0.206 F 
ATOM     66  C   UNL     1       3.833  -0.949 -12.821  1.00  0.00     0.006 A 
ENDBRANCH  45  59
BRANCH  46  67
ATOM     67  C   UNL     1      -5.452   6.564  -8.214  1.00  0.00     0.057 A 
ATOM     68  C   UNL     1      -6.760   6.090  -8.069  1.00  0.00     0.134 A 
ATOM     69  C   UNL     1      -5.196   7.886  -7.828  1.00  0.00     0.134 A 
ATOM     70  F   UNL     1      -7.069   4.839  -8.443  1.00  0.00    -0.206 F 
ATOM     71  C   UNL     1      -7.778   6.900  -7.564  1.00  0.00     0.040 A 
ATOM     72  C   UNL     1      -6.199   8.700  -7.301  1.00  0.00     0.040 A 
ATOM     73  F   UNL     1      -3.961   8.397  -7.942  1.00  0.00    -0.206 F 
ATOM     74  C   UNL     1      -7.496   8.208  -7.173  1.00  0.00     0.006 A 
ENDBRANCH  46  67
BRANCH  58  75
ATOM     75  C   UNL     1      -4.002   4.110 -14.551  1.00  0.00     0.057 A 
ATOM     76  C   UNL     1      -3.878   5.288 -15.298  1.00  0.00     0.134 A 
ATOM     77  C   UNL     1      -4.771   3.072 -15.091  1.00  0.00     0.134 A 
ATOM     78  F   UNL     1      -3.167   6.321 -14.823  1.00  0.00    -0.206 F 
ATOM     79  C   UNL     1      -4.510   5.434 -16.533  1.00  0.00     0.040 A 
ATOM     80  C   UNL     1      -5.394   3.201 -16.333  1.00  0.00     0.040 A 
ATOM     81  F   UNL     1      -4.924   1.919 -14.424  1.00  0.00    -0.206 F 
ATOM     82  C   UNL     1      -5.267   4.386 -17.055  1.00  0.00     0.006 A 
ENDBRANCH  58  75
ENDBRANCH  32  33
ENDBRANCH  25  27
ENDBRANCH  24  25
ENDBRANCH  23  24
ENDBRANCH   1  23
TORSDOF 13
