REMARK SMILES O=C(OCCOC(=O)c1cc(SCC(=O)N2CCOCC2)ccn1)c1ccc(-c2c3nc(c(-c4c(F)cccc4F)c4ccc([nH]4)c(-c4c(F)cccc4F)c4nc(c(-c5c(F)cccc5F)c5ccc2[nH]5)C=C4)C=C3)cc1
REMARK SMILES IDX 5 1 4 2 3 3 2 4 1 5 25 6 26 7 78 8 27 9 77 10 28 11 29 12
REMARK SMILES IDX 30 13 71 14 31 15 76 16 70 17 72 18 32 19 75 20 69 21 68 22
REMARK SMILES IDX 33 24 59 25 42 26 58 27 43 28 46 29 57 30 73 31 44 32 45 33
REMARK SMILES IDX 56 35 74 36 47 37 34 38 35 39 40 40 36 41 37 42 39 43 41 44
REMARK SMILES IDX 38 45 60 46 61 47 66 48 62 49 63 50 65 51 67 52 64 53 48 54
REMARK SMILES IDX 49 55 54 56 50 57 51 58 53 59 55 60 52 61 6 62 7 63 8 64
REMARK SMILES IDX 9 65 10 66 24 67 11 68 23 69 22 70 12 71 13 72 14 73 15 74
REMARK SMILES IDX 16 75 17 76 21 77 18 78 20 79 19 80
REMARK H PARENT 72 23 46 34
REMARK Flexibility Score: inf
ROOT
ATOM      1  C   UNL     1       3.979  -0.370  -2.423  1.00  0.00     0.275 C 
ENDROOT
BRANCH   1   2
ATOM      2  C   UNL     1       3.877  -1.323  -1.228  1.00  0.00     0.275 C 
BRANCH   2   3
ATOM      3  O   UNL     1       2.622  -1.172  -0.538  1.00  0.00    -0.458 OA
BRANCH   3   4
ATOM      4  C   UNL     1       2.483  -0.818   0.762  1.00  0.00     0.338 C 
ATOM      5  O   UNL     1       1.734  -1.450   1.501  1.00  0.00    -0.246 OA
BRANCH   4   6
ATOM      6  C   UNL     1       3.046   0.474   1.259  1.00  0.00     0.060 A 
ATOM      7  C   UNL     1       4.322   0.937   0.965  1.00  0.00     0.016 A 
ATOM      8  C   UNL     1       2.264   1.223   2.167  1.00  0.00     0.016 A 
ATOM      9  C   UNL     1       4.802   2.101   1.560  1.00  0.00     0.010 A 
ATOM     10  C   UNL     1       2.745   2.404   2.764  1.00  0.00     0.010 A 
ATOM     11  C   UNL     1       4.028   2.844   2.463  1.00  0.00    -0.014 A 
BRANCH  11  12
ATOM     12  C   UNL     1       4.726   3.953   3.117  1.00  0.00     0.031 A 
ATOM     13  C   UNL     1       5.595   3.741   4.363  1.00  0.00     0.074 A 
ATOM     14  C   UNL     1       4.915   5.110   2.455  1.00  0.00     0.049 A 
ATOM     15  N   UNL     1       6.418   4.583   4.957  1.00  0.00    -0.248 NA
ATOM     16  C   UNL     1       5.438   2.488   5.095  1.00  0.00     0.031 C 
ATOM     17  C   UNL     1       3.808   6.281   1.437  1.00  0.00     0.029 A 
ATOM     18  N   UNL     1       6.373   6.068   2.781  1.00  0.00    -0.354 N 
ATOM     19  C   UNL     1       6.835   4.032   6.154  1.00  0.00     0.074 A 
ATOM     20  C   UNL     1       6.189   2.713   6.171  1.00  0.00     0.031 C 
ATOM     21  C   UNL     1       4.544   7.733   1.105  1.00  0.00     0.029 A 
ATOM     22  C   UNL     1       6.293   7.847   1.982  1.00  0.00     0.049 A 
ATOM     23  H   UNL     1       7.138   5.739   3.307  1.00  0.00     0.167 HD
ATOM     24  C   UNL     1       7.592   4.551   7.175  1.00  0.00     0.037 A 
ATOM     25  C   UNL     1       6.944   9.081   2.076  1.00  0.00     0.037 A 
ATOM     26  C   UNL     1       8.232   5.875   7.352  1.00  0.00     0.049 A 
ATOM     27  C   UNL     1       7.956   9.570   3.148  1.00  0.00     0.074 A 
ATOM     28  C   UNL     1       8.796   6.390   8.520  1.00  0.00     0.029 A 
ATOM     29  N   UNL     1       8.478   6.874   6.405  1.00  0.00    -0.354 N 
ATOM     30  N   UNL     1       8.097   9.059   4.333  1.00  0.00    -0.248 NA
ATOM     31  C   UNL     1       8.841  10.736   2.995  1.00  0.00     0.031 C 
ATOM     32  C   UNL     1       9.305   7.684   8.284  1.00  0.00     0.029 A 
ATOM     33  C   UNL     1       9.107   8.009   6.952  1.00  0.00     0.049 A 
ATOM     34  H   UNL     1       8.237   6.793   5.454  1.00  0.00     0.167 HD
ATOM     35  C   UNL     1       9.098   9.645   5.021  1.00  0.00     0.074 A 
ATOM     36  C   UNL     1       9.502  10.748   4.167  1.00  0.00     0.031 C 
ATOM     37  C   UNL     1       9.546   9.221   6.231  1.00  0.00     0.037 A 
BRANCH  24  38
ATOM     38  C   UNL     1       7.672   3.621   8.364  1.00  0.00     0.057 A 
ATOM     39  C   UNL     1       8.503   2.493   8.370  1.00  0.00     0.134 A 
ATOM     40  C   UNL     1       6.850   3.826   9.482  1.00  0.00     0.134 A 
ATOM     41  F   UNL     1       9.283   2.219   7.314  1.00  0.00    -0.206 F 
ATOM     42  C   UNL     1       8.486   1.584   9.430  1.00  0.00     0.040 A 
ATOM     43  C   UNL     1       6.847   2.939  10.559  1.00  0.00     0.040 A 
ATOM     44  F   UNL     1       6.026   4.883   9.536  1.00  0.00    -0.206 F 
ATOM     45  C   UNL     1       7.658   1.807  10.529  1.00  0.00     0.006 A 
ENDBRANCH  24  38
BRANCH  25  46
ATOM     46  C   UNL     1       6.780   9.966   0.898  1.00  0.00     0.057 A 
ATOM     47  C   UNL     1       7.784   9.958  -0.085  1.00  0.00     0.134 A 
ATOM     48  C   UNL     1       5.699  10.822   0.706  1.00  0.00     0.134 A 
ATOM     49  F   UNL     1       8.864   9.175   0.067  1.00  0.00    -0.206 F 
ATOM     50  C   UNL     1       7.717  10.770  -1.215  1.00  0.00     0.040 A 
ATOM     51  C   UNL     1       5.602  11.621  -0.436  1.00  0.00     0.040 A 
ATOM     52  F   UNL     1       4.713  10.878   1.612  1.00  0.00    -0.206 F 
ATOM     53  C   UNL     1       6.615  11.599  -1.398  1.00  0.00     0.006 A 
ENDBRANCH  25  46
BRANCH  37  54
ATOM     54  C   UNL     1      10.523  10.132   6.893  1.00  0.00     0.057 A 
ATOM     55  C   UNL     1      10.100  11.339   7.467  1.00  0.00     0.134 A 
ATOM     56  C   UNL     1      11.872   9.792   7.012  1.00  0.00     0.134 A 
ATOM     57  F   UNL     1       8.815  11.718   7.387  1.00  0.00    -0.206 F 
ATOM     58  C   UNL     1      10.991  12.185   8.127  1.00  0.00     0.040 A 
ATOM     59  C   UNL     1      12.772  10.626   7.678  1.00  0.00     0.040 A 
ATOM     60  F   UNL     1      12.336   8.650   6.485  1.00  0.00    -0.206 F 
ATOM     61  C   UNL     1      12.332  11.826   8.236  1.00  0.00     0.006 A 
ENDBRANCH  37  54
ENDBRANCH  11  12
ENDBRANCH   4   6
ENDBRANCH   3   4
ENDBRANCH   2   3
ENDBRANCH   1   2
BRANCH   1  62
ATOM     62  O   UNL     1       3.674   0.985  -2.056  1.00  0.00    -0.457 OA
BRANCH  62  63
ATOM     63  C   UNL     1       2.362   1.320  -2.203  1.00  0.00     0.357 C 
ATOM     64  O   UNL     1       1.496   0.627  -2.711  1.00  0.00    -0.244 OA
BRANCH  63  65
ATOM     65  C   UNL     1       2.101   2.650  -1.590  1.00  0.00     0.149 A 
ATOM     66  C   UNL     1       2.920   3.742  -1.864  1.00  0.00     0.051 A 
ATOM     67  N   UNL     1       0.958   2.716  -0.855  1.00  0.00    -0.249 NA
ATOM     68  C   UNL     1       2.515   4.985  -1.392  1.00  0.00     0.012 A 
ATOM     69  C   UNL     1       0.598   3.923  -0.399  1.00  0.00     0.113 A 
ATOM     70  C   UNL     1       1.315   5.073  -0.669  1.00  0.00     0.035 A 
BRANCH  68  71
ATOM     71  S   UNL     1       3.335   6.524  -1.790  1.00  0.00    -0.116 SA
BRANCH  71  72
ATOM     72  C   UNL     1       5.110   6.303  -1.381  1.00  0.00     0.175 C 
BRANCH  72  73
ATOM     73  C   UNL     1       5.473   5.513  -0.119  1.00  0.00     0.233 C 
ATOM     74  O   UNL     1       5.747   4.311  -0.246  1.00  0.00    -0.274 OA
ATOM     75  N   UNL     1       5.840   6.278   1.114  1.00  0.00    -0.337 N 
ATOM     76  C   UNL     1       4.925   7.051   2.941  1.00  0.00     0.148 C 
ATOM     77  C   UNL     1       7.615   6.093   1.121  1.00  0.00     0.148 C 
ATOM     78  C   UNL     1       6.180   7.384   4.316  1.00  0.00     0.181 C 
ATOM     79  C   UNL     1       8.488   6.654   2.551  1.00  0.00     0.181 C 
ATOM     80  O   UNL     1       7.791   6.819   4.010  1.00  0.00    -0.378 OA
ENDBRANCH  72  73
ENDBRANCH  71  72
ENDBRANCH  68  71
ENDBRANCH  63  65
ENDBRANCH  62  63
ENDBRANCH   1  62
TORSDOF 14
