REMARK SMILES COC(=O)[C@@H](NC(=O)CCC(=O)OCCOC(=O)c1ccc(-c2c3nc(c(-c4c(F)cccc4F)c4ccc([nH]4)c(-c4c(F)cccc4F)c4nc(c(-c5c(F)cccc5F)c5ccc2[nH]5)C=C4)C=C3)cc1)c1cccc2ccccc12
REMARK SMILES IDX 13 1 11 2 12 3 10 4 9 5 7 6 6 7 8 9 5 10 3 11 4 12 2 13 1 14
REMARK SMILES IDX 73 15 74 16 82 17 75 18 77 19 81 20 76 21 78 22 80 23 79 24
REMARK SMILES IDX 14 25 15 26 16 27 17 28 18 29 19 30 20 31 72 32 21 33 71 34
REMARK SMILES IDX 22 35 23 36 24 37 65 38 25 39 70 40 64 41 66 42 26 43 69 44
REMARK SMILES IDX 63 45 62 46 27 48 53 49 36 50 52 51 37 52 40 53 51 54 67 55
REMARK SMILES IDX 38 56 39 57 50 59 68 60 41 61 28 62 29 63 34 64 30 65 31 66
REMARK SMILES IDX 33 67 35 68 32 69 54 70 55 71 60 72 56 73 57 74 59 75 61 76
REMARK SMILES IDX 58 77 42 78 43 79 48 80 44 81 45 82 47 83 49 84 46 85
REMARK H PARENT 6 8 66 47 40 58
REMARK Flexibility Score: inf
ROOT
ATOM      1  O   UNL     1      -0.299  -0.744   1.133  1.00  0.00    -0.462 OA
ENDROOT
BRANCH   1   2
ATOM      2  C   UNL     1      -0.620   0.555   1.395  1.00  0.00     0.306 C 
ATOM      3  O   UNL     1      -1.099   1.305   0.548  1.00  0.00    -0.252 OA
BRANCH   2   4
ATOM      4  C   UNL     1      -0.149   1.094   2.747  1.00  0.00     0.132 C 
BRANCH   4   5
ATOM      5  C   UNL     1      -0.608   0.578   4.108  1.00  0.00     0.112 C 
BRANCH   5   6
ATOM      6  C   UNL     1       0.349  -0.256   4.948  1.00  0.00     0.221 C 
ATOM      7  N   UNL     1       0.479  -1.603   4.918  1.00  0.00    -0.339 N 
ATOM      8  H   UNL     1       0.802  -1.964   5.775  1.00  0.00     0.164 HD
ATOM      9  O   UNL     1       1.059   0.323   5.782  1.00  0.00    -0.275 OA
BRANCH   7  10
ATOM     10  C   UNL     1       0.252  -2.672   3.906  1.00  0.00     0.224 C 
BRANCH  10  11
ATOM     11  C   UNL     1       1.232  -2.491   2.731  1.00  0.00     0.333 C 
ATOM     12  O   UNL     1       1.479  -3.333   1.881  1.00  0.00    -0.249 OA
BRANCH  11  13
ATOM     13  O   UNL     1       1.862  -1.276   2.801  1.00  0.00    -0.467 OA
ATOM     14  C   UNL     1       2.798  -0.914   1.782  1.00  0.00     0.282 C 
ENDBRANCH  11  13
ENDBRANCH  10  11
BRANCH  10  15
ATOM     15  C   UNL     1      -1.224  -3.044   3.717  1.00  0.00    -0.007 A 
ATOM     16  C   UNL     1      -2.167  -2.038   3.542  1.00  0.00     0.007 A 
ATOM     17  C   UNL     1      -1.754  -4.331   3.992  1.00  0.00    -0.013 A 
ATOM     18  C   UNL     1      -3.449  -2.113   4.079  1.00  0.00     0.001 A 
ATOM     19  C   UNL     1      -3.087  -4.436   4.491  1.00  0.00    -0.018 A 
ATOM     20  C   UNL     1      -1.071  -5.533   3.723  1.00  0.00     0.009 A 
ATOM     21  C   UNL     1      -3.879  -3.300   4.635  1.00  0.00     0.009 A 
ATOM     22  C   UNL     1      -3.646  -5.682   4.794  1.00  0.00     0.009 A 
ATOM     23  C   UNL     1      -1.688  -6.774   3.927  1.00  0.00     0.001 A 
ATOM     24  C   UNL     1      -2.959  -6.849   4.487  1.00  0.00     0.001 A 
ENDBRANCH  10  15
ENDBRANCH   7  10
ENDBRANCH   5   6
ENDBRANCH   4   5
ENDBRANCH   2   4
ENDBRANCH   1   2
BRANCH   1  25
ATOM     25  C   UNL     1      -0.232  -1.072  -0.287  1.00  0.00     0.274 C 
BRANCH  25  26
ATOM     26  C   UNL     1      -0.336  -2.572  -0.582  1.00  0.00     0.275 C 
BRANCH  26  27
ATOM     27  O   UNL     1      -1.707  -2.927  -0.413  1.00  0.00    -0.458 OA
BRANCH  27  28
ATOM     28  C   UNL     1      -1.992  -4.161   0.046  1.00  0.00     0.338 C 
ATOM     29  O   UNL     1      -1.238  -5.115   0.182  1.00  0.00    -0.246 OA
BRANCH  28  30
ATOM     30  C   UNL     1      -3.434  -4.151   0.322  1.00  0.00     0.060 A 
ATOM     31  C   UNL     1      -4.006  -3.005   0.892  1.00  0.00     0.016 A 
ATOM     32  C   UNL     1      -4.226  -5.239  -0.030  1.00  0.00     0.016 A 
ATOM     33  C   UNL     1      -5.367  -2.943   1.132  1.00  0.00     0.010 A 
ATOM     34  C   UNL     1      -5.606  -5.144   0.132  1.00  0.00     0.010 A 
ATOM     35  C   UNL     1      -6.179  -3.993   0.705  1.00  0.00    -0.014 A 
BRANCH  35  36
ATOM     36  C   UNL     1      -7.646  -3.867   0.770  1.00  0.00     0.031 A 
ATOM     37  C   UNL     1      -8.429  -4.791   1.643  1.00  0.00     0.074 A 
ATOM     38  C   UNL     1      -8.252  -2.975  -0.035  1.00  0.00     0.049 A 
ATOM     39  N   UNL     1      -9.711  -5.034   1.641  1.00  0.00    -0.248 NA
ATOM     40  C   UNL     1      -7.663  -5.554   2.640  1.00  0.00     0.031 C 
ATOM     41  C   UNL     1      -7.565  -2.009  -0.896  1.00  0.00     0.029 A 
ATOM     42  N   UNL     1      -9.581  -2.769  -0.295  1.00  0.00    -0.354 N 
ATOM     43  C   UNL     1      -9.908  -6.002   2.615  1.00  0.00     0.074 A 
ATOM     44  C   UNL     1      -8.611  -6.307   3.182  1.00  0.00     0.031 C 
ATOM     45  C   UNL     1      -8.474  -1.338  -1.616  1.00  0.00     0.029 A 
ATOM     46  C   UNL     1      -9.793  -1.880  -1.320  1.00  0.00     0.049 A 
ATOM     47  H   UNL     1     -10.307  -3.212   0.200  1.00  0.00     0.167 HD
ATOM     48  C   UNL     1     -11.073  -6.583   2.985  1.00  0.00     0.037 A 
ATOM     49  C   UNL     1     -10.916  -1.588  -1.999  1.00  0.00     0.037 A 
ATOM     50  C   UNL     1     -12.345  -6.268   2.385  1.00  0.00     0.049 A 
ATOM     51  C   UNL     1     -12.184  -2.289  -1.619  1.00  0.00     0.074 A 
ATOM     52  C   UNL     1     -13.592  -6.790   2.674  1.00  0.00     0.029 A 
ATOM     53  N   UNL     1     -12.524  -5.345   1.362  1.00  0.00    -0.354 N 
ATOM     54  N   UNL     1     -12.367  -3.219  -0.713  1.00  0.00    -0.248 NA
ATOM     55  C   UNL     1     -13.395  -1.909  -2.353  1.00  0.00     0.031 C 
ATOM     56  C   UNL     1     -14.521  -6.210   1.802  1.00  0.00     0.029 A 
ATOM     57  C   UNL     1     -13.859  -5.295   0.997  1.00  0.00     0.049 A 
ATOM     58  H   UNL     1     -11.807  -4.806   0.957  1.00  0.00     0.167 HD
ATOM     59  C   UNL     1     -13.716  -3.533  -0.758  1.00  0.00     0.074 A 
ATOM     60  C   UNL     1     -14.305  -2.679  -1.774  1.00  0.00     0.031 C 
ATOM     61  C   UNL     1     -14.408  -4.442  -0.028  1.00  0.00     0.037 A 
BRANCH  48  62
ATOM     62  C   UNL     1     -11.010  -7.634   4.053  1.00  0.00     0.057 A 
ATOM     63  C   UNL     1     -10.758  -7.313   5.393  1.00  0.00     0.134 A 
ATOM     64  C   UNL     1     -11.212  -8.984   3.740  1.00  0.00     0.134 A 
ATOM     65  F   UNL     1     -10.534  -6.042   5.757  1.00  0.00    -0.206 F 
ATOM     66  C   UNL     1     -10.692  -8.299   6.380  1.00  0.00     0.040 A 
ATOM     67  C   UNL     1     -11.170  -9.976   4.721  1.00  0.00     0.040 A 
ATOM     68  F   UNL     1     -11.454  -9.361   2.475  1.00  0.00    -0.206 F 
ATOM     69  C   UNL     1     -10.905  -9.635   6.045  1.00  0.00     0.006 A 
ENDBRANCH  48  62
BRANCH  49  70
ATOM     70  C   UNL     1     -10.851  -0.625  -3.124  1.00  0.00     0.057 A 
ATOM     71  C   UNL     1     -11.360   0.670  -2.997  1.00  0.00     0.134 A 
ATOM     72  C   UNL     1     -10.201  -0.952  -4.322  1.00  0.00     0.134 A 
ATOM     73  F   UNL     1     -12.004   1.035  -1.879  1.00  0.00    -0.206 F 
ATOM     74  C   UNL     1     -11.217   1.612  -4.017  1.00  0.00     0.040 A 
ATOM     75  C   UNL     1     -10.032  -0.014  -5.341  1.00  0.00     0.040 A 
ATOM     76  F   UNL     1      -9.681  -2.175  -4.499  1.00  0.00    -0.206 F 
ATOM     77  C   UNL     1     -10.541   1.274  -5.188  1.00  0.00     0.006 A 
ENDBRANCH  49  70
BRANCH  61  78
ATOM     78  C   UNL     1     -15.878  -4.533  -0.299  1.00  0.00     0.057 A 
ATOM     79  C   UNL     1     -16.376  -5.165  -1.444  1.00  0.00     0.134 A 
ATOM     80  C   UNL     1     -16.801  -3.990   0.602  1.00  0.00     0.134 A 
ATOM     81  F   UNL     1     -15.538  -5.688  -2.351  1.00  0.00    -0.206 F 
ATOM     82  C   UNL     1     -17.746  -5.234  -1.695  1.00  0.00     0.040 A 
ATOM     83  C   UNL     1     -18.174  -4.072   0.372  1.00  0.00     0.040 A 
ATOM     84  F   UNL     1     -16.383  -3.376   1.719  1.00  0.00    -0.206 F 
ATOM     85  C   UNL     1     -18.649  -4.690  -0.783  1.00  0.00     0.006 A 
ENDBRANCH  61  78
ENDBRANCH  35  36
ENDBRANCH  28  30
ENDBRANCH  27  28
ENDBRANCH  26  27
ENDBRANCH  25  26
ENDBRANCH   1  25
TORSDOF 17
