REMARK SMILES O=C(OCCOC(=O)C1CC[NH+]([C@H]2CC(=O)N(c3ccc4c(c3)OCCO4)C2=O)CC1)c1ccc(-c2c3nc(c(-c4c(F)cccc4F)c4ccc([nH]4)c(-c4c(F)cccc4F)c4nc(c(-c5c(F)cccc5F)c5ccc2[nH]5)C=C4)C=C3)cc1
REMARK SMILES IDX 4 1 3 2 2 3 1 4 32 5 33 6 85 7 34 8 84 9 35 10 36 11 37 12
REMARK SMILES IDX 78 13 38 14 83 15 77 16 79 17 39 18 82 19 76 20 75 21 40 23
REMARK SMILES IDX 66 24 49 25 65 26 50 27 53 28 64 29 80 30 51 31 52 32 63 34
REMARK SMILES IDX 81 35 54 36 41 37 42 38 47 39 43 40 44 41 46 42 48 43 45 44
REMARK SMILES IDX 67 45 68 46 73 47 69 48 70 49 72 50 74 51 71 52 55 53 56 54
REMARK SMILES IDX 61 55 57 56 58 57 60 58 62 59 59 60 5 61 6 62 7 63 8 64 9 65
REMARK SMILES IDX 10 66 31 67 11 68 30 69 12 70 13 72 14 73 28 74 15 75 17 76
REMARK SMILES IDX 29 77 16 78 18 79 19 80 23 81 20 82 22 83 21 84 24 85 27 86
REMARK SMILES IDX 25 87 26 88
REMARK H PARENT 79 22 53 33 12 71
REMARK Flexibility Score: inf
ROOT
ATOM      1  C   UNL     1      12.473   4.350  -4.207  1.00  0.00     0.275 C 
ENDROOT
BRANCH   1   2
ATOM      2  O   UNL     1      12.200   5.663  -3.633  1.00  0.00    -0.458 OA
BRANCH   2   3
ATOM      3  C   UNL     1      11.208   6.503  -4.046  1.00  0.00     0.338 C 
ATOM      4  O   UNL     1      11.339   7.710  -4.173  1.00  0.00    -0.246 OA
BRANCH   3   5
ATOM      5  C   UNL     1       9.890   5.871  -4.029  1.00  0.00     0.060 A 
ATOM      6  C   UNL     1       9.608   4.880  -4.898  1.00  0.00     0.016 A 
ATOM      7  C   UNL     1       8.848   6.276  -3.224  1.00  0.00     0.016 A 
ATOM      8  C   UNL     1       8.546   4.035  -4.562  1.00  0.00     0.010 A 
ATOM      9  C   UNL     1       7.691   5.436  -3.023  1.00  0.00     0.010 A 
ATOM     10  C   UNL     1       7.480   3.982  -3.363  1.00  0.00    -0.014 A 
BRANCH  10  11
ATOM     11  C   UNL     1       5.978   2.577  -3.060  1.00  0.00     0.031 A 
ATOM     12  C   UNL     1       4.375   2.576  -4.218  1.00  0.00     0.074 A 
ATOM     13  C   UNL     1       5.670   1.371  -2.335  1.00  0.00     0.049 A 
ATOM     14  N   UNL     1       3.311   1.774  -4.441  1.00  0.00    -0.248 NA
ATOM     15  C   UNL     1       4.092   3.859  -5.210  1.00  0.00     0.031 C 
ATOM     16  C   UNL     1       6.427   0.647  -1.306  1.00  0.00     0.029 A 
ATOM     17  N   UNL     1       4.515   0.526  -2.407  1.00  0.00    -0.354 N 
ATOM     18  C   UNL     1       2.455   2.378  -5.471  1.00  0.00     0.074 A 
ATOM     19  C   UNL     1       3.037   3.598  -5.909  1.00  0.00     0.031 C 
ATOM     20  C   UNL     1       5.776  -0.436  -0.872  1.00  0.00     0.029 A 
ATOM     21  C   UNL     1       4.477  -0.537  -1.512  1.00  0.00     0.049 A 
ATOM     22  H   UNL     1       3.790   0.690  -3.053  1.00  0.00     0.167 HD
ATOM     23  C   UNL     1       1.236   2.148  -6.049  1.00  0.00     0.037 A 
ATOM     24  C   UNL     1       3.585  -1.501  -1.145  1.00  0.00     0.037 A 
ATOM     25  C   UNL     1       0.320   1.118  -5.737  1.00  0.00     0.049 A 
ATOM     26  C   UNL     1       2.196  -1.765  -1.704  1.00  0.00     0.074 A 
ATOM     27  C   UNL     1      -0.923   0.867  -6.297  1.00  0.00     0.029 A 
ATOM     28  N   UNL     1       0.518   0.215  -4.738  1.00  0.00    -0.354 N 
ATOM     29  N   UNL     1       1.548  -1.183  -2.676  1.00  0.00    -0.248 NA
ATOM     30  C   UNL     1       1.421  -2.869  -1.083  1.00  0.00     0.031 C 
ATOM     31  C   UNL     1      -1.511  -0.174  -5.581  1.00  0.00     0.029 A 
ATOM     32  C   UNL     1      -0.590  -0.594  -4.641  1.00  0.00     0.049 A 
ATOM     33  H   UNL     1       1.325   0.151  -4.176  1.00  0.00     0.167 HD
ATOM     34  C   UNL     1       0.334  -1.875  -2.805  1.00  0.00     0.074 A 
ATOM     35  C   UNL     1       0.315  -2.910  -1.812  1.00  0.00     0.031 C 
ATOM     36  C   UNL     1      -0.663  -1.659  -3.696  1.00  0.00     0.037 A 
BRANCH  23  37
ATOM     37  C   UNL     1       0.720   3.153  -7.092  1.00  0.00     0.057 A 
ATOM     38  C   UNL     1       1.277   3.238  -8.378  1.00  0.00     0.134 A 
ATOM     39  C   UNL     1      -0.285   4.081  -6.766  1.00  0.00     0.134 A 
ATOM     40  F   UNL     1       2.274   2.415  -8.738  1.00  0.00    -0.206 F 
ATOM     41  C   UNL     1       0.893   4.237  -9.277  1.00  0.00     0.040 A 
ATOM     42  C   UNL     1      -0.704   5.058  -7.674  1.00  0.00     0.040 A 
ATOM     43  F   UNL     1      -0.859   4.066  -5.554  1.00  0.00    -0.206 F 
ATOM     44  C   UNL     1      -0.103   5.147  -8.928  1.00  0.00     0.006 A 
ENDBRANCH  23  37
BRANCH  24  45
ATOM     45  C   UNL     1       4.004  -2.409  -0.025  1.00  0.00     0.057 A 
ATOM     46  C   UNL     1       4.379  -3.736  -0.262  1.00  0.00     0.134 A 
ATOM     47  C   UNL     1       4.025  -1.953   1.300  1.00  0.00     0.134 A 
ATOM     48  F   UNL     1       4.326  -4.241  -1.504  1.00  0.00    -0.206 F 
ATOM     49  C   UNL     1       4.771  -4.577   0.779  1.00  0.00     0.040 A 
ATOM     50  C   UNL     1       4.449  -2.773   2.345  1.00  0.00     0.040 A 
ATOM     51  F   UNL     1       3.664  -0.694   1.586  1.00  0.00    -0.206 F 
ATOM     52  C   UNL     1       4.822  -4.090   2.085  1.00  0.00     0.006 A 
ENDBRANCH  24  45
BRANCH  36  53
ATOM     53  C   UNL     1      -1.875  -2.537  -3.755  1.00  0.00     0.057 A 
ATOM     54  C   UNL     1      -2.902  -2.450  -2.810  1.00  0.00     0.134 A 
ATOM     55  C   UNL     1      -2.104  -3.338  -4.885  1.00  0.00     0.134 A 
ATOM     56  F   UNL     1      -2.760  -1.679  -1.722  1.00  0.00    -0.206 F 
ATOM     57  C   UNL     1      -4.110  -3.132  -2.983  1.00  0.00     0.040 A 
ATOM     58  C   UNL     1      -3.313  -4.007  -5.079  1.00  0.00     0.040 A 
ATOM     59  F   UNL     1      -1.176  -3.434  -5.850  1.00  0.00    -0.206 F 
ATOM     60  C   UNL     1      -4.322  -3.904  -4.125  1.00  0.00     0.006 A 
ENDBRANCH  36  53
ENDBRANCH  10  11
ENDBRANCH   3   5
ENDBRANCH   2   3
ENDBRANCH   1   2
BRANCH   1  61
ATOM     61  C   UNL     1      12.107   3.150  -3.309  1.00  0.00     0.274 C 
BRANCH  61  62
ATOM     62  O   UNL     1      10.746   2.651  -3.470  1.00  0.00    -0.462 OA
BRANCH  62  63
ATOM     63  C   UNL     1       9.933   2.840  -2.397  1.00  0.00     0.309 C 
ATOM     64  O   UNL     1      10.330   3.390  -1.371  1.00  0.00    -0.252 OA
BRANCH  63  65
ATOM     65  C   UNL     1       8.469   2.245  -2.512  1.00  0.00     0.110 C 
ATOM     66  C   UNL     1       7.601   1.999  -4.221  1.00  0.00     0.077 C 
ATOM     67  C   UNL     1       7.585   3.283  -1.228  1.00  0.00     0.077 C 
ATOM     68  C   UNL     1       6.277   3.462  -4.756  1.00  0.00     0.263 C 
ATOM     69  C   UNL     1       6.155   4.285  -1.584  1.00  0.00     0.263 C 
ATOM     70  N   UNL     1       5.390   4.499  -3.265  1.00  0.00    -0.324 N 
ATOM     71  H   UNL     1       5.464   5.310  -3.879  1.00  0.00     0.348 HD
BRANCH  70  72
ATOM     72  C   UNL     1       3.823   4.328  -2.607  1.00  0.00     0.284 C 
ATOM     73  C   UNL     1       3.443   3.335  -1.436  1.00  0.00     0.176 C 
ATOM     74  C   UNL     1       3.301   5.653  -2.060  1.00  0.00     0.292 C 
ATOM     75  C   UNL     1       3.131   4.204  -0.272  1.00  0.00     0.240 C 
ATOM     76  N   UNL     1       2.942   5.468  -0.744  1.00  0.00    -0.245 N 
ATOM     77  O   UNL     1       3.110   6.648  -2.747  1.00  0.00    -0.267 OA
ATOM     78  O   UNL     1       3.097   3.822   0.889  1.00  0.00    -0.274 OA
BRANCH  76  79
ATOM     79  C   UNL     1       2.188   6.373  -0.005  1.00  0.00     0.056 A 
ATOM     80  C   UNL     1       0.798   6.192   0.056  1.00  0.00     0.031 A 
ATOM     81  C   UNL     1       2.826   7.344   0.757  1.00  0.00     0.077 A 
ATOM     82  C   UNL     1       0.030   7.029   0.854  1.00  0.00     0.052 A 
ATOM     83  C   UNL     1       2.054   8.173   1.559  1.00  0.00     0.163 A 
ATOM     84  C   UNL     1       0.657   8.035   1.582  1.00  0.00     0.161 A 
ATOM     85  O   UNL     1       2.734   9.112   2.289  1.00  0.00    -0.486 OA
ATOM     86  O   UNL     1      -0.160   8.868   2.302  1.00  0.00    -0.486 OA
ATOM     87  C   UNL     1       1.881   9.774   3.228  1.00  0.00     0.271 C 
ATOM     88  C   UNL     1       0.530  10.084   2.606  1.00  0.00     0.271 C 
ENDBRANCH  76  79
ENDBRANCH  70  72
ENDBRANCH  63  65
ENDBRANCH  62  63
ENDBRANCH  61  62
ENDBRANCH   1  61
TORSDOF 13
