REMARK SMILES COc1ccc(OCc2cccs2)c(C(=O)OCCOC(=O)c2ccc(-c3c4nc(c(-c5c(F)cccc5F)c5ccc([nH]5)c(-c5c(F)cccc5F)c5nc(c(-c6c(F)cccc6F)c6ccc3[nH]6)C=C5)C=C4)cc2)c1
REMARK SMILES IDX 18 1 17 2 15 3 16 4 14 5 3 6 4 7 77 8 5 9 6 10 2 11 1 12
REMARK SMILES IDX 7 13 8 14 9 15 10 16 13 17 11 18 12 19 19 20 20 21 21 22
REMARK SMILES IDX 22 23 23 24 24 25 76 26 25 27 75 28 26 29 27 30 28 31 69 32
REMARK SMILES IDX 29 33 74 34 68 35 70 36 30 37 73 38 67 39 66 40 31 42 57 43
REMARK SMILES IDX 40 44 56 45 41 46 44 47 55 48 71 49 42 50 43 51 54 53 72 54
REMARK SMILES IDX 45 55 32 56 33 57 38 58 34 59 35 60 37 61 39 62 36 63 58 64
REMARK SMILES IDX 59 65 64 66 60 67 61 68 63 69 65 70 62 71 46 72 47 73 52 74
REMARK SMILES IDX 48 75 49 76 51 77 53 78 50 79
REMARK H PARENT 70 41 44 52
REMARK Flexibility Score: inf
ROOT
ATOM      1  C   UNL     1       6.311  -3.279   1.486  1.00  0.00     0.275 C 
ENDROOT
BRANCH   1   2
ATOM      2  O   UNL     1       4.916  -2.916   1.435  1.00  0.00    -0.458 OA
BRANCH   2   3
ATOM      3  C   UNL     1       4.063  -3.978   1.482  1.00  0.00     0.342 C 
ATOM      4  O   UNL     1       4.460  -5.120   1.594  1.00  0.00    -0.246 OA
BRANCH   3   5
ATOM      5  C   UNL     1       2.620  -3.570   1.480  1.00  0.00     0.105 A 
ATOM      6  C   UNL     1       1.028  -1.702   1.459  1.00  0.00     0.119 A 
ATOM      7  C   UNL     1      -0.010  -2.561   1.769  1.00  0.00     0.050 A 
ATOM      8  C   UNL     1       2.334  -2.187   1.363  1.00  0.00     0.066 A 
ATOM      9  C   UNL     1       0.246  -3.924   1.840  1.00  0.00     0.051 A 
ATOM     10  C   UNL     1       1.537  -4.461   1.634  1.00  0.00     0.134 A 
BRANCH   6  11
ATOM     11  O   UNL     1       0.723  -0.378   1.316  1.00  0.00    -0.497 OA
ATOM     12  C   UNL     1       1.048   0.094   0.007  1.00  0.00     0.278 C 
ENDBRANCH   6  11
BRANCH  10  13
ATOM     13  O   UNL     1       1.424  -5.817   1.587  1.00  0.00    -0.487 OA
BRANCH  13  14
ATOM     14  C   UNL     1       2.421  -6.787   1.282  1.00  0.00     0.276 C 
BRANCH  14  15
ATOM     15  C   UNL     1       2.951  -6.690  -0.123  1.00  0.00     0.042 A 
ATOM     16  C   UNL     1       2.778  -5.735  -1.109  1.00  0.00     0.019 A 
ATOM     17  S   UNL     1       4.045  -7.914  -0.647  1.00  0.00    -0.145 S 
ATOM     18  C   UNL     1       3.647  -5.931  -2.221  1.00  0.00     0.012 A 
ATOM     19  C   UNL     1       4.381  -7.088  -2.103  1.00  0.00     0.065 A 
ENDBRANCH  14  15
ENDBRANCH  13  14
ENDBRANCH  10  13
ENDBRANCH   3   5
ENDBRANCH   2   3
ENDBRANCH   1   2
BRANCH   1  20
ATOM     20  C   UNL     1       6.853  -3.463   2.915  1.00  0.00     0.275 C 
BRANCH  20  21
ATOM     21  O   UNL     1       6.221  -4.541   3.638  1.00  0.00    -0.458 OA
BRANCH  21  22
ATOM     22  C   UNL     1       5.136  -4.182   4.370  1.00  0.00     0.338 C 
ATOM     23  O   UNL     1       4.740  -3.042   4.559  1.00  0.00    -0.246 OA
BRANCH  22  24
ATOM     24  C   UNL     1       4.352  -5.371   4.787  1.00  0.00     0.060 A 
ATOM     25  C   UNL     1       2.956  -5.271   4.720  1.00  0.00     0.016 A 
ATOM     26  C   UNL     1       4.938  -6.547   5.263  1.00  0.00     0.016 A 
ATOM     27  C   UNL     1       2.143  -6.338   5.105  1.00  0.00     0.010 A 
ATOM     28  C   UNL     1       4.120  -7.604   5.696  1.00  0.00     0.010 A 
ATOM     29  C   UNL     1       2.718  -7.499   5.632  1.00  0.00    -0.014 A 
BRANCH  29  30
ATOM     30  C   UNL     1       1.836  -8.482   6.313  1.00  0.00     0.031 A 
ATOM     31  C   UNL     1       1.520  -8.264   7.767  1.00  0.00     0.074 A 
ATOM     32  C   UNL     1       1.270  -9.512   5.659  1.00  0.00     0.049 A 
ATOM     33  N   UNL     1       0.747  -8.954   8.567  1.00  0.00    -0.248 NA
ATOM     34  C   UNL     1       2.163  -7.102   8.399  1.00  0.00     0.031 C 
ATOM     35  C   UNL     1       1.446  -9.817   4.242  1.00  0.00     0.029 A 
ATOM     36  N   UNL     1       0.426 -10.497   6.115  1.00  0.00    -0.354 N 
ATOM     37  C   UNL     1       0.795  -8.298   9.790  1.00  0.00     0.074 A 
ATOM     38  C   UNL     1       1.706  -7.184   9.637  1.00  0.00     0.031 C 
ATOM     39  C   UNL     1       0.744 -10.926   3.946  1.00  0.00     0.029 A 
ATOM     40  C   UNL     1       0.088 -11.421   5.157  1.00  0.00     0.049 A 
ATOM     41  H   UNL     1       0.095 -10.536   7.041  1.00  0.00     0.167 HD
ATOM     42  C   UNL     1       0.137  -8.588  10.938  1.00  0.00     0.037 A 
ATOM     43  C   UNL     1      -0.651 -12.546   5.253  1.00  0.00     0.037 A 
ATOM     44  C   UNL     1      -0.728  -9.724  11.115  1.00  0.00     0.049 A 
ATOM     45  C   UNL     1      -1.292 -12.913   6.569  1.00  0.00     0.074 A 
ATOM     46  C   UNL     1      -1.414 -10.118  12.250  1.00  0.00     0.029 A 
ATOM     47  N   UNL     1      -1.008 -10.663  10.133  1.00  0.00    -0.354 N 
ATOM     48  N   UNL     1      -1.261 -12.276   7.715  1.00  0.00    -0.248 NA
ATOM     49  C   UNL     1      -2.084 -14.153   6.599  1.00  0.00     0.031 C 
ATOM     50  C   UNL     1      -2.061 -11.328  11.973  1.00  0.00     0.029 A 
ATOM     51  C   UNL     1      -1.838 -11.649  10.644  1.00  0.00     0.049 A 
ATOM     52  H   UNL     1      -0.668 -10.634   9.210  1.00  0.00     0.167 HD
ATOM     53  C   UNL     1      -2.055 -13.013   8.588  1.00  0.00     0.074 A 
ATOM     54  C   UNL     1      -2.560 -14.143   7.837  1.00  0.00     0.031 C 
ATOM     55  C   UNL     1      -2.346 -12.769   9.890  1.00  0.00     0.037 A 
BRANCH  42  56
ATOM     56  C   UNL     1       0.383  -7.673  12.103  1.00  0.00     0.057 A 
ATOM     57  C   UNL     1      -0.075  -6.347  12.113  1.00  0.00     0.134 A 
ATOM     58  C   UNL     1       1.114  -8.111  13.213  1.00  0.00     0.134 A 
ATOM     59  F   UNL     1      -0.766  -5.858  11.072  1.00  0.00    -0.206 F 
ATOM     60  C   UNL     1       0.226  -5.479  13.164  1.00  0.00     0.040 A 
ATOM     61  C   UNL     1       1.393  -7.262  14.285  1.00  0.00     0.040 A 
ATOM     62  F   UNL     1       1.578  -9.368  13.271  1.00  0.00    -0.206 F 
ATOM     63  C   UNL     1       0.961  -5.938  14.255  1.00  0.00     0.006 A 
ENDBRANCH  42  56
BRANCH  43  64
ATOM     64  C   UNL     1      -0.816 -13.428   4.067  1.00  0.00     0.057 A 
ATOM     65  C   UNL     1      -2.055 -13.586   3.436  1.00  0.00     0.134 A 
ATOM     66  C   UNL     1       0.263 -14.162   3.558  1.00  0.00     0.134 A 
ATOM     67  F   UNL     1      -3.134 -12.935   3.894  1.00  0.00    -0.206 F 
ATOM     68  C   UNL     1      -2.220 -14.452   2.352  1.00  0.00     0.040 A 
ATOM     69  C   UNL     1       0.119 -15.010   2.458  1.00  0.00     0.040 A 
ATOM     70  F   UNL     1       1.476 -14.063   4.121  1.00  0.00    -0.206 F 
ATOM     71  C   UNL     1      -1.128 -15.162   1.857  1.00  0.00     0.006 A 
ENDBRANCH  43  64
BRANCH  55  72
ATOM     72  C   UNL     1      -3.302 -13.705  10.581  1.00  0.00     0.057 A 
ATOM     73  C   UNL     1      -2.964 -15.027  10.899  1.00  0.00     0.134 A 
ATOM     74  C   UNL     1      -4.571 -13.256  10.974  1.00  0.00     0.134 A 
ATOM     75  F   UNL     1      -1.770 -15.527  10.547  1.00  0.00    -0.206 F 
ATOM     76  C   UNL     1      -3.862 -15.875  11.553  1.00  0.00     0.040 A 
ATOM     77  C   UNL     1      -5.465 -14.083  11.656  1.00  0.00     0.040 A 
ATOM     78  F   UNL     1      -4.959 -11.998  10.714  1.00  0.00    -0.206 F 
ATOM     79  C   UNL     1      -5.114 -15.400  11.940  1.00  0.00     0.006 A 
ENDBRANCH  55  72
ENDBRANCH  29  30
ENDBRANCH  22  24
ENDBRANCH  21  22
ENDBRANCH  20  21
ENDBRANCH   1  20
TORSDOF 15
