REMARK SMILES O=C(Nc1ccccc1)N[C@H]1C[C@@H](C(=O)OCCOC(=O)c2ccc(-c3c4nc(c(-c5c(F)cccc5F)c5ccc([nH]5)c(-c5c(F)cccc5F)c5nc(c(-c6c(F)cccc6F)c6ccc3[nH]6)C=C5)C=C4)cc2)Nc2cc(Cl)cc(Cl)c21
REMARK SMILES IDX 17 1 16 2 14 3 15 4 13 5 11 6 12 7 84 8 77 9 82 10 76 11
REMARK SMILES IDX 78 12 81 13 83 14 79 16 80 17 10 18 1 19 2 20 3 21 4 24 5 25
REMARK SMILES IDX 9 26 6 27 8 28 7 29 18 30 19 31 20 32 21 33 22 34 23 35
REMARK SMILES IDX 75 36 24 37 74 38 25 39 26 40 27 41 68 42 28 43 73 44 67 45
REMARK SMILES IDX 69 46 29 47 72 48 66 49 65 50 30 52 56 53 39 54 55 55 40 56
REMARK SMILES IDX 43 57 54 58 70 59 41 60 42 61 53 63 71 64 44 65 31 66 32 67
REMARK SMILES IDX 37 68 33 69 34 70 36 71 38 72 35 73 57 74 58 75 63 76 59 77
REMARK SMILES IDX 60 78 62 79 64 80 61 81 45 82 46 83 51 84 47 85 48 86 50 87
REMARK SMILES IDX 52 88 49 89
REMARK H PARENT 76 15 3 22 10 23 69 51 43 62
REMARK Flexibility Score: inf
ROOT
ATOM      1  C   UNL     1       1.635  -1.748  -3.186  1.00  0.00     0.274 C 
ENDROOT
BRANCH   1   2
ATOM      2  O   UNL     1       2.122  -0.615  -2.439  1.00  0.00    -0.461 OA
BRANCH   2   3
ATOM      3  C   UNL     1       3.275  -0.044  -2.887  1.00  0.00     0.328 C 
ATOM      4  O   UNL     1       3.950  -0.477  -3.815  1.00  0.00    -0.250 OA
BRANCH   3   5
ATOM      5  C   UNL     1       3.572   1.286  -2.181  1.00  0.00     0.192 C 
ATOM      6  C   UNL     1       2.668   2.433  -0.053  1.00  0.00     0.120 C 
ATOM      7  C   UNL     1       3.448   1.240  -0.644  1.00  0.00     0.067 C 
ATOM      8  C   UNL     1       3.047   3.698  -0.802  1.00  0.00     0.016 A 
ATOM      9  C   UNL     1       2.996   3.614  -2.202  1.00  0.00     0.043 A 
ATOM     10  C   UNL     1       3.330   4.933  -0.207  1.00  0.00     0.049 A 
ATOM     11  N   UNL     1       2.759   2.362  -2.778  1.00  0.00    -0.372 N 
ATOM     12  C   UNL     1       3.048   4.765  -2.983  1.00  0.00     0.046 A 
ATOM     13  C   UNL     1       3.442   6.083  -0.994  1.00  0.00     0.041 A 
ATOM     14  Cl  UNL     1       3.567   5.098   1.495  1.00  0.00    -0.084 Cl
ATOM     15  H   UNL     1       2.114   2.213  -3.507  1.00  0.00     0.161 HD
ATOM     16  C   UNL     1       3.270   5.995  -2.373  1.00  0.00     0.044 A 
ATOM     17  Cl  UNL     1       3.343   7.420  -3.336  1.00  0.00    -0.084 Cl
BRANCH   6  18
ATOM     18  N   UNL     1       1.225   2.164  -0.122  1.00  0.00    -0.331 N 
ATOM     19  O   UNL     1       0.468   4.214   0.575  1.00  0.00    -0.248 OA
ATOM     20  C   UNL     1       0.255   3.056   0.232  1.00  0.00     0.319 C 
ATOM     21  N   UNL     1      -1.031   2.639   0.054  1.00  0.00    -0.308 N 
ATOM     22  H   UNL     1      -1.659   3.343  -0.226  1.00  0.00     0.171 HD
ATOM     23  H   UNL     1       0.939   1.280  -0.445  1.00  0.00     0.166 HD
BRANCH  21  24
ATOM     24  C   UNL     1      -1.601   1.365   0.206  1.00  0.00     0.042 A 
ATOM     25  C   UNL     1      -2.889   1.167  -0.303  1.00  0.00     0.026 A 
ATOM     26  C   UNL     1      -0.992   0.346   0.942  1.00  0.00     0.026 A 
ATOM     27  C   UNL     1      -3.553  -0.043  -0.094  1.00  0.00     0.002 A 
ATOM     28  C   UNL     1      -1.665  -0.857   1.168  1.00  0.00     0.002 A 
ATOM     29  C   UNL     1      -2.944  -1.052   0.649  1.00  0.00     0.000 A 
ENDBRANCH  21  24
ENDBRANCH   6  18
ENDBRANCH   3   5
ENDBRANCH   2   3
ENDBRANCH   1   2
BRANCH   1  30
ATOM     30  C   UNL     1       0.230  -1.464  -3.721  1.00  0.00     0.275 C 
BRANCH  30  31
ATOM     31  O   UNL     1       0.250  -0.446  -4.741  1.00  0.00    -0.458 OA
BRANCH  31  32
ATOM     32  C   UNL     1       0.140   0.820  -4.282  1.00  0.00     0.338 C 
ATOM     33  O   UNL     1       0.050   1.190  -3.122  1.00  0.00    -0.246 OA
BRANCH  32  34
ATOM     34  C   UNL     1       0.256   1.772  -5.390  1.00  0.00     0.060 A 
ATOM     35  C   UNL     1       1.520   2.264  -5.714  1.00  0.00     0.016 A 
ATOM     36  C   UNL     1      -0.892   2.311  -5.971  1.00  0.00     0.016 A 
ATOM     37  C   UNL     1       1.635   3.355  -6.570  1.00  0.00     0.010 A 
ATOM     38  C   UNL     1      -0.767   3.365  -6.881  1.00  0.00     0.010 A 
ATOM     39  C   UNL     1       0.495   3.916  -7.165  1.00  0.00    -0.014 A 
BRANCH  39  40
ATOM     40  C   UNL     1       0.624   5.088  -8.068  1.00  0.00     0.031 A 
ATOM     41  C   UNL     1       0.032   6.417  -7.688  1.00  0.00     0.074 A 
ATOM     42  C   UNL     1       1.294   4.966  -9.229  1.00  0.00     0.049 A 
ATOM     43  N   UNL     1      -0.087   7.504  -8.409  1.00  0.00    -0.248 NA
ATOM     44  C   UNL     1      -0.504   6.539  -6.324  1.00  0.00     0.031 C 
ATOM     45  C   UNL     1       1.960   3.751  -9.698  1.00  0.00     0.029 A 
ATOM     46  N   UNL     1       1.537   5.883 -10.219  1.00  0.00    -0.354 N 
ATOM     47  C   UNL     1      -0.750   8.422  -7.606  1.00  0.00     0.074 A 
ATOM     48  C   UNL     1      -1.004   7.768  -6.339  1.00  0.00     0.031 C 
ATOM     49  C   UNL     1       2.572   4.009 -10.864  1.00  0.00     0.029 A 
ATOM     50  C   UNL     1       2.285   5.385 -11.256  1.00  0.00     0.049 A 
ATOM     51  H   UNL     1       1.206   6.810 -10.188  1.00  0.00     0.167 HD
ATOM     52  C   UNL     1      -1.117   9.692  -7.900  1.00  0.00     0.037 A 
ATOM     53  C   UNL     1       2.674   5.960 -12.407  1.00  0.00     0.037 A 
ATOM     54  C   UNL     1      -0.817  10.365  -9.137  1.00  0.00     0.049 A 
ATOM     55  C   UNL     1       2.241   7.361 -12.719  1.00  0.00     0.074 A 
ATOM     56  C   UNL     1      -1.146  11.653  -9.524  1.00  0.00     0.029 A 
ATOM     57  N   UNL     1      -0.094   9.808 -10.181  1.00  0.00    -0.354 N 
ATOM     58  N   UNL     1       1.537   8.187 -11.987  1.00  0.00    -0.248 NA
ATOM     59  C   UNL     1       2.632   7.896 -14.031  1.00  0.00     0.031 C 
ATOM     60  C   UNL     1      -0.635  11.871 -10.809  1.00  0.00     0.029 A 
ATOM     61  C   UNL     1       0.029  10.724 -11.212  1.00  0.00     0.049 A 
ATOM     62  H   UNL     1       0.277   8.896 -10.187  1.00  0.00     0.167 HD
ATOM     63  C   UNL     1       1.394   9.338 -12.748  1.00  0.00     0.074 A 
ATOM     64  C   UNL     1       2.102   9.111 -13.992  1.00  0.00     0.031 C 
ATOM     65  C   UNL     1       0.726  10.477 -12.447  1.00  0.00     0.037 A 
BRANCH  52  66
ATOM     66  C   UNL     1      -1.914  10.433  -6.871  1.00  0.00     0.057 A 
ATOM     67  C   UNL     1      -1.315  11.009  -5.745  1.00  0.00     0.134 A 
ATOM     68  C   UNL     1      -3.296  10.597  -7.029  1.00  0.00     0.134 A 
ATOM     69  F   UNL     1       0.002  10.876  -5.533  1.00  0.00    -0.206 F 
ATOM     70  C   UNL     1      -2.068  11.712  -4.802  1.00  0.00     0.040 A 
ATOM     71  C   UNL     1      -4.056  11.311  -6.102  1.00  0.00     0.040 A 
ATOM     72  F   UNL     1      -3.927  10.071  -8.089  1.00  0.00    -0.206 F 
ATOM     73  C   UNL     1      -3.442  11.868  -4.982  1.00  0.00     0.006 A 
ENDBRANCH  52  66
BRANCH  53  74
ATOM     74  C   UNL     1       3.504   5.191 -13.362  1.00  0.00     0.057 A 
ATOM     75  C   UNL     1       4.870   5.457 -13.498  1.00  0.00     0.134 A 
ATOM     76  C   UNL     1       2.959   4.160 -14.136  1.00  0.00     0.134 A 
ATOM     77  F   UNL     1       5.439   6.446 -12.794  1.00  0.00    -0.206 F 
ATOM     78  C   UNL     1       5.670   4.720 -14.372  1.00  0.00     0.040 A 
ATOM     79  C   UNL     1       3.751   3.405 -15.001  1.00  0.00     0.040 A 
ATOM     80  F   UNL     1       1.655   3.861 -14.045  1.00  0.00    -0.206 F 
ATOM     81  C   UNL     1       5.111   3.686 -15.121  1.00  0.00     0.006 A 
ENDBRANCH  53  74
BRANCH  65  82
ATOM     82  C   UNL     1       0.733  11.556 -13.482  1.00  0.00     0.057 A 
ATOM     83  C   UNL     1      -0.126  11.509 -14.586  1.00  0.00     0.134 A 
ATOM     84  C   UNL     1       1.593  12.655 -13.369  1.00  0.00     0.134 A 
ATOM     85  F   UNL     1      -0.960  10.472 -14.755  1.00  0.00    -0.206 F 
ATOM     86  C   UNL     1      -0.121  12.515 -15.553  1.00  0.00     0.040 A 
ATOM     87  C   UNL     1       1.598  13.673 -14.323  1.00  0.00     0.040 A 
ATOM     88  F   UNL     1       2.439  12.754 -12.333  1.00  0.00    -0.206 F 
ATOM     89  C   UNL     1       0.741  13.603 -15.421  1.00  0.00     0.006 A 
ENDBRANCH  65  82
ENDBRANCH  39  40
ENDBRANCH  32  34
ENDBRANCH  31  32
ENDBRANCH  30  31
ENDBRANCH   1  30
TORSDOF 13
