REMARK SMILES C[C@H](Oc1ccc(-c2ccccc2)cc1)C(=O)N[C@H](C)C(=O)OCCOC(=O)c1ccc(-c2c3nc(c(-c4c(F)cccc4F)c4ccc([nH]4)c(-c4c(F)cccc4F)c4nc(c(-c5c(F)cccc5F)c5ccc2[nH]5)C=C4)C=C3)cc1
REMARK SMILES IDX 23 1 21 2 22 3 19 4 20 5 18 6 16 7 17 8 2 10 1 11 3 12 4 13
REMARK SMILES IDX 5 14 15 15 6 16 14 17 7 18 8 19 9 20 13 21 10 22 12 23 11 24
REMARK SMILES IDX 24 25 25 26 26 27 27 28 28 29 29 30 30 31 82 32 31 33 81 34
REMARK SMILES IDX 32 35 33 36 34 37 75 38 35 39 80 40 74 41 76 42 36 43 79 44
REMARK SMILES IDX 73 45 72 46 37 48 63 49 46 50 62 51 47 52 50 53 61 54 77 55
REMARK SMILES IDX 48 56 49 57 60 59 78 60 51 61 38 62 39 63 44 64 40 65 41 66
REMARK SMILES IDX 43 67 45 68 42 69 64 70 65 71 70 72 66 73 67 74 69 75 71 76
REMARK SMILES IDX 68 77 52 78 53 79 58 80 54 81 55 82 57 83 59 84 56 85
REMARK H PARENT 18 9 76 47 50 58
REMARK Flexibility Score: inf
ROOT
ATOM      1  O   UNL     1      -2.153  -3.799   1.823  1.00  0.00    -0.461 OA
ENDROOT
BRANCH   1   2
ATOM      2  C   UNL     1      -1.355  -2.898   2.446  1.00  0.00     0.328 C 
ATOM      3  O   UNL     1      -0.644  -3.158   3.412  1.00  0.00    -0.250 OA
BRANCH   2   4
ATOM      4  C   UNL     1      -1.483  -1.470   1.873  1.00  0.00     0.189 C 
ATOM      5  C   UNL     1      -2.074  -1.284   0.478  1.00  0.00     0.043 C 
BRANCH   4   6
ATOM      6  N   UNL     1      -1.973  -0.471   2.834  1.00  0.00    -0.340 N 
ATOM      7  C   UNL     1      -3.178  -0.357   3.475  1.00  0.00     0.261 C 
ATOM      8  O   UNL     1      -3.403   0.704   4.067  1.00  0.00    -0.271 OA
ATOM      9  H   UNL     1      -1.324   0.236   3.055  1.00  0.00     0.164 HD
BRANCH   7  10
ATOM     10  C   UNL     1      -4.167  -1.538   3.580  1.00  0.00     0.258 C 
ATOM     11  C   UNL     1      -3.625  -2.502   4.635  1.00  0.00     0.064 C 
BRANCH  10  12
ATOM     12  O   UNL     1      -4.346  -2.024   2.258  1.00  0.00    -0.481 OA
BRANCH  12  13
ATOM     13  C   UNL     1      -5.128  -3.074   1.905  1.00  0.00     0.120 A 
ATOM     14  C   UNL     1      -5.716  -4.003   2.746  1.00  0.00     0.047 A 
ATOM     15  C   UNL     1      -5.231  -3.259   0.522  1.00  0.00     0.047 A 
ATOM     16  C   UNL     1      -6.323  -5.149   2.204  1.00  0.00     0.012 A 
ATOM     17  C   UNL     1      -5.861  -4.383  -0.018  1.00  0.00     0.012 A 
ATOM     18  C   UNL     1      -6.399  -5.370   0.815  1.00  0.00    -0.018 A 
BRANCH  18  19
ATOM     19  C   UNL     1      -7.013  -6.594   0.260  1.00  0.00    -0.018 A 
ATOM     20  C   UNL     1      -8.195  -7.122   0.808  1.00  0.00     0.009 A 
ATOM     21  C   UNL     1      -6.439  -7.282  -0.826  1.00  0.00     0.009 A 
ATOM     22  C   UNL     1      -8.771  -8.292   0.307  1.00  0.00     0.001 A 
ATOM     23  C   UNL     1      -7.017  -8.450  -1.333  1.00  0.00     0.001 A 
ATOM     24  C   UNL     1      -8.181  -8.957  -0.763  1.00  0.00     0.000 A 
ENDBRANCH  18  19
ENDBRANCH  12  13
ENDBRANCH  10  12
ENDBRANCH   7  10
ENDBRANCH   4   6
ENDBRANCH   2   4
ENDBRANCH   1   2
BRANCH   1  25
ATOM     25  C   UNL     1      -2.231  -5.133   2.375  1.00  0.00     0.274 C 
BRANCH  25  26
ATOM     26  C   UNL     1      -2.241  -6.161   1.246  1.00  0.00     0.275 C 
BRANCH  26  27
ATOM     27  O   UNL     1      -0.911  -6.263   0.720  1.00  0.00    -0.458 OA
BRANCH  27  28
ATOM     28  C   UNL     1      -0.582  -5.283  -0.151  1.00  0.00     0.338 C 
ATOM     29  O   UNL     1      -1.329  -4.551  -0.778  1.00  0.00    -0.246 OA
BRANCH  28  30
ATOM     30  C   UNL     1       0.864  -5.066  -0.039  1.00  0.00     0.060 A 
ATOM     31  C   UNL     1       1.321  -3.760   0.178  1.00  0.00     0.016 A 
ATOM     32  C   UNL     1       1.753  -6.134  -0.149  1.00  0.00     0.016 A 
ATOM     33  C   UNL     1       2.684  -3.509   0.250  1.00  0.00     0.010 A 
ATOM     34  C   UNL     1       3.117  -5.882  -0.088  1.00  0.00     0.010 A 
ATOM     35  C   UNL     1       3.583  -4.566   0.078  1.00  0.00    -0.014 A 
BRANCH  35  36
ATOM     36  C   UNL     1       5.019  -4.291  -0.108  1.00  0.00     0.031 A 
ATOM     37  C   UNL     1       5.565  -4.330  -1.504  1.00  0.00     0.074 A 
ATOM     38  C   UNL     1       5.805  -4.042   0.950  1.00  0.00     0.049 A 
ATOM     39  N   UNL     1       6.804  -4.290  -1.912  1.00  0.00    -0.248 NA
ATOM     40  C   UNL     1       4.575  -4.447  -2.590  1.00  0.00     0.031 C 
ATOM     41  C   UNL     1       5.349  -3.935   2.336  1.00  0.00     0.029 A 
ATOM     42  N   UNL     1       7.160  -3.858   1.022  1.00  0.00    -0.354 N 
ATOM     43  C   UNL     1       6.745  -4.402  -3.295  1.00  0.00     0.074 A 
ATOM     44  C   UNL     1       5.353  -4.534  -3.657  1.00  0.00     0.031 C 
ATOM     45  C   UNL     1       6.415  -3.726   3.127  1.00  0.00     0.029 A 
ATOM     46  C   UNL     1       7.623  -3.734   2.308  1.00  0.00     0.049 A 
ATOM     47  H   UNL     1       7.743  -3.820   0.230  1.00  0.00     0.167 HD
ATOM     48  C   UNL     1       7.770  -4.394  -4.177  1.00  0.00     0.037 A 
ATOM     49  C   UNL     1       8.889  -3.675   2.762  1.00  0.00     0.037 A 
ATOM     50  C   UNL     1       9.148  -4.259  -3.789  1.00  0.00     0.049 A 
ATOM     51  C   UNL     1      10.015  -3.732   1.764  1.00  0.00     0.074 A 
ATOM     52  C   UNL     1      10.274  -4.227  -4.591  1.00  0.00     0.029 A 
ATOM     53  N   UNL     1       9.584  -4.137  -2.476  1.00  0.00    -0.354 N 
ATOM     54  N   UNL     1       9.959  -3.835   0.457  1.00  0.00    -0.248 NA
ATOM     55  C   UNL     1      11.379  -3.668   2.303  1.00  0.00     0.031 C 
ATOM     56  C   UNL     1      11.395  -4.134  -3.760  1.00  0.00     0.029 A 
ATOM     57  C   UNL     1      10.964  -4.050  -2.444  1.00  0.00     0.049 A 
ATOM     58  H   UNL     1       8.998  -4.116  -1.685  1.00  0.00     0.167 HD
ATOM     59  C   UNL     1      11.275  -3.817   0.015  1.00  0.00     0.074 A 
ATOM     60  C   UNL     1      12.106  -3.681   1.195  1.00  0.00     0.031 C 
ATOM     61  C   UNL     1      11.759  -3.904  -1.250  1.00  0.00     0.037 A 
BRANCH  48  62
ATOM     62  C   UNL     1       7.437  -4.570  -5.630  1.00  0.00     0.057 A 
ATOM     63  C   UNL     1       6.782  -3.577  -6.370  1.00  0.00     0.134 A 
ATOM     64  C   UNL     1       7.791  -5.747  -6.303  1.00  0.00     0.134 A 
ATOM     65  F   UNL     1       6.396  -2.434  -5.782  1.00  0.00    -0.206 F 
ATOM     66  C   UNL     1       6.472  -3.756  -7.720  1.00  0.00     0.040 A 
ATOM     67  C   UNL     1       7.511  -5.927  -7.658  1.00  0.00     0.040 A 
ATOM     68  F   UNL     1       8.417  -6.741  -5.654  1.00  0.00    -0.206 F 
ATOM     69  C   UNL     1       6.844  -4.931  -8.369  1.00  0.00     0.006 A 
ENDBRANCH  48  62
BRANCH  49  70
ATOM     70  C   UNL     1       9.156  -3.578   4.218  1.00  0.00     0.057 A 
ATOM     71  C   UNL     1       9.714  -2.423   4.777  1.00  0.00     0.134 A 
ATOM     72  C   UNL     1       8.872  -4.640   5.087  1.00  0.00     0.134 A 
ATOM     73  F   UNL     1      10.026  -1.379   3.995  1.00  0.00    -0.206 F 
ATOM     74  C   UNL     1       9.998  -2.332   6.141  1.00  0.00     0.040 A 
ATOM     75  C   UNL     1       9.125  -4.553   6.457  1.00  0.00     0.040 A 
ATOM     76  F   UNL     1       8.333  -5.775   4.618  1.00  0.00    -0.206 F 
ATOM     77  C   UNL     1       9.698  -3.399   6.986  1.00  0.00     0.006 A 
ENDBRANCH  49  70
BRANCH  61  78
ATOM     78  C   UNL     1      13.246  -3.805  -1.418  1.00  0.00     0.057 A 
ATOM     79  C   UNL     1      14.106  -4.843  -1.040  1.00  0.00     0.134 A 
ATOM     80  C   UNL     1      13.818  -2.671  -2.008  1.00  0.00     0.134 A 
ATOM     81  F   UNL     1      13.620  -5.951  -0.458  1.00  0.00    -0.206 F 
ATOM     82  C   UNL     1      15.486  -4.745  -1.218  1.00  0.00     0.040 A 
ATOM     83  C   UNL     1      15.193  -2.574  -2.219  1.00  0.00     0.040 A 
ATOM     84  F   UNL     1      13.048  -1.646  -2.404  1.00  0.00    -0.206 F 
ATOM     85  C   UNL     1      16.032  -3.611  -1.817  1.00  0.00     0.006 A 
ENDBRANCH  61  78
ENDBRANCH  35  36
ENDBRANCH  28  30
ENDBRANCH  27  28
ENDBRANCH  26  27
ENDBRANCH  25  26
ENDBRANCH   1  25
TORSDOF 16
