REMARK SMILES Cc1cc(Cl)c(C)c2c1O[C@H](C(F)(F)F)C(C(=O)OCCOC(=O)c1ccc(-c3c4nc(c(-c5c(F)cccc5F)c5ccc([nH]5)c(-c5c(F)cccc5F)c5nc(c(-c6c(F)cccc6F)c6ccc3[nH]6)C=C5)C=C4)cc1)=C2
REMARK SMILES IDX 21 1 20 2 19 3 17 4 18 5 16 6 1 7 2 8 3 9 9 10 4 11 8 12
REMARK SMILES IDX 10 13 5 14 6 15 79 16 11 17 7 18 12 19 13 20 14 21 15 22
REMARK SMILES IDX 22 23 23 24 24 25 25 26 26 27 78 28 27 29 77 30 28 31 29 32
REMARK SMILES IDX 30 33 71 34 31 35 76 36 70 37 72 38 32 39 75 40 69 41 68 42
REMARK SMILES IDX 33 44 59 45 42 46 58 47 43 48 46 49 57 50 73 51 44 52 45 53
REMARK SMILES IDX 56 55 74 56 47 57 34 58 35 59 40 60 36 61 37 62 39 63 41 64
REMARK SMILES IDX 38 65 60 66 61 67 66 68 62 69 63 70 65 71 67 72 64 73 48 74
REMARK SMILES IDX 49 75 54 76 50 77 51 78 53 79 55 80 52 81
REMARK H PARENT 72 43 46 54
REMARK Flexibility Score: inf
ROOT
ATOM      1  C   UNL     1       0.967  -7.551   4.954  1.00  0.00     0.275 C 
ENDROOT
BRANCH   1   2
ATOM      2  C   UNL     1       0.221  -7.319   3.641  1.00  0.00     0.275 C 
BRANCH   2   3
ATOM      3  O   UNL     1       0.465  -5.988   3.135  1.00  0.00    -0.459 OA
BRANCH   3   4
ATOM      4  C   UNL     1      -0.541  -5.099   3.322  1.00  0.00     0.338 C 
ATOM      5  O   UNL     1      -1.612  -5.309   3.857  1.00  0.00    -0.246 OA
BRANCH   4   6
ATOM      6  C   UNL     1      -0.151  -3.776   2.794  1.00  0.00     0.087 C 
ATOM      7  C   UNL     1       1.096   0.110  -0.280  1.00  0.00     0.048 C 
ATOM      8  C   UNL     1       0.567  -0.019   1.120  1.00  0.00    -0.007 A 
ATOM      9  C   UNL     1       0.290   1.135   1.861  1.00  0.00     0.028 A 
ATOM     10  C   UNL     1       0.378  -1.272   1.719  1.00  0.00     0.131 A 
ATOM     11  C   UNL     1      -0.178   1.051   3.175  1.00  0.00     0.045 A 
ATOM     12  C   UNL     1      -0.119  -1.369   3.030  1.00  0.00     0.022 A 
ATOM     13  O   UNL     1       0.737  -2.358   0.965  1.00  0.00    -0.475 OA
ATOM     14  Cl  UNL     1      -0.477   2.551   3.985  1.00  0.00    -0.084 Cl
ATOM     15  C   UNL     1      -0.391  -0.197   3.786  1.00  0.00    -0.021 A 
ATOM     16  C   UNL     1      -0.366  -2.704   3.565  1.00  0.00     0.027 C 
ATOM     17  C   UNL     1       0.341  -3.687   1.385  1.00  0.00     0.316 C 
ATOM     18  C   UNL     1      -0.880  -0.300   5.212  1.00  0.00     0.047 C 
BRANCH  17  19
ATOM     19  C   UNL     1      -0.693  -4.238   0.391  1.00  0.00     0.430 C 
ATOM     20  F   UNL     1      -0.258  -4.127  -0.887  1.00  0.00    -0.167 F 
ATOM     21  F   UNL     1      -0.934  -5.555   0.604  1.00  0.00    -0.167 F 
ATOM     22  F   UNL     1      -1.878  -3.592   0.475  1.00  0.00    -0.167 F 
ENDBRANCH  17  19
ENDBRANCH   4   6
ENDBRANCH   3   4
ENDBRANCH   2   3
ENDBRANCH   1   2
BRANCH   1  23
ATOM     23  O   UNL     1       0.421  -6.702   5.980  1.00  0.00    -0.458 OA
BRANCH  23  24
ATOM     24  C   UNL     1       1.249  -5.754   6.471  1.00  0.00     0.338 C 
ATOM     25  O   UNL     1       2.422  -5.568   6.189  1.00  0.00    -0.246 OA
BRANCH  24  26
ATOM     26  C   UNL     1       0.506  -4.890   7.401  1.00  0.00     0.060 A 
ATOM     27  C   UNL     1      -0.585  -4.173   6.924  1.00  0.00     0.016 A 
ATOM     28  C   UNL     1       0.959  -4.681   8.702  1.00  0.00     0.016 A 
ATOM     29  C   UNL     1      -1.148  -3.161   7.693  1.00  0.00     0.010 A 
ATOM     30  C   UNL     1       0.300  -3.755   9.524  1.00  0.00     0.010 A 
ATOM     31  C   UNL     1      -0.736  -2.950   9.017  1.00  0.00    -0.014 A 
BRANCH  31  32
ATOM     32  C   UNL     1      -1.386  -1.879   9.831  1.00  0.00     0.031 A 
ATOM     33  C   UNL     1      -0.566  -0.782  10.464  1.00  0.00     0.074 A 
ATOM     34  C   UNL     1      -2.731  -1.847   9.954  1.00  0.00     0.049 A 
ATOM     35  N   UNL     1      -0.952   0.175  11.272  1.00  0.00    -0.248 NA
ATOM     36  C   UNL     1       0.875  -0.761  10.166  1.00  0.00     0.031 C 
ATOM     37  C   UNL     1      -3.657  -2.821   9.369  1.00  0.00     0.029 A 
ATOM     38  N   UNL     1      -3.561  -0.943  10.573  1.00  0.00    -0.354 N 
ATOM     39  C   UNL     1       0.200   0.871  11.620  1.00  0.00     0.074 A 
ATOM     40  C   UNL     1       1.302   0.225  10.943  1.00  0.00     0.031 C 
ATOM     41  C   UNL     1      -4.917  -2.410   9.569  1.00  0.00     0.029 A 
ATOM     42  C   UNL     1      -4.898  -1.205  10.388  1.00  0.00     0.049 A 
ATOM     43  H   UNL     1      -3.228  -0.180  11.098  1.00  0.00     0.167 HD
ATOM     44  C   UNL     1       0.325   1.954  12.424  1.00  0.00     0.037 A 
ATOM     45  C   UNL     1      -5.995  -0.567  10.843  1.00  0.00     0.037 A 
ATOM     46  C   UNL     1      -0.779   2.639  13.043  1.00  0.00     0.049 A 
ATOM     47  C   UNL     1      -5.829   0.619  11.746  1.00  0.00     0.074 A 
ATOM     48  C   UNL     1      -0.748   3.745  13.876  1.00  0.00     0.029 A 
ATOM     49  N   UNL     1      -2.113   2.304  12.874  1.00  0.00    -0.354 N 
ATOM     50  N   UNL     1      -4.726   1.217  12.124  1.00  0.00    -0.248 NA
ATOM     51  C   UNL     1      -7.054   1.199  12.316  1.00  0.00     0.031 C 
ATOM     52  C   UNL     1      -2.061   4.061  14.234  1.00  0.00     0.029 A 
ATOM     53  C   UNL     1      -2.912   3.177  13.593  1.00  0.00     0.049 A 
ATOM     54  H   UNL     1      -2.443   1.556  12.325  1.00  0.00     0.167 HD
ATOM     55  C   UNL     1      -5.122   2.244  12.969  1.00  0.00     0.074 A 
ATOM     56  C   UNL     1      -6.568   2.202  13.035  1.00  0.00     0.031 C 
ATOM     57  C   UNL     1      -4.351   3.132  13.639  1.00  0.00     0.037 A 
BRANCH  44  58
ATOM     58  C   UNL     1       1.708   2.467  12.703  1.00  0.00     0.057 A 
ATOM     59  C   UNL     1       2.443   3.178  11.747  1.00  0.00     0.134 A 
ATOM     60  C   UNL     1       2.281   2.308  13.972  1.00  0.00     0.134 A 
ATOM     61  F   UNL     1       1.956   3.356  10.510  1.00  0.00    -0.206 F 
ATOM     62  C   UNL     1       3.704   3.702  12.039  1.00  0.00     0.040 A 
ATOM     63  C   UNL     1       3.530   2.848  14.283  1.00  0.00     0.040 A 
ATOM     64  F   UNL     1       1.626   1.645  14.937  1.00  0.00    -0.206 F 
ATOM     65  C   UNL     1       4.247   3.545  13.314  1.00  0.00     0.006 A 
ENDBRANCH  44  58
BRANCH  45  66
ATOM     66  C   UNL     1      -7.345  -1.054  10.458  1.00  0.00     0.057 A 
ATOM     67  C   UNL     1      -8.162  -0.305   9.604  1.00  0.00     0.134 A 
ATOM     68  C   UNL     1      -7.837  -2.288  10.901  1.00  0.00     0.134 A 
ATOM     69  F   UNL     1      -7.758   0.896   9.165  1.00  0.00    -0.206 F 
ATOM     70  C   UNL     1      -9.415  -0.767   9.199  1.00  0.00     0.040 A 
ATOM     71  C   UNL     1      -9.075  -2.776  10.482  1.00  0.00     0.040 A 
ATOM     72  F   UNL     1      -7.102  -3.055  11.720  1.00  0.00    -0.206 F 
ATOM     73  C   UNL     1      -9.870  -2.013   9.630  1.00  0.00     0.006 A 
ENDBRANCH  45  66
BRANCH  57  74
ATOM     74  C   UNL     1      -5.043   4.152  14.490  1.00  0.00     0.057 A 
ATOM     75  C   UNL     1      -5.559   3.823  15.748  1.00  0.00     0.134 A 
ATOM     76  C   UNL     1      -5.107   5.492  14.088  1.00  0.00     0.134 A 
ATOM     77  F   UNL     1      -5.535   2.554  16.183  1.00  0.00    -0.206 F 
ATOM     78  C   UNL     1      -6.116   4.795  16.581  1.00  0.00     0.040 A 
ATOM     79  C   UNL     1      -5.644   6.475  14.919  1.00  0.00     0.040 A 
ATOM     80  F   UNL     1      -4.621   5.869  12.896  1.00  0.00    -0.206 F 
ATOM     81  C   UNL     1      -6.149   6.127  16.171  1.00  0.00     0.006 A 
ENDBRANCH  57  74
ENDBRANCH  31  32
ENDBRANCH  24  26
ENDBRANCH  23  24
ENDBRANCH   1  23
TORSDOF 12
