REMARK SMILES CC1=C(C)C[C@@H](C(=O)OCCOC(=O)c2ccc(-c3c4nc(c(-c5c(F)cccc5F)c5ccc([nH]5)c(-c5c(F)cccc5F)c5nc(c(-c6c(F)cccc6F)c6ccc3[nH]6)C=C5)C=C4)cc2)[C@@H](C(=O)NCC[NH+]2CCOCC2)C1
REMARK SMILES IDX 10 1 9 2 7 3 8 4 6 5 1 6 2 7 3 8 81 9 4 10 5 11 69 12 70 13
REMARK SMILES IDX 71 14 72 15 73 17 74 18 75 19 76 20 80 21 77 23 79 24 78 25
REMARK SMILES IDX 11 26 12 27 13 28 14 29 15 30 16 31 68 32 17 33 67 34 18 35
REMARK SMILES IDX 19 36 20 37 61 38 21 39 66 40 60 41 62 42 22 43 65 44 59 45
REMARK SMILES IDX 58 46 23 48 49 49 32 50 48 51 33 52 36 53 47 54 63 55 34 56
REMARK SMILES IDX 35 57 46 59 64 60 37 61 24 62 25 63 30 64 26 65 27 66 29 67
REMARK SMILES IDX 31 68 28 69 50 70 51 71 56 72 52 73 53 74 55 75 57 76 54 77
REMARK SMILES IDX 38 78 39 79 44 80 40 81 41 82 43 83 45 84 42 85
REMARK H PARENT 72 16 75 22 62 47 36 58
REMARK Flexibility Score: inf
ROOT
ATOM      1  C   UNL     1      -3.876  -1.902  -3.591  1.00  0.00     0.274 C 
ENDROOT
BRANCH   1   2
ATOM      2  O   UNL     1      -2.580  -1.444  -3.163  1.00  0.00    -0.462 OA
BRANCH   2   3
ATOM      3  C   UNL     1      -1.520  -1.899  -3.857  1.00  0.00     0.310 C 
ATOM      4  O   UNL     1      -1.592  -2.715  -4.773  1.00  0.00    -0.252 OA
BRANCH   3   5
ATOM      5  C   UNL     1      -0.181  -1.360  -3.392  1.00  0.00     0.116 C 
ATOM      6  C   UNL     1       1.455  -0.267   0.586  1.00  0.00     0.039 C 
ATOM      7  C   UNL     1       1.087  -0.748  -0.793  1.00  0.00    -0.074 C 
ATOM      8  C   UNL     1       0.916  -2.039  -1.135  1.00  0.00    -0.073 C 
ATOM      9  C   UNL     1       0.978   0.341  -1.831  1.00  0.00     0.045 C 
ATOM     10  C   UNL     1       1.199  -3.218  -0.240  1.00  0.00     0.039 C 
ATOM     11  C   UNL     1       0.504  -2.431  -2.527  1.00  0.00     0.046 C 
ATOM     12  C   UNL     1      -0.060   0.105  -2.947  1.00  0.00     0.097 C 
BRANCH  12  13
ATOM     13  C   UNL     1      -1.293   0.916  -2.528  1.00  0.00     0.224 C 
ATOM     14  O   UNL     1      -1.925   0.710  -1.498  1.00  0.00    -0.275 OA
ATOM     15  N   UNL     1      -1.413   2.096  -3.245  1.00  0.00    -0.350 N 
ATOM     16  H   UNL     1      -1.679   2.078  -4.193  1.00  0.00     0.163 HD
BRANCH  15  17
ATOM     17  C   UNL     1      -1.143   3.357  -2.586  1.00  0.00     0.177 C 
BRANCH  17  18
ATOM     18  C   UNL     1      -1.431   4.619  -3.421  1.00  0.00     0.283 C 
BRANCH  18  19
ATOM     19  N   UNL     1      -2.776   5.199  -3.504  1.00  0.00    -0.330 N 
ATOM     20  C   UNL     1      -3.832   4.610  -2.669  1.00  0.00     0.291 C 
ATOM     21  C   UNL     1      -3.266   5.378  -4.881  1.00  0.00     0.291 C 
ATOM     22  H   UNL     1      -2.593   6.111  -3.084  1.00  0.00     0.348 HD
ATOM     23  C   UNL     1      -4.542   3.397  -3.294  1.00  0.00     0.221 C 
ATOM     24  C   UNL     1      -3.940   4.123  -5.452  1.00  0.00     0.221 C 
ATOM     25  O   UNL     1      -5.020   3.690  -4.616  1.00  0.00    -0.370 OA
ENDBRANCH  18  19
ENDBRANCH  17  18
ENDBRANCH  15  17
ENDBRANCH  12  13
ENDBRANCH   3   5
ENDBRANCH   2   3
ENDBRANCH   1   2
BRANCH   1  26
ATOM     26  C   UNL     1      -4.515  -0.924  -4.584  1.00  0.00     0.275 C 
BRANCH  26  27
ATOM     27  O   UNL     1      -3.885  -0.985  -5.881  1.00  0.00    -0.458 OA
BRANCH  27  28
ATOM     28  C   UNL     1      -2.926  -0.062  -6.113  1.00  0.00     0.338 C 
ATOM     29  O   UNL     1      -2.547   0.836  -5.381  1.00  0.00    -0.246 OA
BRANCH  28  30
ATOM     30  C   UNL     1      -2.217  -0.359  -7.361  1.00  0.00     0.060 A 
ATOM     31  C   UNL     1      -0.858  -0.672  -7.260  1.00  0.00     0.016 A 
ATOM     32  C   UNL     1      -2.828  -0.218  -8.606  1.00  0.00     0.016 A 
ATOM     33  C   UNL     1      -0.097  -0.859  -8.405  1.00  0.00     0.010 A 
ATOM     34  C   UNL     1      -2.060  -0.404  -9.760  1.00  0.00     0.010 A 
ATOM     35  C   UNL     1      -0.693  -0.720  -9.662  1.00  0.00    -0.014 A 
BRANCH  35  36
ATOM     36  C   UNL     1       0.137  -0.883 -10.875  1.00  0.00     0.031 A 
ATOM     37  C   UNL     1       0.579   0.323 -11.647  1.00  0.00     0.074 A 
ATOM     38  C   UNL     1       0.513  -2.116 -11.256  1.00  0.00     0.049 A 
ATOM     39  N   UNL     1       1.226   0.385 -12.781  1.00  0.00    -0.248 NA
ATOM     40  C   UNL     1       0.252   1.633 -11.063  1.00  0.00     0.031 C 
ATOM     41  C   UNL     1       0.191  -3.354 -10.545  1.00  0.00     0.029 A 
ATOM     42  N   UNL     1       1.246  -2.529 -12.338  1.00  0.00    -0.354 N 
ATOM     43  C   UNL     1       1.363   1.737 -13.063  1.00  0.00     0.074 A 
ATOM     44  C   UNL     1       0.730   2.462 -11.981  1.00  0.00     0.031 C 
ATOM     45  C   UNL     1       0.719  -4.391 -11.215  1.00  0.00     0.029 A 
ATOM     46  C   UNL     1       1.373  -3.893 -12.422  1.00  0.00     0.049 A 
ATOM     47  H   UNL     1       1.642  -1.908 -12.991  1.00  0.00     0.167 HD
ATOM     48  C   UNL     1       1.961   2.315 -14.131  1.00  0.00     0.037 A 
ATOM     49  C   UNL     1       1.925  -4.655 -13.383  1.00  0.00     0.037 A 
ATOM     50  C   UNL     1       2.597   1.586 -15.196  1.00  0.00     0.049 A 
ATOM     51  C   UNL     1       2.532  -3.991 -14.585  1.00  0.00     0.074 A 
ATOM     52  C   UNL     1       3.232   2.079 -16.323  1.00  0.00     0.029 A 
ATOM     53  N   UNL     1       2.680   0.203 -15.262  1.00  0.00    -0.354 N 
ATOM     54  N   UNL     1       2.635  -2.712 -14.857  1.00  0.00    -0.248 NA
ATOM     55  C   UNL     1       3.090  -4.874 -15.618  1.00  0.00     0.031 C 
ATOM     56  C   UNL     1       3.671   0.992 -17.087  1.00  0.00     0.029 A 
ATOM     57  C   UNL     1       3.341  -0.176 -16.419  1.00  0.00     0.049 A 
ATOM     58  H   UNL     1       2.322  -0.418 -14.587  1.00  0.00     0.167 HD
ATOM     59  C   UNL     1       3.277  -2.635 -16.085  1.00  0.00     0.074 A 
ATOM     60  C   UNL     1       3.555  -3.997 -16.498  1.00  0.00     0.031 C 
ATOM     61  C   UNL     1       3.605  -1.537 -16.808  1.00  0.00     0.037 A 
BRANCH  48  62
ATOM     62  C   UNL     1       1.920   3.811 -14.215  1.00  0.00     0.057 A 
ATOM     63  C   UNL     1       2.734   4.621 -13.414  1.00  0.00     0.134 A 
ATOM     64  C   UNL     1       1.071   4.447 -15.129  1.00  0.00     0.134 A 
ATOM     65  F   UNL     1       3.556   4.072 -12.507  1.00  0.00    -0.206 F 
ATOM     66  C   UNL     1       2.694   6.013 -13.509  1.00  0.00     0.040 A 
ATOM     67  C   UNL     1       1.035   5.837 -15.246  1.00  0.00     0.040 A 
ATOM     68  F   UNL     1       0.265   3.728 -15.925  1.00  0.00    -0.206 F 
ATOM     69  C   UNL     1       1.846   6.625 -14.431  1.00  0.00     0.006 A 
ENDBRANCH  48  62
BRANCH  49  70
ATOM     70  C   UNL     1       1.897  -6.132 -13.258  1.00  0.00     0.057 A 
ATOM     71  C   UNL     1       3.062  -6.858 -12.993  1.00  0.00     0.134 A 
ATOM     72  C   UNL     1       0.702  -6.849 -13.389  1.00  0.00     0.134 A 
ATOM     73  F   UNL     1       4.240  -6.227 -12.879  1.00  0.00    -0.206 F 
ATOM     74  C   UNL     1       3.042  -8.248 -12.868  1.00  0.00     0.040 A 
ATOM     75  C   UNL     1       0.663  -8.236 -13.245  1.00  0.00     0.040 A 
ATOM     76  F   UNL     1      -0.448  -6.208 -13.642  1.00  0.00    -0.206 F 
ATOM     77  C   UNL     1       1.838  -8.940 -12.988  1.00  0.00     0.006 A 
ENDBRANCH  49  70
BRANCH  61  78
ATOM     78  C   UNL     1       4.318  -1.768 -18.105  1.00  0.00     0.057 A 
ATOM     79  C   UNL     1       3.639  -2.215 -19.245  1.00  0.00     0.134 A 
ATOM     80  C   UNL     1       5.689  -1.513 -18.222  1.00  0.00     0.134 A 
ATOM     81  F   UNL     1       2.327  -2.490 -19.191  1.00  0.00    -0.206 F 
ATOM     82  C   UNL     1       4.305  -2.416 -20.455  1.00  0.00     0.040 A 
ATOM     83  C   UNL     1       6.362  -1.692 -19.431  1.00  0.00     0.040 A 
ATOM     84  F   UNL     1       6.393  -1.078 -17.166  1.00  0.00    -0.206 F 
ATOM     85  C   UNL     1       5.670  -2.150 -20.551  1.00  0.00     0.006 A 
ENDBRANCH  61  78
ENDBRANCH  35  36
ENDBRANCH  28  30
ENDBRANCH  27  28
ENDBRANCH  26  27
ENDBRANCH   1  26
TORSDOF 15
