REMARK SMILES CCCC[C@H](C(=O)OCCOC(=O)c1ccc(-c2c3nc(c(-c4c(F)cccc4F)c4ccc([nH]4)c(-c4c(F)cccc4F)c4nc(c(-c5c(F)cccc5F)c5ccc2[nH]5)C=C4)C=C3)cc1)N1C(=O)/C(=C/c2ccc(C)cc2)SC1=S
REMARK SMILES IDX 9 1 8 2 6 3 7 4 5 5 4 6 3 7 2 8 1 9 68 10 69 11 81 12 70 13
REMARK SMILES IDX 71 14 80 15 82 16 72 17 73 18 74 19 79 20 75 21 78 22 76 23
REMARK SMILES IDX 77 24 10 25 11 26 12 27 13 28 14 29 15 30 67 31 16 32 66 33
REMARK SMILES IDX 17 34 18 35 19 36 60 37 20 38 65 39 59 40 61 41 21 42 64 43
REMARK SMILES IDX 58 44 57 45 22 47 48 48 31 49 47 50 32 51 35 52 46 53 62 54
REMARK SMILES IDX 33 55 34 56 45 58 63 59 36 60 23 61 24 62 29 63 25 64 26 65
REMARK SMILES IDX 28 66 30 67 27 68 49 69 50 70 55 71 51 72 52 73 54 74 56 75
REMARK SMILES IDX 53 76 37 77 38 78 43 79 39 80 40 81 42 82 44 83 41 84
REMARK H PARENT 61 46 35 57
REMARK Flexibility Score: inf
ROOT
ATOM      1  C   UNL     1       2.272  -1.798  -2.054  1.00  0.00     0.274 C 
ENDROOT
BRANCH   1   2
ATOM      2  O   UNL     1       0.914  -1.990  -2.508  1.00  0.00    -0.461 OA
BRANCH   2   3
ATOM      3  C   UNL     1       0.057  -0.957  -2.283  1.00  0.00     0.329 C 
ATOM      4  O   UNL     1       0.390   0.119  -1.794  1.00  0.00    -0.250 OA
BRANCH   3   5
ATOM      5  C   UNL     1      -1.401  -1.243  -2.720  1.00  0.00     0.202 C 
BRANCH   5   6
ATOM      6  C   UNL     1      -1.842  -0.073  -3.631  1.00  0.00     0.038 C 
BRANCH   6   7
ATOM      7  C   UNL     1      -3.239  -0.013  -4.255  1.00  0.00     0.002 C 
BRANCH   7   8
ATOM      8  C   UNL     1      -4.418  -0.369  -3.365  1.00  0.00    -0.003 C 
ATOM      9  C   UNL     1      -4.896   0.817  -2.549  1.00  0.00     0.004 C 
ENDBRANCH   7   8
ENDBRANCH   6   7
ENDBRANCH   5   6
BRANCH   5  10
ATOM     10  N   UNL     1      -1.612  -2.622  -3.193  1.00  0.00    -0.278 N 
ATOM     11  C   UNL     1      -1.529  -3.626  -2.224  1.00  0.00     0.266 C 
ATOM     12  C   UNL     1      -1.793  -3.095  -4.472  1.00  0.00     0.149 C 
ATOM     13  O   UNL     1      -1.250  -3.473  -1.043  1.00  0.00    -0.268 OA
ATOM     14  C   UNL     1      -1.757  -4.952  -2.855  1.00  0.00     0.081 C 
ATOM     15  S   UNL     1      -2.540  -4.680  -4.362  1.00  0.00    -0.054 SA
ATOM     16  S   UNL     1      -1.381  -2.465  -5.954  1.00  0.00    -0.052 S 
ATOM     17  C   UNL     1      -1.307  -6.120  -2.370  1.00  0.00     0.029 C 
BRANCH  17  18
ATOM     18  C   UNL     1      -1.540  -7.409  -3.043  1.00  0.00    -0.024 A 
ATOM     19  C   UNL     1      -2.212  -8.420  -2.355  1.00  0.00     0.008 A 
ATOM     20  C   UNL     1      -1.216  -7.605  -4.393  1.00  0.00     0.008 A 
ATOM     21  C   UNL     1      -2.681  -9.543  -3.043  1.00  0.00     0.004 A 
ATOM     22  C   UNL     1      -1.713  -8.707  -5.088  1.00  0.00     0.004 A 
ATOM     23  C   UNL     1      -2.487  -9.662  -4.425  1.00  0.00    -0.051 A 
ATOM     24  C   UNL     1      -3.124 -10.789  -5.181  1.00  0.00     0.044 C 
ENDBRANCH  17  18
ENDBRANCH   5  10
ENDBRANCH   3   5
ENDBRANCH   2   3
ENDBRANCH   1   2
BRANCH   1  25
ATOM     25  C   UNL     1       3.213  -1.618  -3.239  1.00  0.00     0.275 C 
BRANCH  25  26
ATOM     26  O   UNL     1       2.825  -0.450  -3.982  1.00  0.00    -0.458 OA
BRANCH  26  27
ATOM     27  C   UNL     1       2.265  -0.699  -5.183  1.00  0.00     0.338 C 
ATOM     28  O   UNL     1       2.139  -1.793  -5.726  1.00  0.00    -0.246 OA
BRANCH  27  29
ATOM     29  C   UNL     1       1.782   0.545  -5.798  1.00  0.00     0.060 A 
ATOM     30  C   UNL     1       0.921   1.393  -5.103  1.00  0.00     0.016 A 
ATOM     31  C   UNL     1       2.064   0.784  -7.141  1.00  0.00     0.016 A 
ATOM     32  C   UNL     1       0.227   2.390  -5.791  1.00  0.00     0.010 A 
ATOM     33  C   UNL     1       1.470   1.868  -7.790  1.00  0.00     0.010 A 
ATOM     34  C   UNL     1       0.503   2.655  -7.140  1.00  0.00    -0.014 A 
BRANCH  34  35
ATOM     35  C   UNL     1      -0.215   3.720  -7.900  1.00  0.00     0.031 A 
ATOM     36  C   UNL     1      -0.882   3.390  -9.213  1.00  0.00     0.074 A 
ATOM     37  C   UNL     1      -0.242   4.993  -7.456  1.00  0.00     0.049 A 
ATOM     38  N   UNL     1      -1.269   4.192 -10.173  1.00  0.00    -0.248 NA
ATOM     39  C   UNL     1      -1.124   1.964  -9.490  1.00  0.00     0.031 C 
ATOM     40  C   UNL     1       0.304   5.466  -6.184  1.00  0.00     0.029 A 
ATOM     41  N   UNL     1      -0.741   6.132  -8.043  1.00  0.00    -0.354 N 
ATOM     42  C   UNL     1      -1.722   3.368 -11.197  1.00  0.00     0.074 A 
ATOM     43  C   UNL     1      -1.577   2.003 -10.736  1.00  0.00     0.031 C 
ATOM     44  C   UNL     1       0.087   6.784  -6.072  1.00  0.00     0.029 A 
ATOM     45  C   UNL     1      -0.513   7.270  -7.308  1.00  0.00     0.049 A 
ATOM     46  H   UNL     1      -1.216   6.131  -8.905  1.00  0.00     0.167 HD
ATOM     47  C   UNL     1      -2.203   3.720 -12.414  1.00  0.00     0.037 A 
ATOM     48  C   UNL     1      -0.700   8.568  -7.612  1.00  0.00     0.037 A 
ATOM     49  C   UNL     1      -2.414   5.081 -12.839  1.00  0.00     0.049 A 
ATOM     50  C   UNL     1      -1.221   8.940  -8.969  1.00  0.00     0.074 A 
ATOM     51  C   UNL     1      -2.906   5.543 -14.048  1.00  0.00     0.029 A 
ATOM     52  N   UNL     1      -2.172   6.197 -12.054  1.00  0.00    -0.354 N 
ATOM     53  N   UNL     1      -1.557   8.159  -9.965  1.00  0.00    -0.248 NA
ATOM     54  C   UNL     1      -1.365  10.375  -9.252  1.00  0.00     0.031 C 
ATOM     55  C   UNL     1      -2.941   6.941 -14.002  1.00  0.00     0.029 A 
ATOM     56  C   UNL     1      -2.505   7.346 -12.751  1.00  0.00     0.049 A 
ATOM     57  H   UNL     1      -1.815   6.176 -11.136  1.00  0.00     0.167 HD
ATOM     58  C   UNL     1      -1.968   9.003 -10.987  1.00  0.00     0.074 A 
ATOM     59  C   UNL     1      -1.849  10.357 -10.487  1.00  0.00     0.031 C 
ATOM     60  C   UNL     1      -2.400   8.684 -12.231  1.00  0.00     0.037 A 
BRANCH  47  61
ATOM     61  C   UNL     1      -2.503   2.623 -13.394  1.00  0.00     0.057 A 
ATOM     62  C   UNL     1      -3.623   1.792 -13.267  1.00  0.00     0.134 A 
ATOM     63  C   UNL     1      -1.680   2.430 -14.512  1.00  0.00     0.134 A 
ATOM     64  F   UNL     1      -4.446   1.917 -12.216  1.00  0.00    -0.206 F 
ATOM     65  C   UNL     1      -3.902   0.797 -14.207  1.00  0.00     0.040 A 
ATOM     66  C   UNL     1      -1.961   1.455 -15.470  1.00  0.00     0.040 A 
ATOM     67  F   UNL     1      -0.595   3.198 -14.699  1.00  0.00    -0.206 F 
ATOM     68  C   UNL     1      -3.074   0.631 -15.316  1.00  0.00     0.006 A 
ENDBRANCH  47  61
BRANCH  48  69
ATOM     69  C   UNL     1      -0.338   9.613  -6.622  1.00  0.00     0.057 A 
ATOM     70  C   UNL     1      -1.325  10.360  -5.970  1.00  0.00     0.134 A 
ATOM     71  C   UNL     1       0.997   9.872  -6.286  1.00  0.00     0.134 A 
ATOM     72  F   UNL     1      -2.619  10.172  -6.266  1.00  0.00    -0.206 F 
ATOM     73  C   UNL     1      -0.998  11.328  -5.020  1.00  0.00     0.040 A 
ATOM     74  C   UNL     1       1.337  10.818  -5.319  1.00  0.00     0.040 A 
ATOM     75  F   UNL     1       1.989   9.186  -6.874  1.00  0.00    -0.206 F 
ATOM     76  C   UNL     1       0.337  11.552  -4.685  1.00  0.00     0.006 A 
ENDBRANCH  48  69
BRANCH  60  77
ATOM     77  C   UNL     1      -2.826   9.814 -13.116  1.00  0.00     0.057 A 
ATOM     78  C   UNL     1      -1.896  10.642 -13.756  1.00  0.00     0.134 A 
ATOM     79  C   UNL     1      -4.185  10.051 -13.359  1.00  0.00     0.134 A 
ATOM     80  F   UNL     1      -0.581  10.474 -13.550  1.00  0.00    -0.206 F 
ATOM     81  C   UNL     1      -2.305  11.678 -14.598  1.00  0.00     0.040 A 
ATOM     82  C   UNL     1      -4.604  11.070 -14.213  1.00  0.00     0.040 A 
ATOM     83  F   UNL     1      -5.123   9.288 -12.778  1.00  0.00    -0.206 F 
ATOM     84  C   UNL     1      -3.662  11.890 -14.833  1.00  0.00     0.006 A 
ENDBRANCH  60  77
ENDBRANCH  34  35
ENDBRANCH  27  29
ENDBRANCH  26  27
ENDBRANCH  25  26
ENDBRANCH   1  25
TORSDOF 16
