REMARK SMILES O=C(OCCOC(=O)c1c(C(=O)N2CCc3ccccc32)cccc1[N+](=O)[O-])c1ccc(-c2c3nc(c(-c4c(F)cccc4F)c4ccc([nH]4)c(-c4c(F)cccc4F)c4nc(c(-c5c(F)cccc5F)c5ccc2[nH]5)C=C4)C=C3)cc1
REMARK SMILES IDX 4 1 3 2 2 3 1 4 29 5 30 6 82 7 31 8 81 9 32 10 33 11 34 12
REMARK SMILES IDX 75 13 35 14 80 15 74 16 76 17 36 18 79 19 73 20 72 21 37 23
REMARK SMILES IDX 63 24 46 25 62 26 47 27 50 28 61 29 77 30 48 31 49 32 60 34
REMARK SMILES IDX 78 35 51 36 38 37 39 38 44 39 40 40 41 41 43 42 45 43 42 44
REMARK SMILES IDX 64 45 65 46 70 47 66 48 67 49 69 50 71 51 68 52 52 53 53 54
REMARK SMILES IDX 58 55 54 56 55 57 57 58 59 59 56 60 5 61 6 62 7 63 8 64 9 65
REMARK SMILES IDX 10 66 25 67 22 68 24 69 23 70 11 71 12 72 13 73 14 74 21 75
REMARK SMILES IDX 15 76 16 77 20 78 17 79 19 80 18 81 26 82 27 83 28 84
REMARK H PARENT 76 22 50 33
REMARK Flexibility Score: inf
ROOT
ATOM      1  C   UNL     1       4.961   1.231  -1.412  1.00  0.00     0.275 C 
ENDROOT
BRANCH   1   2
ATOM      2  O   UNL     1       5.056  -0.197  -1.284  1.00  0.00    -0.458 OA
BRANCH   2   3
ATOM      3  C   UNL     1       4.060  -0.796  -0.618  1.00  0.00     0.338 C 
ATOM      4  O   UNL     1       2.879  -0.695  -0.909  1.00  0.00    -0.246 OA
BRANCH   3   5
ATOM      5  C   UNL     1       4.585  -1.324   0.667  1.00  0.00     0.060 A 
ATOM      6  C   UNL     1       5.726  -0.732   1.223  1.00  0.00     0.016 A 
ATOM      7  C   UNL     1       3.829  -2.213   1.429  1.00  0.00     0.016 A 
ATOM      8  C   UNL     1       6.092  -1.005   2.526  1.00  0.00     0.010 A 
ATOM      9  C   UNL     1       4.142  -2.421   2.771  1.00  0.00     0.010 A 
ATOM     10  C   UNL     1       5.298  -1.842   3.311  1.00  0.00    -0.014 A 
BRANCH  10  11
ATOM     11  C   UNL     1       5.830  -2.245   4.625  1.00  0.00     0.031 A 
ATOM     12  C   UNL     1       6.355  -3.640   4.753  1.00  0.00     0.074 A 
ATOM     13  C   UNL     1       5.977  -1.333   5.604  1.00  0.00     0.049 A 
ATOM     14  N   UNL     1       7.051  -4.167   5.721  1.00  0.00    -0.248 NA
ATOM     15  C   UNL     1       6.085  -4.562   3.634  1.00  0.00     0.031 C 
ATOM     16  C   UNL     1       5.543   0.059   5.517  1.00  0.00     0.029 A 
ATOM     17  N   UNL     1       6.556  -1.413   6.840  1.00  0.00    -0.354 N 
ATOM     18  C   UNL     1       7.343  -5.455   5.299  1.00  0.00     0.074 A 
ATOM     19  C   UNL     1       6.654  -5.678   4.054  1.00  0.00     0.031 C 
ATOM     20  C   UNL     1       5.845   0.703   6.655  1.00  0.00     0.029 A 
ATOM     21  C   UNL     1       6.530  -0.228   7.540  1.00  0.00     0.049 A 
ATOM     22  H   UNL     1       6.955  -2.240   7.196  1.00  0.00     0.167 HD
ATOM     23  C   UNL     1       8.176  -6.350   5.872  1.00  0.00     0.037 A 
ATOM     24  C   UNL     1       7.042   0.073   8.746  1.00  0.00     0.037 A 
ATOM     25  C   UNL     1       8.840  -6.104   7.118  1.00  0.00     0.049 A 
ATOM     26  C   UNL     1       7.879  -0.981   9.416  1.00  0.00     0.074 A 
ATOM     27  C   UNL     1       9.665  -6.942   7.840  1.00  0.00     0.029 A 
ATOM     28  N   UNL     1       8.738  -4.915   7.831  1.00  0.00    -0.354 N 
ATOM     29  N   UNL     1       8.177  -2.187   8.989  1.00  0.00    -0.248 NA
ATOM     30  C   UNL     1       8.485  -0.629  10.704  1.00  0.00     0.031 C 
ATOM     31  C   UNL     1      10.026  -6.275   9.016  1.00  0.00     0.029 A 
ATOM     32  C   UNL     1       9.471  -5.002   8.999  1.00  0.00     0.049 A 
ATOM     33  H   UNL     1       8.221  -4.127   7.546  1.00  0.00     0.167 HD
ATOM     34  C   UNL     1       9.032  -2.727   9.937  1.00  0.00     0.074 A 
ATOM     35  C   UNL     1       9.219  -1.705  10.950  1.00  0.00     0.031 C 
ATOM     36  C   UNL     1       9.616  -3.951   9.975  1.00  0.00     0.037 A 
BRANCH  23  37
ATOM     37  C   UNL     1       8.379  -7.641   5.138  1.00  0.00     0.057 A 
ATOM     38  C   UNL     1       9.068  -7.692   3.916  1.00  0.00     0.134 A 
ATOM     39  C   UNL     1       7.821  -8.831   5.615  1.00  0.00     0.134 A 
ATOM     40  F   UNL     1       9.591  -6.577   3.382  1.00  0.00    -0.206 F 
ATOM     41  C   UNL     1       9.166  -8.875   3.180  1.00  0.00     0.040 A 
ATOM     42  C   UNL     1       7.936 -10.026   4.901  1.00  0.00     0.040 A 
ATOM     43  F   UNL     1       7.133  -8.848   6.766  1.00  0.00    -0.206 F 
ATOM     44  C   UNL     1       8.601 -10.047   3.676  1.00  0.00     0.006 A 
ENDBRANCH  23  37
BRANCH  24  45
ATOM     45  C   UNL     1       6.815   1.409   9.361  1.00  0.00     0.057 A 
ATOM     46  C   UNL     1       7.860   2.313   9.591  1.00  0.00     0.134 A 
ATOM     47  C   UNL     1       5.531   1.808   9.760  1.00  0.00     0.134 A 
ATOM     48  F   UNL     1       9.114   1.998   9.236  1.00  0.00    -0.206 F 
ATOM     49  C   UNL     1       7.646   3.540  10.226  1.00  0.00     0.040 A 
ATOM     50  C   UNL     1       5.298   3.041  10.373  1.00  0.00     0.040 A 
ATOM     51  F   UNL     1       4.478   1.002   9.554  1.00  0.00    -0.206 F 
ATOM     52  C   UNL     1       6.361   3.906  10.620  1.00  0.00     0.006 A 
ENDBRANCH  24  45
BRANCH  36  53
ATOM     53  C   UNL     1      10.514  -4.223  11.142  1.00  0.00     0.057 A 
ATOM     54  C   UNL     1      10.006  -4.408  12.433  1.00  0.00     0.134 A 
ATOM     55  C   UNL     1      11.898  -4.337  10.960  1.00  0.00     0.134 A 
ATOM     56  F   UNL     1       8.690  -4.298  12.669  1.00  0.00    -0.206 F 
ATOM     57  C   UNL     1      10.850  -4.664  13.512  1.00  0.00     0.040 A 
ATOM     58  C   UNL     1      12.747  -4.628  12.025  1.00  0.00     0.040 A 
ATOM     59  F   UNL     1      12.441  -4.184   9.742  1.00  0.00    -0.206 F 
ATOM     60  C   UNL     1      12.224  -4.782  13.307  1.00  0.00     0.006 A 
ENDBRANCH  36  53
ENDBRANCH  10  11
ENDBRANCH   3   5
ENDBRANCH   2   3
ENDBRANCH   1   2
BRANCH   1  61
ATOM     61  C   UNL     1       4.006   2.044  -0.497  1.00  0.00     0.275 C 
BRANCH  61  62
ATOM     62  O   UNL     1       3.655   1.403   0.746  1.00  0.00    -0.458 OA
BRANCH  62  63
ATOM     63  C   UNL     1       2.394   1.630   1.196  1.00  0.00     0.346 C 
ATOM     64  O   UNL     1       1.585   2.406   0.730  1.00  0.00    -0.246 OA
BRANCH  63  65
ATOM     65  C   UNL     1       2.174   0.928   2.479  1.00  0.00     0.150 A 
ATOM     66  C   UNL     1       1.301  -0.174   2.601  1.00  0.00     0.061 A 
ATOM     67  C   UNL     1       2.672   1.517   3.655  1.00  0.00     0.284 A 
ATOM     68  C   UNL     1       0.923  -0.588   3.894  1.00  0.00     0.015 A 
ATOM     69  C   UNL     1       2.342   1.037   4.933  1.00  0.00     0.086 A 
ATOM     70  C   UNL     1       1.471  -0.030   5.049  1.00  0.00     0.008 A 
BRANCH  66  71
ATOM     71  C   UNL     1       0.534  -0.713   1.446  1.00  0.00     0.259 C 
ATOM     72  O   UNL     1      -0.304   0.050   0.967  1.00  0.00    -0.269 OA
BRANCH  71  73
ATOM     73  N   UNL     1       0.743  -2.030   0.954  1.00  0.00    -0.308 N 
ATOM     74  C   UNL     1       0.526  -2.203  -0.523  1.00  0.00     0.131 C 
ATOM     75  C   UNL     1       0.016  -3.103   1.549  1.00  0.00     0.047 A 
ATOM     76  C   UNL     1      -0.271  -3.480  -0.756  1.00  0.00     0.059 C 
ATOM     77  C   UNL     1      -0.833  -3.663   0.601  1.00  0.00    -0.022 A 
ATOM     78  C   UNL     1      -0.128  -3.419   2.881  1.00  0.00     0.026 A 
ATOM     79  C   UNL     1      -2.053  -4.182   0.976  1.00  0.00     0.006 A 
ATOM     80  C   UNL     1      -1.341  -3.971   3.285  1.00  0.00     0.002 A 
ATOM     81  C   UNL     1      -2.335  -4.259   2.339  1.00  0.00     0.000 A 
ENDBRANCH  71  73
ENDBRANCH  66  71
BRANCH  67  82
ATOM     82  N   UNL     1       3.532   2.687   3.610  1.00  0.00     0.063 N 
ATOM     83  O   UNL     1       3.165   3.677   4.255  1.00  0.00    -0.258 OA
ATOM     84  O   UNL     1       4.615   2.577   3.023  1.00  0.00    -0.258 OA
ENDBRANCH  67  82
ENDBRANCH  63  65
ENDBRANCH  62  63
ENDBRANCH  61  62
ENDBRANCH   1  61
TORSDOF 14
