REMARK SMILES Cc1cc2c(c(C)c1Br)C=C(C(=O)OCCOC(=O)c1ccc(-c3c4nc(c(-c5c(F)cccc5F)c5ccc([nH]5)c(-c5c(F)cccc5F)c5nc(c(-c6c(F)cccc6F)c6ccc3[nH]6)C=C5)C=C4)cc1)[C@@H](C(F)(F)F)O2
REMARK SMILES IDX 16 1 15 2 14 3 12 4 13 5 11 6 1 7 2 8 3 9 8 10 4 11 6 12
REMARK SMILES IDX 9 13 5 14 79 15 7 16 10 17 74 18 75 19 76 20 77 21 78 22
REMARK SMILES IDX 17 23 18 24 19 25 20 26 21 27 73 28 22 29 72 30 23 31 24 32
REMARK SMILES IDX 25 33 66 34 26 35 71 36 65 37 67 38 27 39 70 40 64 41 63 42
REMARK SMILES IDX 28 44 54 45 37 46 53 47 38 48 41 49 52 50 68 51 39 52 40 53
REMARK SMILES IDX 51 55 69 56 42 57 29 58 30 59 35 60 31 61 32 62 34 63 36 64
REMARK SMILES IDX 33 65 55 66 56 67 61 68 57 69 58 70 60 71 62 72 59 73 43 74
REMARK SMILES IDX 44 75 49 76 45 77 46 78 48 79 50 80 47 81
REMARK H PARENT 67 43 41 54
REMARK Flexibility Score: inf
ROOT
ATOM      1  C   UNL     1      -3.193   3.068  -9.270  1.00  0.00     0.275 C 
ENDROOT
BRANCH   1   2
ATOM      2  C   UNL     1      -2.272   1.849  -9.262  1.00  0.00     0.275 C 
BRANCH   2   3
ATOM      3  O   UNL     1      -2.074   1.360  -7.917  1.00  0.00    -0.459 OA
BRANCH   3   4
ATOM      4  C   UNL     1      -0.888   1.679  -7.351  1.00  0.00     0.338 C 
ATOM      5  O   UNL     1       0.022   2.312  -7.862  1.00  0.00    -0.246 OA
BRANCH   4   6
ATOM      6  C   UNL     1      -0.819   1.155  -5.975  1.00  0.00     0.087 C 
ATOM      7  C   UNL     1       0.778  -0.371   0.116  1.00  0.00     0.046 C 
ATOM      8  C   UNL     1       0.402   0.322  -1.167  1.00  0.00    -0.033 A 
ATOM      9  C   UNL     1      -0.102  -0.456  -2.218  1.00  0.00     0.051 A 
ATOM     10  C   UNL     1       0.565   1.710  -1.359  1.00  0.00     0.024 A 
ATOM     11  C   UNL     1      -0.407   0.115  -3.450  1.00  0.00     0.128 A 
ATOM     12  C   UNL     1       0.229   2.315  -2.594  1.00  0.00    -0.026 A 
ATOM     13  Br  UNL     1       1.284   2.750   0.080  1.00  0.00    -0.050 Br
ATOM     14  C   UNL     1      -0.232   1.488  -3.655  1.00  0.00     0.021 A 
ATOM     15  O   UNL     1      -0.885  -0.754  -4.393  1.00  0.00    -0.475 OA
ATOM     16  C   UNL     1       0.373   3.804  -2.822  1.00  0.00     0.046 C 
ATOM     17  C   UNL     1      -0.491   2.006  -4.996  1.00  0.00     0.027 C 
ATOM     18  C   UNL     1      -0.969  -0.320  -5.774  1.00  0.00     0.316 C 
BRANCH  18  19
ATOM     19  C   UNL     1       0.046  -1.114  -6.613  1.00  0.00     0.430 C 
ATOM     20  F   UNL     1      -0.072  -2.446  -6.400  1.00  0.00    -0.167 F 
ATOM     21  F   UNL     1      -0.149  -0.918  -7.940  1.00  0.00    -0.167 F 
ATOM     22  F   UNL     1       1.323  -0.768  -6.335  1.00  0.00    -0.167 F 
ENDBRANCH  18  19
ENDBRANCH   4   6
ENDBRANCH   3   4
ENDBRANCH   2   3
ENDBRANCH   1   2
BRANCH   1  23
ATOM     23  O   UNL     1      -2.545   4.168  -8.605  1.00  0.00    -0.458 OA
BRANCH  23  24
ATOM     24  C   UNL     1      -3.110   4.572  -7.446  1.00  0.00     0.338 C 
ATOM     25  O   UNL     1      -4.138   4.161  -6.936  1.00  0.00    -0.246 OA
BRANCH  24  26
ATOM     26  C   UNL     1      -2.257   5.587  -6.801  1.00  0.00     0.060 A 
ATOM     27  C   UNL     1      -0.926   5.287  -6.532  1.00  0.00     0.016 A 
ATOM     28  C   UNL     1      -2.817   6.764  -6.309  1.00  0.00     0.016 A 
ATOM     29  C   UNL     1      -0.202   6.076  -5.644  1.00  0.00     0.010 A 
ATOM     30  C   UNL     1      -2.037   7.628  -5.527  1.00  0.00     0.010 A 
ATOM     31  C   UNL     1      -0.738   7.265  -5.129  1.00  0.00    -0.014 A 
BRANCH  31  32
ATOM     32  C   UNL     1       0.035   8.071  -4.134  1.00  0.00     0.031 A 
ATOM     33  C   UNL     1      -0.577   8.434  -2.800  1.00  0.00     0.074 A 
ATOM     34  C   UNL     1       1.311   8.435  -4.385  1.00  0.00     0.049 A 
ATOM     35  N   UNL     1      -0.124   9.245  -1.875  1.00  0.00    -0.248 NA
ATOM     36  C   UNL     1      -1.873   7.821  -2.466  1.00  0.00     0.031 C 
ATOM     37  C   UNL     1       2.061   8.118  -5.602  1.00  0.00     0.029 A 
ATOM     38  N   UNL     1       2.218   9.126  -3.615  1.00  0.00    -0.354 N 
ATOM     39  C   UNL     1      -1.105   9.290  -0.891  1.00  0.00     0.074 A 
ATOM     40  C   UNL     1      -2.183   8.433  -1.332  1.00  0.00     0.031 C 
ATOM     41  C   UNL     1       3.329   8.529  -5.461  1.00  0.00     0.029 A 
ATOM     42  C   UNL     1       3.458   9.245  -4.198  1.00  0.00     0.049 A 
ATOM     43  H   UNL     1       2.000   9.499  -2.731  1.00  0.00     0.167 HD
ATOM     44  C   UNL     1      -1.106   9.976   0.277  1.00  0.00     0.037 A 
ATOM     45  C   UNL     1       4.568   9.890  -3.790  1.00  0.00     0.037 A 
ATOM     46  C   UNL     1       0.002  10.760   0.759  1.00  0.00     0.049 A 
ATOM     47  C   UNL     1       4.531  10.678  -2.513  1.00  0.00     0.074 A 
ATOM     48  C   UNL     1       0.103  11.468   1.944  1.00  0.00     0.029 A 
ATOM     49  N   UNL     1       1.208  10.915   0.095  1.00  0.00    -0.354 N 
ATOM     50  N   UNL     1       3.566  10.772  -1.631  1.00  0.00    -0.248 NA
ATOM     51  C   UNL     1       5.718  11.486  -2.195  1.00  0.00     0.031 C 
ATOM     52  C   UNL     1       1.358  12.081   1.982  1.00  0.00     0.029 A 
ATOM     53  C   UNL     1       2.052  11.725   0.836  1.00  0.00     0.049 A 
ATOM     54  H   UNL     1       1.432  10.510  -0.774  1.00  0.00     0.167 HD
ATOM     55  C   UNL     1       4.024  11.652  -0.660  1.00  0.00     0.074 A 
ATOM     56  C   UNL     1       5.365  12.041  -1.043  1.00  0.00     0.031 C 
ATOM     57  C   UNL     1       3.382  12.108   0.441  1.00  0.00     0.037 A 
BRANCH  44  58
ATOM     58  C   UNL     1      -2.347   9.929   1.121  1.00  0.00     0.057 A 
ATOM     59  C   UNL     1      -2.706   8.793   1.856  1.00  0.00     0.134 A 
ATOM     60  C   UNL     1      -3.158  11.065   1.250  1.00  0.00     0.134 A 
ATOM     61  F   UNL     1      -1.978   7.670   1.770  1.00  0.00    -0.206 F 
ATOM     62  C   UNL     1      -3.837   8.783   2.676  1.00  0.00     0.040 A 
ATOM     63  C   UNL     1      -4.276  11.075   2.086  1.00  0.00     0.040 A 
ATOM     64  F   UNL     1      -2.865  12.191   0.582  1.00  0.00    -0.206 F 
ATOM     65  C   UNL     1      -4.620   9.929   2.800  1.00  0.00     0.006 A 
ENDBRANCH  44  58
BRANCH  45  66
ATOM     66  C   UNL     1       5.795   9.853  -4.627  1.00  0.00     0.057 A 
ATOM     67  C   UNL     1       6.941   9.177  -4.194  1.00  0.00     0.134 A 
ATOM     68  C   UNL     1       5.846  10.466  -5.886  1.00  0.00     0.134 A 
ATOM     69  F   UNL     1       6.966   8.593  -2.988  1.00  0.00    -0.206 F 
ATOM     70  C   UNL     1       8.091   9.107  -4.985  1.00  0.00     0.040 A 
ATOM     71  C   UNL     1       6.977  10.379  -6.698  1.00  0.00     0.040 A 
ATOM     72  F   UNL     1       4.782  11.132  -6.358  1.00  0.00    -0.206 F 
ATOM     73  C   UNL     1       8.105   9.699  -6.246  1.00  0.00     0.006 A 
ENDBRANCH  45  66
BRANCH  57  74
ATOM     74  C   UNL     1       4.107  13.089   1.311  1.00  0.00     0.057 A 
ATOM     75  C   UNL     1       4.239  14.431   0.938  1.00  0.00     0.134 A 
ATOM     76  C   UNL     1       4.598  12.711   2.566  1.00  0.00     0.134 A 
ATOM     77  F   UNL     1       3.798  14.851  -0.258  1.00  0.00    -0.206 F 
ATOM     78  C   UNL     1       4.835  15.366   1.784  1.00  0.00     0.040 A 
ATOM     79  C   UNL     1       5.178  13.641   3.430  1.00  0.00     0.040 A 
ATOM     80  F   UNL     1       4.495  11.441   2.985  1.00  0.00    -0.206 F 
ATOM     81  C   UNL     1       5.296  14.973   3.039  1.00  0.00     0.006 A 
ENDBRANCH  57  74
ENDBRANCH  31  32
ENDBRANCH  24  26
ENDBRANCH  23  24
ENDBRANCH   1  23
TORSDOF 12
