REMARK SMILES O=C(OCCOC(=O)c1cccc2c1ccn2Cc1ccncc1)c1ccc(-c2c3nc(c(-c4c(F)cccc4F)c4ccc([nH]4)c(-c4c(F)cccc4F)c4nc(c(-c5c(F)cccc5F)c5ccc2[nH]5)C=C4)C=C3)cc1
REMARK SMILES IDX 4 1 3 2 2 3 1 4 25 5 26 6 78 7 27 8 77 9 28 10 29 11 30 12
REMARK SMILES IDX 71 13 31 14 76 15 70 16 72 17 32 18 75 19 69 20 68 21 33 23
REMARK SMILES IDX 59 24 42 25 58 26 43 27 46 28 57 29 73 30 44 31 45 32 56 34
REMARK SMILES IDX 74 35 47 36 34 37 35 38 40 39 36 40 37 41 39 42 41 43 38 44
REMARK SMILES IDX 60 45 61 46 66 47 62 48 63 49 65 50 67 51 64 52 48 53 49 54
REMARK SMILES IDX 54 55 50 56 51 57 53 58 55 59 52 60 5 61 6 62 7 63 8 64 9 65
REMARK SMILES IDX 10 66 14 67 11 68 13 69 15 70 12 71 17 72 16 73 18 74 19 75
REMARK SMILES IDX 20 76 24 77 21 78 23 79 22 80
REMARK H PARENT 72 22 46 33
REMARK Flexibility Score: inf
ROOT
ATOM      1  C   UNL     1       3.106   1.343  -1.325  1.00  0.00     0.275 C 
ENDROOT
BRANCH   1   2
ATOM      2  O   UNL     1       2.614   0.001  -1.090  1.00  0.00    -0.458 OA
BRANCH   2   3
ATOM      3  C   UNL     1       3.335  -1.040  -0.582  1.00  0.00     0.338 C 
ATOM      4  O   UNL     1       2.963  -2.203  -0.647  1.00  0.00    -0.246 OA
BRANCH   3   5
ATOM      5  C   UNL     1       4.485  -0.668   0.255  1.00  0.00     0.060 A 
ATOM      6  C   UNL     1       4.281  -0.711   1.629  1.00  0.00     0.016 A 
ATOM      7  C   UNL     1       5.592  -0.019  -0.295  1.00  0.00     0.016 A 
ATOM      8  C   UNL     1       4.994   0.176   2.414  1.00  0.00     0.010 A 
ATOM      9  C   UNL     1       6.299   0.878   0.494  1.00  0.00     0.010 A 
ATOM     10  C   UNL     1       5.911   1.064   1.822  1.00  0.00    -0.014 A 
BRANCH  10  11
ATOM     11  C   UNL     1       6.569   2.038   2.701  1.00  0.00     0.031 A 
ATOM     12  C   UNL     1       7.240   1.369   3.843  1.00  0.00     0.074 A 
ATOM     13  C   UNL     1       6.656   3.373   2.500  1.00  0.00     0.049 A 
ATOM     14  N   UNL     1       7.063   1.586   5.105  1.00  0.00    -0.248 NA
ATOM     15  C   UNL     1       8.071   0.188   3.536  1.00  0.00     0.031 C 
ATOM     16  C   UNL     1       6.158   4.145   1.365  1.00  0.00     0.029 A 
ATOM     17  N   UNL     1       7.304   4.333   3.235  1.00  0.00    -0.354 N 
ATOM     18  C   UNL     1       7.925   0.703   5.741  1.00  0.00     0.074 A 
ATOM     19  C   UNL     1       8.366  -0.249   4.757  1.00  0.00     0.031 C 
ATOM     20  C   UNL     1       6.710   5.375   1.359  1.00  0.00     0.029 A 
ATOM     21  C   UNL     1       7.544   5.516   2.533  1.00  0.00     0.049 A 
ATOM     22  H   UNL     1       7.576   4.200   4.172  1.00  0.00     0.167 HD
ATOM     23  C   UNL     1       8.471   1.007   6.944  1.00  0.00     0.037 A 
ATOM     24  C   UNL     1       8.402   6.522   2.838  1.00  0.00     0.037 A 
ATOM     25  C   UNL     1       7.672   1.940   7.687  1.00  0.00     0.049 A 
ATOM     26  C   UNL     1       8.735   6.405   4.272  1.00  0.00     0.074 A 
ATOM     27  C   UNL     1       6.371   1.954   8.153  1.00  0.00     0.029 A 
ATOM     28  N   UNL     1       8.122   3.230   7.792  1.00  0.00    -0.354 N 
ATOM     29  N   UNL     1       7.925   6.729   5.236  1.00  0.00    -0.248 NA
ATOM     30  C   UNL     1       9.844   5.543   4.649  1.00  0.00     0.031 C 
ATOM     31  C   UNL     1       5.965   3.318   8.106  1.00  0.00     0.029 A 
ATOM     32  C   UNL     1       7.047   4.066   7.644  1.00  0.00     0.049 A 
ATOM     33  H   UNL     1       9.054   3.508   7.947  1.00  0.00     0.167 HD
ATOM     34  C   UNL     1       8.140   5.762   6.203  1.00  0.00     0.074 A 
ATOM     35  C   UNL     1       9.411   5.141   5.846  1.00  0.00     0.031 C 
ATOM     36  C   UNL     1       7.126   5.366   7.024  1.00  0.00     0.037 A 
BRANCH  23  37
ATOM     37  C   UNL     1       9.936   0.782   7.201  1.00  0.00     0.057 A 
ATOM     38  C   UNL     1      10.915   0.772   6.181  1.00  0.00     0.134 A 
ATOM     39  C   UNL     1      10.430   0.866   8.509  1.00  0.00     0.134 A 
ATOM     40  F   UNL     1      10.600   0.830   4.880  1.00  0.00    -0.206 F 
ATOM     41  C   UNL     1      12.283   0.815   6.441  1.00  0.00     0.040 A 
ATOM     42  C   UNL     1      11.799   0.972   8.778  1.00  0.00     0.040 A 
ATOM     43  F   UNL     1       9.592   0.932   9.554  1.00  0.00    -0.206 F 
ATOM     44  C   UNL     1      12.729   0.946   7.744  1.00  0.00     0.006 A 
ENDBRANCH  23  37
BRANCH  24  45
ATOM     45  C   UNL     1       9.111   7.479   1.949  1.00  0.00     0.057 A 
ATOM     46  C   UNL     1       9.408   7.177   0.608  1.00  0.00     0.134 A 
ATOM     47  C   UNL     1       9.748   8.617   2.470  1.00  0.00     0.134 A 
ATOM     48  F   UNL     1       8.918   6.080   0.015  1.00  0.00    -0.206 F 
ATOM     49  C   UNL     1      10.293   7.943  -0.159  1.00  0.00     0.040 A 
ATOM     50  C   UNL     1      10.649   9.384   1.718  1.00  0.00     0.040 A 
ATOM     51  F   UNL     1       9.563   8.980   3.747  1.00  0.00    -0.206 F 
ATOM     52  C   UNL     1      10.933   9.041   0.401  1.00  0.00     0.006 A 
ENDBRANCH  24  45
BRANCH  36  53
ATOM     53  C   UNL     1       5.905   6.239   7.090  1.00  0.00     0.057 A 
ATOM     54  C   UNL     1       5.517   6.747   8.335  1.00  0.00     0.134 A 
ATOM     55  C   UNL     1       5.062   6.511   6.001  1.00  0.00     0.134 A 
ATOM     56  F   UNL     1       6.247   6.482   9.430  1.00  0.00    -0.206 F 
ATOM     57  C   UNL     1       4.357   7.507   8.493  1.00  0.00     0.040 A 
ATOM     58  C   UNL     1       3.917   7.301   6.139  1.00  0.00     0.040 A 
ATOM     59  F   UNL     1       5.298   5.985   4.790  1.00  0.00    -0.206 F 
ATOM     60  C   UNL     1       3.560   7.800   7.389  1.00  0.00     0.006 A 
ENDBRANCH  36  53
ENDBRANCH  10  11
ENDBRANCH   3   5
ENDBRANCH   2   3
ENDBRANCH   1   2
BRANCH   1  61
ATOM     61  C   UNL     1       3.085   2.335  -0.153  1.00  0.00     0.275 C 
BRANCH  61  62
ATOM     62  O   UNL     1       2.848   1.778   1.135  1.00  0.00    -0.458 OA
BRANCH  62  63
ATOM     63  C   UNL     1       1.544   1.718   1.504  1.00  0.00     0.338 C 
ATOM     64  O   UNL     1       0.607   2.168   0.900  1.00  0.00    -0.246 OA
BRANCH  63  65
ATOM     65  C   UNL     1       1.445   0.843   2.694  1.00  0.00     0.069 A 
ATOM     66  C   UNL     1       2.071   1.134   3.914  1.00  0.00     0.016 A 
ATOM     67  C   UNL     1       0.732  -0.363   2.545  1.00  0.00     0.014 A 
ATOM     68  C   UNL     1       1.951   0.247   4.988  1.00  0.00     0.003 A 
ATOM     69  C   UNL     1       0.566  -1.201   3.655  1.00  0.00     0.049 A 
ATOM     70  C   UNL     1       0.156  -1.022   1.426  1.00  0.00     0.029 A 
ATOM     71  C   UNL     1       1.171  -0.914   4.891  1.00  0.00     0.027 A 
ATOM     72  N   UNL     1      -0.267  -2.223   3.238  1.00  0.00    -0.343 N 
ATOM     73  C   UNL     1      -0.341  -2.221   1.865  1.00  0.00     0.087 A 
BRANCH  72  74
ATOM     74  C   UNL     1      -1.023  -3.145   4.082  1.00  0.00     0.157 C 
BRANCH  74  75
ATOM     75  C   UNL     1      -2.483  -2.742   4.149  1.00  0.00    -0.025 A 
ATOM     76  C   UNL     1      -3.309  -2.808   3.017  1.00  0.00     0.025 A 
ATOM     77  C   UNL     1      -3.044  -2.255   5.333  1.00  0.00     0.025 A 
ATOM     78  C   UNL     1      -4.615  -2.354   3.102  1.00  0.00     0.111 A 
ATOM     79  C   UNL     1      -4.371  -1.846   5.324  1.00  0.00     0.111 A 
ATOM     80  N   UNL     1      -5.168  -1.881   4.235  1.00  0.00    -0.265 NA
ENDBRANCH  74  75
ENDBRANCH  72  74
ENDBRANCH  63  65
ENDBRANCH  62  63
ENDBRANCH  61  62
ENDBRANCH   1  61
TORSDOF 13
