REMARK SMILES Cc1ccc(-c2cc3cccnc3n2CCC(=O)OCCOC(=O)c2ccc(-c3c4nc(c(-c5c(F)cccc5F)c5ccc([nH]5)c(-c5c(F)cccc5F)c5nc(c(-c6c(F)cccc6F)c6ccc3[nH]6)C=C5)C=C4)cc2)cn1
REMARK SMILES IDX 20 1 19 2 17 3 18 4 16 5 15 6 14 7 6 8 7 9 8 10 13 11 9 12
REMARK SMILES IDX 12 13 10 14 11 15 5 16 1 17 2 18 3 19 80 20 4 21 79 22 21 23
REMARK SMILES IDX 22 24 23 25 24 26 25 27 26 28 78 29 27 30 77 31 28 32 29 33
REMARK SMILES IDX 30 34 71 35 31 36 76 37 70 38 72 39 32 40 75 41 69 42 68 43
REMARK SMILES IDX 33 45 59 46 42 47 58 48 43 49 46 50 57 51 73 52 44 53 45 54
REMARK SMILES IDX 56 56 74 57 47 58 34 59 35 60 40 61 36 62 37 63 39 64 41 65
REMARK SMILES IDX 38 66 60 67 61 68 66 69 62 70 63 71 65 72 67 73 64 74 48 75
REMARK SMILES IDX 49 76 54 77 50 78 51 79 53 80 55 81 52 82
REMARK H PARENT 72 44 46 55
REMARK Flexibility Score: inf
ROOT
ATOM      1  C   UNL     1      -1.471  -1.695  -1.731  1.00  0.00     0.274 C 
ENDROOT
BRANCH   1   2
ATOM      2  O   UNL     1      -2.821  -1.883  -1.206  1.00  0.00    -0.462 OA
BRANCH   2   3
ATOM      3  C   UNL     1      -3.091  -3.048  -0.553  1.00  0.00     0.307 C 
ATOM      4  O   UNL     1      -2.468  -4.088  -0.746  1.00  0.00    -0.252 OA
BRANCH   3   5
ATOM      5  C   UNL     1      -4.177  -2.955   0.525  1.00  0.00     0.144 C 
BRANCH   5   6
ATOM      6  C   UNL     1      -4.224  -1.749   1.473  1.00  0.00     0.136 C 
BRANCH   6   7
ATOM      7  N   UNL     1      -4.451  -0.498   0.787  1.00  0.00    -0.325 N 
ATOM      8  C   UNL     1      -3.484   0.306   0.234  1.00  0.00     0.052 A 
ATOM      9  C   UNL     1      -4.146   1.200  -0.596  1.00  0.00     0.039 A 
ATOM     10  C   UNL     1      -5.531   0.967  -0.498  1.00  0.00     0.020 A 
ATOM     11  C   UNL     1      -5.701  -0.041   0.442  1.00  0.00     0.140 A 
ATOM     12  C   UNL     1      -6.668   1.481  -1.132  1.00  0.00     0.013 A 
ATOM     13  N   UNL     1      -6.872  -0.548   0.874  1.00  0.00    -0.238 NA
ATOM     14  C   UNL     1      -7.903   0.994  -0.716  1.00  0.00     0.021 A 
ATOM     15  C   UNL     1      -7.944   0.029   0.283  1.00  0.00     0.113 A 
BRANCH   8  16
ATOM     16  C   UNL     1      -2.038   0.117   0.283  1.00  0.00     0.017 A 
ATOM     17  C   UNL     1       2.994  -0.085  -0.315  1.00  0.00     0.066 C 
ATOM     18  C   UNL     1       1.506  -0.090  -0.160  1.00  0.00     0.037 A 
ATOM     19  C   UNL     1       0.642  -1.537   0.424  1.00  0.00     0.024 A 
ATOM     20  N   UNL     1       0.671   1.405  -0.524  1.00  0.00    -0.261 NA
ATOM     21  C   UNL     1      -1.138  -1.426   0.706  1.00  0.00     0.014 A 
ATOM     22  C   UNL     1      -1.065   1.526  -0.286  1.00  0.00     0.121 A 
ENDBRANCH   8  16
ENDBRANCH   6   7
ENDBRANCH   5   6
ENDBRANCH   3   5
ENDBRANCH   2   3
ENDBRANCH   1   2
BRANCH   1  23
ATOM     23  C   UNL     1      -0.513  -0.393  -1.180  1.00  0.00     0.275 C 
BRANCH  23  24
ATOM     24  O   UNL     1      -0.162   0.179   0.716  1.00  0.00    -0.458 OA
BRANCH  24  25
ATOM     25  C   UNL     1      -0.405   0.765   1.972  1.00  0.00     0.338 C 
ATOM     26  O   UNL     1      -1.308   1.516   2.327  1.00  0.00    -0.246 OA
BRANCH  25  27
ATOM     27  C   UNL     1       0.435   0.177   2.994  1.00  0.00     0.060 A 
ATOM     28  C   UNL     1      -0.233  -0.361   4.106  1.00  0.00     0.016 A 
ATOM     29  C   UNL     1       1.722   0.692   3.023  1.00  0.00     0.016 A 
ATOM     30  C   UNL     1       0.306  -0.109   5.339  1.00  0.00     0.010 A 
ATOM     31  C   UNL     1       2.266   0.919   4.247  1.00  0.00     0.010 A 
ATOM     32  C   UNL     1       1.482   0.637   5.369  1.00  0.00    -0.014 A 
BRANCH  32  33
ATOM     33  C   UNL     1       1.877   1.251   6.609  1.00  0.00     0.031 A 
ATOM     34  C   UNL     1       2.618   0.336   7.490  1.00  0.00     0.074 A 
ATOM     35  C   UNL     1       1.738   2.582   6.762  1.00  0.00     0.049 A 
ATOM     36  N   UNL     1       2.314  -0.038   8.686  1.00  0.00    -0.248 NA
ATOM     37  C   UNL     1       3.758  -0.387   6.898  1.00  0.00     0.031 C 
ATOM     38  C   UNL     1       1.281   3.561   5.765  1.00  0.00     0.029 A 
ATOM     39  N   UNL     1       2.126   3.364   7.797  1.00  0.00    -0.354 N 
ATOM     40  C   UNL     1       3.355  -0.872   9.073  1.00  0.00     0.074 A 
ATOM     41  C   UNL     1       4.074  -1.226   7.881  1.00  0.00     0.031 C 
ATOM     42  C   UNL     1       1.648   4.800   6.162  1.00  0.00     0.029 A 
ATOM     43  C   UNL     1       2.261   4.707   7.476  1.00  0.00     0.049 A 
ATOM     44  H   UNL     1       2.298   3.011   8.700  1.00  0.00     0.167 HD
ATOM     45  C   UNL     1       3.733  -0.951  10.373  1.00  0.00     0.037 A 
ATOM     46  C   UNL     1       2.924   5.634   8.209  1.00  0.00     0.037 A 
ATOM     47  C   UNL     1       2.696  -0.479  11.254  1.00  0.00     0.049 A 
ATOM     48  C   UNL     1       3.131   5.061   9.566  1.00  0.00     0.074 A 
ATOM     49  C   UNL     1       1.379  -0.835  11.474  1.00  0.00     0.029 A 
ATOM     50  N   UNL     1       2.847   0.768  11.811  1.00  0.00    -0.354 N 
ATOM     51  N   UNL     1       2.176   4.865  10.431  1.00  0.00    -0.248 NA
ATOM     52  C   UNL     1       4.341   4.281   9.797  1.00  0.00     0.031 C 
ATOM     53  C   UNL     1       0.700   0.387  11.749  1.00  0.00     0.029 A 
ATOM     54  C   UNL     1       1.642   1.415  11.719  1.00  0.00     0.049 A 
ATOM     55  H   UNL     1       3.673   1.131  12.206  1.00  0.00     0.167 HD
ATOM     56  C   UNL     1       2.488   3.659  11.044  1.00  0.00     0.074 A 
ATOM     57  C   UNL     1       3.881   3.402  10.693  1.00  0.00     0.031 C 
ATOM     58  C   UNL     1       1.506   2.840  11.525  1.00  0.00     0.037 A 
BRANCH  45  59
ATOM     59  C   UNL     1       5.174  -1.067  10.796  1.00  0.00     0.057 A 
ATOM     60  C   UNL     1       6.275  -0.648  10.017  1.00  0.00     0.134 A 
ATOM     61  C   UNL     1       5.460  -1.333  12.143  1.00  0.00     0.134 A 
ATOM     62  F   UNL     1       6.158  -0.266   8.740  1.00  0.00    -0.206 F 
ATOM     63  C   UNL     1       7.559  -0.495  10.540  1.00  0.00     0.040 A 
ATOM     64  C   UNL     1       6.730  -1.125  12.691  1.00  0.00     0.040 A 
ATOM     65  F   UNL     1       4.492  -1.722  12.986  1.00  0.00    -0.206 F 
ATOM     66  C   UNL     1       7.783  -0.698  11.890  1.00  0.00     0.006 A 
ENDBRANCH  45  59
BRANCH  46  67
ATOM     67  C   UNL     1       3.619   6.855   7.744  1.00  0.00     0.057 A 
ATOM     68  C   UNL     1       4.169   6.960   6.453  1.00  0.00     0.134 A 
ATOM     69  C   UNL     1       3.969   7.873   8.641  1.00  0.00     0.134 A 
ATOM     70  F   UNL     1       3.981   6.002   5.535  1.00  0.00    -0.206 F 
ATOM     71  C   UNL     1       5.009   8.013   6.075  1.00  0.00     0.040 A 
ATOM     72  C   UNL     1       4.822   8.925   8.282  1.00  0.00     0.040 A 
ATOM     73  F   UNL     1       3.534   7.841   9.909  1.00  0.00    -0.206 F 
ATOM     74  C   UNL     1       5.349   8.995   6.996  1.00  0.00     0.006 A 
ENDBRANCH  46  67
BRANCH  58  75
ATOM     75  C   UNL     1       0.116   3.408  11.604  1.00  0.00     0.057 A 
ATOM     76  C   UNL     1      -0.538   3.442  12.839  1.00  0.00     0.134 A 
ATOM     77  C   UNL     1      -0.631   3.797  10.481  1.00  0.00     0.134 A 
ATOM     78  F   UNL     1       0.090   3.022  13.948  1.00  0.00    -0.206 F 
ATOM     79  C   UNL     1      -1.863   3.867  12.958  1.00  0.00     0.040 A 
ATOM     80  C   UNL     1      -1.946   4.257  10.589  1.00  0.00     0.040 A 
ATOM     81  F   UNL     1      -0.128   3.690   9.245  1.00  0.00    -0.206 F 
ATOM     82  C   UNL     1      -2.567   4.291  11.833  1.00  0.00     0.006 A 
ENDBRANCH  58  75
ENDBRANCH  32  33
ENDBRANCH  25  27
ENDBRANCH  24  25
ENDBRANCH  23  24
ENDBRANCH   1  23
TORSDOF 14
