REMARK SMILES O=C(OCCOC(=O)c1ccc(C[N@@H+]2CCN3C(=O)NC[C@@H]3C2)nc1)c1ccc(-c2c3nc(c(-c4c(F)cccc4F)c4ccc([nH]4)c(-c4c(F)cccc4F)c4nc(c(-c5c(F)cccc5F)c5ccc2[nH]5)C=C4)C=C3)cc1
REMARK SMILES IDX 4 1 3 2 2 3 1 4 26 5 27 6 79 7 28 8 78 9 29 10 30 11 31 12
REMARK SMILES IDX 72 13 32 14 77 15 71 16 73 17 33 18 76 19 70 20 69 21 34 23
REMARK SMILES IDX 60 24 43 25 59 26 44 27 47 28 58 29 74 30 45 31 46 32 57 34
REMARK SMILES IDX 75 35 48 36 35 37 36 38 41 39 37 40 38 41 40 42 42 43 39 44
REMARK SMILES IDX 61 45 62 46 67 47 63 48 64 49 66 50 68 51 65 52 49 53 50 54
REMARK SMILES IDX 55 55 51 56 52 57 54 58 56 59 53 60 5 61 6 62 7 63 8 64 9 65
REMARK SMILES IDX 10 66 25 67 11 68 24 69 12 70 13 71 14 72 15 73 23 74 16 76
REMARK SMILES IDX 22 77 17 78 21 79 18 80 20 81 19 82
REMARK H PARENT 73 22 47 33 14 75 20 83
REMARK Flexibility Score: inf
ROOT
ATOM      1  C   UNL     1       4.211  -0.549  -1.652  1.00  0.00     0.275 C 
ENDROOT
BRANCH   1   2
ATOM      2  O   UNL     1       3.058  -0.950  -0.888  1.00  0.00    -0.458 OA
BRANCH   2   3
ATOM      3  C   UNL     1       2.878  -0.993   0.453  1.00  0.00     0.338 C 
ATOM      4  O   UNL     1       1.964  -1.678   0.908  1.00  0.00    -0.246 OA
BRANCH   3   5
ATOM      5  C   UNL     1       3.623  -0.121   1.415  1.00  0.00     0.060 A 
ATOM      6  C   UNL     1       4.962   0.256   1.310  1.00  0.00     0.016 A 
ATOM      7  C   UNL     1       2.903   0.316   2.545  1.00  0.00     0.016 A 
ATOM      8  C   UNL     1       5.556   1.074   2.276  1.00  0.00     0.010 A 
ATOM      9  C   UNL     1       3.487   1.145   3.509  1.00  0.00     0.010 A 
ATOM     10  C   UNL     1       4.828   1.514   3.385  1.00  0.00    -0.014 A 
BRANCH  10  11
ATOM     11  C   UNL     1       5.539   2.221   4.471  1.00  0.00     0.031 A 
ATOM     12  C   UNL     1       5.984   1.432   5.666  1.00  0.00     0.074 A 
ATOM     13  C   UNL     1       5.864   3.520   4.349  1.00  0.00     0.049 A 
ATOM     14  N   UNL     1       6.766   1.796   6.647  1.00  0.00    -0.248 NA
ATOM     15  C   UNL     1       5.513   0.040   5.749  1.00  0.00     0.031 C 
ATOM     16  C   UNL     1       5.541   4.362   3.200  1.00  0.00     0.029 A 
ATOM     17  N   UNL     1       6.551   4.357   5.189  1.00  0.00    -0.354 N 
ATOM     18  C   UNL     1       6.919   0.666   7.438  1.00  0.00     0.074 A 
ATOM     19  C   UNL     1       6.096  -0.375   6.862  1.00  0.00     0.031 C 
ATOM     20  C   UNL     1       5.996   5.606   3.419  1.00  0.00     0.029 A 
ATOM     21  C   UNL     1       6.670   5.640   4.713  1.00  0.00     0.049 A 
ATOM     22  H   UNL     1       6.923   4.066   6.053  1.00  0.00     0.167 HD
ATOM     23  C   UNL     1       7.702   0.502   8.528  1.00  0.00     0.037 A 
ATOM     24  C   UNL     1       7.278   6.713   5.253  1.00  0.00     0.037 A 
ATOM     25  C   UNL     1       8.487   1.552   9.115  1.00  0.00     0.049 A 
ATOM     26  C   UNL     1       8.047   6.536   6.533  1.00  0.00     0.074 A 
ATOM     27  C   UNL     1       9.307   1.503  10.227  1.00  0.00     0.029 A 
ATOM     28  N   UNL     1       8.528   2.856   8.641  1.00  0.00    -0.354 N 
ATOM     29  N   UNL     1       8.243   5.443   7.232  1.00  0.00    -0.248 NA
ATOM     30  C   UNL     1       8.708   7.728   7.080  1.00  0.00     0.031 C 
ATOM     31  C   UNL     1       9.809   2.790  10.452  1.00  0.00     0.029 A 
ATOM     32  C   UNL     1       9.336   3.630   9.455  1.00  0.00     0.049 A 
ATOM     33  H   UNL     1       8.052   3.182   7.844  1.00  0.00     0.167 HD
ATOM     34  C   UNL     1       9.088   5.804   8.273  1.00  0.00     0.074 A 
ATOM     35  C   UNL     1       9.364   7.218   8.113  1.00  0.00     0.031 C 
ATOM     36  C   UNL     1       9.601   5.033   9.264  1.00  0.00     0.037 A 
BRANCH  23  37
ATOM     37  C   UNL     1       7.712  -0.862   9.148  1.00  0.00     0.057 A 
ATOM     38  C   UNL     1       8.352  -1.945   8.528  1.00  0.00     0.134 A 
ATOM     39  C   UNL     1       7.043  -1.108  10.352  1.00  0.00     0.134 A 
ATOM     40  F   UNL     1       8.990  -1.780   7.359  1.00  0.00    -0.206 F 
ATOM     41  C   UNL     1       8.298  -3.231   9.069  1.00  0.00     0.040 A 
ATOM     42  C   UNL     1       7.000  -2.385  10.913  1.00  0.00     0.040 A 
ATOM     43  F   UNL     1       6.407  -0.115  10.992  1.00  0.00    -0.206 F 
ATOM     44  C   UNL     1       7.621  -3.453  10.266  1.00  0.00     0.006 A 
ENDBRANCH  23  37
BRANCH  24  45
ATOM     45  C   UNL     1       7.226   8.028   4.566  1.00  0.00     0.057 A 
ATOM     46  C   UNL     1       8.362   8.586   3.969  1.00  0.00     0.134 A 
ATOM     47  C   UNL     1       6.037   8.767   4.505  1.00  0.00     0.134 A 
ATOM     48  F   UNL     1       9.532   7.932   4.004  1.00  0.00    -0.206 F 
ATOM     49  C   UNL     1       8.325   9.840   3.356  1.00  0.00     0.040 A 
ATOM     50  C   UNL     1       5.982  10.014   3.879  1.00  0.00     0.040 A 
ATOM     51  F   UNL     1       4.910   8.283   5.046  1.00  0.00    -0.206 F 
ATOM     52  C   UNL     1       7.131  10.557   3.308  1.00  0.00     0.006 A 
ENDBRANCH  24  45
BRANCH  36  53
ATOM     53  C   UNL     1      10.544   5.697  10.221  1.00  0.00     0.057 A 
ATOM     54  C   UNL     1      10.095   6.590  11.202  1.00  0.00     0.134 A 
ATOM     55  C   UNL     1      11.914   5.408  10.183  1.00  0.00     0.134 A 
ATOM     56  F   UNL     1       8.796   6.918  11.278  1.00  0.00    -0.206 F 
ATOM     57  C   UNL     1      10.979   7.188  12.099  1.00  0.00     0.040 A 
ATOM     58  C   UNL     1      12.804   5.980  11.091  1.00  0.00     0.040 A 
ATOM     59  F   UNL     1      12.405   4.556   9.271  1.00  0.00    -0.206 F 
ATOM     60  C   UNL     1      12.338   6.878  12.049  1.00  0.00     0.006 A 
ENDBRANCH  36  53
ENDBRANCH  10  11
ENDBRANCH   3   5
ENDBRANCH   2   3
ENDBRANCH   1   2
BRANCH   1  61
ATOM     61  C   UNL     1       4.178   0.906  -2.123  1.00  0.00     0.275 C 
BRANCH  61  62
ATOM     62  O   UNL     1       3.742   1.809  -1.098  1.00  0.00    -0.458 OA
BRANCH  62  63
ATOM     63  C   UNL     1       2.412   2.080  -1.120  1.00  0.00     0.339 C 
ATOM     64  O   UNL     1       1.599   1.716  -1.952  1.00  0.00    -0.246 OA
BRANCH  63  65
ATOM     65  C   UNL     1       2.043   2.777   0.113  1.00  0.00     0.078 A 
ATOM     66  C   UNL     1       2.743   3.874   0.604  1.00  0.00     0.019 A 
ATOM     67  C   UNL     1       0.957   2.303   0.830  1.00  0.00     0.127 A 
ATOM     68  C   UNL     1       2.317   4.465   1.792  1.00  0.00     0.031 A 
ATOM     69  N   UNL     1       0.559   2.829   2.011  1.00  0.00    -0.254 NA
ATOM     70  C   UNL     1       1.225   3.919   2.471  1.00  0.00     0.095 A 
BRANCH  70  71
ATOM     71  C   UNL     1       0.644   4.643   3.677  1.00  0.00     0.319 C 
BRANCH  71  72
ATOM     72  N   UNL     1      -0.738   5.139   3.503  1.00  0.00    -0.327 N 
ATOM     73  C   UNL     1      -1.760   4.081   3.697  1.00  0.00     0.284 C 
ATOM     74  C   UNL     1      -0.907   5.922   2.260  1.00  0.00     0.289 C 
ATOM     75  H   UNL     1      -0.907   5.803   4.260  1.00  0.00     0.348 HD
ATOM     76  C   UNL     1      -2.608   3.662   2.480  1.00  0.00     0.183 C 
ATOM     77  C   UNL     1      -2.368   6.082   1.829  1.00  0.00     0.161 C 
ATOM     78  N   UNL     1      -3.004   4.790   1.665  1.00  0.00    -0.309 N 
ATOM     79  C   UNL     1      -2.537   6.719   0.447  1.00  0.00     0.148 C 
ATOM     80  C   UNL     1      -3.726   4.711   0.491  1.00  0.00     0.318 C 
ATOM     81  N   UNL     1      -3.539   5.904  -0.190  1.00  0.00    -0.336 N 
ATOM     82  O   UNL     1      -4.367   3.764   0.073  1.00  0.00    -0.249 OA
ATOM     83  H   UNL     1      -4.029   6.162  -1.004  1.00  0.00     0.165 HD
ENDBRANCH  71  72
ENDBRANCH  70  71
ENDBRANCH  63  65
ENDBRANCH  62  63
ENDBRANCH  61  62
ENDBRANCH   1  61
TORSDOF 13
