REMARK SMILES CCCCCCNC(=O)Oc1cccc(-c2ccc([C@@H](C)C(=O)OCCOC(=O)c3ccc(-c4c5nc(c(-c6c(F)cccc6F)c6ccc([nH]6)c(-c6c(F)cccc6F)c6nc(c(-c7c(F)cccc7F)c7ccc4[nH]7)C=C6)C=C5)cc3)cc2)c1
REMARK SMILES IDX 20 1 21 2 19 3 16 4 17 5 85 6 18 7 84 8 15 9 11 10 12 11
REMARK SMILES IDX 86 12 13 13 14 14 10 15 8 16 7 17 9 19 6 20 5 21 4 22 3 23
REMARK SMILES IDX 2 24 1 25 22 26 23 27 24 28 25 29 26 30 27 31 28 32 29 33
REMARK SMILES IDX 30 34 31 35 83 36 32 37 82 38 33 39 34 40 35 41 76 42 36 43
REMARK SMILES IDX 81 44 75 45 77 46 37 47 80 48 74 49 73 50 38 52 64 53 47 54
REMARK SMILES IDX 63 55 48 56 51 57 62 58 78 59 49 60 50 61 61 63 79 64 52 65
REMARK SMILES IDX 39 66 40 67 45 68 41 69 42 70 44 71 46 72 43 73 65 74 66 75
REMARK SMILES IDX 71 76 67 77 68 78 70 79 72 80 69 81 53 82 54 83 59 84 55 85
REMARK SMILES IDX 56 86 58 87 60 88 57 89
REMARK H PARENT 7 18 77 51 51 62
REMARK Flexibility Score: inf
ROOT
ATOM      1  C   UNL     1      -5.350  -1.481  13.836  1.00  0.00     0.126 C 
ATOM      2  C   UNL     1      -6.708  -1.781  14.468  1.00  0.00     0.025 C 
ENDROOT
BRANCH   1   3
ATOM      3  C   UNL     1      -5.242  -2.008  12.414  1.00  0.00    -0.034 A 
ATOM      4  C   UNL     1      -5.132  -2.929   9.723  1.00  0.00    -0.018 A 
ATOM      5  C   UNL     1      -5.386  -3.810  10.785  1.00  0.00     0.009 A 
ATOM      6  C   UNL     1      -4.900  -1.583  10.036  1.00  0.00     0.009 A 
ATOM      7  C   UNL     1      -5.446  -3.359  12.107  1.00  0.00     0.005 A 
ATOM      8  C   UNL     1      -4.955  -1.128  11.359  1.00  0.00     0.005 A 
BRANCH   4   9
ATOM      9  C   UNL     1      -5.164  -3.396   8.325  1.00  0.00    -0.015 A 
ATOM     10  C   UNL     1      -4.230  -3.520   6.089  1.00  0.00     0.133 A 
ATOM     11  C   UNL     1      -5.324  -4.257   5.640  1.00  0.00     0.047 A 
ATOM     12  C   UNL     1      -4.145  -3.079   7.412  1.00  0.00     0.056 A 
ATOM     13  C   UNL     1      -6.338  -4.582   6.532  1.00  0.00     0.004 A 
ATOM     14  C   UNL     1      -6.258  -4.154   7.860  1.00  0.00     0.009 A 
BRANCH  10  15
ATOM     15  O   UNL     1      -3.291  -3.139   5.117  1.00  0.00    -0.410 OA
BRANCH  15  16
ATOM     16  C   UNL     1      -1.965  -3.492   5.318  1.00  0.00     0.412 C 
ATOM     17  N   UNL     1      -1.153  -3.130   4.277  1.00  0.00    -0.321 N 
ATOM     18  H   UNL     1      -0.194  -3.328   4.378  1.00  0.00     0.167 HD
ATOM     19  O   UNL     1      -1.512  -4.080   6.292  1.00  0.00    -0.224 OA
BRANCH  17  20
ATOM     20  C   UNL     1      -1.555  -2.485   3.043  1.00  0.00     0.119 C 
BRANCH  20  21
ATOM     21  C   UNL     1      -0.948  -1.091   2.895  1.00  0.00     0.021 C 
BRANCH  21  22
ATOM     22  C   UNL     1       0.582  -1.061   2.786  1.00  0.00     0.002 C 
BRANCH  22  23
ATOM     23  C   UNL     1       1.180  -1.857   1.621  1.00  0.00    -0.000 C 
BRANCH  23  24
ATOM     24  C   UNL     1       0.698  -1.450   0.226  1.00  0.00    -0.003 C 
ATOM     25  C   UNL     1       1.062  -0.021  -0.145  1.00  0.00     0.004 C 
ENDBRANCH  23  24
ENDBRANCH  22  23
ENDBRANCH  21  22
ENDBRANCH  20  21
ENDBRANCH  17  20
ENDBRANCH  15  16
ENDBRANCH  10  15
ENDBRANCH   4   9
ENDBRANCH   1   3
BRANCH   1  26
ATOM     26  C   UNL     1      -4.233  -1.889  14.789  1.00  0.00     0.313 C 
ATOM     27  O   UNL     1      -3.896  -1.183  15.735  1.00  0.00    -0.252 OA
BRANCH  26  28
ATOM     28  O   UNL     1      -3.697  -3.107  14.515  1.00  0.00    -0.462 OA
BRANCH  28  29
ATOM     29  C   UNL     1      -2.600  -3.537  15.343  1.00  0.00     0.274 C 
BRANCH  29  30
ATOM     30  C   UNL     1      -1.258  -3.307  14.646  1.00  0.00     0.275 C 
BRANCH  30  31
ATOM     31  O   UNL     1      -0.963  -1.902  14.546  1.00  0.00    -0.458 OA
BRANCH  31  32
ATOM     32  C   UNL     1      -1.240  -1.340  13.348  1.00  0.00     0.338 C 
ATOM     33  O   UNL     1      -1.652  -1.888  12.342  1.00  0.00    -0.246 OA
BRANCH  32  34
ATOM     34  C   UNL     1      -1.073   0.116  13.445  1.00  0.00     0.060 A 
ATOM     35  C   UNL     1      -2.219   0.914  13.422  1.00  0.00     0.016 A 
ATOM     36  C   UNL     1       0.197   0.692  13.463  1.00  0.00     0.016 A 
ATOM     37  C   UNL     1      -2.103   2.300  13.404  1.00  0.00     0.010 A 
ATOM     38  C   UNL     1       0.313   2.085  13.455  1.00  0.00     0.010 A 
ATOM     39  C   UNL     1      -0.836   2.896  13.411  1.00  0.00    -0.014 A 
BRANCH  39  40
ATOM     40  C   UNL     1      -0.718   4.369  13.320  1.00  0.00     0.031 A 
ATOM     41  C   UNL     1      -0.277   5.006  12.035  1.00  0.00     0.074 A 
ATOM     42  C   UNL     1      -1.027   5.133  14.384  1.00  0.00     0.049 A 
ATOM     43  N   UNL     1      -0.031   6.265  11.777  1.00  0.00    -0.248 NA
ATOM     44  C   UNL     1      -0.088   4.106  10.886  1.00  0.00     0.031 C 
ATOM     45  C   UNL     1      -1.510   4.632  15.671  1.00  0.00     0.029 A 
ATOM     46  N   UNL     1      -0.975   6.493  14.550  1.00  0.00    -0.354 N 
ATOM     47  C   UNL     1       0.361   6.307  10.446  1.00  0.00     0.074 A 
ATOM     48  C   UNL     1       0.332   4.946   9.952  1.00  0.00     0.031 C 
ATOM     49  C   UNL     1      -1.711   5.673  16.496  1.00  0.00     0.029 A 
ATOM     50  C   UNL     1      -1.329   6.904  15.811  1.00  0.00     0.049 A 
ATOM     51  H   UNL     1      -0.710   7.114  13.834  1.00  0.00     0.167 HD
ATOM     52  C   UNL     1       0.711   7.385   9.704  1.00  0.00     0.037 A 
ATOM     53  C   UNL     1      -1.318   8.133  16.360  1.00  0.00     0.037 A 
ATOM     54  C   UNL     1       0.723   8.738  10.194  1.00  0.00     0.049 A 
ATOM     55  C   UNL     1      -0.871   9.305  15.531  1.00  0.00     0.074 A 
ATOM     56  C   UNL     1       1.053   9.899   9.515  1.00  0.00     0.029 A 
ATOM     57  N   UNL     1       0.389   9.111  11.486  1.00  0.00    -0.354 N 
ATOM     58  N   UNL     1      -0.491   9.334  14.277  1.00  0.00    -0.248 NA
ATOM     59  C   UNL     1      -0.844  10.615  16.198  1.00  0.00     0.031 C 
ATOM     60  C   UNL     1       0.950  10.972  10.408  1.00  0.00     0.029 A 
ATOM     61  C   UNL     1       0.521  10.482  11.632  1.00  0.00     0.049 A 
ATOM     62  H   UNL     1       0.100   8.493  12.196  1.00  0.00     0.167 HD
ATOM     63  C   UNL     1      -0.193  10.661  14.000  1.00  0.00     0.074 A 
ATOM     64  C   UNL     1      -0.452  11.410  15.212  1.00  0.00     0.031 C 
ATOM     65  C   UNL     1       0.258  11.210  12.846  1.00  0.00     0.037 A 
BRANCH  52  66
ATOM     66  C   UNL     1       1.136   7.137   8.288  1.00  0.00     0.057 A 
ATOM     67  C   UNL     1       0.212   6.828   7.282  1.00  0.00     0.134 A 
ATOM     68  C   UNL     1       2.484   7.239   7.922  1.00  0.00     0.134 A 
ATOM     69  F   UNL     1      -1.091   6.701   7.572  1.00  0.00    -0.206 F 
ATOM     70  C   UNL     1       0.617   6.611   5.964  1.00  0.00     0.040 A 
ATOM     71  C   UNL     1       2.898   7.045   6.604  1.00  0.00     0.040 A 
ATOM     72  F   UNL     1       3.418   7.535   8.839  1.00  0.00    -0.206 F 
ATOM     73  C   UNL     1       1.964   6.726   5.621  1.00  0.00     0.006 A 
ENDBRANCH  52  66
BRANCH  53  74
ATOM     74  C   UNL     1      -1.718   8.315  17.776  1.00  0.00     0.057 A 
ATOM     75  C   UNL     1      -2.913   8.959  18.114  1.00  0.00     0.134 A 
ATOM     76  C   UNL     1      -0.910   7.856  18.824  1.00  0.00     0.134 A 
ATOM     77  F   UNL     1      -3.715   9.441  17.154  1.00  0.00    -0.206 F 
ATOM     78  C   UNL     1      -3.287   9.150  19.445  1.00  0.00     0.040 A 
ATOM     79  C   UNL     1      -1.283   8.020  20.159  1.00  0.00     0.040 A 
ATOM     80  F   UNL     1       0.248   7.233  18.564  1.00  0.00    -0.206 F 
ATOM     81  C   UNL     1      -2.473   8.674  20.472  1.00  0.00     0.006 A 
ENDBRANCH  53  74
BRANCH  65  82
ATOM     82  C   UNL     1       0.477  12.692  12.837  1.00  0.00     0.057 A 
ATOM     83  C   UNL     1       1.583  13.275  13.467  1.00  0.00     0.134 A 
ATOM     84  C   UNL     1      -0.410  13.542  12.165  1.00  0.00     0.134 A 
ATOM     85  F   UNL     1       2.461  12.515  14.140  1.00  0.00    -0.206 F 
ATOM     86  C   UNL     1       1.790  14.655  13.445  1.00  0.00     0.040 A 
ATOM     87  C   UNL     1      -0.203  14.921  12.118  1.00  0.00     0.040 A 
ATOM     88  F   UNL     1      -1.486  13.044  11.537  1.00  0.00    -0.206 F 
ATOM     89  C   UNL     1       0.898  15.481  12.763  1.00  0.00     0.006 A 
ENDBRANCH  65  82
ENDBRANCH  39  40
ENDBRANCH  32  34
ENDBRANCH  31  32
ENDBRANCH  30  31
ENDBRANCH  29  30
ENDBRANCH  28  29
ENDBRANCH  26  28
ENDBRANCH   1  26
TORSDOF 20
