REMARK SMILES CC(C)N(CC(=O)OCCOC(=O)c1ccc(-c2c3nc(c(-c4c(F)cccc4F)c4ccc([nH]4)c(-c4c(F)cccc4F)c4nc(c(-c5c(F)cccc5F)c5ccc2[nH]5)C=C4)C=C3)cc1)C(=O)NC1C(C)(C)C1(C)C
REMARK SMILES IDX 9 1 8 2 6 3 7 4 5 5 4 6 2 7 1 8 3 9 68 10 69 11 70 12 71 14
REMARK SMILES IDX 72 15 75 16 73 17 74 18 76 19 77 20 10 21 11 22 12 23 13 24
REMARK SMILES IDX 14 25 15 26 67 27 16 28 66 29 17 30 18 31 19 32 60 33 20 34
REMARK SMILES IDX 65 35 59 36 61 37 21 38 64 39 58 40 57 41 22 43 48 44 31 45
REMARK SMILES IDX 47 46 32 47 35 48 46 49 62 50 33 51 34 52 45 54 63 55 36 56
REMARK SMILES IDX 23 57 24 58 29 59 25 60 26 61 28 62 30 63 27 64 49 65 50 66
REMARK SMILES IDX 55 67 51 68 52 69 54 70 56 71 53 72 37 73 38 74 43 75 39 76
REMARK SMILES IDX 40 77 42 78 44 79 41 80
REMARK H PARENT 70 13 61 42 35 53
REMARK Flexibility Score: inf
ROOT
ATOM      1  C   UNL     1      -2.953  -5.404  -1.197  1.00  0.00     0.274 C 
ENDROOT
BRANCH   1   2
ATOM      2  O   UNL     1      -1.866  -4.469  -0.835  1.00  0.00    -0.461 OA
BRANCH   2   3
ATOM      3  C   UNL     1      -1.083  -4.014  -1.863  1.00  0.00     0.325 C 
ATOM      4  O   UNL     1      -1.035  -4.596  -2.950  1.00  0.00    -0.250 OA
BRANCH   3   5
ATOM      5  C   UNL     1      -0.362  -2.612  -1.688  1.00  0.00     0.244 C 
BRANCH   5   6
ATOM      6  N   UNL     1      -0.088  -1.744  -0.486  1.00  0.00    -0.311 N 
BRANCH   6   7
ATOM      7  C   UNL     1       1.360  -1.608  -0.182  1.00  0.00     0.081 C 
ATOM      8  C   UNL     1       1.804  -0.196   0.245  1.00  0.00     0.031 C 
ATOM      9  C   UNL     1       1.838  -2.679   0.788  1.00  0.00     0.031 C 
ENDBRANCH   6   7
BRANCH   6  10
ATOM     10  C   UNL     1      -0.918  -1.030   0.356  1.00  0.00     0.318 C 
ATOM     11  O   UNL     1      -0.644  -0.934   1.562  1.00  0.00    -0.249 OA
ATOM     12  N   UNL     1      -2.003  -0.287  -0.008  1.00  0.00    -0.334 N 
ATOM     13  H   UNL     1      -2.287   0.299   0.731  1.00  0.00     0.165 HD
BRANCH  12  14
ATOM     14  C   UNL     1      -2.863  -0.109  -1.167  1.00  0.00     0.096 C 
ATOM     15  C   UNL     1      -2.450   0.257  -2.478  1.00  0.00    -0.007 C 
ATOM     16  C   UNL     1      -2.890  -1.287  -2.165  1.00  0.00    -0.007 C 
ATOM     17  C   UNL     1      -3.420   1.058  -3.338  1.00  0.00     0.014 C 
ATOM     18  C   UNL     1      -1.042   0.772  -2.597  1.00  0.00     0.014 C 
ATOM     19  C   UNL     1      -3.353  -2.258  -1.105  1.00  0.00     0.014 C 
ATOM     20  C   UNL     1      -3.373  -1.836  -3.505  1.00  0.00     0.014 C 
ENDBRANCH  12  14
ENDBRANCH   6  10
ENDBRANCH   5   6
ENDBRANCH   3   5
ENDBRANCH   2   3
ENDBRANCH   1   2
BRANCH   1  21
ATOM     21  C   UNL     1      -4.225  -5.288  -0.261  1.00  0.00     0.275 C 
BRANCH  21  22
ATOM     22  O   UNL     1      -5.214  -4.266  -0.669  1.00  0.00    -0.458 OA
BRANCH  22  23
ATOM     23  C   UNL     1      -6.050  -3.732   0.280  1.00  0.00     0.338 C 
ATOM     24  O   UNL     1      -6.192  -4.205   1.410  1.00  0.00    -0.246 OA
BRANCH  23  25
ATOM     25  C   UNL     1      -6.694  -2.406  -0.117  1.00  0.00     0.060 A 
ATOM     26  C   UNL     1      -6.362  -1.771  -1.304  1.00  0.00     0.016 A 
ATOM     27  C   UNL     1      -7.508  -1.668   0.756  1.00  0.00     0.016 A 
ATOM     28  C   UNL     1      -6.633  -0.405  -1.514  1.00  0.00     0.010 A 
ATOM     29  C   UNL     1      -7.947  -0.342   0.439  1.00  0.00     0.010 A 
ATOM     30  C   UNL     1      -7.497   0.340  -0.707  1.00  0.00    -0.014 A 
BRANCH  30  31
ATOM     31  C   UNL     1      -7.912   1.758  -1.098  1.00  0.00     0.031 A 
ATOM     32  C   UNL     1      -8.028   2.878  -0.074  1.00  0.00     0.074 A 
ATOM     33  C   UNL     1      -8.170   2.116  -2.385  1.00  0.00     0.049 A 
ATOM     34  N   UNL     1      -8.668   4.024  -0.154  1.00  0.00    -0.248 NA
ATOM     35  C   UNL     1      -7.313   2.693   1.195  1.00  0.00     0.031 C 
ATOM     36  C   UNL     1      -8.011   1.267  -3.567  1.00  0.00     0.029 A 
ATOM     37  N   UNL     1      -8.623   3.309  -2.926  1.00  0.00    -0.354 N 
ATOM     38  C   UNL     1      -8.506   4.654   1.079  1.00  0.00     0.074 A 
ATOM     39  C   UNL     1      -7.670   3.776   1.875  1.00  0.00     0.031 C 
ATOM     40  C   UNL     1      -8.282   1.968  -4.675  1.00  0.00     0.029 A 
ATOM     41  C   UNL     1      -8.826   3.259  -4.290  1.00  0.00     0.049 A 
ATOM     42  H   UNL     1      -8.786   4.117  -2.387  1.00  0.00     0.167 HD
ATOM     43  C   UNL     1      -9.018   5.837   1.516  1.00  0.00     0.037 A 
ATOM     44  C   UNL     1      -9.467   4.079  -5.150  1.00  0.00     0.037 A 
ATOM     45  C   UNL     1      -9.795   6.751   0.709  1.00  0.00     0.049 A 
ATOM     46  C   UNL     1     -10.146   5.314  -4.634  1.00  0.00     0.074 A 
ATOM     47  C   UNL     1     -10.399   7.942   1.084  1.00  0.00     0.029 A 
ATOM     48  N   UNL     1     -10.055   6.590  -0.643  1.00  0.00    -0.354 N 
ATOM     49  N   UNL     1     -10.146   5.808  -3.422  1.00  0.00    -0.248 NA
ATOM     50  C   UNL     1     -10.950   6.083  -5.597  1.00  0.00     0.031 C 
ATOM     51  C   UNL     1     -11.064   8.474  -0.028  1.00  0.00     0.029 A 
ATOM     52  C   UNL     1     -10.827   7.645  -1.111  1.00  0.00     0.049 A 
ATOM     53  H   UNL     1      -9.739   5.836  -1.192  1.00  0.00     0.167 HD
ATOM     54  C   UNL     1     -10.939   6.947  -3.477  1.00  0.00     0.074 A 
ATOM     55  C   UNL     1     -11.386   7.085  -4.847  1.00  0.00     0.031 C 
ATOM     56  C   UNL     1     -11.271   7.793  -2.473  1.00  0.00     0.037 A 
BRANCH  43  57
ATOM     57  C   UNL     1      -8.837   6.176   2.974  1.00  0.00     0.057 A 
ATOM     58  C   UNL     1      -7.610   6.570   3.521  1.00  0.00     0.134 A 
ATOM     59  C   UNL     1      -9.937   6.120   3.845  1.00  0.00     0.134 A 
ATOM     60  F   UNL     1      -6.516   6.646   2.749  1.00  0.00    -0.206 F 
ATOM     61  C   UNL     1      -7.474   6.852   4.884  1.00  0.00     0.040 A 
ATOM     62  C   UNL     1      -9.820   6.428   5.202  1.00  0.00     0.040 A 
ATOM     63  F   UNL     1     -11.150   5.774   3.388  1.00  0.00    -0.206 F 
ATOM     64  C   UNL     1      -8.581   6.782   5.728  1.00  0.00     0.006 A 
ENDBRANCH  43  57
BRANCH  44  65
ATOM     65  C   UNL     1      -9.621   3.686  -6.582  1.00  0.00     0.057 A 
ATOM     66  C   UNL     1      -9.039   4.430  -7.615  1.00  0.00     0.134 A 
ATOM     67  C   UNL     1     -10.367   2.556  -6.951  1.00  0.00     0.134 A 
ATOM     68  F   UNL     1      -8.347   5.544  -7.338  1.00  0.00    -0.206 F 
ATOM     69  C   UNL     1      -9.190   4.064  -8.956  1.00  0.00     0.040 A 
ATOM     70  C   UNL     1     -10.493   2.158  -8.283  1.00  0.00     0.040 A 
ATOM     71  F   UNL     1     -10.964   1.803  -6.016  1.00  0.00    -0.206 F 
ATOM     72  C   UNL     1      -9.908   2.917  -9.291  1.00  0.00     0.006 A 
ENDBRANCH  44  65
BRANCH  56  73
ATOM     73  C   UNL     1     -12.127   8.976  -2.825  1.00  0.00     0.057 A 
ATOM     74  C   UNL     1     -13.488   8.844  -3.131  1.00  0.00     0.134 A 
ATOM     75  C   UNL     1     -11.585  10.267  -2.843  1.00  0.00     0.134 A 
ATOM     76  F   UNL     1     -14.066   7.633  -3.153  1.00  0.00    -0.206 F 
ATOM     77  C   UNL     1     -14.274   9.951  -3.460  1.00  0.00     0.040 A 
ATOM     78  C   UNL     1     -12.366  11.384  -3.146  1.00  0.00     0.040 A 
ATOM     79  F   UNL     1     -10.289  10.466  -2.561  1.00  0.00    -0.206 F 
ATOM     80  C   UNL     1     -13.713  11.227  -3.461  1.00  0.00     0.006 A 
ENDBRANCH  56  73
ENDBRANCH  30  31
ENDBRANCH  23  25
ENDBRANCH  22  23
ENDBRANCH  21  22
ENDBRANCH   1  21
TORSDOF 15
