REMARK SMILES O=C(CCN1C(=O)/C(=C/c2cc(Br)cc(Br)c2O)SC1=S)OCCOC(=O)c1ccc(-c2c3nc(c(-c4c(F)cccc4F)c4ccc([nH]4)c(-c4c(F)cccc4F)c4nc(c(-c5c(F)cccc5F)c5ccc2[nH]5)C=C4)C=C3)cc1
REMARK SMILES IDX 23 1 22 2 2 3 1 4 3 5 4 6 5 7 6 8 20 9 7 10 8 11 19 12 21 13
REMARK SMILES IDX 9 14 10 15 11 16 17 17 12 18 15 19 13 20 14 21 16 22 18 23
REMARK SMILES IDX 24 25 25 26 26 27 27 28 28 29 29 30 81 31 30 32 80 33 31 34
REMARK SMILES IDX 32 35 33 36 74 37 34 38 79 39 73 40 75 41 35 42 78 43 72 44
REMARK SMILES IDX 71 45 36 47 62 48 45 49 61 50 46 51 49 52 60 53 76 54 47 55
REMARK SMILES IDX 48 56 59 58 77 59 50 60 37 61 38 62 43 63 39 64 40 65 42 66
REMARK SMILES IDX 44 67 41 68 63 69 64 70 69 71 65 72 66 73 68 74 70 75 67 76
REMARK SMILES IDX 51 77 52 78 57 79 53 80 54 81 56 82 58 83 55 84
REMARK H PARENT 18 24 75 46 49 57
REMARK Flexibility Score: inf
ROOT
ATOM      1  C   UNL     1       4.287  -0.921  -0.903  1.00  0.00     0.274 C 
ENDROOT
BRANCH   1   2
ATOM      2  O   UNL     1       2.993  -0.866  -0.262  1.00  0.00    -0.462 OA
BRANCH   2   3
ATOM      3  C   UNL     1       2.530   0.116   0.543  1.00  0.00     0.307 C 
ATOM      4  O   UNL     1       1.381   0.073   0.978  1.00  0.00    -0.252 OA
BRANCH   3   5
ATOM      5  C   UNL     1       3.437   1.250   0.935  1.00  0.00     0.144 C 
BRANCH   5   6
ATOM      6  C   UNL     1       3.984   1.071   2.350  1.00  0.00     0.139 C 
BRANCH   6   7
ATOM      7  N   UNL     1       5.030   0.048   2.426  1.00  0.00    -0.292 N 
ATOM      8  C   UNL     1       6.274   0.340   1.890  1.00  0.00     0.266 C 
ATOM      9  C   UNL     1       4.872  -1.212   2.969  1.00  0.00     0.148 C 
ATOM     10  O   UNL     1       6.612   1.402   1.386  1.00  0.00    -0.268 OA
ATOM     11  C   UNL     1       7.139  -0.865   1.914  1.00  0.00     0.081 C 
ATOM     12  S   UNL     1       6.348  -2.142   2.742  1.00  0.00    -0.054 SA
ATOM     13  S   UNL     1       3.536  -1.856   3.725  1.00  0.00    -0.052 S 
ATOM     14  C   UNL     1       8.317  -0.905   1.276  1.00  0.00     0.033 C 
BRANCH  14  15
ATOM     15  C   UNL     1       9.140  -2.116   1.174  1.00  0.00     0.020 A 
ATOM     16  C   UNL     1       8.903  -2.981   0.095  1.00  0.00     0.027 A 
ATOM     17  C   UNL     1      10.093  -2.470   2.143  1.00  0.00     0.137 A 
ATOM     18  C   UNL     1       9.594  -4.188   0.000  1.00  0.00     0.019 A 
ATOM     19  C   UNL     1      10.776  -3.688   2.037  1.00  0.00     0.061 A 
ATOM     20  Br  UNL     1       9.242  -5.352  -1.448  1.00  0.00    -0.051 Br
ATOM     21  C   UNL     1      10.526  -4.551   0.968  1.00  0.00     0.035 A 
ATOM     22  Br  UNL     1      12.051  -4.223   3.338  1.00  0.00    -0.047 Br
BRANCH  17  23
ATOM     23  O   UNL     1      10.369  -1.651   3.205  1.00  0.00    -0.506 OA
ATOM     24  H   UNL     1       9.923  -0.832   3.294  1.00  0.00     0.293 HD
ENDBRANCH  17  23
ENDBRANCH  14  15
ENDBRANCH   6   7
ENDBRANCH   5   6
ENDBRANCH   3   5
ENDBRANCH   2   3
ENDBRANCH   1   2
BRANCH   1  25
ATOM     25  C   UNL     1       4.244  -0.388  -2.333  1.00  0.00     0.275 C 
BRANCH  25  26
ATOM     26  O   UNL     1       3.891   1.004  -2.317  1.00  0.00    -0.458 OA
BRANCH  26  27
ATOM     27  C   UNL     1       2.585   1.264  -2.575  1.00  0.00     0.338 C 
ATOM     28  O   UNL     1       1.740   0.468  -2.939  1.00  0.00    -0.246 OA
BRANCH  27  29
ATOM     29  C   UNL     1       2.281   2.656  -2.185  1.00  0.00     0.060 A 
ATOM     30  C   UNL     1       1.033   2.910  -1.603  1.00  0.00     0.016 A 
ATOM     31  C   UNL     1       3.192   3.698  -2.388  1.00  0.00     0.016 A 
ATOM     32  C   UNL     1       0.672   4.214  -1.269  1.00  0.00     0.010 A 
ATOM     33  C   UNL     1       2.829   5.005  -2.054  1.00  0.00     0.010 A 
ATOM     34  C   UNL     1       1.554   5.271  -1.526  1.00  0.00    -0.014 A 
BRANCH  34  35
ATOM     35  C   UNL     1       1.087   6.669  -1.393  1.00  0.00     0.031 A 
ATOM     36  C   UNL     1       0.579   7.379  -2.617  1.00  0.00     0.074 A 
ATOM     37  C   UNL     1       1.105   7.295  -0.204  1.00  0.00     0.049 A 
ATOM     38  N   UNL     1       0.129   8.601  -2.741  1.00  0.00    -0.248 NA
ATOM     39  C   UNL     1       0.585   6.607  -3.870  1.00  0.00     0.031 C 
ATOM     40  C   UNL     1       1.557   6.708   1.056  1.00  0.00     0.029 A 
ATOM     41  N   UNL     1       0.737   8.573   0.131  1.00  0.00    -0.354 N 
ATOM     42  C   UNL     1      -0.209   8.741  -4.080  1.00  0.00     0.074 A 
ATOM     43  C   UNL     1       0.123   7.495  -4.737  1.00  0.00     0.031 C 
ATOM     44  C   UNL     1       1.450   7.630   2.028  1.00  0.00     0.029 A 
ATOM     45  C   UNL     1       0.938   8.874   1.455  1.00  0.00     0.049 A 
ATOM     46  H   UNL     1       0.364   9.214  -0.517  1.00  0.00     0.167 HD
ATOM     47  C   UNL     1      -0.760   9.808  -4.705  1.00  0.00     0.037 A 
ATOM     48  C   UNL     1       0.739  10.027   2.121  1.00  0.00     0.037 A 
ATOM     49  C   UNL     1      -1.084  11.049  -4.057  1.00  0.00     0.049 A 
ATOM     50  C   UNL     1       0.182  11.220   1.391  1.00  0.00     0.074 A 
ATOM     51  C   UNL     1      -1.663  12.182  -4.601  1.00  0.00     0.029 A 
ATOM     52  N   UNL     1      -0.849  11.321  -2.719  1.00  0.00    -0.354 N 
ATOM     53  N   UNL     1      -0.175  11.328   0.134  1.00  0.00    -0.248 NA
ATOM     54  C   UNL     1      -0.003  12.451   2.174  1.00  0.00     0.031 C 
ATOM     55  C   UNL     1      -1.743  13.155  -3.599  1.00  0.00     0.029 A 
ATOM     56  C   UNL     1      -1.250  12.613  -2.423  1.00  0.00     0.049 A 
ATOM     57  H   UNL     1      -0.456  10.690  -2.074  1.00  0.00     0.167 HD
ATOM     58  C   UNL     1      -0.655  12.623  -0.016  1.00  0.00     0.074 A 
ATOM     59  C   UNL     1      -0.547  13.263   1.279  1.00  0.00     0.031 C 
ATOM     60  C   UNL     1      -1.146  13.228  -1.125  1.00  0.00     0.037 A 
BRANCH  47  61
ATOM     61  C   UNL     1      -1.033   9.674  -6.172  1.00  0.00     0.057 A 
ATOM     62  C   UNL     1      -2.093   8.896  -6.654  1.00  0.00     0.134 A 
ATOM     63  C   UNL     1      -0.239  10.343  -7.111  1.00  0.00     0.134 A 
ATOM     64  F   UNL     1      -2.878   8.216  -5.804  1.00  0.00    -0.206 F 
ATOM     65  C   UNL     1      -2.342   8.772  -8.021  1.00  0.00     0.040 A 
ATOM     66  C   UNL     1      -0.492  10.244  -8.480  1.00  0.00     0.040 A 
ATOM     67  F   UNL     1       0.791  11.104  -6.714  1.00  0.00    -0.206 F 
ATOM     68  C   UNL     1      -1.543   9.452  -8.939  1.00  0.00     0.006 A 
ENDBRANCH  47  61
BRANCH  48  69
ATOM     69  C   UNL     1       1.064  10.116   3.566  1.00  0.00     0.057 A 
ATOM     70  C   UNL     1       0.055  10.206   4.531  1.00  0.00     0.134 A 
ATOM     71  C   UNL     1       2.391  10.140   4.012  1.00  0.00     0.134 A 
ATOM     72  F   UNL     1      -1.234  10.211   4.160  1.00  0.00    -0.206 F 
ATOM     73  C   UNL     1       0.353  10.334   5.888  1.00  0.00     0.040 A 
ATOM     74  C   UNL     1       2.703  10.248   5.368  1.00  0.00     0.040 A 
ATOM     75  F   UNL     1       3.402  10.057   3.135  1.00  0.00    -0.206 F 
ATOM     76  C   UNL     1       1.681  10.352   6.310  1.00  0.00     0.006 A 
ENDBRANCH  48  69
BRANCH  60  77
ATOM     77  C   UNL     1      -1.636  14.638  -0.983  1.00  0.00     0.057 A 
ATOM     78  C   UNL     1      -0.752  15.718  -0.872  1.00  0.00     0.134 A 
ATOM     79  C   UNL     1      -3.007  14.920  -1.009  1.00  0.00     0.134 A 
ATOM     80  F   UNL     1       0.572  15.511  -0.829  1.00  0.00    -0.206 F 
ATOM     81  C   UNL     1      -1.217  17.031  -0.776  1.00  0.00     0.040 A 
ATOM     82  C   UNL     1      -3.483  16.230  -0.936  1.00  0.00     0.040 A 
ATOM     83  F   UNL     1      -3.905  13.929  -1.122  1.00  0.00    -0.206 F 
ATOM     84  C   UNL     1      -2.587  17.289  -0.816  1.00  0.00     0.006 A 
ENDBRANCH  60  77
ENDBRANCH  34  35
ENDBRANCH  27  29
ENDBRANCH  26  27
ENDBRANCH  25  26
ENDBRANCH   1  25
TORSDOF 15
