REMARK SMILES CC(C)Cc1ccc([C@@H](C)C(=O)OCCOC(=O)c2ccc(-c3c4nc(c(-c5c(F)cccc5F)c5ccc([nH]5)c(-c5c(F)cccc5F)c5nc(c(-c6c(F)cccc6F)c6ccc3[nH]6)C=C5)C=C4)cc2)cc1
REMARK SMILES IDX 14 1 13 2 11 3 12 4 9 5 10 6 8 7 5 8 6 9 74 10 7 11 73 12
REMARK SMILES IDX 4 13 2 14 1 15 3 16 15 17 16 18 17 19 18 20 19 21 20 22
REMARK SMILES IDX 72 23 21 24 71 25 22 26 23 27 24 28 65 29 25 30 70 31 64 32
REMARK SMILES IDX 66 33 26 34 69 35 63 36 62 37 27 39 53 40 36 41 52 42 37 43
REMARK SMILES IDX 40 44 51 45 67 46 38 47 39 48 50 50 68 51 41 52 28 53 29 54
REMARK SMILES IDX 34 55 30 56 31 57 33 58 35 59 32 60 54 61 55 62 60 63 56 64
REMARK SMILES IDX 57 65 59 66 61 67 58 68 42 69 43 70 48 71 44 72 45 73 47 74
REMARK SMILES IDX 49 75 46 76
REMARK H PARENT 66 38 40 49
REMARK Flexibility Score: inf
ROOT
ATOM      1  C   UNL     1      -6.483  -4.232   0.899  1.00  0.00     0.274 C 
ENDROOT
BRANCH   1   2
ATOM      2  O   UNL     1      -5.262  -3.940   1.607  1.00  0.00    -0.462 OA
BRANCH   2   3
ATOM      3  C   UNL     1      -4.445  -4.994   1.869  1.00  0.00     0.313 C 
ATOM      4  O   UNL     1      -4.720  -6.165   1.620  1.00  0.00    -0.252 OA
BRANCH   3   5
ATOM      5  C   UNL     1      -3.148  -4.599   2.563  1.00  0.00     0.126 C 
ATOM      6  C   UNL     1      -3.296  -4.786   4.071  1.00  0.00     0.025 C 
BRANCH   5   7
ATOM      7  C   UNL     1      -2.590  -3.241   2.166  1.00  0.00    -0.034 A 
ATOM      8  C   UNL     1      -1.521  -0.739   1.345  1.00  0.00    -0.048 A 
ATOM      9  C   UNL     1      -2.556  -0.810   2.289  1.00  0.00     0.004 A 
ATOM     10  C   UNL     1      -1.047  -1.935   0.802  1.00  0.00     0.004 A 
ATOM     11  C   UNL     1      -3.088  -2.042   2.689  1.00  0.00     0.005 A 
ATOM     12  C   UNL     1      -1.556  -3.166   1.222  1.00  0.00     0.005 A 
BRANCH   8  13
ATOM     13  C   UNL     1      -1.007   0.608   0.884  1.00  0.00     0.038 C 
BRANCH  13  14
ATOM     14  C   UNL     1       0.510   0.858   1.065  1.00  0.00    -0.013 C 
ATOM     15  C   UNL     1       1.347   0.322  -0.102  1.00  0.00     0.008 C 
ATOM     16  C   UNL     1       0.770   2.364   1.197  1.00  0.00     0.008 C 
ENDBRANCH  13  14
ENDBRANCH   8  13
ENDBRANCH   5   7
ENDBRANCH   3   5
ENDBRANCH   2   3
ENDBRANCH   1   2
BRANCH   1  17
ATOM     17  C   UNL     1      -6.328  -3.935  -0.591  1.00  0.00     0.275 C 
BRANCH  17  18
ATOM     18  O   UNL     1      -5.385  -4.848  -1.181  1.00  0.00    -0.458 OA
BRANCH  18  19
ATOM     19  C   UNL     1      -4.229  -4.304  -1.615  1.00  0.00     0.338 C 
ATOM     20  O   UNL     1      -3.906  -3.127  -1.632  1.00  0.00    -0.246 OA
BRANCH  19  21
ATOM     21  C   UNL     1      -3.346  -5.382  -2.071  1.00  0.00     0.060 A 
ATOM     22  C   UNL     1      -2.468  -5.975  -1.163  1.00  0.00     0.016 A 
ATOM     23  C   UNL     1      -3.340  -5.756  -3.415  1.00  0.00     0.016 A 
ATOM     24  C   UNL     1      -1.556  -6.932  -1.598  1.00  0.00     0.010 A 
ATOM     25  C   UNL     1      -2.451  -6.745  -3.844  1.00  0.00     0.010 A 
ATOM     26  C   UNL     1      -1.546  -7.331  -2.942  1.00  0.00    -0.014 A 
BRANCH  26  27
ATOM     27  C   UNL     1      -0.597  -8.371  -3.405  1.00  0.00     0.031 A 
ATOM     28  C   UNL     1       0.545  -8.007  -4.308  1.00  0.00     0.074 A 
ATOM     29  C   UNL     1      -0.783  -9.651  -3.031  1.00  0.00     0.049 A 
ATOM     30  N   UNL     1       1.403  -8.790  -4.911  1.00  0.00    -0.248 NA
ATOM     31  C   UNL     1       0.748  -6.574  -4.573  1.00  0.00     0.031 C 
ATOM     32  C   UNL     1      -1.846 -10.126  -2.144  1.00  0.00     0.029 A 
ATOM     33  N   UNL     1      -0.093 -10.789  -3.366  1.00  0.00    -0.354 N 
ATOM     34  C   UNL     1       2.228  -7.952  -5.648  1.00  0.00     0.074 A 
ATOM     35  C   UNL     1       1.767  -6.598  -5.422  1.00  0.00     0.031 C 
ATOM     36  C   UNL     1      -1.744 -11.458  -2.014  1.00  0.00     0.029 A 
ATOM     37  C   UNL     1      -0.641 -11.934  -2.844  1.00  0.00     0.049 A 
ATOM     38  H   UNL     1       0.717 -10.784  -3.926  1.00  0.00     0.167 HD
ATOM     39  C   UNL     1       3.275  -8.285  -6.440  1.00  0.00     0.037 A 
ATOM     40  C   UNL     1      -0.318 -13.225  -3.042  1.00  0.00     0.037 A 
ATOM     41  C   UNL     1       3.750  -9.629  -6.639  1.00  0.00     0.049 A 
ATOM     42  C   UNL     1       0.823 -13.568  -3.957  1.00  0.00     0.074 A 
ATOM     43  C   UNL     1       4.842 -10.056  -7.374  1.00  0.00     0.029 A 
ATOM     44  N   UNL     1       3.158 -10.762  -6.106  1.00  0.00    -0.354 N 
ATOM     45  N   UNL     1       1.612 -12.765  -4.628  1.00  0.00    -0.248 NA
ATOM     46  C   UNL     1       1.112 -14.996  -4.150  1.00  0.00     0.031 C 
ATOM     47  C   UNL     1       4.888 -11.454  -7.317  1.00  0.00     0.029 A 
ATOM     48  C   UNL     1       3.844 -11.892  -6.520  1.00  0.00     0.049 A 
ATOM     49  H   UNL     1       2.367 -10.764  -5.519  1.00  0.00     0.167 HD
ATOM     50  C   UNL     1       2.492 -13.586  -5.318  1.00  0.00     0.074 A 
ATOM     51  C   UNL     1       2.155 -14.951  -4.968  1.00  0.00     0.031 C 
ATOM     52  C   UNL     1       3.487 -13.242  -6.170  1.00  0.00     0.037 A 
BRANCH  39  53
ATOM     53  C   UNL     1       3.971  -7.179  -7.173  1.00  0.00     0.057 A 
ATOM     54  C   UNL     1       4.862  -6.312  -6.532  1.00  0.00     0.134 A 
ATOM     55  C   UNL     1       3.790  -7.021  -8.553  1.00  0.00     0.134 A 
ATOM     56  F   UNL     1       5.069  -6.406  -5.210  1.00  0.00    -0.206 F 
ATOM     57  C   UNL     1       5.543  -5.317  -7.236  1.00  0.00     0.040 A 
ATOM     58  C   UNL     1       4.478  -6.043  -9.271  1.00  0.00     0.040 A 
ATOM     59  F   UNL     1       2.952  -7.824  -9.226  1.00  0.00    -0.206 F 
ATOM     60  C   UNL     1       5.357  -5.186  -8.612  1.00  0.00     0.006 A 
ENDBRANCH  39  53
BRANCH  40  61
ATOM     61  C   UNL     1      -1.117 -14.294  -2.396  1.00  0.00     0.057 A 
ATOM     62  C   UNL     1      -0.591 -15.065  -1.355  1.00  0.00     0.134 A 
ATOM     63  C   UNL     1      -2.424 -14.573  -2.813  1.00  0.00     0.134 A 
ATOM     64  F   UNL     1       0.664 -14.859  -0.930  1.00  0.00    -0.206 F 
ATOM     65  C   UNL     1      -1.333 -16.086  -0.758  1.00  0.00     0.040 A 
ATOM     66  C   UNL     1      -3.185 -15.575  -2.210  1.00  0.00     0.040 A 
ATOM     67  F   UNL     1      -2.983 -13.868  -3.808  1.00  0.00    -0.206 F 
ATOM     68  C   UNL     1      -2.636 -16.339  -1.182  1.00  0.00     0.006 A 
ENDBRANCH  40  61
BRANCH  52  69
ATOM     69  C   UNL     1       4.280 -14.359  -6.778  1.00  0.00     0.057 A 
ATOM     70  C   UNL     1       3.760 -15.144  -7.814  1.00  0.00     0.134 A 
ATOM     71  C   UNL     1       5.583 -14.633  -6.345  1.00  0.00     0.134 A 
ATOM     72  F   UNL     1       2.512 -14.939  -8.261  1.00  0.00    -0.206 F 
ATOM     73  C   UNL     1       4.505 -16.174  -8.390  1.00  0.00     0.040 A 
ATOM     74  C   UNL     1       6.344 -15.647  -6.926  1.00  0.00     0.040 A 
ATOM     75  F   UNL     1       6.138 -13.913  -5.359  1.00  0.00    -0.206 F 
ATOM     76  C   UNL     1       5.803 -16.424  -7.949  1.00  0.00     0.006 A 
ENDBRANCH  52  69
ENDBRANCH  26  27
ENDBRANCH  19  21
ENDBRANCH  18  19
ENDBRANCH  17  18
ENDBRANCH   1  17
TORSDOF 14
