REMARK SMILES CC[C@@](C)(NC(=O)c1c(C)cc(C)[nH]c1=O)C(=O)OCCOC(=O)c1ccc(-c2c3nc(c(-c4c(F)cccc4F)c4ccc([nH]4)c(-c4c(F)cccc4F)c4nc(c(-c5c(F)cccc5F)c5ccc2[nH]5)C=C4)C=C3)cc1
REMARK SMILES IDX 20 1 19 2 17 3 18 4 3 5 4 6 2 7 1 8 5 9 6 10 7 12 8 13 9 14
REMARK SMILES IDX 15 15 10 16 11 17 14 18 16 19 12 20 13 22 21 23 22 24 23 25
REMARK SMILES IDX 24 26 25 27 26 28 78 29 27 30 77 31 28 32 29 33 30 34 71 35
REMARK SMILES IDX 31 36 76 37 70 38 72 39 32 40 75 41 69 42 68 43 33 45 59 46
REMARK SMILES IDX 42 47 58 48 43 49 46 50 57 51 73 52 44 53 45 54 56 56 74 57
REMARK SMILES IDX 47 58 34 59 35 60 40 61 36 62 37 63 39 64 41 65 38 66 60 67
REMARK SMILES IDX 61 68 66 69 62 70 63 71 65 72 67 73 64 74 48 75 49 76 54 77
REMARK SMILES IDX 50 78 51 79 53 80 55 81 52 82
REMARK H PARENT 5 11 14 21 72 44 46 55
REMARK Flexibility Score: inf
ROOT
ATOM      1  C   UNL     1       4.713  -0.559   2.482  1.00  0.00     0.274 C 
ENDROOT
BRANCH   1   2
ATOM      2  O   UNL     1       3.455  -1.263   2.614  1.00  0.00    -0.460 OA
BRANCH   2   3
ATOM      3  C   UNL     1       2.346  -0.571   2.267  1.00  0.00     0.331 C 
ATOM      4  O   UNL     1       2.394   0.549   1.765  1.00  0.00    -0.249 OA
BRANCH   3   5
ATOM      5  C   UNL     1       1.005  -1.248   2.688  1.00  0.00     0.135 C 
ATOM      6  C   UNL     1       0.490  -0.407   3.871  1.00  0.00     0.047 C 
BRANCH   5   7
ATOM      7  C   UNL     1      -0.011  -1.141   1.489  1.00  0.00     0.037 C 
ATOM      8  C   UNL     1      -0.259   0.209   0.823  1.00  0.00     0.007 C 
ENDBRANCH   5   7
BRANCH   5   9
ATOM      9  N   UNL     1       0.911  -2.703   3.071  1.00  0.00    -0.336 N 
ATOM     10  C   UNL     1       1.492  -3.502   4.009  1.00  0.00     0.258 C 
ATOM     11  H   UNL     1       0.274  -3.197   2.505  1.00  0.00     0.165 HD
ATOM     12  O   UNL     1       0.769  -4.310   4.596  1.00  0.00    -0.269 OA
BRANCH  10  13
ATOM     13  C   UNL     1       2.955  -3.635   4.090  1.00  0.00     0.107 A 
ATOM     14  C   UNL     1       3.567  -4.657   3.446  1.00  0.00    -0.031 A 
ATOM     15  C   UNL     1       3.760  -2.751   4.974  1.00  0.00     0.261 A 
ATOM     16  C   UNL     1       2.891  -5.726   2.626  1.00  0.00     0.045 C 
ATOM     17  C   UNL     1       5.020  -4.763   3.483  1.00  0.00     0.025 A 
ATOM     18  N   UNL     1       5.125  -2.951   4.961  1.00  0.00    -0.326 N 
ATOM     19  O   UNL     1       3.259  -1.857   5.650  1.00  0.00    -0.269 OA
ATOM     20  C   UNL     1       5.759  -3.908   4.205  1.00  0.00     0.015 A 
ATOM     21  H   UNL     1       5.681  -2.371   5.529  1.00  0.00     0.169 HD
ATOM     22  C   UNL     1       7.255  -3.881   4.154  1.00  0.00     0.064 C 
ENDBRANCH  10  13
ENDBRANCH   5   9
ENDBRANCH   3   5
ENDBRANCH   2   3
ENDBRANCH   1   2
BRANCH   1  23
ATOM     23  C   UNL     1       5.631  -1.306   1.528  1.00  0.00     0.275 C 
BRANCH  23  24
ATOM     24  O   UNL     1       4.957  -1.446   0.273  1.00  0.00    -0.458 OA
BRANCH  24  25
ATOM     25  C   UNL     1       4.524  -2.694  -0.010  1.00  0.00     0.338 C 
ATOM     26  O   UNL     1       4.770  -3.736   0.564  1.00  0.00    -0.246 OA
BRANCH  25  27
ATOM     27  C   UNL     1       3.697  -2.616  -1.212  1.00  0.00     0.060 A 
ATOM     28  C   UNL     1       2.530  -1.852  -1.207  1.00  0.00     0.016 A 
ATOM     29  C   UNL     1       4.100  -3.321  -2.342  1.00  0.00     0.016 A 
ATOM     30  C   UNL     1       1.744  -1.795  -2.347  1.00  0.00     0.010 A 
ATOM     31  C   UNL     1       3.356  -3.202  -3.508  1.00  0.00     0.010 A 
ATOM     32  C   UNL     1       2.182  -2.431  -3.517  1.00  0.00    -0.014 A 
BRANCH  32  33
ATOM     33  C   UNL     1       1.460  -2.218  -4.785  1.00  0.00     0.031 A 
ATOM     34  C   UNL     1       0.738  -3.353  -5.436  1.00  0.00     0.074 A 
ATOM     35  C   UNL     1       1.497  -0.993  -5.340  1.00  0.00     0.049 A 
ATOM     36  N   UNL     1       0.184  -3.404  -6.617  1.00  0.00    -0.248 NA
ATOM     37  C   UNL     1       0.630  -4.599  -4.660  1.00  0.00     0.031 C 
ATOM     38  C   UNL     1       2.148   0.181  -4.749  1.00  0.00     0.029 A 
ATOM     39  N   UNL     1       0.975  -0.524  -6.515  1.00  0.00    -0.354 N 
ATOM     40  C   UNL     1      -0.320  -4.691  -6.739  1.00  0.00     0.074 A 
ATOM     41  C   UNL     1       0.003  -5.394  -5.516  1.00  0.00     0.031 C 
ATOM     42  C   UNL     1       1.953   1.241  -5.546  1.00  0.00     0.029 A 
ATOM     43  C   UNL     1       1.236   0.806  -6.737  1.00  0.00     0.049 A 
ATOM     44  H   UNL     1       0.462  -1.086  -7.140  1.00  0.00     0.167 HD
ATOM     45  C   UNL     1      -0.988  -5.226  -7.787  1.00  0.00     0.037 A 
ATOM     46  C   UNL     1       0.955   1.577  -7.802  1.00  0.00     0.037 A 
ATOM     47  C   UNL     1      -1.288  -4.498  -8.992  1.00  0.00     0.049 A 
ATOM     48  C   UNL     1       0.267   0.942  -8.973  1.00  0.00     0.074 A 
ATOM     49  C   UNL     1      -1.922  -4.944 -10.137  1.00  0.00     0.029 A 
ATOM     50  N   UNL     1      -0.976  -3.160  -9.199  1.00  0.00    -0.354 N 
ATOM     51  N   UNL     1      -0.157  -0.293  -9.106  1.00  0.00    -0.248 NA
ATOM     52  C   UNL     1       0.040   1.790 -10.148  1.00  0.00     0.031 C 
ATOM     53  C   UNL     1      -1.966  -3.883 -11.049  1.00  0.00     0.029 A 
ATOM     54  C   UNL     1      -1.394  -2.766 -10.458  1.00  0.00     0.049 A 
ATOM     55  H   UNL     1      -0.523  -2.579  -8.546  1.00  0.00     0.167 HD
ATOM     56  C   UNL     1      -0.699  -0.374 -10.378  1.00  0.00     0.074 A 
ATOM     57  C   UNL     1      -0.573   0.946 -10.968  1.00  0.00     0.031 C 
ATOM     58  C   UNL     1      -1.244  -1.443 -11.009  1.00  0.00     0.037 A 
BRANCH  45  59
ATOM     59  C   UNL     1      -1.400  -6.663  -7.682  1.00  0.00     0.057 A 
ATOM     60  C   UNL     1      -2.457  -7.070  -6.859  1.00  0.00     0.134 A 
ATOM     61  C   UNL     1      -0.740  -7.652  -8.422  1.00  0.00     0.134 A 
ATOM     62  F   UNL     1      -3.117  -6.175  -6.108  1.00  0.00    -0.206 F 
ATOM     63  C   UNL     1      -2.834  -8.411  -6.763  1.00  0.00     0.040 A 
ATOM     64  C   UNL     1      -1.120  -8.994  -8.351  1.00  0.00     0.040 A 
ATOM     65  F   UNL     1       0.283  -7.331  -9.229  1.00  0.00    -0.206 F 
ATOM     66  C   UNL     1      -2.167  -9.377  -7.515  1.00  0.00     0.006 A 
ENDBRANCH  45  59
BRANCH  46  67
ATOM     67  C   UNL     1       1.342   3.009  -7.799  1.00  0.00     0.057 A 
ATOM     68  C   UNL     1       0.374   4.015  -7.711  1.00  0.00     0.134 A 
ATOM     69  C   UNL     1       2.685   3.408  -7.829  1.00  0.00     0.134 A 
ATOM     70  F   UNL     1      -0.928   3.698  -7.693  1.00  0.00    -0.206 F 
ATOM     71  C   UNL     1       0.726   5.365  -7.650  1.00  0.00     0.040 A 
ATOM     72  C   UNL     1       3.052   4.752  -7.744  1.00  0.00     0.040 A 
ATOM     73  F   UNL     1       3.662   2.492  -7.904  1.00  0.00    -0.206 F 
ATOM     74  C   UNL     1       2.070   5.735  -7.657  1.00  0.00     0.006 A 
ENDBRANCH  46  67
BRANCH  58  75
ATOM     75  C   UNL     1      -1.742  -1.219 -12.402  1.00  0.00     0.057 A 
ATOM     76  C   UNL     1      -0.862  -1.132 -13.486  1.00  0.00     0.134 A 
ATOM     77  C   UNL     1      -3.115  -1.148 -12.666  1.00  0.00     0.134 A 
ATOM     78  F   UNL     1       0.465  -1.179 -13.291  1.00  0.00    -0.206 F 
ATOM     79  C   UNL     1      -1.331  -0.971 -14.789  1.00  0.00     0.040 A 
ATOM     80  C   UNL     1      -3.596  -1.008 -13.966  1.00  0.00     0.040 A 
ATOM     81  F   UNL     1      -4.006  -1.232 -11.666  1.00  0.00    -0.206 F 
ATOM     82  C   UNL     1      -2.703  -0.917 -15.032  1.00  0.00     0.006 A 
ENDBRANCH  58  75
ENDBRANCH  32  33
ENDBRANCH  25  27
ENDBRANCH  24  25
ENDBRANCH  23  24
ENDBRANCH   1  23
TORSDOF 14
