REMARK SMILES O=C(COc1cc(-c2ccccc2)nc(NCc2ccc(Cl)cc2)n1)OCCOC(=O)c1ccc(-c2c3nc(c(-c4c(F)cccc4F)c4ccc([nH]4)c(-c4c(F)cccc4F)c4nc(c(-c5c(F)cccc5F)c5ccc2[nH]5)C=C4)C=C3)cc1
REMARK SMILES IDX 26 1 2 2 1 3 3 4 4 5 5 6 6 7 25 8 7 9 15 10 14 11 8 12 9 13
REMARK SMILES IDX 13 14 10 15 12 16 11 17 16 18 17 20 18 21 19 22 24 23 20 24
REMARK SMILES IDX 23 25 21 26 22 27 27 28 28 29 29 30 30 31 31 32 32 33 33 34
REMARK SMILES IDX 85 35 34 36 84 37 35 38 36 39 37 40 78 41 38 42 83 43 77 44
REMARK SMILES IDX 79 45 39 46 82 47 76 48 75 49 40 51 66 52 49 53 65 54 50 55
REMARK SMILES IDX 53 56 64 57 80 58 51 59 52 60 63 62 81 63 54 64 41 65 42 66
REMARK SMILES IDX 47 67 43 68 44 69 46 70 48 71 45 72 67 73 68 74 73 75 69 76
REMARK SMILES IDX 70 77 72 78 74 79 71 80 55 81 56 82 61 83 57 84 58 85 60 86
REMARK SMILES IDX 62 87 59 88
REMARK H PARENT 16 19 79 50 53 61
REMARK Flexibility Score: inf
ROOT
ATOM      1  O   UNL     1       3.279  -1.091   0.127  1.00  0.00    -0.460 OA
ENDROOT
BRANCH   1   2
ATOM      2  C   UNL     1       2.631   0.100   0.149  1.00  0.00     0.344 C 
ATOM      3  O   UNL     1       1.409   0.144   0.278  1.00  0.00    -0.248 OA
BRANCH   2   4
ATOM      4  C   UNL     1       3.463   1.371   0.101  1.00  0.00     0.353 C 
BRANCH   4   5
ATOM      5  O   UNL     1       4.361   1.450   1.202  1.00  0.00    -0.466 OA
BRANCH   5   6
ATOM      6  C   UNL     1       3.775   2.151   2.220  1.00  0.00     0.219 A 
ATOM      7  C   UNL     1       2.790   1.583   2.978  1.00  0.00     0.097 A 
ATOM      8  N   UNL     1       4.232   3.392   2.383  1.00  0.00    -0.177 NA
ATOM      9  C   UNL     1       2.219   2.401   3.925  1.00  0.00     0.080 A 
ATOM     10  C   UNL     1       3.653   4.109   3.347  1.00  0.00     0.226 A 
ATOM     11  N   UNL     1       2.644   3.669   4.116  1.00  0.00    -0.213 NA
BRANCH   9  12
ATOM     12  C   UNL     1       1.075   1.926   4.721  1.00  0.00     0.000 A 
ATOM     13  C   UNL     1      -0.080   2.709   4.881  1.00  0.00     0.010 A 
ATOM     14  C   UNL     1       1.066   0.627   5.266  1.00  0.00     0.010 A 
ATOM     15  C   UNL     1      -1.212   2.197   5.524  1.00  0.00     0.001 A 
ATOM     16  C   UNL     1      -0.062   0.115   5.909  1.00  0.00     0.001 A 
ATOM     17  C   UNL     1      -1.205   0.898   6.029  1.00  0.00     0.000 A 
ENDBRANCH   9  12
BRANCH  10  18
ATOM     18  N   UNL     1       4.068   5.389   3.560  1.00  0.00    -0.350 N 
ATOM     19  H   UNL     1       3.795   5.848   4.388  1.00  0.00     0.164 HD
BRANCH  18  20
ATOM     20  C   UNL     1       4.894   6.093   2.611  1.00  0.00     0.152 C 
BRANCH  20  21
ATOM     21  C   UNL     1       4.415   7.526   2.569  1.00  0.00    -0.029 A 
ATOM     22  C   UNL     1       5.231   8.576   3.007  1.00  0.00     0.007 A 
ATOM     23  C   UNL     1       3.088   7.798   2.190  1.00  0.00     0.007 A 
ATOM     24  C   UNL     1       4.696   9.854   3.167  1.00  0.00     0.021 A 
ATOM     25  C   UNL     1       2.552   9.072   2.361  1.00  0.00     0.021 A 
ATOM     26  C   UNL     1       3.348  10.082   2.894  1.00  0.00     0.041 A 
ATOM     27  Cl  UNL     1       2.649  11.601   3.303  1.00  0.00    -0.084 Cl
ENDBRANCH  20  21
ENDBRANCH  18  20
ENDBRANCH  10  18
ENDBRANCH   5   6
ENDBRANCH   4   5
ENDBRANCH   2   4
ENDBRANCH   1   2
BRANCH   1  28
ATOM     28  C   UNL     1       4.628  -1.251  -0.360  1.00  0.00     0.274 C 
BRANCH  28  29
ATOM     29  C   UNL     1       4.625  -1.535  -1.863  1.00  0.00     0.275 C 
BRANCH  29  30
ATOM     30  O   UNL     1       4.161  -0.373  -2.579  1.00  0.00    -0.458 OA
BRANCH  30  31
ATOM     31  C   UNL     1       2.866  -0.398  -2.987  1.00  0.00     0.338 C 
ATOM     32  O   UNL     1       2.095  -1.338  -2.918  1.00  0.00    -0.246 OA
BRANCH  31  33
ATOM     33  C   UNL     1       2.460   0.981  -3.345  1.00  0.00     0.060 A 
ATOM     34  C   UNL     1       1.223   1.455  -2.888  1.00  0.00     0.016 A 
ATOM     35  C   UNL     1       3.301   1.818  -4.085  1.00  0.00     0.016 A 
ATOM     36  C   UNL     1       0.823   2.764  -3.174  1.00  0.00     0.010 A 
ATOM     37  C   UNL     1       2.893   3.122  -4.382  1.00  0.00     0.010 A 
ATOM     38  C   UNL     1       1.648   3.600  -3.939  1.00  0.00    -0.014 A 
BRANCH  38  39
ATOM     39  C   UNL     1       1.180   4.940  -4.372  1.00  0.00     0.031 A 
ATOM     40  C   UNL     1       0.524   5.088  -5.718  1.00  0.00     0.074 A 
ATOM     41  C   UNL     1       1.391   6.027  -3.608  1.00  0.00     0.049 A 
ATOM     42  N   UNL     1       0.127   6.174  -6.332  1.00  0.00    -0.248 NA
ATOM     43  C   UNL     1       0.299   3.848  -6.479  1.00  0.00     0.031 C 
ATOM     44  C   UNL     1       2.035   6.038  -2.295  1.00  0.00     0.029 A 
ATOM     45  N   UNL     1       1.114   7.349  -3.857  1.00  0.00    -0.354 N 
ATOM     46  C   UNL     1      -0.390   5.751  -7.550  1.00  0.00     0.074 A 
ATOM     47  C   UNL     1      -0.240   4.312  -7.597  1.00  0.00     0.031 C 
ATOM     48  C   UNL     1       2.147   7.312  -1.876  1.00  0.00     0.029 A 
ATOM     49  C   UNL     1       1.593   8.202  -2.893  1.00  0.00     0.049 A 
ATOM     50  H   UNL     1       0.619   7.656  -4.651  1.00  0.00     0.167 HD
ATOM     51  C   UNL     1      -0.944   6.492  -8.539  1.00  0.00     0.037 A 
ATOM     52  C   UNL     1       1.613   9.548  -2.859  1.00  0.00     0.037 A 
ATOM     53  C   UNL     1      -1.104   7.920  -8.507  1.00  0.00     0.049 A 
ATOM     54  C   UNL     1       1.026  10.346  -3.998  1.00  0.00     0.074 A 
ATOM     55  C   UNL     1      -1.722   8.739  -9.439  1.00  0.00     0.029 A 
ATOM     56  N   UNL     1      -0.629   8.745  -7.504  1.00  0.00    -0.354 N 
ATOM     57  N   UNL     1       0.445   9.928  -5.094  1.00  0.00    -0.248 NA
ATOM     58  C   UNL     1       1.108  11.813  -3.891  1.00  0.00     0.031 C 
ATOM     59  C   UNL     1      -1.577  10.066  -9.022  1.00  0.00     0.029 A 
ATOM     60  C   UNL     1      -0.901  10.066  -7.815  1.00  0.00     0.049 A 
ATOM     61  H   UNL     1      -0.166   8.438  -6.691  1.00  0.00     0.167 HD
ATOM     62  C   UNL     1       0.082  11.075  -5.791  1.00  0.00     0.074 A 
ATOM     63  C   UNL     1       0.475  12.207  -4.985  1.00  0.00     0.031 C 
ATOM     64  C   UNL     1      -0.511  11.185  -7.003  1.00  0.00     0.037 A 
BRANCH  51  65
ATOM     65  C   UNL     1      -1.417   5.772  -9.762  1.00  0.00     0.057 A 
ATOM     66  C   UNL     1      -2.618   5.054  -9.770  1.00  0.00     0.134 A 
ATOM     67  C   UNL     1      -0.706   5.869 -10.964  1.00  0.00     0.134 A 
ATOM     68  F   UNL     1      -3.338   4.920  -8.646  1.00  0.00    -0.206 F 
ATOM     69  C   UNL     1      -3.094   4.450 -10.934  1.00  0.00     0.040 A 
ATOM     70  C   UNL     1      -1.180   5.284 -12.137  1.00  0.00     0.040 A 
ATOM     71  F   UNL     1       0.449   6.549 -11.018  1.00  0.00    -0.206 F 
ATOM     72  C   UNL     1      -2.378   4.572 -12.124  1.00  0.00     0.006 A 
ENDBRANCH  51  65
BRANCH  52  73
ATOM     73  C   UNL     1       2.278  10.282  -1.756  1.00  0.00     0.057 A 
ATOM     74  C   UNL     1       1.539  11.092  -0.889  1.00  0.00     0.134 A 
ATOM     75  C   UNL     1       3.674  10.350  -1.685  1.00  0.00     0.134 A 
ATOM     76  F   UNL     1       0.198  11.077  -0.926  1.00  0.00    -0.206 F 
ATOM     77  C   UNL     1       2.166  12.015  -0.055  1.00  0.00     0.040 A 
ATOM     78  C   UNL     1       4.314  11.236  -0.821  1.00  0.00     0.040 A 
ATOM     79  F   UNL     1       4.432   9.594  -2.492  1.00  0.00    -0.206 F 
ATOM     80  C   UNL     1       3.558  12.096  -0.028  1.00  0.00     0.006 A 
ENDBRANCH  52  73
BRANCH  64  81
ATOM     81  C   UNL     1      -0.778  12.569  -7.514  1.00  0.00     0.057 A 
ATOM     82  C   UNL     1       0.257  13.390  -7.981  1.00  0.00     0.134 A 
ATOM     83  C   UNL     1      -2.079  13.084  -7.549  1.00  0.00     0.134 A 
ATOM     84  F   UNL     1       1.528  12.963  -7.954  1.00  0.00    -0.206 F 
ATOM     85  C   UNL     1       0.009  14.682  -8.446  1.00  0.00     0.040 A 
ATOM     86  C   UNL     1      -2.343  14.366  -8.033  1.00  0.00     0.040 A 
ATOM     87  F   UNL     1      -3.115  12.348  -7.117  1.00  0.00    -0.206 F 
ATOM     88  C   UNL     1      -1.296  15.171  -8.478  1.00  0.00     0.006 A 
ENDBRANCH  64  81
ENDBRANCH  38  39
ENDBRANCH  31  33
ENDBRANCH  30  31
ENDBRANCH  29  30
ENDBRANCH  28  29
ENDBRANCH   1  28
TORSDOF 17
