REMARK SMILES CCc1nc(COC)cc(OCC(=O)OCCOC(=O)c2ccc(-c3c4nc(c(-c5c(F)cccc5F)c5ccc([nH]5)c(-c5c(F)cccc5F)c5nc(c(-c6c(F)cccc6F)c6ccc3[nH]6)C=C5)C=C4)cc2)n1
REMARK SMILES IDX 16 1 15 2 13 3 14 4 12 5 11 6 10 7 3 8 4 9 75 10 5 11 9 12
REMARK SMILES IDX 2 13 1 14 6 15 7 16 8 17 17 18 18 19 19 20 20 21 21 22 22 23
REMARK SMILES IDX 74 24 23 25 73 26 24 27 25 28 26 29 67 30 27 31 72 32 66 33
REMARK SMILES IDX 68 34 28 35 71 36 65 37 64 38 29 40 55 41 38 42 54 43 39 44
REMARK SMILES IDX 42 45 53 46 69 47 40 48 41 49 52 51 70 52 43 53 30 54 31 55
REMARK SMILES IDX 36 56 32 57 33 58 35 59 37 60 34 61 56 62 57 63 62 64 58 65
REMARK SMILES IDX 59 66 61 67 63 68 60 69 44 70 45 71 50 72 46 73 47 74 49 75
REMARK SMILES IDX 51 76 48 77
REMARK H PARENT 68 39 42 50
REMARK Flexibility Score: inf
ROOT
ATOM      1  C   UNL     1       4.364  -7.688   1.877  1.00  0.00     0.274 C 
ENDROOT
BRANCH   1   2
ATOM      2  O   UNL     1       3.227  -6.936   1.412  1.00  0.00    -0.460 OA
BRANCH   2   3
ATOM      3  C   UNL     1       2.017  -7.326   1.894  1.00  0.00     0.344 C 
ATOM      4  O   UNL     1       1.848  -8.196   2.742  1.00  0.00    -0.248 OA
BRANCH   3   5
ATOM      5  C   UNL     1       0.855  -6.562   1.270  1.00  0.00     0.353 C 
BRANCH   5   6
ATOM      6  O   UNL     1       1.195  -5.567   0.322  1.00  0.00    -0.466 OA
BRANCH   6   7
ATOM      7  C   UNL     1       1.119  -4.266   0.730  1.00  0.00     0.217 A 
ATOM      8  C   UNL     1       0.740  -2.119   0.037  1.00  0.00     0.132 A 
ATOM      9  N   UNL     1       0.985  -1.612   1.256  1.00  0.00    -0.235 NA
ATOM     10  N   UNL     1       0.780  -3.428  -0.260  1.00  0.00    -0.198 NA
ATOM     11  C   UNL     1       1.364  -2.471   2.222  1.00  0.00     0.074 A 
ATOM     12  C   UNL     1       1.429  -3.832   1.998  1.00  0.00     0.094 A 
BRANCH   8  13
ATOM     13  C   UNL     1       0.375  -1.171  -1.074  1.00  0.00     0.074 C 
ATOM     14  C   UNL     1       0.849   0.258  -0.842  1.00  0.00     0.012 C 
ENDBRANCH   8  13
BRANCH  11  15
ATOM     15  C   UNL     1       1.737  -1.884   3.565  1.00  0.00     0.216 C 
BRANCH  15  16
ATOM     16  O   UNL     1       2.743  -0.869   3.478  1.00  0.00    -0.378 OA
ATOM     17  C   UNL     1       4.040  -1.397   3.233  1.00  0.00     0.195 C 
ENDBRANCH  15  16
ENDBRANCH  11  15
ENDBRANCH   6   7
ENDBRANCH   5   6
ENDBRANCH   3   5
ENDBRANCH   2   3
ENDBRANCH   1   2
BRANCH   1  18
ATOM     18  C   UNL     1       5.104  -6.962   2.996  1.00  0.00     0.275 C 
BRANCH  18  19
ATOM     19  O   UNL     1       4.224  -6.705   4.108  1.00  0.00    -0.458 OA
BRANCH  19  20
ATOM     20  C   UNL     1       3.947  -5.404   4.318  1.00  0.00     0.338 C 
ATOM     21  O   UNL     1       4.366  -4.446   3.681  1.00  0.00    -0.246 OA
BRANCH  20  22
ATOM     22  C   UNL     1       3.002  -5.218   5.428  1.00  0.00     0.060 A 
ATOM     23  C   UNL     1       1.720  -5.770   5.368  1.00  0.00     0.016 A 
ATOM     24  C   UNL     1       3.339  -4.320   6.444  1.00  0.00     0.016 A 
ATOM     25  C   UNL     1       0.760  -5.388   6.306  1.00  0.00     0.010 A 
ATOM     26  C   UNL     1       2.395  -3.983   7.415  1.00  0.00     0.010 A 
ATOM     27  C   UNL     1       1.093  -4.501   7.344  1.00  0.00    -0.014 A 
BRANCH  27  28
ATOM     28  C   UNL     1       0.104  -4.174   8.400  1.00  0.00     0.031 A 
ATOM     29  C   UNL     1      -0.503  -2.804   8.509  1.00  0.00     0.074 A 
ATOM     30  C   UNL     1      -0.224  -5.128   9.290  1.00  0.00     0.049 A 
ATOM     31  N   UNL     1      -1.312  -2.335   9.426  1.00  0.00    -0.248 NA
ATOM     32  C   UNL     1      -0.162  -1.838   7.455  1.00  0.00     0.031 C 
ATOM     33  C   UNL     1       0.296  -6.496   9.288  1.00  0.00     0.029 A 
ATOM     34  N   UNL     1      -1.063  -5.089  10.374  1.00  0.00    -0.354 N 
ATOM     35  C   UNL     1      -1.578  -1.021   9.062  1.00  0.00     0.074 A 
ATOM     36  C   UNL     1      -0.832  -0.761   7.848  1.00  0.00     0.031 C 
ATOM     37  C   UNL     1      -0.236  -7.168  10.320  1.00  0.00     0.029 A 
ATOM     38  C   UNL     1      -1.097  -6.266  11.078  1.00  0.00     0.049 A 
ATOM     39  H   UNL     1      -1.589  -4.295  10.622  1.00  0.00     0.167 HD
ATOM     40  C   UNL     1      -2.375  -0.118   9.684  1.00  0.00     0.037 A 
ATOM     41  C   UNL     1      -1.724  -6.580  12.226  1.00  0.00     0.037 A 
ATOM     42  C   UNL     1      -3.112  -0.371  10.896  1.00  0.00     0.049 A 
ATOM     43  C   UNL     1      -2.557  -5.548  12.920  1.00  0.00     0.074 A 
ATOM     44  C   UNL     1      -3.947   0.486  11.594  1.00  0.00     0.029 A 
ATOM     45  N   UNL     1      -3.100  -1.570  11.591  1.00  0.00    -0.354 N 
ATOM     46  N   UNL     1      -2.789  -4.307  12.570  1.00  0.00    -0.248 NA
ATOM     47  C   UNL     1      -3.207  -5.956  14.173  1.00  0.00     0.031 C 
ATOM     48  C   UNL     1      -4.422  -0.188  12.725  1.00  0.00     0.029 A 
ATOM     49  C   UNL     1      -3.903  -1.472  12.716  1.00  0.00     0.049 A 
ATOM     50  H   UNL     1      -2.597  -2.373  11.325  1.00  0.00     0.167 HD
ATOM     51  C   UNL     1      -3.611  -3.784  13.557  1.00  0.00     0.074 A 
ATOM     52  C   UNL     1      -3.852  -4.848  14.511  1.00  0.00     0.031 C 
ATOM     53  C   UNL     1      -4.117  -2.532  13.664  1.00  0.00     0.037 A 
BRANCH  40  54
ATOM     54  C   UNL     1      -2.491   1.242   9.068  1.00  0.00     0.057 A 
ATOM     55  C   UNL     1      -3.329   1.476   7.970  1.00  0.00     0.134 A 
ATOM     56  C   UNL     1      -1.819   2.339   9.619  1.00  0.00     0.134 A 
ATOM     57  F   UNL     1      -3.994   0.463   7.396  1.00  0.00    -0.206 F 
ATOM     58  C   UNL     1      -3.490   2.757   7.439  1.00  0.00     0.040 A 
ATOM     59  C   UNL     1      -1.981   3.627   9.104  1.00  0.00     0.040 A 
ATOM     60  F   UNL     1      -1.006   2.179  10.674  1.00  0.00    -0.206 F 
ATOM     61  C   UNL     1      -2.820   3.838   8.010  1.00  0.00     0.006 A 
ENDBRANCH  40  54
BRANCH  41  62
ATOM     62  C   UNL     1      -1.553  -7.935  12.794  1.00  0.00     0.057 A 
ATOM     63  C   UNL     1      -2.565  -8.893  12.694  1.00  0.00     0.134 A 
ATOM     64  C   UNL     1      -0.354  -8.313  13.411  1.00  0.00     0.134 A 
ATOM     65  F   UNL     1      -3.738  -8.579  12.126  1.00  0.00    -0.206 F 
ATOM     66  C   UNL     1      -2.392 -10.186  13.189  1.00  0.00     0.040 A 
ATOM     67  C   UNL     1      -0.162  -9.606  13.895  1.00  0.00     0.040 A 
ATOM     68  F   UNL     1       0.653  -7.435  13.527  1.00  0.00    -0.206 F 
ATOM     69  C   UNL     1      -1.184 -10.547  13.784  1.00  0.00     0.006 A 
ENDBRANCH  41  62
BRANCH  53  70
ATOM     70  C   UNL     1      -4.977  -2.256  14.857  1.00  0.00     0.057 A 
ATOM     71  C   UNL     1      -4.417  -2.010  16.116  1.00  0.00     0.134 A 
ATOM     72  C   UNL     1      -6.372  -2.230  14.746  1.00  0.00     0.134 A 
ATOM     73  F   UNL     1      -3.087  -2.038  16.286  1.00  0.00    -0.206 F 
ATOM     74  C   UNL     1      -5.218  -1.766  17.232  1.00  0.00     0.040 A 
ATOM     75  C   UNL     1      -7.183  -1.974  15.852  1.00  0.00     0.040 A 
ATOM     76  F   UNL     1      -6.965  -2.458  13.565  1.00  0.00    -0.206 F 
ATOM     77  C   UNL     1      -6.606  -1.745  17.100  1.00  0.00     0.006 A 
ENDBRANCH  53  70
ENDBRANCH  27  28
ENDBRANCH  20  22
ENDBRANCH  19  20
ENDBRANCH  18  19
ENDBRANCH   1  18
TORSDOF 16
