REMARK SMILES COc1ccc2c(c1)CC[C@@](C)(CCC(=O)OCCOC(=O)c1ccc(-c3c4nc(c(-c5c(F)cccc5F)c5ccc([nH]5)c(-c5c(F)cccc5F)c5nc(c(-c6c(F)cccc6F)c6ccc3[nH]6)C=C5)C=C4)cc1)C2=O
REMARK SMILES IDX 18 1 17 2 15 3 16 4 14 5 13 6 11 7 3 8 4 9 8 10 5 11 7 12
REMARK SMILES IDX 6 13 9 14 77 15 10 16 78 17 12 18 2 19 1 20 19 21 20 22
REMARK SMILES IDX 21 23 22 24 23 25 24 26 76 27 25 28 75 29 26 30 27 31 28 32
REMARK SMILES IDX 69 33 29 34 74 35 68 36 70 37 30 38 73 39 67 40 66 41 31 43
REMARK SMILES IDX 57 44 40 45 56 46 41 47 44 48 55 49 71 50 42 51 43 52 54 54
REMARK SMILES IDX 72 55 45 56 32 57 33 58 38 59 34 60 35 61 37 62 39 63 36 64
REMARK SMILES IDX 58 65 59 66 64 67 60 68 61 69 63 70 65 71 62 72 46 73 47 74
REMARK SMILES IDX 52 75 48 76 49 77 51 78 53 79 50 80
REMARK H PARENT 70 42 44 53
REMARK Flexibility Score: inf
ROOT
ATOM      1  C   UNL     1       3.343   5.846   2.743  1.00  0.00     0.274 C 
ENDROOT
BRANCH   1   2
ATOM      2  O   UNL     1       2.342   6.609   2.043  1.00  0.00    -0.462 OA
BRANCH   2   3
ATOM      3  C   UNL     1       2.032   7.821   2.553  1.00  0.00     0.305 C 
ATOM      4  O   UNL     1       2.414   8.249   3.636  1.00  0.00    -0.252 OA
BRANCH   3   5
ATOM      5  C   UNL     1       1.081   8.590   1.667  1.00  0.00     0.124 C 
BRANCH   5   6
ATOM      6  C   UNL     1       1.354   8.566   0.154  1.00  0.00     0.026 C 
BRANCH   6   7
ATOM      7  C   UNL     1       0.910   7.326  -0.685  1.00  0.00     0.032 C 
ATOM      8  C   UNL     1       0.796   2.098  -0.621  1.00  0.00     0.119 A 
ATOM      9  C   UNL     1       2.135   2.448  -0.457  1.00  0.00     0.047 A 
ATOM     10  C   UNL     1      -0.169   3.098  -0.772  1.00  0.00     0.050 A 
ATOM     11  C   UNL     1       2.503   3.795  -0.459  1.00  0.00     0.016 A 
ATOM     12  C   UNL     1       0.183   4.454  -0.741  1.00  0.00    -0.033 A 
ATOM     13  C   UNL     1       1.533   4.795  -0.610  1.00  0.00     0.022 A 
ATOM     14  C   UNL     1      -0.874   5.508  -0.907  1.00  0.00     0.037 C 
ATOM     15  C   UNL     1       1.969   6.213  -0.693  1.00  0.00     0.169 C 
ATOM     16  C   UNL     1      -0.452   6.792  -0.205  1.00  0.00     0.020 C 
ATOM     17  O   UNL     1       3.163   6.434  -0.877  1.00  0.00    -0.294 OA
ATOM     18  C   UNL     1       0.831   7.782  -2.163  1.00  0.00     0.020 C 
BRANCH   8  19
ATOM     19  O   UNL     1       0.324   0.819  -0.720  1.00  0.00    -0.497 OA
ATOM     20  C   UNL     1       1.032  -0.160   0.031  1.00  0.00     0.278 C 
ENDBRANCH   8  19
ENDBRANCH   6   7
ENDBRANCH   5   6
ENDBRANCH   3   5
ENDBRANCH   2   3
ENDBRANCH   1   2
BRANCH   1  21
ATOM     21  C   UNL     1       4.742   6.117   2.183  1.00  0.00     0.275 C 
BRANCH  21  22
ATOM     22  O   UNL     1       5.198   7.423   2.572  1.00  0.00    -0.458 OA
BRANCH  22  23
ATOM     23  C   UNL     1       5.112   8.389   1.631  1.00  0.00     0.338 C 
ATOM     24  O   UNL     1       4.768   8.303   0.471  1.00  0.00    -0.246 OA
BRANCH  23  25
ATOM     25  C   UNL     1       5.428   9.670   2.258  1.00  0.00     0.060 A 
ATOM     26  C   UNL     1       6.726   9.905   2.698  1.00  0.00     0.016 A 
ATOM     27  C   UNL     1       4.428  10.642   2.366  1.00  0.00     0.016 A 
ATOM     28  C   UNL     1       7.013  11.116   3.311  1.00  0.00     0.010 A 
ATOM     29  C   UNL     1       4.722  11.862   2.963  1.00  0.00     0.010 A 
ATOM     30  C   UNL     1       6.011  12.093   3.459  1.00  0.00    -0.014 A 
BRANCH  30  31
ATOM     31  C   UNL     1       6.349  13.352   4.149  1.00  0.00     0.031 A 
ATOM     32  C   UNL     1       5.865  13.599   5.544  1.00  0.00     0.074 A 
ATOM     33  C   UNL     1       7.160  14.225   3.528  1.00  0.00     0.049 A 
ATOM     34  N   UNL     1       6.225  14.533   6.386  1.00  0.00    -0.248 NA
ATOM     35  C   UNL     1       4.837  12.683   6.061  1.00  0.00     0.031 C 
ATOM     36  C   UNL     1       7.646  14.088   2.153  1.00  0.00     0.029 A 
ATOM     37  N   UNL     1       7.749  15.373   3.982  1.00  0.00    -0.354 N 
ATOM     38  C   UNL     1       5.487  14.304   7.539  1.00  0.00     0.074 A 
ATOM     39  C   UNL     1       4.608  13.188   7.264  1.00  0.00     0.031 C 
ATOM     40  C   UNL     1       8.508  15.084   1.895  1.00  0.00     0.029 A 
ATOM     41  C   UNL     1       8.615  15.933   3.076  1.00  0.00     0.049 A 
ATOM     42  H   UNL     1       7.569  15.759   4.870  1.00  0.00     0.167 HD
ATOM     43  C   UNL     1       5.559  14.953   8.726  1.00  0.00     0.037 A 
ATOM     44  C   UNL     1       9.423  17.000   3.204  1.00  0.00     0.037 A 
ATOM     45  C   UNL     1       6.422  16.080   8.970  1.00  0.00     0.049 A 
ATOM     46  C   UNL     1       9.466  17.717   4.523  1.00  0.00     0.074 A 
ATOM     47  C   UNL     1       6.592  16.808  10.134  1.00  0.00     0.029 A 
ATOM     48  N   UNL     1       7.254  16.653   8.016  1.00  0.00    -0.354 N 
ATOM     49  N   UNL     1       8.824  17.448   5.636  1.00  0.00    -0.248 NA
ATOM     50  C   UNL     1      10.361  18.876   4.609  1.00  0.00     0.031 C 
ATOM     51  C   UNL     1       7.486  17.853   9.868  1.00  0.00     0.029 A 
ATOM     52  C   UNL     1       7.921  17.740   8.557  1.00  0.00     0.049 A 
ATOM     53  H   UNL     1       7.354  16.334   7.090  1.00  0.00     0.167 HD
ATOM     54  C   UNL     1       9.257  18.388   6.562  1.00  0.00     0.074 A 
ATOM     55  C   UNL     1      10.236  19.214   5.883  1.00  0.00     0.031 C 
ATOM     56  C   UNL     1       8.882  18.555   7.855  1.00  0.00     0.037 A 
BRANCH  43  57
ATOM     57  C   UNL     1       4.664  14.460   9.828  1.00  0.00     0.057 A 
ATOM     58  C   UNL     1       3.596  15.239  10.290  1.00  0.00     0.134 A 
ATOM     59  C   UNL     1       4.846  13.203  10.424  1.00  0.00     0.134 A 
ATOM     60  F   UNL     1       3.364  16.454   9.771  1.00  0.00    -0.206 F 
ATOM     61  C   UNL     1       2.737  14.783  11.293  1.00  0.00     0.040 A 
ATOM     62  C   UNL     1       3.976  12.723  11.406  1.00  0.00     0.040 A 
ATOM     63  F   UNL     1       5.842  12.398  10.024  1.00  0.00    -0.206 F 
ATOM     64  C   UNL     1       2.919  13.517  11.844  1.00  0.00     0.006 A 
ENDBRANCH  43  57
BRANCH  44  65
ATOM     65  C   UNL     1      10.281  17.423   2.069  1.00  0.00     0.057 A 
ATOM     66  C   UNL     1       9.727  17.963   0.902  1.00  0.00     0.134 A 
ATOM     67  C   UNL     1      11.675  17.310   2.128  1.00  0.00     0.134 A 
ATOM     68  F   UNL     1       8.398  18.087   0.778  1.00  0.00    -0.206 F 
ATOM     69  C   UNL     1      10.527  18.375  -0.164  1.00  0.00     0.040 A 
ATOM     70  C   UNL     1      12.489  17.744   1.081  1.00  0.00     0.040 A 
ATOM     71  F   UNL     1      12.267  16.811   3.224  1.00  0.00    -0.206 F 
ATOM     72  C   UNL     1      11.914  18.276  -0.072  1.00  0.00     0.006 A 
ENDBRANCH  44  65
BRANCH  56  73
ATOM     73  C   UNL     1       9.566  19.658   8.613  1.00  0.00     0.057 A 
ATOM     74  C   UNL     1      10.471  19.358   9.640  1.00  0.00     0.134 A 
ATOM     75  C   UNL     1       9.349  21.011   8.319  1.00  0.00     0.134 A 
ATOM     76  F   UNL     1      10.718  18.084   9.982  1.00  0.00    -0.206 F 
ATOM     77  C   UNL     1      11.145  20.362  10.335  1.00  0.00     0.040 A 
ATOM     78  C   UNL     1      10.044  22.023   8.983  1.00  0.00     0.040 A 
ATOM     79  F   UNL     1       8.505  21.367   7.338  1.00  0.00    -0.206 F 
ATOM     80  C   UNL     1      10.944  21.699   9.996  1.00  0.00     0.006 A 
ENDBRANCH  56  73
ENDBRANCH  30  31
ENDBRANCH  23  25
ENDBRANCH  22  23
ENDBRANCH  21  22
ENDBRANCH   1  21
TORSDOF 14
