REMARK SMILES COc1cc(S(=O)(=O)Nc2cccc(C(=O)OCCOC(=O)c3ccc(-c4c5nc(c(-c6c(F)cccc6F)c6ccc([nH]6)c(-c6c(F)cccc6F)c6nc(c(-c7c(F)cccc7F)c7ccc4[nH]7)C=C6)C=C5)cc3)c2)c(OC)cc1C
REMARK SMILES IDX 18 1 17 2 15 3 16 4 14 5 10 6 11 7 77 8 12 9 13 10 9 11 6 13
REMARK SMILES IDX 7 14 8 15 5 16 3 17 4 18 82 19 81 20 83 21 78 22 2 23 1 24
REMARK SMILES IDX 79 25 80 26 19 27 20 28 21 29 22 30 23 31 24 32 76 33 25 34
REMARK SMILES IDX 75 35 26 36 27 37 28 38 69 39 29 40 74 41 68 42 70 43 30 44
REMARK SMILES IDX 73 45 67 46 66 47 31 49 57 50 40 51 56 52 41 53 44 54 55 55
REMARK SMILES IDX 71 56 42 57 43 58 54 60 72 61 45 62 32 63 33 64 38 65 34 66
REMARK SMILES IDX 35 67 37 68 39 69 36 70 58 71 59 72 64 73 60 74 61 75 63 76
REMARK SMILES IDX 65 77 62 78 46 79 47 80 52 81 48 82 49 83 51 84 53 85 50 86
REMARK H PARENT 9 12 70 48 44 59
REMARK Flexibility Score: inf
ROOT
ATOM      1  C   UNL     1       5.401   1.666  11.409  1.00  0.00     0.275 C 
ENDROOT
BRANCH   1   2
ATOM      2  O   UNL     1       4.489   2.324  10.523  1.00  0.00    -0.458 OA
BRANCH   2   3
ATOM      3  C   UNL     1       4.668   1.978   9.226  1.00  0.00     0.338 C 
ATOM      4  O   UNL     1       5.479   1.183   8.777  1.00  0.00    -0.246 OA
BRANCH   3   5
ATOM      5  C   UNL     1       3.776   2.752   8.355  1.00  0.00     0.062 A 
ATOM      6  C   UNL     1       1.657   2.925   7.203  1.00  0.00     0.050 A 
ATOM      7  C   UNL     1       2.211   3.878   6.349  1.00  0.00     0.027 A 
ATOM      8  C   UNL     1       2.420   2.434   8.268  1.00  0.00     0.042 A 
ATOM      9  C   UNL     1       3.559   4.232   6.472  1.00  0.00     0.003 A 
ATOM     10  C   UNL     1       4.354   3.639   7.450  1.00  0.00     0.016 A 
BRANCH   6  11
ATOM     11  N   UNL     1       0.359   2.365   7.033  1.00  0.00    -0.279 N 
ATOM     12  H   UNL     1      -0.104   2.035   7.837  1.00  0.00     0.180 HD
BRANCH  11  13
ATOM     13  S   UNL     1      -0.443   2.226   5.564  1.00  0.00     0.265 S 
ATOM     14  O   UNL     1      -0.726   3.570   5.103  1.00  0.00    -0.201 OA
ATOM     15  O   UNL     1      -1.528   1.292   5.805  1.00  0.00    -0.201 OA
BRANCH  13  16
ATOM     16  C   UNL     1       0.600   1.478   4.330  1.00  0.00     0.133 A 
ATOM     17  C   UNL     1       0.990   1.274   1.933  1.00  0.00     0.123 A 
ATOM     18  C   UNL     1       0.184   1.674   2.999  1.00  0.00     0.073 A 
ATOM     19  C   UNL     1       2.275   0.794   2.180  1.00  0.00    -0.005 A 
ATOM     20  C   UNL     1       2.636   0.506   3.506  1.00  0.00     0.055 A 
ATOM     21  C   UNL     1       3.285   0.564   1.094  1.00  0.00     0.048 C 
ATOM     22  C   UNL     1       1.794   0.804   4.591  1.00  0.00     0.139 A 
BRANCH  17  23
ATOM     23  O   UNL     1       0.479   1.451   0.676  1.00  0.00    -0.496 OA
ATOM     24  C   UNL     1       0.414   0.226  -0.061  1.00  0.00     0.278 C 
ENDBRANCH  17  23
BRANCH  22  25
ATOM     25  O   UNL     1       2.083   0.424   5.871  1.00  0.00    -0.495 OA
ATOM     26  C   UNL     1       3.398  -0.072   6.116  1.00  0.00     0.278 C 
ENDBRANCH  22  25
ENDBRANCH  13  16
ENDBRANCH  11  13
ENDBRANCH   6  11
ENDBRANCH   3   5
ENDBRANCH   2   3
ENDBRANCH   1   2
BRANCH   1  27
ATOM     27  C   UNL     1       4.881   1.630  12.851  1.00  0.00     0.275 C 
BRANCH  27  28
ATOM     28  O   UNL     1       3.436   1.590  13.056  1.00  0.00    -0.458 OA
BRANCH  28  29
ATOM     29  C   UNL     1       2.493   0.820  12.458  1.00  0.00     0.338 C 
ATOM     30  O   UNL     1       1.295   1.059  12.546  1.00  0.00    -0.246 OA
BRANCH  29  31
ATOM     31  C   UNL     1       2.951  -0.308  11.639  1.00  0.00     0.060 A 
ATOM     32  C   UNL     1       2.335  -0.572  10.407  1.00  0.00     0.016 A 
ATOM     33  C   UNL     1       4.029  -1.067  12.073  1.00  0.00     0.016 A 
ATOM     34  C   UNL     1       2.889  -1.516   9.548  1.00  0.00     0.010 A 
ATOM     35  C   UNL     1       4.670  -1.875  11.170  1.00  0.00     0.010 A 
ATOM     36  C   UNL     1       4.084  -2.130   9.921  1.00  0.00    -0.014 A 
BRANCH  36  37
ATOM     37  C   UNL     1       4.611  -3.316   9.265  1.00  0.00     0.031 A 
ATOM     38  C   UNL     1       5.371  -3.301   8.011  1.00  0.00     0.074 A 
ATOM     39  C   UNL     1       4.392  -4.441   9.978  1.00  0.00     0.049 A 
ATOM     40  N   UNL     1       5.335  -4.257   7.146  1.00  0.00    -0.248 NA
ATOM     41  C   UNL     1       6.250  -2.203   7.623  1.00  0.00     0.031 C 
ATOM     42  C   UNL     1       4.904  -5.785   9.808  1.00  0.00     0.029 A 
ATOM     43  N   UNL     1       3.444  -4.557  11.003  1.00  0.00    -0.354 N 
ATOM     44  C   UNL     1       6.401  -4.072   6.291  1.00  0.00     0.074 A 
ATOM     45  C   UNL     1       6.861  -2.725   6.549  1.00  0.00     0.031 C 
ATOM     46  C   UNL     1       4.080  -6.629  10.461  1.00  0.00     0.029 A 
ATOM     47  C   UNL     1       2.938  -5.850  10.935  1.00  0.00     0.049 A 
ATOM     48  H   UNL     1       3.186  -3.858  11.647  1.00  0.00     0.167 HD
ATOM     49  C   UNL     1       6.912  -5.144   5.613  1.00  0.00     0.037 A 
ATOM     50  C   UNL     1       1.635  -6.012  10.560  1.00  0.00     0.037 A 
ATOM     51  C   UNL     1       6.206  -6.367   5.991  1.00  0.00     0.049 A 
ATOM     52  C   UNL     1       1.541  -6.794   9.277  1.00  0.00     0.074 A 
ATOM     53  C   UNL     1       6.513  -7.327   6.943  1.00  0.00     0.029 A 
ATOM     54  N   UNL     1       4.866  -6.551   5.663  1.00  0.00    -0.354 N 
ATOM     55  N   UNL     1       2.445  -6.763   8.336  1.00  0.00    -0.248 NA
ATOM     56  C   UNL     1       0.441  -7.702   8.985  1.00  0.00     0.031 C 
ATOM     57  C   UNL     1       5.333  -8.044   7.243  1.00  0.00     0.029 A 
ATOM     58  C   UNL     1       4.312  -7.539   6.457  1.00  0.00     0.049 A 
ATOM     59  H   UNL     1       4.383  -6.050   4.967  1.00  0.00     0.167 HD
ATOM     60  C   UNL     1       2.113  -7.677   7.372  1.00  0.00     0.074 A 
ATOM     61  C   UNL     1       0.841  -8.223   7.814  1.00  0.00     0.031 C 
ATOM     62  C   UNL     1       2.925  -7.949   6.309  1.00  0.00     0.037 A 
BRANCH  49  63
ATOM     63  C   UNL     1       8.270  -5.144   4.939  1.00  0.00     0.057 A 
ATOM     64  C   UNL     1       9.089  -6.293   4.934  1.00  0.00     0.134 A 
ATOM     65  C   UNL     1       8.840  -4.027   4.304  1.00  0.00     0.134 A 
ATOM     66  F   UNL     1       8.653  -7.476   5.386  1.00  0.00    -0.206 F 
ATOM     67  C   UNL     1      10.409  -6.295   4.464  1.00  0.00     0.040 A 
ATOM     68  C   UNL     1      10.172  -4.005   3.856  1.00  0.00     0.040 A 
ATOM     69  F   UNL     1       8.118  -2.924   4.063  1.00  0.00    -0.206 F 
ATOM     70  C   UNL     1      10.970  -5.136   3.955  1.00  0.00     0.006 A 
ENDBRANCH  49  63
BRANCH  50  71
ATOM     71  C   UNL     1       0.714  -4.893  10.948  1.00  0.00     0.057 A 
ATOM     72  C   UNL     1       0.675  -4.455  12.290  1.00  0.00     0.134 A 
ATOM     73  C   UNL     1       0.052  -4.085  10.019  1.00  0.00     0.134 A 
ATOM     74  F   UNL     1       1.285  -5.169  13.252  1.00  0.00    -0.206 F 
ATOM     75  C   UNL     1       0.091  -3.242  12.671  1.00  0.00     0.040 A 
ATOM     76  C   UNL     1      -0.556  -2.874  10.392  1.00  0.00     0.040 A 
ATOM     77  F   UNL     1       0.030  -4.412   8.719  1.00  0.00    -0.206 F 
ATOM     78  C   UNL     1      -0.514  -2.436  11.715  1.00  0.00     0.006 A 
ENDBRANCH  50  71
BRANCH  62  79
ATOM     79  C   UNL     1       2.544  -8.764   5.102  1.00  0.00     0.057 A 
ATOM     80  C   UNL     1       1.234  -8.877   4.619  1.00  0.00     0.134 A 
ATOM     81  C   UNL     1       3.537  -9.354   4.287  1.00  0.00     0.134 A 
ATOM     82  F   UNL     1       0.208  -8.258   5.218  1.00  0.00    -0.206 F 
ATOM     83  C   UNL     1       0.923  -9.590   3.455  1.00  0.00     0.040 A 
ATOM     84  C   UNL     1       3.245 -10.015   3.093  1.00  0.00     0.040 A 
ATOM     85  F   UNL     1       4.840  -9.294   4.598  1.00  0.00    -0.206 F 
ATOM     86  C   UNL     1       1.930 -10.152   2.682  1.00  0.00     0.006 A 
ENDBRANCH  62  79
ENDBRANCH  36  37
ENDBRANCH  29  31
ENDBRANCH  28  29
ENDBRANCH  27  28
ENDBRANCH   1  27
TORSDOF 16
