REMARK SMILES Cc1ccc2oc(CCCC(=O)OCCOC(=O)c3ccc(-c4c5nc(c(-c6c(F)cccc6F)c6ccc([nH]6)c(-c6c(F)cccc6F)c6nc(c(-c7c(F)cccc7F)c7ccc4[nH]7)C=C6)C=C5)cc3)cc(=O)c2c1
REMARK SMILES IDX 14 1 13 2 11 3 12 4 10 5 9 6 8 7 7 8 1 9 2 10 3 11 77 12
REMARK SMILES IDX 4 13 76 14 5 15 74 16 6 17 73 18 75 19 15 20 16 21 17 22
REMARK SMILES IDX 18 23 19 24 20 25 72 26 21 27 71 28 22 29 23 30 24 31 65 32
REMARK SMILES IDX 25 33 70 34 64 35 66 36 26 37 69 38 63 39 62 40 27 42 53 43
REMARK SMILES IDX 36 44 52 45 37 46 40 47 51 48 67 49 38 50 39 51 50 53 68 54
REMARK SMILES IDX 41 55 28 56 29 57 34 58 30 59 31 60 33 61 35 62 32 63 54 64
REMARK SMILES IDX 55 65 60 66 56 67 57 68 59 69 61 70 58 71 42 72 43 73 48 74
REMARK SMILES IDX 44 75 45 76 47 77 49 78 46 79
REMARK H PARENT 66 41 40 52
REMARK Flexibility Score: inf
ROOT
ATOM      1  C   UNL     1       2.723  -4.955  -2.077  1.00  0.00     0.274 C 
ENDROOT
BRANCH   1   2
ATOM      2  O   UNL     1       2.860  -4.013  -0.996  1.00  0.00    -0.462 OA
BRANCH   2   3
ATOM      3  C   UNL     1       2.121  -4.225   0.117  1.00  0.00     0.305 C 
ATOM      4  O   UNL     1       1.315  -5.139   0.258  1.00  0.00    -0.252 OA
BRANCH   3   5
ATOM      5  C   UNL     1       2.369  -3.202   1.208  1.00  0.00     0.123 C 
BRANCH   5   6
ATOM      6  C   UNL     1       3.620  -2.325   1.093  1.00  0.00     0.020 C 
BRANCH   6   7
ATOM      7  C   UNL     1       3.687  -1.324  -0.075  1.00  0.00     0.076 C 
BRANCH   7   8
ATOM      8  C   UNL     1       2.452  -0.478  -0.230  1.00  0.00     0.108 A 
ATOM      9  C   UNL     1      -3.815   1.062   0.066  1.00  0.00     0.044 C 
ATOM     10  C   UNL     1      -2.447   0.472  -0.114  1.00  0.00    -0.050 A 
ATOM     11  C   UNL     1      -2.282  -0.905  -0.323  1.00  0.00     0.007 A 
ATOM     12  C   UNL     1      -1.319   1.304  -0.086  1.00  0.00     0.019 A 
ATOM     13  C   UNL     1      -1.008  -1.446  -0.503  1.00  0.00     0.048 A 
ATOM     14  C   UNL     1      -0.046   0.753  -0.244  1.00  0.00     0.065 A 
ATOM     15  C   UNL     1       0.106  -0.612  -0.461  1.00  0.00     0.138 A 
ATOM     16  C   UNL     1       1.167   1.580  -0.132  1.00  0.00     0.192 A 
ATOM     17  O   UNL     1       1.333  -1.196  -0.623  1.00  0.00    -0.461 OA
ATOM     18  C   UNL     1       2.443   0.847  -0.027  1.00  0.00     0.095 A 
ATOM     19  O   UNL     1       1.130   2.801  -0.069  1.00  0.00    -0.289 OA
ENDBRANCH   7   8
ENDBRANCH   6   7
ENDBRANCH   5   6
ENDBRANCH   3   5
ENDBRANCH   2   3
ENDBRANCH   1   2
BRANCH   1  20
ATOM     20  C   UNL     1       3.993  -5.795  -2.218  1.00  0.00     0.275 C 
BRANCH  20  21
ATOM     21  O   UNL     1       4.155  -6.670  -1.086  1.00  0.00    -0.458 OA
BRANCH  21  22
ATOM     22  C   UNL     1       4.916  -6.173  -0.084  1.00  0.00     0.338 C 
ATOM     23  O   UNL     1       5.532  -5.122  -0.064  1.00  0.00    -0.246 OA
BRANCH  22  24
ATOM     24  C   UNL     1       4.778  -7.038   1.095  1.00  0.00     0.060 A 
ATOM     25  C   UNL     1       4.101  -6.524   2.203  1.00  0.00     0.016 A 
ATOM     26  C   UNL     1       5.365  -8.302   1.143  1.00  0.00     0.016 A 
ATOM     27  C   UNL     1       4.008  -7.267   3.373  1.00  0.00     0.010 A 
ATOM     28  C   UNL     1       5.271  -9.051   2.320  1.00  0.00     0.010 A 
ATOM     29  C   UNL     1       4.603  -8.532   3.444  1.00  0.00    -0.014 A 
BRANCH  29  30
ATOM     30  C   UNL     1       4.573  -9.275   4.724  1.00  0.00     0.031 A 
ATOM     31  C   UNL     1       5.809  -9.344   5.571  1.00  0.00     0.074 A 
ATOM     32  C   UNL     1       3.430  -9.847   5.140  1.00  0.00     0.049 A 
ATOM     33  N   UNL     1       6.010  -9.993   6.689  1.00  0.00    -0.248 NA
ATOM     34  C   UNL     1       6.974  -8.581   5.097  1.00  0.00     0.031 C 
ATOM     35  C   UNL     1       2.153  -9.801   4.427  1.00  0.00     0.029 A 
ATOM     36  N   UNL     1       3.158 -10.577   6.269  1.00  0.00    -0.354 N 
ATOM     37  C   UNL     1       7.328  -9.737   7.041  1.00  0.00     0.074 A 
ATOM     38  C   UNL     1       7.884  -8.882   6.013  1.00  0.00     0.031 C 
ATOM     39  C   UNL     1       1.232 -10.470   5.138  1.00  0.00     0.029 A 
ATOM     40  C   UNL     1       1.862 -11.025   6.332  1.00  0.00     0.049 A 
ATOM     41  H   UNL     1       3.828 -10.762   6.966  1.00  0.00     0.167 HD
ATOM     42  C   UNL     1       8.011 -10.175   8.125  1.00  0.00     0.037 A 
ATOM     43  C   UNL     1       1.260 -11.814   7.242  1.00  0.00     0.037 A 
ATOM     44  C   UNL     1       7.449 -11.009   9.154  1.00  0.00     0.049 A 
ATOM     45  C   UNL     1       2.051 -12.320   8.415  1.00  0.00     0.074 A 
ATOM     46  C   UNL     1       8.060 -11.507  10.292  1.00  0.00     0.029 A 
ATOM     47  N   UNL     1       6.139 -11.463   9.172  1.00  0.00    -0.354 N 
ATOM     48  N   UNL     1       3.304 -12.091   8.727  1.00  0.00    -0.248 NA
ATOM     49  C   UNL     1       1.348 -13.201   9.358  1.00  0.00     0.031 C 
ATOM     50  C   UNL     1       7.126 -12.287  10.984  1.00  0.00     0.029 A 
ATOM     51  C   UNL     1       5.925 -12.245  10.295  1.00  0.00     0.049 A 
ATOM     52  H   UNL     1       5.462 -11.260   8.487  1.00  0.00     0.167 HD
ATOM     53  C   UNL     1       3.534 -12.781   9.909  1.00  0.00     0.074 A 
ATOM     54  C   UNL     1       2.287 -13.429  10.265  1.00  0.00     0.031 C 
ATOM     55  C   UNL     1       4.675 -12.874  10.634  1.00  0.00     0.037 A 
BRANCH  42  56
ATOM     56  C   UNL     1       9.453  -9.783   8.233  1.00  0.00     0.057 A 
ATOM     57  C   UNL     1       9.842  -8.488   8.596  1.00  0.00     0.134 A 
ATOM     58  C   UNL     1      10.464 -10.720   7.990  1.00  0.00     0.134 A 
ATOM     59  F   UNL     1       8.921  -7.540   8.824  1.00  0.00    -0.206 F 
ATOM     60  C   UNL     1      11.189  -8.134   8.696  1.00  0.00     0.040 A 
ATOM     61  C   UNL     1      11.814 -10.384   8.107  1.00  0.00     0.040 A 
ATOM     62  F   UNL     1      10.157 -11.978   7.639  1.00  0.00    -0.206 F 
ATOM     63  C   UNL     1      12.179  -9.086   8.457  1.00  0.00     0.006 A 
ENDBRANCH  42  56
BRANCH  43  64
ATOM     64  C   UNL     1      -0.165 -12.185   7.069  1.00  0.00     0.057 A 
ATOM     65  C   UNL     1      -1.156 -11.664   7.909  1.00  0.00     0.134 A 
ATOM     66  C   UNL     1      -0.569 -13.070   6.062  1.00  0.00     0.134 A 
ATOM     67  F   UNL     1      -0.826 -10.830   8.905  1.00  0.00    -0.206 F 
ATOM     68  C   UNL     1      -2.498 -12.017   7.759  1.00  0.00     0.040 A 
ATOM     69  C   UNL     1      -1.910 -13.415   5.888  1.00  0.00     0.040 A 
ATOM     70  F   UNL     1       0.335 -13.602   5.226  1.00  0.00    -0.206 F 
ATOM     71  C   UNL     1      -2.878 -12.891   6.742  1.00  0.00     0.006 A 
ENDBRANCH  43  64
BRANCH  55  72
ATOM     72  C   UNL     1       4.617 -13.678  11.896  1.00  0.00     0.057 A 
ATOM     73  C   UNL     1       4.608 -15.078  11.877  1.00  0.00     0.134 A 
ATOM     74  C   UNL     1       4.604 -13.045  13.145  1.00  0.00     0.134 A 
ATOM     75  F   UNL     1       4.605 -15.741  10.710  1.00  0.00    -0.206 F 
ATOM     76  C   UNL     1       4.571 -15.821  13.057  1.00  0.00     0.040 A 
ATOM     77  C   UNL     1       4.587 -13.777  14.332  1.00  0.00     0.040 A 
ATOM     78  F   UNL     1       4.617 -11.706  13.230  1.00  0.00    -0.206 F 
ATOM     79  C   UNL     1       4.566 -15.170  14.290  1.00  0.00     0.006 A 
ENDBRANCH  55  72
ENDBRANCH  29  30
ENDBRANCH  22  24
ENDBRANCH  21  22
ENDBRANCH  20  21
ENDBRANCH   1  20
TORSDOF 14
