REMARK SMILES CC[C@@](C)(NC(=O)Nc1c(C)cccc1Cl)C(=O)OCCOC(=O)c1ccc(-c2c3nc(c(-c4c(F)cccc4F)c4ccc([nH]4)c(-c4c(F)cccc4F)c4nc(c(-c5c(F)cccc5F)c5ccc2[nH]5)C=C4)C=C3)cc1
REMARK SMILES IDX 20 1 19 2 17 3 18 4 3 5 4 6 2 7 1 8 5 9 6 10 7 12 8 13 9 15
REMARK SMILES IDX 10 16 15 17 11 18 12 19 14 20 16 21 13 22 21 23 22 24 23 25
REMARK SMILES IDX 24 26 25 27 26 28 78 29 27 30 77 31 28 32 29 33 30 34 71 35
REMARK SMILES IDX 31 36 76 37 70 38 72 39 32 40 75 41 69 42 68 43 33 45 59 46
REMARK SMILES IDX 42 47 58 48 43 49 46 50 57 51 73 52 44 53 45 54 56 56 74 57
REMARK SMILES IDX 47 58 34 59 35 60 40 61 36 62 37 63 39 64 41 65 38 66 60 67
REMARK SMILES IDX 61 68 66 69 62 70 63 71 65 72 67 73 64 74 48 75 49 76 54 77
REMARK SMILES IDX 50 78 51 79 53 80 55 81 52 82
REMARK H PARENT 5 11 8 14 72 44 46 55
REMARK Flexibility Score: inf
ROOT
ATOM      1  C   UNL     1       3.398   4.863  -0.076  1.00  0.00     0.274 C 
ENDROOT
BRANCH   1   2
ATOM      2  O   UNL     1       1.952   4.643  -0.732  1.00  0.00    -0.460 OA
BRANCH   2   3
ATOM      3  C   UNL     1       1.267   3.564  -1.454  1.00  0.00     0.331 C 
ATOM      4  O   UNL     1       1.294   3.428  -2.679  1.00  0.00    -0.249 OA
BRANCH   3   5
ATOM      5  C   UNL     1       0.106   2.844  -0.646  1.00  0.00     0.136 C 
ATOM      6  C   UNL     1      -1.183   3.470  -1.197  1.00  0.00     0.047 C 
BRANCH   5   7
ATOM      7  C   UNL     1      -0.254   1.387  -0.195  1.00  0.00     0.037 C 
ATOM      8  C   UNL     1       0.265   0.164  -0.893  1.00  0.00     0.007 C 
ENDBRANCH   5   7
BRANCH   5   9
ATOM      9  N   UNL     1       0.535   3.375   0.567  1.00  0.00    -0.322 N 
ATOM     10  C   UNL     1       1.695   3.015   1.095  1.00  0.00     0.320 C 
ATOM     11  H   UNL     1      -0.031   4.027   1.039  1.00  0.00     0.166 HD
ATOM     12  O   UNL     1       1.683   3.419   2.265  1.00  0.00    -0.248 OA
ATOM     13  N   UNL     1       2.749   2.292   0.511  1.00  0.00    -0.306 N 
ATOM     14  H   UNL     1       3.245   1.983   1.304  1.00  0.00     0.171 HD
BRANCH  13  15
ATOM     15  C   UNL     1       3.562   1.714  -0.605  1.00  0.00     0.064 A 
ATOM     16  C   UNL     1       3.646   1.920  -2.015  1.00  0.00    -0.026 A 
ATOM     17  C   UNL     1       4.547   0.757  -0.169  1.00  0.00     0.064 A 
ATOM     18  C   UNL     1       3.893   3.247  -2.780  1.00  0.00     0.046 C 
ATOM     19  C   UNL     1       4.214   0.898  -2.853  1.00  0.00     0.005 A 
ATOM     20  C   UNL     1       5.212  -0.152  -1.006  1.00  0.00     0.023 A 
ATOM     21  Cl  UNL     1       5.194   0.692   1.430  1.00  0.00    -0.082 Cl
ATOM     22  C   UNL     1       4.969  -0.144  -2.353  1.00  0.00     0.002 A 
ENDBRANCH  13  15
ENDBRANCH   5   9
ENDBRANCH   3   5
ENDBRANCH   2   3
ENDBRANCH   1   2
BRANCH   1  23
ATOM     23  C   UNL     1       3.867   4.716   1.555  1.00  0.00     0.275 C 
BRANCH  23  24
ATOM     24  O   UNL     1       4.096   3.326   2.162  1.00  0.00    -0.458 OA
BRANCH  24  25
ATOM     25  C   UNL     1       3.896   3.000   3.511  1.00  0.00     0.338 C 
ATOM     26  O   UNL     1       4.039   3.797   4.421  1.00  0.00    -0.246 OA
BRANCH  25  27
ATOM     27  C   UNL     1       3.452   1.504   3.787  1.00  0.00     0.060 A 
ATOM     28  C   UNL     1       2.343   0.881   3.172  1.00  0.00     0.016 A 
ATOM     29  C   UNL     1       4.085   0.695   4.735  1.00  0.00     0.016 A 
ATOM     30  C   UNL     1       1.874  -0.416   3.410  1.00  0.00     0.010 A 
ATOM     31  C   UNL     1       3.598  -0.624   5.032  1.00  0.00     0.010 A 
ATOM     32  C   UNL     1       2.452  -1.172   4.403  1.00  0.00    -0.014 A 
BRANCH  32  33
ATOM     33  C   UNL     1       1.598  -2.254   4.998  1.00  0.00     0.031 A 
ATOM     34  C   UNL     1       0.949  -1.947   6.328  1.00  0.00     0.074 A 
ATOM     35  C   UNL     1       1.199  -3.373   4.352  1.00  0.00     0.049 A 
ATOM     36  N   UNL     1       0.296  -2.728   7.149  1.00  0.00    -0.248 NA
ATOM     37  C   UNL     1       1.056  -0.552   6.787  1.00  0.00     0.031 C 
ATOM     38  C   UNL     1       1.524  -3.741   2.974  1.00  0.00     0.029 A 
ATOM     39  N   UNL     1       0.402  -4.415   4.786  1.00  0.00    -0.354 N 
ATOM     40  C   UNL     1      -0.000  -1.940   8.256  1.00  0.00     0.074 A 
ATOM     41  C   UNL     1       0.536  -0.623   7.998  1.00  0.00     0.031 C 
ATOM     42  C   UNL     1       0.954  -4.928   2.687  1.00  0.00     0.029 A 
ATOM     43  C   UNL     1       0.268  -5.438   3.874  1.00  0.00     0.049 A 
ATOM     44  H   UNL     1      -0.032  -4.425   5.670  1.00  0.00     0.167 HD
ATOM     45  C   UNL     1      -0.654  -2.277   9.392  1.00  0.00     0.037 A 
ATOM     46  C   UNL     1      -0.303  -6.657   3.996  1.00  0.00     0.037 A 
ATOM     47  C   UNL     1      -1.258  -3.558   9.628  1.00  0.00     0.049 A 
ATOM     48  C   UNL     1      -0.936  -7.061   5.309  1.00  0.00     0.074 A 
ATOM     49  C   UNL     1      -1.923  -4.002  10.757  1.00  0.00     0.029 A 
ATOM     50  N   UNL     1      -1.292  -4.594   8.708  1.00  0.00    -0.354 N 
ATOM     51  N   UNL     1      -1.106  -6.357   6.402  1.00  0.00    -0.248 NA
ATOM     52  C   UNL     1      -1.447  -8.439   5.407  1.00  0.00     0.031 C 
ATOM     53  C   UNL     1      -2.316  -5.326  10.540  1.00  0.00     0.029 A 
ATOM     54  C   UNL     1      -1.953  -5.683   9.251  1.00  0.00     0.049 A 
ATOM     55  H   UNL     1      -0.904  -4.561   7.804  1.00  0.00     0.167 HD
ATOM     56  C   UNL     1      -1.780  -7.186   7.294  1.00  0.00     0.074 A 
ATOM     57  C   UNL     1      -1.992  -8.446   6.616  1.00  0.00     0.031 C 
ATOM     58  C   UNL     1      -2.190  -6.924   8.560  1.00  0.00     0.037 A 
BRANCH  45  59
ATOM     59  C   UNL     1      -0.671  -1.259  10.495  1.00  0.00     0.057 A 
ATOM     60  C   UNL     1      -1.421  -0.079  10.428  1.00  0.00     0.134 A 
ATOM     61  C   UNL     1       0.104  -1.469  11.643  1.00  0.00     0.134 A 
ATOM     62  F   UNL     1      -2.162   0.197   9.344  1.00  0.00    -0.206 F 
ATOM     63  C   UNL     1      -1.371   0.873  11.448  1.00  0.00     0.040 A 
ATOM     64  C   UNL     1       0.133  -0.543  12.685  1.00  0.00     0.040 A 
ATOM     65  F   UNL     1       0.846  -2.580  11.771  1.00  0.00    -0.206 F 
ATOM     66  C   UNL     1      -0.598   0.638  12.584  1.00  0.00     0.006 A 
ENDBRANCH  45  59
BRANCH  46  67
ATOM     67  C   UNL     1      -0.264  -7.638   2.871  1.00  0.00     0.057 A 
ATOM     68  C   UNL     1      -1.438  -8.085   2.249  1.00  0.00     0.134 A 
ATOM     69  C   UNL     1       0.940  -8.214   2.446  1.00  0.00     0.134 A 
ATOM     70  F   UNL     1      -2.631  -7.610   2.636  1.00  0.00    -0.206 F 
ATOM     71  C   UNL     1      -1.417  -9.075   1.262  1.00  0.00     0.040 A 
ATOM     72  C   UNL     1       0.979  -9.182   1.440  1.00  0.00     0.040 A 
ATOM     73  F   UNL     1       2.101  -7.851   3.011  1.00  0.00    -0.206 F 
ATOM     74  C   UNL     1      -0.204  -9.622   0.851  1.00  0.00     0.006 A 
ENDBRANCH  46  67
BRANCH  58  75
ATOM     75  C   UNL     1      -2.985  -7.983   9.273  1.00  0.00     0.057 A 
ATOM     76  C   UNL     1      -2.413  -9.180   9.720  1.00  0.00     0.134 A 
ATOM     77  C   UNL     1      -4.344  -7.777   9.549  1.00  0.00     0.134 A 
ATOM     78  F   UNL     1      -1.119  -9.446   9.484  1.00  0.00    -0.206 F 
ATOM     79  C   UNL     1      -3.170 -10.147  10.385  1.00  0.00     0.040 A 
ATOM     80  C   UNL     1      -5.104  -8.722  10.241  1.00  0.00     0.040 A 
ATOM     81  F   UNL     1      -4.955  -6.646   9.164  1.00  0.00    -0.206 F 
ATOM     82  C   UNL     1      -4.518  -9.916  10.653  1.00  0.00     0.006 A 
ENDBRANCH  58  75
ENDBRANCH  32  33
ENDBRANCH  25  27
ENDBRANCH  24  25
ENDBRANCH  23  24
ENDBRANCH   1  23
TORSDOF 14
