REMARK SMILES Cc1cc(=O)n(Cc2cc(C(=O)OCCOC(=O)c3ccc(-c4c5nc(c(-c6c(F)cccc6F)c6ccc([nH]6)c(-c6c(F)cccc6F)c6nc(c(-c7c(F)cccc7F)c7ccc4[nH]7)C=C6)C=C5)cc3)oc2C)cc1[N+](=O)[O-]
REMARK SMILES IDX 14 1 13 2 11 3 12 4 10 5 8 6 9 7 74 8 73 9 75 10 7 11 6 12
REMARK SMILES IDX 1 13 2 14 3 15 77 16 4 17 76 18 5 19 78 20 79 21 80 22 15 23
REMARK SMILES IDX 16 24 17 25 18 26 19 27 20 28 72 29 21 30 71 31 22 32 23 33
REMARK SMILES IDX 24 34 65 35 25 36 70 37 64 38 66 39 26 40 69 41 63 42 62 43
REMARK SMILES IDX 27 45 53 46 36 47 52 48 37 49 40 50 51 51 67 52 38 53 39 54
REMARK SMILES IDX 50 56 68 57 41 58 28 59 29 60 34 61 30 62 31 63 33 64 35 65
REMARK SMILES IDX 32 66 54 67 55 68 60 69 56 70 57 71 59 72 61 73 58 74 42 75
REMARK SMILES IDX 43 76 48 77 44 78 45 79 47 80 49 81 46 82
REMARK H PARENT 66 44 40 55
REMARK Flexibility Score: inf
ROOT
ATOM      1  C   UNL     1       3.376   0.497  -8.596  1.00  0.00     0.275 C 
ENDROOT
BRANCH   1   2
ATOM      2  O   UNL     1       2.698   1.155  -7.511  1.00  0.00    -0.456 OA
BRANCH   2   3
ATOM      3  C   UNL     1       3.471   1.974  -6.736  1.00  0.00     0.374 C 
ATOM      4  O   UNL     1       4.685   2.079  -6.838  1.00  0.00    -0.242 OA
BRANCH   3   5
ATOM      5  C   UNL     1       2.633   2.740  -5.843  1.00  0.00     0.212 A 
ATOM      6  C   UNL     1       1.044   3.696  -4.542  1.00  0.00     0.014 A 
ATOM      7  C   UNL     1       1.318   2.620  -5.444  1.00  0.00     0.064 A 
ATOM      8  C   UNL     1       2.199   4.457  -4.522  1.00  0.00     0.107 A 
ATOM      9  O   UNL     1       3.171   3.854  -5.257  1.00  0.00    -0.454 OA
ATOM     10  C   UNL     1       2.585   5.739  -3.896  1.00  0.00     0.088 C 
BRANCH   6  11
ATOM     11  C   UNL     1      -0.219   3.900  -3.767  1.00  0.00     0.164 C 
BRANCH  11  12
ATOM     12  N   UNL     1      -0.187   2.958  -2.646  1.00  0.00    -0.304 N 
ATOM     13  C   UNL     1       0.749  -0.059   0.271  1.00  0.00     0.052 C 
ATOM     14  C   UNL     1       0.325   1.020  -0.685  1.00  0.00     0.034 A 
ATOM     15  C   UNL     1      -0.348   0.680  -1.803  1.00  0.00     0.082 A 
ATOM     16  C   UNL     1       0.673   2.427  -0.480  1.00  0.00     0.288 A 
ATOM     17  C   UNL     1      -0.679   1.674  -2.857  1.00  0.00     0.251 A 
ATOM     18  C   UNL     1       0.437   3.324  -1.458  1.00  0.00     0.175 A 
ATOM     19  O   UNL     1      -1.297   1.307  -3.851  1.00  0.00    -0.269 OA
BRANCH  16  20
ATOM     20  N   UNL     1       1.293   2.963   0.747  1.00  0.00     0.064 N 
ATOM     21  O   UNL     1       1.420   4.193   0.846  1.00  0.00    -0.258 OA
ATOM     22  O   UNL     1       1.645   2.165   1.623  1.00  0.00    -0.258 OA
ENDBRANCH  16  20
ENDBRANCH  11  12
ENDBRANCH   6  11
ENDBRANCH   3   5
ENDBRANCH   2   3
ENDBRANCH   1   2
BRANCH   1  23
ATOM     23  C   UNL     1       3.259   1.293  -9.902  1.00  0.00     0.275 C 
BRANCH  23  24
ATOM     24  O   UNL     1       4.038   2.504  -9.864  1.00  0.00    -0.458 OA
BRANCH  24  25
ATOM     25  C   UNL     1       3.372   3.617  -9.470  1.00  0.00     0.338 C 
ATOM     26  O   UNL     1       2.185   3.702  -9.200  1.00  0.00    -0.246 OA
BRANCH  25  27
ATOM     27  C   UNL     1       4.335   4.713  -9.239  1.00  0.00     0.060 A 
ATOM     28  C   UNL     1       5.304   5.061 -10.182  1.00  0.00     0.016 A 
ATOM     29  C   UNL     1       4.244   5.413  -8.033  1.00  0.00     0.016 A 
ATOM     30  C   UNL     1       6.200   6.098  -9.897  1.00  0.00     0.010 A 
ATOM     31  C   UNL     1       5.148   6.430  -7.739  1.00  0.00     0.010 A 
ATOM     32  C   UNL     1       6.136   6.776  -8.667  1.00  0.00    -0.014 A 
BRANCH  32  33
ATOM     33  C   UNL     1       7.073   7.879  -8.354  1.00  0.00     0.031 A 
ATOM     34  C   UNL     1       8.249   7.653  -7.452  1.00  0.00     0.074 A 
ATOM     35  C   UNL     1       6.826   9.105  -8.847  1.00  0.00     0.049 A 
ATOM     36  N   UNL     1       9.207   8.483  -7.122  1.00  0.00    -0.248 NA
ATOM     37  C   UNL     1       8.355   6.327  -6.826  1.00  0.00     0.031 C 
ATOM     38  C   UNL     1       5.679   9.462  -9.683  1.00  0.00     0.029 A 
ATOM     39  N   UNL     1       7.523  10.278  -8.712  1.00  0.00    -0.354 N 
ATOM     40  C   UNL     1      10.041   7.776  -6.266  1.00  0.00     0.074 A 
ATOM     41  C   UNL     1       9.446   6.468  -6.085  1.00  0.00     0.031 C 
ATOM     42  C   UNL     1       5.766  10.762 -10.009  1.00  0.00     0.029 A 
ATOM     43  C   UNL     1       6.967  11.326  -9.400  1.00  0.00     0.049 A 
ATOM     44  H   UNL     1       8.344  10.359  -8.175  1.00  0.00     0.167 HD
ATOM     45  C   UNL     1      11.207   8.175  -5.702  1.00  0.00     0.037 A 
ATOM     46  C   UNL     1       7.391  12.595  -9.538  1.00  0.00     0.037 A 
ATOM     47  C   UNL     1      11.785   9.484  -5.867  1.00  0.00     0.049 A 
ATOM     48  C   UNL     1       8.673  13.022  -8.883  1.00  0.00     0.074 A 
ATOM     49  C   UNL     1      12.989   9.967  -5.385  1.00  0.00     0.029 A 
ATOM     50  N   UNL     1      11.186  10.527  -6.557  1.00  0.00    -0.354 N 
ATOM     51  N   UNL     1       9.509  12.315  -8.162  1.00  0.00    -0.248 NA
ATOM     52  C   UNL     1       9.073  14.423  -9.070  1.00  0.00     0.031 C 
ATOM     53  C   UNL     1      13.101  11.314  -5.753  1.00  0.00     0.029 A 
ATOM     54  C   UNL     1      11.983  11.660  -6.494  1.00  0.00     0.049 A 
ATOM     55  H   UNL     1      10.321  10.472  -7.024  1.00  0.00     0.167 HD
ATOM     56  C   UNL     1      10.547  13.175  -7.833  1.00  0.00     0.074 A 
ATOM     57  C   UNL     1      10.239  14.455  -8.440  1.00  0.00     0.031 C 
ATOM     58  C   UNL     1      11.659  12.927  -7.097  1.00  0.00     0.037 A 
BRANCH  45  59
ATOM     59  C   UNL     1      11.935   7.169  -4.860  1.00  0.00     0.057 A 
ATOM     60  C   UNL     1      12.008   7.308  -3.469  1.00  0.00     0.134 A 
ATOM     61  C   UNL     1      12.580   6.065  -5.434  1.00  0.00     0.134 A 
ATOM     62  F   UNL     1      11.421   8.346  -2.855  1.00  0.00    -0.206 F 
ATOM     63  C   UNL     1      12.687   6.378  -2.678  1.00  0.00     0.040 A 
ATOM     64  C   UNL     1      13.242   5.117  -4.653  1.00  0.00     0.040 A 
ATOM     65  F   UNL     1      12.543   5.872  -6.761  1.00  0.00    -0.206 F 
ATOM     66  C   UNL     1      13.299   5.274  -3.269  1.00  0.00     0.006 A 
ENDBRANCH  45  59
BRANCH  46  67
ATOM     67  C   UNL     1       6.629  13.537 -10.390  1.00  0.00     0.057 A 
ATOM     68  C   UNL     1       5.411  14.085  -9.975  1.00  0.00     0.134 A 
ATOM     69  C   UNL     1       7.110  13.902 -11.652  1.00  0.00     0.134 A 
ATOM     70  F   UNL     1       4.898  13.767  -8.778  1.00  0.00    -0.206 F 
ATOM     71  C   UNL     1       4.693  14.962 -10.790  1.00  0.00     0.040 A 
ATOM     72  C   UNL     1       6.412  14.791 -12.470  1.00  0.00     0.040 A 
ATOM     73  F   UNL     1       8.281  13.420 -12.094  1.00  0.00    -0.206 F 
ATOM     74  C   UNL     1       5.197  15.320 -12.039  1.00  0.00     0.006 A 
ENDBRANCH  46  67
BRANCH  58  75
ATOM     75  C   UNL     1      12.625  14.061  -6.929  1.00  0.00     0.057 A 
ATOM     76  C   UNL     1      13.840  14.074  -7.626  1.00  0.00     0.134 A 
ATOM     77  C   UNL     1      12.355  15.138  -6.076  1.00  0.00     0.134 A 
ATOM     78  F   UNL     1      14.159  13.071  -8.457  1.00  0.00    -0.206 F 
ATOM     79  C   UNL     1      14.752  15.120  -7.480  1.00  0.00     0.040 A 
ATOM     80  C   UNL     1      13.250  16.201  -5.938  1.00  0.00     0.040 A 
ATOM     81  F   UNL     1      11.200  15.193  -5.395  1.00  0.00    -0.206 F 
ATOM     82  C   UNL     1      14.454  16.191  -6.639  1.00  0.00     0.006 A 
ENDBRANCH  58  75
ENDBRANCH  32  33
ENDBRANCH  25  27
ENDBRANCH  24  25
ENDBRANCH  23  24
ENDBRANCH   1  23
TORSDOF 14
