REMARK SMILES CC[NH2+]C[C@@H](C)C(=O)N1CCO[C@@H](CC(=O)OCCOC(=O)c2ccc(-c3c4nc(c(-c5c(F)cccc5F)c5ccc([nH]5)c(-c5c(F)cccc5F)c5nc(c(-c6c(F)cccc6F)c6ccc3[nH]6)C=C5)C=C4)cc2)C1
REMARK SMILES IDX 15 1 16 2 14 3 13 4 9 5 10 6 77 7 11 8 12 9 7 10 8 11 5 12
REMARK SMILES IDX 6 13 4 14 3 15 2 18 1 19 17 20 18 21 19 22 20 23 21 24 22 25
REMARK SMILES IDX 23 26 24 27 76 28 25 29 75 30 26 31 27 32 28 33 69 34 29 35
REMARK SMILES IDX 74 36 68 37 70 38 30 39 73 40 67 41 66 42 31 44 57 45 40 46
REMARK SMILES IDX 56 47 41 48 44 49 55 50 71 51 42 52 43 53 54 55 72 56 45 57
REMARK SMILES IDX 32 58 33 59 38 60 34 61 35 62 37 63 39 64 36 65 58 66 59 67
REMARK SMILES IDX 64 68 60 69 61 70 63 71 65 72 62 73 46 74 47 75 52 76 48 77
REMARK SMILES IDX 49 78 51 79 53 80 50 81
REMARK H PARENT 3 16 3 17 70 43 44 54
REMARK Flexibility Score: inf
ROOT
ATOM      1  C   UNL     1       2.735  -0.167  10.597  1.00  0.00     0.308 C 
ATOM      2  O   UNL     1       3.627  -0.267  11.430  1.00  0.00    -0.252 OA
ENDROOT
BRANCH   1   3
ATOM      3  C   UNL     1       2.203   1.158  10.121  1.00  0.00     0.156 C 
BRANCH   3   4
ATOM      4  C   UNL     1       2.117   1.303   8.604  1.00  0.00     0.148 C 
ATOM      5  N   UNL     1       0.736   0.967   6.580  1.00  0.00    -0.337 N 
ATOM      6  C   UNL     1       0.765   2.406   6.346  1.00  0.00     0.148 C 
ATOM      7  C   UNL     1       0.856   0.630   8.003  1.00  0.00     0.152 C 
ATOM      8  C   UNL     1       2.045   3.001   6.923  1.00  0.00     0.182 C 
ATOM      9  O   UNL     1       2.117   2.730   8.332  1.00  0.00    -0.374 OA
BRANCH   5  10
ATOM     10  C   UNL     1       0.495  -0.045   5.674  1.00  0.00     0.231 C 
ATOM     11  O   UNL     1      -0.069  -1.084   6.039  1.00  0.00    -0.274 OA
BRANCH  10  12
ATOM     12  C   UNL     1       1.115  -0.018   4.266  1.00  0.00     0.130 C 
ATOM     13  C   UNL     1       2.636  -0.123   4.391  1.00  0.00     0.024 C 
BRANCH  12  14
ATOM     14  C   UNL     1       0.668   1.104   3.323  1.00  0.00     0.273 C 
BRANCH  14  15
ATOM     15  N   UNL     1       1.096   0.995   1.922  1.00  0.00    -0.346 N 
ATOM     16  H   UNL     1       0.851   1.862   1.444  1.00  0.00     0.346 HD
ATOM     17  H   UNL     1       2.101   0.822   1.934  1.00  0.00     0.346 HD
BRANCH  15  18
ATOM     18  C   UNL     1       0.487  -0.114   1.198  1.00  0.00     0.257 C 
ATOM     19  C   UNL     1       0.922  -0.045  -0.258  1.00  0.00     0.071 C 
ENDBRANCH  15  18
ENDBRANCH  14  15
ENDBRANCH  12  14
ENDBRANCH  10  12
ENDBRANCH   5  10
ENDBRANCH   3   4
ENDBRANCH   1   3
BRANCH   1  20
ATOM     20  O   UNL     1       2.068  -1.210  10.046  1.00  0.00    -0.462 OA
BRANCH  20  21
ATOM     21  C   UNL     1       2.468  -2.532  10.454  1.00  0.00     0.274 C 
BRANCH  21  22
ATOM     22  C   UNL     1       3.445  -3.160   9.457  1.00  0.00     0.275 C 
BRANCH  22  23
ATOM     23  O   UNL     1       4.749  -2.556   9.551  1.00  0.00    -0.458 OA
BRANCH  23  24
ATOM     24  C   UNL     1       4.984  -1.546   8.682  1.00  0.00     0.338 C 
ATOM     25  O   UNL     1       4.247  -1.142   7.801  1.00  0.00    -0.246 OA
BRANCH  24  26
ATOM     26  C   UNL     1       6.248  -0.880   9.034  1.00  0.00     0.060 A 
ATOM     27  C   UNL     1       6.210   0.478   9.368  1.00  0.00     0.016 A 
ATOM     28  C   UNL     1       7.464  -1.565   8.975  1.00  0.00     0.016 A 
ATOM     29  C   UNL     1       7.393   1.159   9.645  1.00  0.00     0.010 A 
ATOM     30  C   UNL     1       8.650  -0.878   9.252  1.00  0.00     0.010 A 
ATOM     31  C   UNL     1       8.622   0.489   9.578  1.00  0.00    -0.014 A 
BRANCH  31  32
ATOM     32  C   UNL     1       9.882   1.232   9.810  1.00  0.00     0.031 A 
ATOM     33  C   UNL     1      10.749   1.615   8.646  1.00  0.00     0.074 A 
ATOM     34  C   UNL     1      10.243   1.569  11.061  1.00  0.00     0.049 A 
ATOM     35  N   UNL     1      11.916   2.207   8.642  1.00  0.00    -0.248 NA
ATOM     36  C   UNL     1      10.235   1.286   7.308  1.00  0.00     0.031 C 
ATOM     37  C   UNL     1       9.468   1.282  12.269  1.00  0.00     0.029 A 
ATOM     38  N   UNL     1      11.357   2.222  11.523  1.00  0.00    -0.354 N 
ATOM     39  C   UNL     1      12.283   2.311   7.307  1.00  0.00     0.074 A 
ATOM     40  C   UNL     1      11.223   1.703   6.529  1.00  0.00     0.031 C 
ATOM     41  C   UNL     1      10.134   1.754  13.336  1.00  0.00     0.029 A 
ATOM     42  C   UNL     1      11.395   2.342  12.890  1.00  0.00     0.049 A 
ATOM     43  H   UNL     1      12.063   2.571  10.931  1.00  0.00     0.167 HD
ATOM     44  C   UNL     1      13.399   2.867   6.779  1.00  0.00     0.037 A 
ATOM     45  C   UNL     1      12.351   2.847  13.693  1.00  0.00     0.037 A 
ATOM     46  C   UNL     1      14.448   3.478   7.554  1.00  0.00     0.049 A 
ATOM     47  C   UNL     1      13.605   3.409  13.085  1.00  0.00     0.074 A 
ATOM     48  C   UNL     1      15.610   4.083   7.107  1.00  0.00     0.029 A 
ATOM     49  N   UNL     1      14.462   3.558   8.938  1.00  0.00    -0.354 N 
ATOM     50  N   UNL     1      13.938   3.510  11.821  1.00  0.00    -0.248 NA
ATOM     51  C   UNL     1      14.620   3.923  14.016  1.00  0.00     0.031 C 
ATOM     52  C   UNL     1      16.345   4.497   8.223  1.00  0.00     0.029 A 
ATOM     53  C   UNL     1      15.622   4.185   9.363  1.00  0.00     0.049 A 
ATOM     54  H   UNL     1      13.753   3.219   9.531  1.00  0.00     0.167 HD
ATOM     55  C   UNL     1      15.187   4.117  11.803  1.00  0.00     0.074 A 
ATOM     56  C   UNL     1      15.548   4.372  13.182  1.00  0.00     0.031 C 
ATOM     57  C   UNL     1      15.965   4.434  10.740  1.00  0.00     0.037 A 
BRANCH  44  58
ATOM     58  C   UNL     1      13.553   2.819   5.289  1.00  0.00     0.057 A 
ATOM     59  C   UNL     1      12.802   3.642   4.441  1.00  0.00     0.134 A 
ATOM     60  C   UNL     1      14.488   1.961   4.697  1.00  0.00     0.134 A 
ATOM     61  F   UNL     1      11.879   4.476   4.945  1.00  0.00    -0.206 F 
ATOM     62  C   UNL     1      12.961   3.600   3.055  1.00  0.00     0.040 A 
ATOM     63  C   UNL     1      14.672   1.925   3.314  1.00  0.00     0.040 A 
ATOM     64  F   UNL     1      15.242   1.149   5.453  1.00  0.00    -0.206 F 
ATOM     65  C   UNL     1      13.904   2.744   2.488  1.00  0.00     0.006 A 
ENDBRANCH  44  58
BRANCH  45  66
ATOM     66  C   UNL     1      12.164   2.831  15.165  1.00  0.00     0.057 A 
ATOM     67  C   UNL     1      11.944   4.013  15.879  1.00  0.00     0.134 A 
ATOM     68  C   UNL     1      12.212   1.635  15.891  1.00  0.00     0.134 A 
ATOM     69  F   UNL     1      11.913   5.192  15.241  1.00  0.00    -0.206 F 
ATOM     70  C   UNL     1      11.788   4.010  17.266  1.00  0.00     0.040 A 
ATOM     71  C   UNL     1      12.035   1.614  17.275  1.00  0.00     0.040 A 
ATOM     72  F   UNL     1      12.421   0.469  15.262  1.00  0.00    -0.206 F 
ATOM     73  C   UNL     1      11.828   2.805  17.967  1.00  0.00     0.006 A 
ENDBRANCH  45  66
BRANCH  57  74
ATOM     74  C   UNL     1      17.269   5.117  11.025  1.00  0.00     0.057 A 
ATOM     75  C   UNL     1      18.366   4.421  11.547  1.00  0.00     0.134 A 
ATOM     76  C   UNL     1      17.438   6.478  10.743  1.00  0.00     0.134 A 
ATOM     77  F   UNL     1      18.263   3.119  11.852  1.00  0.00    -0.206 F 
ATOM     78  C   UNL     1      19.582   5.061  11.796  1.00  0.00     0.040 A 
ATOM     79  C   UNL     1      18.655   7.123  10.966  1.00  0.00     0.040 A 
ATOM     80  F   UNL     1      16.427   7.199  10.235  1.00  0.00    -0.206 F 
ATOM     81  C   UNL     1      19.730   6.415  11.499  1.00  0.00     0.006 A 
ENDBRANCH  57  74
ENDBRANCH  31  32
ENDBRANCH  24  26
ENDBRANCH  23  24
ENDBRANCH  22  23
ENDBRANCH  21  22
ENDBRANCH  20  21
ENDBRANCH   1  20
TORSDOF 17
