REMARK SMILES O=C(C[NH+]1CCC(C(=O)OCCOC(=O)c2ccc(-c3c4nc(c(-c5c(F)cccc5F)c5ccc([nH]5)c(-c5c(F)cccc5F)c5nc(c(-c6c(F)cccc6F)c6ccc3[nH]6)C=C5)C=C4)cc2)CC1)Nc1ccccc1Oc1ccccc1
REMARK SMILES IDX 10 1 8 2 9 3 7 4 4 5 5 6 71 7 6 9 70 10 3 11 2 12 1 13 72 14
REMARK SMILES IDX 73 16 74 17 78 18 75 19 77 20 76 21 79 22 80 23 81 24 85 25
REMARK SMILES IDX 82 26 84 27 83 28 11 29 12 30 13 31 14 32 15 33 16 34 17 35
REMARK SMILES IDX 69 36 18 37 68 38 19 39 20 40 21 41 62 42 22 43 67 44 61 45
REMARK SMILES IDX 63 46 23 47 66 48 60 49 59 50 24 52 50 53 33 54 49 55 34 56
REMARK SMILES IDX 37 57 48 58 64 59 35 60 36 61 47 63 65 64 38 65 25 66 26 67
REMARK SMILES IDX 31 68 27 69 28 70 30 71 32 72 29 73 51 74 52 75 57 76 53 77
REMARK SMILES IDX 54 78 56 79 58 80 55 81 39 82 40 83 45 84 41 85 42 86 44 87
REMARK SMILES IDX 46 88 43 89
REMARK H PARENT 4 8 72 15 63 51 37 62
REMARK Flexibility Score: inf
ROOT
ATOM      1  O   UNL     1       6.542   4.857   2.994  1.00  0.00    -0.462 OA
ENDROOT
BRANCH   1   2
ATOM      2  C   UNL     1       6.280   5.339   1.753  1.00  0.00     0.309 C 
ATOM      3  O   UNL     1       6.562   6.464   1.358  1.00  0.00    -0.252 OA
BRANCH   2   4
ATOM      4  C   UNL     1       5.569   4.329   0.880  1.00  0.00     0.110 C 
ATOM      5  N   UNL     1       3.647   2.205   0.534  1.00  0.00    -0.327 N 
ATOM      6  C   UNL     1       5.075   1.910   0.386  1.00  0.00     0.263 C 
ATOM      7  C   UNL     1       3.334   3.559   0.060  1.00  0.00     0.263 C 
ATOM      8  H   UNL     1       3.430   2.144   1.529  1.00  0.00     0.348 HD
ATOM      9  C   UNL     1       5.889   2.874   1.237  1.00  0.00     0.077 C 
ATOM     10  C   UNL     1       4.070   4.597   0.896  1.00  0.00     0.077 C 
BRANCH   5  11
ATOM     11  C   UNL     1       2.822   1.227  -0.189  1.00  0.00     0.363 C 
BRANCH  11  12
ATOM     12  C   UNL     1       2.038   0.366   0.799  1.00  0.00     0.279 C 
ATOM     13  O   UNL     1       0.872   0.608   1.107  1.00  0.00    -0.268 OA
ATOM     14  N   UNL     1       2.776  -0.699   1.277  1.00  0.00    -0.318 N 
ATOM     15  H   UNL     1       3.755  -0.596   1.317  1.00  0.00     0.170 HD
BRANCH  14  16
ATOM     16  C   UNL     1       2.230  -1.921   1.711  1.00  0.00     0.084 A 
ATOM     17  C   UNL     1       2.890  -2.543   2.782  1.00  0.00     0.030 A 
ATOM     18  C   UNL     1       1.107  -2.550   1.139  1.00  0.00     0.150 A 
ATOM     19  C   UNL     1       2.383  -3.713   3.353  1.00  0.00     0.002 A 
ATOM     20  C   UNL     1       0.606  -3.721   1.727  1.00  0.00     0.049 A 
ATOM     21  C   UNL     1       1.232  -4.295   2.833  1.00  0.00     0.004 A 
BRANCH  18  22
ATOM     22  O   UNL     1       0.366  -2.128   0.056  1.00  0.00    -0.455 OA
BRANCH  22  23
ATOM     23  C   UNL     1       0.965  -1.665  -1.092  1.00  0.00     0.127 A 
ATOM     24  C   UNL     1       0.264  -0.647  -1.750  1.00  0.00     0.047 A 
ATOM     25  C   UNL     1       2.171  -2.126  -1.620  1.00  0.00     0.047 A 
ATOM     26  C   UNL     1       0.798  -0.034  -2.884  1.00  0.00     0.004 A 
ATOM     27  C   UNL     1       2.704  -1.513  -2.761  1.00  0.00     0.004 A 
ATOM     28  C   UNL     1       2.026  -0.460  -3.383  1.00  0.00     0.000 A 
ENDBRANCH  22  23
ENDBRANCH  18  22
ENDBRANCH  14  16
ENDBRANCH  11  12
ENDBRANCH   5  11
ENDBRANCH   2   4
ENDBRANCH   1   2
BRANCH   1  29
ATOM     29  C   UNL     1       7.299   5.712   3.866  1.00  0.00     0.274 C 
BRANCH  29  30
ATOM     30  C   UNL     1       8.780   5.327   3.852  1.00  0.00     0.275 C 
BRANCH  30  31
ATOM     31  O   UNL     1       9.379   5.586   2.567  1.00  0.00    -0.458 OA
BRANCH  31  32
ATOM     32  C   UNL     1       9.514   4.513   1.758  1.00  0.00     0.338 C 
ATOM     33  O   UNL     1       9.232   3.347   2.009  1.00  0.00    -0.246 OA
BRANCH  32  34
ATOM     34  C   UNL     1       9.955   4.948   0.427  1.00  0.00     0.060 A 
ATOM     35  C   UNL     1       9.050   4.859  -0.634  1.00  0.00     0.016 A 
ATOM     36  C   UNL     1      11.270   5.353   0.203  1.00  0.00     0.016 A 
ATOM     37  C   UNL     1       9.448   5.183  -1.927  1.00  0.00     0.010 A 
ATOM     38  C   UNL     1      11.671   5.678  -1.097  1.00  0.00     0.010 A 
ATOM     39  C   UNL     1      10.764   5.589  -2.170  1.00  0.00    -0.014 A 
BRANCH  39  40
ATOM     40  C   UNL     1      11.213   5.866  -3.555  1.00  0.00     0.031 A 
ATOM     41  C   UNL     1      12.127   4.897  -4.245  1.00  0.00     0.074 A 
ATOM     42  C   UNL     1      10.801   6.978  -4.190  1.00  0.00     0.049 A 
ATOM     43  N   UNL     1      12.768   5.027  -5.378  1.00  0.00    -0.248 NA
ATOM     44  C   UNL     1      12.351   3.611  -3.567  1.00  0.00     0.031 C 
ATOM     45  C   UNL     1       9.861   7.961  -3.652  1.00  0.00     0.029 A 
ATOM     46  N   UNL     1      11.135   7.473  -5.425  1.00  0.00    -0.354 N 
ATOM     47  C   UNL     1      13.499   3.857  -5.532  1.00  0.00     0.074 A 
ATOM     48  C   UNL     1      13.222   3.027  -4.378  1.00  0.00     0.031 C 
ATOM     49  C   UNL     1       9.700   8.947  -4.549  1.00  0.00     0.029 A 
ATOM     50  C   UNL     1      10.569   8.695  -5.695  1.00  0.00     0.049 A 
ATOM     51  H   UNL     1      11.723   6.998  -6.057  1.00  0.00     0.167 HD
ATOM     52  C   UNL     1      14.331   3.512  -6.544  1.00  0.00     0.037 A 
ATOM     53  C   UNL     1      10.766   9.536  -6.728  1.00  0.00     0.037 A 
ATOM     54  C   UNL     1      14.583   4.332  -7.699  1.00  0.00     0.049 A 
ATOM     55  C   UNL     1      11.742   9.160  -7.807  1.00  0.00     0.074 A 
ATOM     56  C   UNL     1      15.404   4.069  -8.782  1.00  0.00     0.029 A 
ATOM     57  N   UNL     1      14.011   5.575  -7.923  1.00  0.00    -0.354 N 
ATOM     58  N   UNL     1      12.459   8.069  -7.929  1.00  0.00    -0.248 NA
ATOM     59  C   UNL     1      11.949  10.139  -8.885  1.00  0.00     0.031 C 
ATOM     60  C   UNL     1      15.353   5.168  -9.646  1.00  0.00     0.029 A 
ATOM     61  C   UNL     1      14.473   6.099  -9.119  1.00  0.00     0.049 A 
ATOM     62  H   UNL     1      13.371   6.019  -7.321  1.00  0.00     0.167 HD
ATOM     63  C   UNL     1      13.188   8.222  -9.100  1.00  0.00     0.074 A 
ATOM     64  C   UNL     1      12.819   9.506  -9.660  1.00  0.00     0.031 C 
ATOM     65  C   UNL     1      14.086   7.376  -9.661  1.00  0.00     0.037 A 
BRANCH  52  66
ATOM     66  C   UNL     1      15.059   2.208  -6.423  1.00  0.00     0.057 A 
ATOM     67  C   UNL     1      14.419   0.979  -6.624  1.00  0.00     0.134 A 
ATOM     68  C   UNL     1      16.428   2.186  -6.129  1.00  0.00     0.134 A 
ATOM     69  F   UNL     1      13.106   0.931  -6.892  1.00  0.00    -0.206 F 
ATOM     70  C   UNL     1      15.113  -0.228  -6.518  1.00  0.00     0.040 A 
ATOM     71  C   UNL     1      17.136   0.987  -6.040  1.00  0.00     0.040 A 
ATOM     72  F   UNL     1      17.099   3.330  -5.927  1.00  0.00    -0.206 F 
ATOM     73  C   UNL     1      16.477  -0.225  -6.231  1.00  0.00     0.006 A 
ENDBRANCH  52  66
BRANCH  53  74
ATOM     74  C   UNL     1      10.057  10.838  -6.765  1.00  0.00     0.057 A 
ATOM     75  C   UNL     1       9.044  11.085  -7.697  1.00  0.00     0.134 A 
ATOM     76  C   UNL     1      10.377  11.867  -5.870  1.00  0.00     0.134 A 
ATOM     77  F   UNL     1       8.711  10.147  -8.596  1.00  0.00    -0.206 F 
ATOM     78  C   UNL     1       8.378  12.311  -7.744  1.00  0.00     0.040 A 
ATOM     79  C   UNL     1       9.704  13.089  -5.891  1.00  0.00     0.040 A 
ATOM     80  F   UNL     1      11.341  11.693  -4.954  1.00  0.00    -0.206 F 
ATOM     81  C   UNL     1       8.704  13.315  -6.834  1.00  0.00     0.006 A 
ENDBRANCH  53  74
BRANCH  65  82
ATOM     82  C   UNL     1      14.705   7.798 -10.959  1.00  0.00     0.057 A 
ATOM     83  C   UNL     1      15.713   8.768 -11.013  1.00  0.00     0.134 A 
ATOM     84  C   UNL     1      14.318   7.194 -12.162  1.00  0.00     0.134 A 
ATOM     85  F   UNL     1      16.117   9.391  -9.895  1.00  0.00    -0.206 F 
ATOM     86  C   UNL     1      16.306   9.133 -12.222  1.00  0.00     0.040 A 
ATOM     87  C   UNL     1      14.917   7.537 -13.374  1.00  0.00     0.040 A 
ATOM     88  F   UNL     1      13.361   6.254 -12.175  1.00  0.00    -0.206 F 
ATOM     89  C   UNL     1      15.913   8.512 -13.406  1.00  0.00     0.006 A 
ENDBRANCH  65  82
ENDBRANCH  39  40
ENDBRANCH  32  34
ENDBRANCH  31  32
ENDBRANCH  30  31
ENDBRANCH  29  30
ENDBRANCH   1  29
TORSDOF 16
