REMARK SMILES CC(C)N(c1cc2c(cc1Cl)C=C(C(=O)OCCOC(=O)c1ccc(-c3c4nc(c(-c5c(F)cccc5F)c5ccc([nH]5)c(-c5c(F)cccc5F)c5nc(c(-c6c(F)cccc6F)c6ccc3[nH]6)C=C5)C=C4)cc1)[C@@H](C(F)(F)F)O2)C(C)C
REMARK SMILES IDX 17 1 16 2 14 3 15 4 13 5 5 6 6 7 10 8 7 9 9 10 11 11 8 12
REMARK SMILES IDX 81 13 12 14 76 15 4 16 2 17 1 18 3 19 82 20 83 21 84 22
REMARK SMILES IDX 77 23 78 24 79 25 80 26 18 27 19 28 20 29 21 30 22 31 23 32
REMARK SMILES IDX 75 33 24 34 74 35 25 36 26 37 27 38 68 39 28 40 73 41 67 42
REMARK SMILES IDX 69 43 29 44 72 45 66 46 65 47 30 49 56 50 39 51 55 52 40 53
REMARK SMILES IDX 43 54 54 55 70 56 41 57 42 58 53 60 71 61 44 62 31 63 32 64
REMARK SMILES IDX 37 65 33 66 34 67 36 68 38 69 35 70 57 71 58 72 63 73 59 74
REMARK SMILES IDX 60 75 62 76 64 77 61 78 45 79 46 80 51 81 47 82 48 83 50 84
REMARK SMILES IDX 52 85 49 86
REMARK H PARENT 69 48 43 59
REMARK Flexibility Score: inf
ROOT
ATOM      1  C   UNL     1      -7.299  -7.943   1.563  1.00  0.00     0.275 C 
ENDROOT
BRANCH   1   2
ATOM      2  O   UNL     1      -6.456  -6.829   1.193  1.00  0.00    -0.459 OA
BRANCH   2   3
ATOM      3  C   UNL     1      -6.151  -5.974   2.197  1.00  0.00     0.338 C 
ATOM      4  O   UNL     1      -6.516  -6.060   3.360  1.00  0.00    -0.246 OA
BRANCH   3   5
ATOM      5  C   UNL     1      -5.236  -4.918   1.726  1.00  0.00     0.087 C 
ATOM      6  C   UNL     1      -1.739  -1.266   1.593  1.00  0.00     0.060 A 
ATOM      7  C   UNL     1      -2.764  -1.702   0.715  1.00  0.00     0.074 A 
ATOM      8  C   UNL     1      -1.531  -2.032   2.762  1.00  0.00     0.065 A 
ATOM      9  C   UNL     1      -3.574  -2.805   1.005  1.00  0.00     0.130 A 
ATOM     10  C   UNL     1      -2.308  -3.160   3.028  1.00  0.00     0.034 A 
ATOM     11  Cl  UNL     1      -0.415  -1.601   4.015  1.00  0.00    -0.082 Cl
ATOM     12  C   UNL     1      -3.340  -3.524   2.166  1.00  0.00     0.019 A 
ATOM     13  O   UNL     1      -4.564  -3.122   0.115  1.00  0.00    -0.475 OA
ATOM     14  C   UNL     1      -4.200  -4.628   2.518  1.00  0.00     0.027 C 
ATOM     15  C   UNL     1      -5.567  -4.117   0.498  1.00  0.00     0.316 C 
BRANCH   6  16
ATOM     16  N   UNL     1      -1.017  -0.095   1.284  1.00  0.00    -0.365 N 
BRANCH  16  17
ATOM     17  C   UNL     1       0.460  -0.189   1.245  1.00  0.00     0.076 C 
ATOM     18  C   UNL     1       1.020  -0.091  -0.173  1.00  0.00     0.030 C 
ATOM     19  C   UNL     1       1.165   0.798   2.172  1.00  0.00     0.030 C 
ENDBRANCH  16  17
BRANCH  16  20
ATOM     20  C   UNL     1      -1.828   1.105   0.979  1.00  0.00     0.076 C 
ATOM     21  C   UNL     1      -1.617   2.238   1.979  1.00  0.00     0.030 C 
ATOM     22  C   UNL     1      -1.668   1.587  -0.458  1.00  0.00     0.030 C 
ENDBRANCH  16  20
ENDBRANCH   6  16
BRANCH  15  23
ATOM     23  C   UNL     1      -6.930  -3.422   0.658  1.00  0.00     0.430 C 
ATOM     24  F   UNL     1      -7.240  -2.675  -0.427  1.00  0.00    -0.167 F 
ATOM     25  F   UNL     1      -7.931  -4.324   0.806  1.00  0.00    -0.167 F 
ATOM     26  F   UNL     1      -6.963  -2.606   1.737  1.00  0.00    -0.167 F 
ENDBRANCH  15  23
ENDBRANCH   3   5
ENDBRANCH   2   3
ENDBRANCH   1   2
BRANCH   1  27
ATOM     27  C   UNL     1      -6.493  -9.235   1.706  1.00  0.00     0.275 C 
BRANCH  27  28
ATOM     28  O   UNL     1      -5.615  -9.157   2.844  1.00  0.00    -0.458 OA
BRANCH  28  29
ATOM     29  C   UNL     1      -4.295  -9.096   2.561  1.00  0.00     0.338 C 
ATOM     30  O   UNL     1      -3.764  -9.124   1.465  1.00  0.00    -0.246 OA
BRANCH  29  31
ATOM     31  C   UNL     1      -3.534  -8.892   3.804  1.00  0.00     0.060 A 
ATOM     32  C   UNL     1      -2.659  -9.855   4.289  1.00  0.00     0.016 A 
ATOM     33  C   UNL     1      -3.586  -7.639   4.401  1.00  0.00     0.016 A 
ATOM     34  C   UNL     1      -1.849  -9.546   5.391  1.00  0.00     0.010 A 
ATOM     35  C   UNL     1      -2.672  -7.283   5.388  1.00  0.00     0.010 A 
ATOM     36  C   UNL     1      -1.813  -8.243   5.931  1.00  0.00    -0.014 A 
BRANCH  36  37
ATOM     37  C   UNL     1      -0.898  -7.891   7.059  1.00  0.00     0.031 A 
ATOM     38  C   UNL     1      -1.427  -7.275   8.337  1.00  0.00     0.074 A 
ATOM     39  C   UNL     1       0.430  -8.091   6.931  1.00  0.00     0.049 A 
ATOM     40  N   UNL     1      -0.777  -6.945   9.428  1.00  0.00    -0.248 NA
ATOM     41  C   UNL     1      -2.859  -6.941   8.383  1.00  0.00     0.031 C 
ATOM     42  C   UNL     1       1.105  -8.568   5.721  1.00  0.00     0.029 A 
ATOM     43  N   UNL     1       1.452  -7.941   7.837  1.00  0.00    -0.354 N 
ATOM     44  C   UNL     1      -1.713  -6.345  10.264  1.00  0.00     0.074 A 
ATOM     45  C   UNL     1      -2.953  -6.280   9.526  1.00  0.00     0.031 C 
ATOM     46  C   UNL     1       2.407  -8.755   5.986  1.00  0.00     0.029 A 
ATOM     47  C   UNL     1       2.669  -8.378   7.370  1.00  0.00     0.049 A 
ATOM     48  H   UNL     1       1.324  -7.557   8.735  1.00  0.00     0.167 HD
ATOM     49  C   UNL     1      -1.577  -5.927  11.546  1.00  0.00     0.037 A 
ATOM     50  C   UNL     1       3.857  -8.490   7.995  1.00  0.00     0.037 A 
ATOM     51  C   UNL     1      -0.364  -6.045  12.310  1.00  0.00     0.049 A 
ATOM     52  C   UNL     1       3.973  -8.087   9.437  1.00  0.00     0.074 A 
ATOM     53  C   UNL     1      -0.145  -5.737  13.642  1.00  0.00     0.029 A 
ATOM     54  N   UNL     1       0.837  -6.519  11.807  1.00  0.00    -0.354 N 
ATOM     55  N   UNL     1       3.052  -7.615  10.242  1.00  0.00    -0.248 NA
ATOM     56  C   UNL     1       5.296  -8.238  10.059  1.00  0.00     0.031 C 
ATOM     57  C   UNL     1       1.197  -6.003  13.938  1.00  0.00     0.029 A 
ATOM     58  C   UNL     1       1.804  -6.505  12.798  1.00  0.00     0.049 A 
ATOM     59  H   UNL     1       0.982  -6.821  10.881  1.00  0.00     0.167 HD
ATOM     60  C   UNL     1       3.678  -7.432  11.467  1.00  0.00     0.074 A 
ATOM     61  C   UNL     1       5.051  -7.865  11.307  1.00  0.00     0.031 C 
ATOM     62  C   UNL     1       3.164  -6.943  12.622  1.00  0.00     0.037 A 
BRANCH  49  63
ATOM     63  C   UNL     1      -2.790  -5.336  12.210  1.00  0.00     0.057 A 
ATOM     64  C   UNL     1      -2.842  -3.975  12.538  1.00  0.00     0.134 A 
ATOM     65  C   UNL     1      -3.910  -6.118  12.529  1.00  0.00     0.134 A 
ATOM     66  F   UNL     1      -1.803  -3.170  12.275  1.00  0.00    -0.206 F 
ATOM     67  C   UNL     1      -3.969  -3.413  13.143  1.00  0.00     0.040 A 
ATOM     68  C   UNL     1      -5.053  -5.561  13.105  1.00  0.00     0.040 A 
ATOM     69  F   UNL     1      -3.930  -7.427  12.234  1.00  0.00    -0.206 F 
ATOM     70  C   UNL     1      -5.083  -4.204  13.416  1.00  0.00     0.006 A 
ENDBRANCH  49  63
BRANCH  50  71
ATOM     71  C   UNL     1       5.019  -9.079   7.282  1.00  0.00     0.057 A 
ATOM     72  C   UNL     1       5.691  -8.389   6.269  1.00  0.00     0.134 A 
ATOM     73  C   UNL     1       5.486 -10.358   7.614  1.00  0.00     0.134 A 
ATOM     74  F   UNL     1       5.288  -7.164   5.901  1.00  0.00    -0.206 F 
ATOM     75  C   UNL     1       6.786  -8.949   5.608  1.00  0.00     0.040 A 
ATOM     76  C   UNL     1       6.593 -10.920   6.977  1.00  0.00     0.040 A 
ATOM     77  F   UNL     1       4.892 -11.061   8.588  1.00  0.00    -0.206 F 
ATOM     78  C   UNL     1       7.244 -10.216   5.967  1.00  0.00     0.006 A 
ENDBRANCH  50  71
BRANCH  62  79
ATOM     79  C   UNL     1       4.086  -6.874  13.802  1.00  0.00     0.057 A 
ATOM     80  C   UNL     1       3.943  -7.763  14.873  1.00  0.00     0.134 A 
ATOM     81  C   UNL     1       5.104  -5.916  13.884  1.00  0.00     0.134 A 
ATOM     82  F   UNL     1       2.983  -8.701  14.858  1.00  0.00    -0.206 F 
ATOM     83  C   UNL     1       4.783  -7.704  15.986  1.00  0.00     0.040 A 
ATOM     84  C   UNL     1       5.965  -5.861  14.981  1.00  0.00     0.040 A 
ATOM     85  F   UNL     1       5.301  -5.045  12.883  1.00  0.00    -0.206 F 
ATOM     86  C   UNL     1       5.802  -6.755  16.039  1.00  0.00     0.006 A 
ENDBRANCH  62  79
ENDBRANCH  36  37
ENDBRANCH  29  31
ENDBRANCH  28  29
ENDBRANCH  27  28
ENDBRANCH   1  27
TORSDOF 15
