REMARK SMILES C/C(=N/N=c1\[nH]c(O)c(C(=O)OCCOC(=O)c2ccc(-c3c4nc(c(-c5c(F)cccc5F)c5ccc([nH]5)c(-c5c(F)cccc5F)c5nc(c(-c6c(F)cccc6F)c6ccc3[nH]6)C=C5)C=C4)cc2)s1)c1ccc2c(c1)OCO2
REMARK SMILES IDX 13 1 12 2 10 3 11 4 9 5 4 6 5 7 6 8 72 9 7 10 3 12 1 13 2 14
REMARK SMILES IDX 73 15 74 16 78 17 75 18 77 19 76 20 79 21 81 22 80 23 8 24
REMARK SMILES IDX 14 26 15 27 16 28 17 29 18 30 19 31 71 32 20 33 70 34 21 35
REMARK SMILES IDX 22 36 23 37 64 38 24 39 69 40 63 41 65 42 25 43 68 44 62 45
REMARK SMILES IDX 61 46 26 48 52 49 35 50 51 51 36 52 39 53 50 54 66 55 37 56
REMARK SMILES IDX 38 57 49 59 67 60 40 61 27 62 28 63 33 64 29 65 30 66 32 67
REMARK SMILES IDX 34 68 31 69 53 70 54 71 59 72 55 73 56 74 58 75 60 76 57 77
REMARK SMILES IDX 41 78 42 79 47 80 43 81 44 82 46 83 48 84 45 85
REMARK H PARENT 6 11 8 25 65 47 39 58
REMARK Flexibility Score: inf
ROOT
ATOM      1  C   UNL     1      -4.578  -3.740  -8.042  1.00  0.00     0.275 C 
ENDROOT
BRANCH   1   2
ATOM      2  O   UNL     1      -4.003  -3.108  -6.890  1.00  0.00    -0.458 OA
BRANCH   2   3
ATOM      3  C   UNL     1      -4.318  -3.630  -5.673  1.00  0.00     0.354 C 
ATOM      4  O   UNL     1      -5.200  -4.457  -5.472  1.00  0.00    -0.245 OA
BRANCH   3   5
ATOM      5  C   UNL     1      -3.388  -3.125  -4.644  1.00  0.00     0.176 A 
ATOM      6  N   UNL     1      -0.889  -0.934  -2.909  1.00  0.00    -0.121 NA
ATOM      7  C   UNL     1      -1.695  -1.845  -3.319  1.00  0.00     0.211 A 
ATOM      8  N   UNL     1      -2.223  -2.944  -2.696  1.00  0.00    -0.300 N 
ATOM      9  S   UNL     1      -2.364  -1.728  -4.954  1.00  0.00    -0.084 S 
ATOM     10  C   UNL     1      -3.147  -3.646  -3.424  1.00  0.00     0.216 A 
ATOM     11  H   UNL     1      -1.957  -3.211  -1.787  1.00  0.00     0.172 HD
BRANCH   6  12
ATOM     12  N   UNL     1      -0.566  -1.043  -1.561  1.00  0.00    -0.152 NA
ATOM     13  C   UNL     1       0.717  -0.095   0.260  1.00  0.00     0.069 C 
ATOM     14  C   UNL     1       0.342  -0.183  -1.200  1.00  0.00     0.067 C 
BRANCH  14  15
ATOM     15  C   UNL     1       1.029   0.778  -2.098  1.00  0.00     0.001 A 
ATOM     16  C   UNL     1       0.292   1.790  -2.750  1.00  0.00     0.014 A 
ATOM     17  C   UNL     1       2.419   0.701  -2.219  1.00  0.00     0.060 A 
ATOM     18  C   UNL     1       0.952   2.763  -3.507  1.00  0.00     0.051 A 
ATOM     19  C   UNL     1       3.038   1.696  -2.938  1.00  0.00     0.166 A 
ATOM     20  C   UNL     1       2.328   2.703  -3.555  1.00  0.00     0.165 A 
ATOM     21  O   UNL     1       4.382   1.844  -3.087  1.00  0.00    -0.454 OA
ATOM     22  O   UNL     1       3.146   3.609  -4.158  1.00  0.00    -0.454 OA
ATOM     23  C   UNL     1       4.429   3.160  -3.673  1.00  0.00     0.468 C 
ENDBRANCH  14  15
ENDBRANCH   6  12
BRANCH  10  24
ATOM     24  O   UNL     1      -3.720  -4.767  -2.904  1.00  0.00    -0.493 OA
ATOM     25  H   UNL     1      -3.490  -5.055  -2.043  1.00  0.00     0.295 HD
ENDBRANCH  10  24
ENDBRANCH   3   5
ENDBRANCH   2   3
ENDBRANCH   1   2
BRANCH   1  26
ATOM     26  C   UNL     1      -3.679  -4.863  -8.540  1.00  0.00     0.275 C 
BRANCH  26  27
ATOM     27  O   UNL     1      -3.732  -5.980  -7.654  1.00  0.00    -0.458 OA
BRANCH  27  28
ATOM     28  C   UNL     1      -2.773  -6.021  -6.703  1.00  0.00     0.338 C 
ATOM     29  O   UNL     1      -1.977  -5.145  -6.414  1.00  0.00    -0.246 OA
BRANCH  28  30
ATOM     30  C   UNL     1      -2.680  -7.389  -6.184  1.00  0.00     0.060 A 
ATOM     31  C   UNL     1      -1.715  -7.634  -5.202  1.00  0.00     0.016 A 
ATOM     32  C   UNL     1      -3.320  -8.430  -6.871  1.00  0.00     0.016 A 
ATOM     33  C   UNL     1      -1.244  -8.920  -5.049  1.00  0.00     0.010 A 
ATOM     34  C   UNL     1      -2.842  -9.708  -6.728  1.00  0.00     0.010 A 
ATOM     35  C   UNL     1      -1.755  -9.919  -5.881  1.00  0.00    -0.014 A 
BRANCH  35  36
ATOM     36  C   UNL     1      -1.146 -11.230  -5.837  1.00  0.00     0.031 A 
ATOM     37  C   UNL     1      -1.482 -12.019  -4.630  1.00  0.00     0.074 A 
ATOM     38  C   UNL     1      -0.482 -11.717  -6.902  1.00  0.00     0.049 A 
ATOM     39  N   UNL     1      -0.673 -12.566  -3.784  1.00  0.00    -0.248 NA
ATOM     40  C   UNL     1      -2.903 -12.116  -4.254  1.00  0.00     0.031 C 
ATOM     41  C   UNL     1      -0.351 -11.120  -8.236  1.00  0.00     0.029 A 
ATOM     42  N   UNL     1       0.107 -12.930  -7.054  1.00  0.00    -0.354 N 
ATOM     43  C   UNL     1      -1.481 -13.225  -2.863  1.00  0.00     0.074 A 
ATOM     44  C   UNL     1      -2.831 -12.796  -3.111  1.00  0.00     0.031 C 
ATOM     45  C   UNL     1       0.057 -12.070  -9.106  1.00  0.00     0.029 A 
ATOM     46  C   UNL     1       0.311 -13.300  -8.374  1.00  0.00     0.049 A 
ATOM     47  H   UNL     1       0.366 -13.498  -6.292  1.00  0.00     0.167 HD
ATOM     48  C   UNL     1      -1.005 -14.244  -2.100  1.00  0.00     0.037 A 
ATOM     49  C   UNL     1       0.568 -14.554  -8.821  1.00  0.00     0.037 A 
ATOM     50  C   UNL     1       0.431 -14.228  -2.032  1.00  0.00     0.049 A 
ATOM     51  C   UNL     1       1.027 -15.357  -7.655  1.00  0.00     0.074 A 
ATOM     52  C   UNL     1       1.362 -13.309  -1.585  1.00  0.00     0.029 A 
ATOM     53  N   UNL     1       1.130 -15.123  -2.804  1.00  0.00    -0.354 N 
ATOM     54  N   UNL     1       2.171 -15.180  -7.054  1.00  0.00    -0.248 NA
ATOM     55  C   UNL     1       0.015 -16.050  -6.867  1.00  0.00     0.031 C 
ATOM     56  C   UNL     1       2.451 -13.415  -2.496  1.00  0.00     0.029 A 
ATOM     57  C   UNL     1       2.140 -14.422  -3.411  1.00  0.00     0.049 A 
ATOM     58  H   UNL     1       0.941 -16.085  -2.903  1.00  0.00     0.167 HD
ATOM     59  C   UNL     1       1.895 -15.344  -5.704  1.00  0.00     0.074 A 
ATOM     60  C   UNL     1       0.576 -15.971  -5.657  1.00  0.00     0.031 C 
ATOM     61  C   UNL     1       2.619 -14.693  -4.746  1.00  0.00     0.037 A 
BRANCH  48  62
ATOM     62  C   UNL     1      -1.824 -15.444  -1.709  1.00  0.00     0.057 A 
ATOM     63  C   UNL     1      -1.307 -16.354  -0.772  1.00  0.00     0.134 A 
ATOM     64  C   UNL     1      -2.956 -15.890  -2.422  1.00  0.00     0.134 A 
ATOM     65  F   UNL     1      -0.222 -16.051  -0.044  1.00  0.00    -0.206 F 
ATOM     66  C   UNL     1      -1.835 -17.640  -0.611  1.00  0.00     0.040 A 
ATOM     67  C   UNL     1      -3.523 -17.151  -2.230  1.00  0.00     0.040 A 
ATOM     68  F   UNL     1      -3.510 -15.176  -3.410  1.00  0.00    -0.206 F 
ATOM     69  C   UNL     1      -2.942 -18.045  -1.346  1.00  0.00     0.006 A 
ENDBRANCH  48  62
BRANCH  49  70
ATOM     70  C   UNL     1       0.162 -15.162 -10.110  1.00  0.00     0.057 A 
ATOM     71  C   UNL     1       0.729 -16.362 -10.559  1.00  0.00     0.134 A 
ATOM     72  C   UNL     1      -0.960 -14.709 -10.832  1.00  0.00     0.134 A 
ATOM     73  F   UNL     1       1.770 -16.907  -9.912  1.00  0.00    -0.206 F 
ATOM     74  C   UNL     1       0.208 -17.072 -11.651  1.00  0.00     0.040 A 
ATOM     75  C   UNL     1      -1.479 -15.398 -11.932  1.00  0.00     0.040 A 
ATOM     76  F   UNL     1      -1.647 -13.624 -10.446  1.00  0.00    -0.206 F 
ATOM     77  C   UNL     1      -0.902 -16.593 -12.338  1.00  0.00     0.006 A 
ENDBRANCH  49  70
BRANCH  61  78
ATOM     78  C   UNL     1       3.864 -13.966  -5.173  1.00  0.00     0.057 A 
ATOM     79  C   UNL     1       3.861 -12.874  -6.055  1.00  0.00     0.134 A 
ATOM     80  C   UNL     1       5.076 -14.263  -4.544  1.00  0.00     0.134 A 
ATOM     81  F   UNL     1       2.727 -12.441  -6.617  1.00  0.00    -0.206 F 
ATOM     82  C   UNL     1       5.019 -12.144  -6.334  1.00  0.00     0.040 A 
ATOM     83  C   UNL     1       6.234 -13.519  -4.786  1.00  0.00     0.040 A 
ATOM     84  F   UNL     1       5.144 -15.251  -3.637  1.00  0.00    -0.206 F 
ATOM     85  C   UNL     1       6.210 -12.462  -5.693  1.00  0.00     0.006 A 
ENDBRANCH  61  78
ENDBRANCH  35  36
ENDBRANCH  28  30
ENDBRANCH  27  28
ENDBRANCH  26  27
ENDBRANCH   1  26
TORSDOF 14
