REMARK SMILES [NH3+][C@]1(C(=O)OCCOC(=O)c2ccc(-c3c4nc(c(-c5c(F)cccc5F)c5ccc([nH]5)c(-c5c(F)cccc5F)c5nc(c(-c6c(F)cccc6F)c6ccc3[nH]6)C=C5)C=C4)cc2)CC[C@@H]([NH+]2CCC(C(F)(F)F)CC2)C1
REMARK SMILES IDX 6 1 5 2 3 3 4 4 2 5 65 6 78 7 66 8 67 9 1 10 68 14 69 15
REMARK SMILES IDX 77 16 70 18 76 19 71 20 72 21 73 22 74 23 75 24 7 25 8 26
REMARK SMILES IDX 9 27 10 28 11 29 12 30 64 31 13 32 63 33 14 34 15 35 16 36
REMARK SMILES IDX 57 37 17 38 62 39 56 40 58 41 18 42 61 43 55 44 54 45 19 47
REMARK SMILES IDX 45 48 28 49 44 50 29 51 32 52 43 53 59 54 30 55 31 56 42 58
REMARK SMILES IDX 60 59 33 60 20 61 21 62 26 63 22 64 23 65 25 66 27 67 24 68
REMARK SMILES IDX 46 69 47 70 52 71 48 72 49 73 51 74 53 75 50 76 34 77 35 78
REMARK SMILES IDX 40 79 36 80 37 81 39 82 41 83 38 84
REMARK H PARENT 1 11 1 12 1 13 68 17 58 46 32 57
REMARK Flexibility Score: inf
ROOT
ATOM      1  C   UNL     1       1.048   2.244   0.516  1.00  0.00     0.274 C 
ENDROOT
BRANCH   1   2
ATOM      2  O   UNL     1       0.847   0.931   1.075  1.00  0.00    -0.457 OA
BRANCH   2   3
ATOM      3  C   UNL     1       0.100   0.064   0.338  1.00  0.00     0.368 C 
ATOM      4  O   UNL     1      -0.399   0.323  -0.753  1.00  0.00    -0.245 OA
BRANCH   3   5
ATOM      5  C   UNL     1      -0.123  -1.288   1.055  1.00  0.00     0.198 C 
ATOM      6  C   UNL     1       0.041  -2.440   0.052  1.00  0.00     0.087 C 
ATOM      7  C   UNL     1       0.936  -1.631   2.114  1.00  0.00     0.145 C 
ATOM      8  C   UNL     1       0.281  -3.676   0.901  1.00  0.00     0.072 C 
ATOM      9  C   UNL     1       1.095  -3.170   2.105  1.00  0.00     0.191 C 
BRANCH   5  10
ATOM     10  N   UNL     1      -1.484  -1.292   1.640  1.00  0.00    -0.343 N 
ATOM     11  H   UNL     1      -1.646  -2.179   2.117  1.00  0.00     0.345 HD
ATOM     12  H   UNL     1      -2.173  -1.175   0.898  1.00  0.00     0.345 HD
ATOM     13  H   UNL     1      -1.569  -0.526   2.308  1.00  0.00     0.345 HD
ENDBRANCH   5  10
BRANCH   9  14
ATOM     14  N   UNL     1       2.483  -3.676   2.136  1.00  0.00    -0.332 N 
ATOM     15  C   UNL     1       3.316  -3.278   0.992  1.00  0.00     0.263 C 
ATOM     16  C   UNL     1       3.128  -3.356   3.418  1.00  0.00     0.263 C 
ATOM     17  H   UNL     1       2.402  -4.689   2.048  1.00  0.00     0.348 HD
ATOM     18  C   UNL     1       4.696  -3.937   1.047  1.00  0.00     0.074 C 
ATOM     19  C   UNL     1       4.497  -4.023   3.536  1.00  0.00     0.074 C 
ATOM     20  C   UNL     1       5.402  -3.623   2.368  1.00  0.00     0.106 C 
BRANCH  20  21
ATOM     21  C   UNL     1       6.745  -4.320   2.453  1.00  0.00     0.392 C 
ATOM     22  F   UNL     1       7.553  -3.937   1.438  1.00  0.00    -0.171 F 
ATOM     23  F   UNL     1       7.377  -4.011   3.608  1.00  0.00    -0.171 F 
ATOM     24  F   UNL     1       6.624  -5.662   2.397  1.00  0.00    -0.171 F 
ENDBRANCH  20  21
ENDBRANCH   9  14
ENDBRANCH   3   5
ENDBRANCH   2   3
ENDBRANCH   1   2
BRANCH   1  25
ATOM     25  C   UNL     1       2.441   2.361  -0.095  1.00  0.00     0.275 C 
BRANCH  25  26
ATOM     26  O   UNL     1       2.544   1.486  -1.232  1.00  0.00    -0.458 OA
BRANCH  26  27
ATOM     27  C   UNL     1       3.536   0.571  -1.185  1.00  0.00     0.338 C 
ATOM     28  O   UNL     1       4.371   0.415  -0.311  1.00  0.00    -0.246 OA
BRANCH  27  29
ATOM     29  C   UNL     1       3.478  -0.281  -2.384  1.00  0.00     0.060 A 
ATOM     30  C   UNL     1       2.336  -1.036  -2.644  1.00  0.00     0.016 A 
ATOM     31  C   UNL     1       4.615  -0.430  -3.174  1.00  0.00     0.016 A 
ATOM     32  C   UNL     1       2.365  -2.026  -3.625  1.00  0.00     0.010 A 
ATOM     33  C   UNL     1       4.605  -1.350  -4.226  1.00  0.00     0.010 A 
ATOM     34  C   UNL     1       3.497  -2.191  -4.436  1.00  0.00    -0.014 A 
BRANCH  34  35
ATOM     35  C   UNL     1       3.559  -3.264  -5.467  1.00  0.00     0.031 A 
ATOM     36  C   UNL     1       4.654  -4.298  -5.408  1.00  0.00     0.074 A 
ATOM     37  C   UNL     1       2.656  -3.322  -6.465  1.00  0.00     0.049 A 
ATOM     38  N   UNL     1       5.041  -5.150  -6.323  1.00  0.00    -0.248 NA
ATOM     39  C   UNL     1       5.429  -4.368  -4.158  1.00  0.00     0.031 C 
ATOM     40  C   UNL     1       1.509  -2.429  -6.630  1.00  0.00     0.029 A 
ATOM     41  N   UNL     1       2.565  -4.178  -7.536  1.00  0.00    -0.354 N 
ATOM     42  C   UNL     1       6.145  -5.803  -5.790  1.00  0.00     0.074 A 
ATOM     43  C   UNL     1       6.358  -5.261  -4.465  1.00  0.00     0.031 C 
ATOM     44  C   UNL     1       0.813  -2.801  -7.715  1.00  0.00     0.029 A 
ATOM     45  C   UNL     1       1.510  -3.902  -8.371  1.00  0.00     0.049 A 
ATOM     46  H   UNL     1       3.196  -4.917  -7.690  1.00  0.00     0.167 HD
ATOM     47  C   UNL     1       6.917  -6.759  -6.359  1.00  0.00     0.037 A 
ATOM     48  C   UNL     1       1.164  -4.441  -9.555  1.00  0.00     0.037 A 
ATOM     49  C   UNL     1       6.665  -7.349  -7.648  1.00  0.00     0.049 A 
ATOM     50  C   UNL     1       2.028  -5.506 -10.165  1.00  0.00     0.074 A 
ATOM     51  C   UNL     1       7.392  -8.324  -8.310  1.00  0.00     0.029 A 
ATOM     52  N   UNL     1       5.584  -7.038  -8.456  1.00  0.00    -0.354 N 
ATOM     53  N   UNL     1       3.126  -6.046  -9.697  1.00  0.00    -0.248 NA
ATOM     54  C   UNL     1       1.621  -6.016 -11.482  1.00  0.00     0.031 C 
ATOM     55  C   UNL     1       6.755  -8.594  -9.527  1.00  0.00     0.029 A 
ATOM     56  C   UNL     1       5.620  -7.805  -9.608  1.00  0.00     0.049 A 
ATOM     57  H   UNL     1       4.892  -6.370  -8.243  1.00  0.00     0.167 HD
ATOM     58  C   UNL     1       3.541  -6.957 -10.658  1.00  0.00     0.074 A 
ATOM     59  C   UNL     1       2.566  -6.913 -11.728  1.00  0.00     0.031 C 
ATOM     60  C   UNL     1       4.637  -7.752 -10.658  1.00  0.00     0.037 A 
BRANCH  47  61
ATOM     61  C   UNL     1       8.133  -7.204  -5.604  1.00  0.00     0.057 A 
ATOM     62  C   UNL     1       8.053  -8.069  -4.508  1.00  0.00     0.134 A 
ATOM     63  C   UNL     1       9.406  -6.779  -6.005  1.00  0.00     0.134 A 
ATOM     64  F   UNL     1       6.861  -8.498  -4.066  1.00  0.00    -0.206 F 
ATOM     65  C   UNL     1       9.198  -8.483  -3.823  1.00  0.00     0.040 A 
ATOM     66  C   UNL     1      10.559  -7.201  -5.341  1.00  0.00     0.040 A 
ATOM     67  F   UNL     1       9.550  -5.951  -7.051  1.00  0.00    -0.206 F 
ATOM     68  C   UNL     1      10.456  -8.053  -4.244  1.00  0.00     0.006 A 
ENDBRANCH  47  61
BRANCH  48  69
ATOM     69  C   UNL     1      -0.041  -3.946 -10.263  1.00  0.00     0.057 A 
ATOM     70  C   UNL     1      -1.201  -4.724 -10.339  1.00  0.00     0.134 A 
ATOM     71  C   UNL     1      -0.066  -2.682 -10.864  1.00  0.00     0.134 A 
ATOM     72  F   UNL     1      -1.226  -5.953  -9.802  1.00  0.00    -0.206 F 
ATOM     73  C   UNL     1      -2.346  -4.263 -10.991  1.00  0.00     0.040 A 
ATOM     74  C   UNL     1      -1.211  -2.200 -11.499  1.00  0.00     0.040 A 
ATOM     75  F   UNL     1       1.015  -1.891 -10.821  1.00  0.00    -0.206 F 
ATOM     76  C   UNL     1      -2.354  -2.993 -11.566  1.00  0.00     0.006 A 
ENDBRANCH  48  69
BRANCH  60  77
ATOM     77  C   UNL     1       4.825  -8.651 -11.840  1.00  0.00     0.057 A 
ATOM     78  C   UNL     1       5.327  -8.168 -13.054  1.00  0.00     0.134 A 
ATOM     79  C   UNL     1       4.529 -10.016 -11.753  1.00  0.00     0.134 A 
ATOM     80  F   UNL     1       5.616  -6.866 -13.200  1.00  0.00    -0.206 F 
ATOM     81  C   UNL     1       5.518  -9.012 -14.148  1.00  0.00     0.040 A 
ATOM     82  C   UNL     1       4.730 -10.873 -12.835  1.00  0.00     0.040 A 
ATOM     83  F   UNL     1       4.047 -10.537 -10.614  1.00  0.00    -0.206 F 
ATOM     84  C   UNL     1       5.223 -10.371 -14.038  1.00  0.00     0.006 A 
ENDBRANCH  60  77
ENDBRANCH  34  35
ENDBRANCH  27  29
ENDBRANCH  26  27
ENDBRANCH  25  26
ENDBRANCH   1  25
TORSDOF 14
