REMARK SMILES C[C@H](CC(=O)OCCOC(=O)c1ccc(-c2c3nc(c(-c4c(F)cccc4F)c4ccc([nH]4)c(-c4c(F)cccc4F)c4nc(c(-c5c(F)cccc5F)c5ccc2[nH]5)C=C4)C=C3)cc1)c1ccc(O)cc1
REMARK SMILES IDX 7 1 6 2 4 3 5 4 3 5 2 6 1 7 66 8 67 9 72 10 68 11 71 12
REMARK SMILES IDX 69 13 70 14 8 16 9 17 10 18 11 19 12 20 13 21 65 22 14 23
REMARK SMILES IDX 64 24 15 25 16 26 17 27 58 28 18 29 63 30 57 31 59 32 19 33
REMARK SMILES IDX 62 34 56 35 55 36 20 38 46 39 29 40 45 41 30 42 33 43 44 44
REMARK SMILES IDX 60 45 31 46 32 47 43 49 61 50 34 51 21 52 22 53 27 54 23 55
REMARK SMILES IDX 24 56 26 57 28 58 25 59 47 60 48 61 53 62 49 63 50 64 52 65
REMARK SMILES IDX 54 66 51 67 35 68 36 69 41 70 37 71 38 72 40 73 42 74 39 75
REMARK H PARENT 70 15 59 37 33 48
REMARK Flexibility Score: inf
ROOT
ATOM      1  C   UNL     1      -1.729  -0.705   2.180  1.00  0.00     0.274 C 
ENDROOT
BRANCH   1   2
ATOM      2  O   UNL     1      -1.129  -0.171   0.986  1.00  0.00    -0.462 OA
BRANCH   2   3
ATOM      3  C   UNL     1       0.187   0.138   1.011  1.00  0.00     0.306 C 
ATOM      4  O   UNL     1       0.911   0.024   1.993  1.00  0.00    -0.252 OA
BRANCH   3   5
ATOM      5  C   UNL     1       0.666   0.775  -0.281  1.00  0.00     0.130 C 
BRANCH   5   6
ATOM      6  C   UNL     1       0.273   0.121  -1.627  1.00  0.00     0.027 C 
ATOM      7  C   UNL     1       1.110  -1.135  -1.901  1.00  0.00     0.013 C 
BRANCH   6   8
ATOM      8  C   UNL     1      -1.230  -0.047  -1.788  1.00  0.00    -0.044 A 
ATOM      9  C   UNL     1      -2.045   1.100  -1.760  1.00  0.00     0.008 A 
ATOM     10  C   UNL     1      -1.853  -1.303  -1.857  1.00  0.00     0.008 A 
ATOM     11  C   UNL     1      -3.435   0.989  -1.723  1.00  0.00     0.046 A 
ATOM     12  C   UNL     1      -3.246  -1.415  -1.827  1.00  0.00     0.046 A 
ATOM     13  C   UNL     1      -4.024  -0.268  -1.738  1.00  0.00     0.115 A 
BRANCH  13  14
ATOM     14  O   UNL     1      -5.382  -0.337  -1.643  1.00  0.00    -0.508 OA
ATOM     15  H   UNL     1      -5.888   0.450  -1.584  1.00  0.00     0.293 HD
ENDBRANCH  13  14
ENDBRANCH   6   8
ENDBRANCH   5   6
ENDBRANCH   3   5
ENDBRANCH   2   3
ENDBRANCH   1   2
BRANCH   1  16
ATOM     16  C   UNL     1      -1.761  -2.229   2.137  1.00  0.00     0.275 C 
BRANCH  16  17
ATOM     17  O   UNL     1      -0.424  -2.736   2.278  1.00  0.00    -0.458 OA
BRANCH  17  18
ATOM     18  C   UNL     1       0.068  -3.427   1.228  1.00  0.00     0.338 C 
ATOM     19  O   UNL     1      -0.501  -3.760   0.205  1.00  0.00    -0.246 OA
BRANCH  18  20
ATOM     20  C   UNL     1       1.474  -3.737   1.511  1.00  0.00     0.060 A 
ATOM     21  C   UNL     1       2.462  -2.781   1.260  1.00  0.00     0.016 A 
ATOM     22  C   UNL     1       1.808  -5.005   1.982  1.00  0.00     0.016 A 
ATOM     23  C   UNL     1       3.802  -3.092   1.475  1.00  0.00     0.010 A 
ATOM     24  C   UNL     1       3.147  -5.308   2.223  1.00  0.00     0.010 A 
ATOM     25  C   UNL     1       4.150  -4.357   1.962  1.00  0.00    -0.014 A 
BRANCH  25  26
ATOM     26  C   UNL     1       5.567  -4.720   2.183  1.00  0.00     0.031 A 
ATOM     27  C   UNL     1       6.226  -5.705   1.266  1.00  0.00     0.074 A 
ATOM     28  C   UNL     1       6.231  -4.210   3.234  1.00  0.00     0.049 A 
ATOM     29  N   UNL     1       7.375  -6.315   1.397  1.00  0.00    -0.248 NA
ATOM     30  C   UNL     1       5.488  -6.056   0.042  1.00  0.00     0.031 C 
ATOM     31  C   UNL     1       5.704  -3.213   4.166  1.00  0.00     0.029 A 
ATOM     32  N   UNL     1       7.488  -4.484   3.709  1.00  0.00    -0.354 N 
ATOM     33  C   UNL     1       7.485  -7.147   0.291  1.00  0.00     0.074 A 
ATOM     34  C   UNL     1       6.285  -6.966  -0.499  1.00  0.00     0.031 C 
ATOM     35  C   UNL     1       6.623  -2.975   5.116  1.00  0.00     0.029 A 
ATOM     36  C   UNL     1       7.777  -3.840   4.887  1.00  0.00     0.049 A 
ATOM     37  H   UNL     1       8.121  -5.084   3.251  1.00  0.00     0.167 HD
ATOM     38  C   UNL     1       8.497  -7.987  -0.029  1.00  0.00     0.037 A 
ATOM     39  C   UNL     1       8.832  -3.970   5.711  1.00  0.00     0.037 A 
ATOM     40  C   UNL     1       9.691  -8.146   0.757  1.00  0.00     0.049 A 
ATOM     41  C   UNL     1       9.917  -4.950   5.364  1.00  0.00     0.074 A 
ATOM     42  C   UNL     1      10.785  -8.957   0.511  1.00  0.00     0.029 A 
ATOM     43  N   UNL     1       9.947  -7.477   1.945  1.00  0.00    -0.354 N 
ATOM     44  N   UNL     1      10.010  -5.744   4.325  1.00  0.00    -0.248 NA
ATOM     45  C   UNL     1      11.036  -5.063   6.310  1.00  0.00     0.031 C 
ATOM     46  C   UNL     1      11.689  -8.802   1.568  1.00  0.00     0.029 A 
ATOM     47  C   UNL     1      11.173  -7.868   2.453  1.00  0.00     0.049 A 
ATOM     48  H   UNL     1       9.345  -6.820   2.364  1.00  0.00     0.167 HD
ATOM     49  C   UNL     1      11.204  -6.435   4.480  1.00  0.00     0.074 A 
ATOM     50  C   UNL     1      11.805  -5.961   5.710  1.00  0.00     0.031 C 
ATOM     51  C   UNL     1      11.754  -7.376   3.675  1.00  0.00     0.037 A 
BRANCH  38  52
ATOM     52  C   UNL     1       8.339  -8.819  -1.265  1.00  0.00     0.057 A 
ATOM     53  C   UNL     1       8.470  -8.272  -2.547  1.00  0.00     0.134 A 
ATOM     54  C   UNL     1       8.080 -10.192  -1.169  1.00  0.00     0.134 A 
ATOM     55  F   UNL     1       8.702  -6.960  -2.706  1.00  0.00    -0.206 F 
ATOM     56  C   UNL     1       8.334  -9.059  -3.692  1.00  0.00     0.040 A 
ATOM     57  C   UNL     1       7.961 -10.993  -2.305  1.00  0.00     0.040 A 
ATOM     58  F   UNL     1       7.944 -10.777   0.031  1.00  0.00    -0.206 F 
ATOM     59  C   UNL     1       8.085 -10.425  -3.572  1.00  0.00     0.006 A 
ENDBRANCH  38  52
BRANCH  39  60
ATOM     60  C   UNL     1       8.893  -3.175   6.961  1.00  0.00     0.057 A 
ATOM     61  C   UNL     1       9.798  -2.117   7.099  1.00  0.00     0.134 A 
ATOM     62  C   UNL     1       8.043  -3.446   8.040  1.00  0.00     0.134 A 
ATOM     63  F   UNL     1      10.652  -1.826   6.107  1.00  0.00    -0.206 F 
ATOM     64  C   UNL     1       9.861  -1.360   8.270  1.00  0.00     0.040 A 
ATOM     65  C   UNL     1       8.081  -2.683   9.208  1.00  0.00     0.040 A 
ATOM     66  F   UNL     1       7.154  -4.446   7.967  1.00  0.00    -0.206 F 
ATOM     67  C   UNL     1       8.995  -1.638   9.326  1.00  0.00     0.006 A 
ENDBRANCH  39  60
BRANCH  51  68
ATOM     68  C   UNL     1      13.085  -7.929   4.082  1.00  0.00     0.057 A 
ATOM     69  C   UNL     1      13.207  -8.874   5.107  1.00  0.00     0.134 A 
ATOM     70  C   UNL     1      14.251  -7.546   3.407  1.00  0.00     0.134 A 
ATOM     71  F   UNL     1      12.128  -9.270   5.799  1.00  0.00    -0.206 F 
ATOM     72  C   UNL     1      14.447  -9.412   5.455  1.00  0.00     0.040 A 
ATOM     73  C   UNL     1      15.493  -8.091   3.733  1.00  0.00     0.040 A 
ATOM     74  F   UNL     1      14.197  -6.648   2.412  1.00  0.00    -0.206 F 
ATOM     75  C   UNL     1      15.593  -9.025   4.762  1.00  0.00     0.006 A 
ENDBRANCH  51  68
ENDBRANCH  25  26
ENDBRANCH  18  20
ENDBRANCH  17  18
ENDBRANCH  16  17
ENDBRANCH   1  16
TORSDOF 14
