REMARK SMILES C[C@@H](O)[C@@H](NC(=O)CSc1ccncc1)C(=O)OCCOC(=O)c1ccc(-c2c3nc(c(-c4c(F)cccc4F)c4ccc([nH]4)c(-c4c(F)cccc4F)c4nc(c(-c5c(F)cccc5F)c5ccc2[nH]5)C=C4)C=C3)cc1
REMARK SMILES IDX 19 1 18 2 16 3 17 4 4 5 2 6 1 7 3 8 5 10 6 11 7 13 8 14 9 15
REMARK SMILES IDX 10 16 11 17 15 18 12 19 14 20 13 21 20 22 21 23 22 24 23 25
REMARK SMILES IDX 24 26 25 27 77 28 26 29 76 30 27 31 28 32 29 33 70 34 30 35
REMARK SMILES IDX 75 36 69 37 71 38 31 39 74 40 68 41 67 42 32 44 58 45 41 46
REMARK SMILES IDX 57 47 42 48 45 49 56 50 72 51 43 52 44 53 55 55 73 56 46 57
REMARK SMILES IDX 33 58 34 59 39 60 35 61 36 62 38 63 40 64 37 65 59 66 60 67
REMARK SMILES IDX 65 68 61 69 62 70 64 71 66 72 63 73 47 74 48 75 53 76 49 77
REMARK SMILES IDX 50 78 52 79 54 80 51 81
REMARK H PARENT 3 9 5 12 71 43 45 54
REMARK Flexibility Score: inf
ROOT
ATOM      1  C   UNL     1      -1.415  -3.054   4.309  1.00  0.00     0.274 C 
ENDROOT
BRANCH   1   2
ATOM      2  O   UNL     1      -0.878  -2.412   3.129  1.00  0.00    -0.460 OA
BRANCH   2   3
ATOM      3  C   UNL     1      -1.759  -1.732   2.340  1.00  0.00     0.331 C 
ATOM      4  O   UNL     1      -2.943  -1.559   2.608  1.00  0.00    -0.250 OA
BRANCH   3   5
ATOM      5  C   UNL     1      -1.134  -1.277   1.010  1.00  0.00     0.221 C 
BRANCH   5   6
ATOM      6  C   UNL     1       0.416  -1.121   1.054  1.00  0.00     0.145 C 
ATOM      7  C   UNL     1       1.002  -0.635  -0.274  1.00  0.00     0.041 C 
BRANCH   6   8
ATOM      8  O   UNL     1       0.786  -0.090   1.974  1.00  0.00    -0.391 OA
ATOM      9  H   UNL     1       0.422   0.758   1.674  1.00  0.00     0.211 HD
ENDBRANCH   6   8
ENDBRANCH   5   6
BRANCH   5  10
ATOM     10  N   UNL     1      -1.631  -1.908  -0.235  1.00  0.00    -0.340 N 
ATOM     11  C   UNL     1      -2.236  -3.079  -0.556  1.00  0.00     0.231 C 
ATOM     12  H   UNL     1      -1.488  -1.336  -1.023  1.00  0.00     0.164 HD
ATOM     13  O   UNL     1      -2.142  -3.425  -1.740  1.00  0.00    -0.274 OA
BRANCH  11  14
ATOM     14  C   UNL     1      -3.104  -3.868   0.389  1.00  0.00     0.174 C 
BRANCH  14  15
ATOM     15  S   UNL     1      -2.290  -4.902   1.633  1.00  0.00    -0.116 SA
BRANCH  15  16
ATOM     16  C   UNL     1      -0.951  -5.752   0.834  1.00  0.00     0.011 A 
ATOM     17  C   UNL     1      -0.812  -7.113   1.108  1.00  0.00     0.035 A 
ATOM     18  C   UNL     1       0.063  -5.115   0.127  1.00  0.00     0.035 A 
ATOM     19  C   UNL     1       0.311  -7.777   0.644  1.00  0.00     0.112 A 
ATOM     20  C   UNL     1       1.143  -5.865  -0.310  1.00  0.00     0.112 A 
ATOM     21  N   UNL     1       1.291  -7.182  -0.065  1.00  0.00    -0.265 NA
ENDBRANCH  15  16
ENDBRANCH  14  15
ENDBRANCH  11  14
ENDBRANCH   5  10
ENDBRANCH   3   5
ENDBRANCH   2   3
ENDBRANCH   1   2
BRANCH   1  22
ATOM     22  C   UNL     1      -0.973  -2.370   5.601  1.00  0.00     0.275 C 
BRANCH  22  23
ATOM     23  O   UNL     1      -1.470  -1.026   5.667  1.00  0.00    -0.458 OA
BRANCH  23  24
ATOM     24  C   UNL     1      -0.675  -0.118   5.059  1.00  0.00     0.338 C 
ATOM     25  O   UNL     1       0.420  -0.317   4.560  1.00  0.00    -0.246 OA
BRANCH  24  26
ATOM     26  C   UNL     1      -1.415   1.141   4.907  1.00  0.00     0.060 A 
ATOM     27  C   UNL     1      -1.574   1.660   3.618  1.00  0.00     0.016 A 
ATOM     28  C   UNL     1      -1.897   1.829   6.019  1.00  0.00     0.016 A 
ATOM     29  C   UNL     1      -2.204   2.881   3.429  1.00  0.00     0.010 A 
ATOM     30  C   UNL     1      -2.521   3.062   5.833  1.00  0.00     0.010 A 
ATOM     31  C   UNL     1      -2.657   3.598   4.540  1.00  0.00    -0.014 A 
BRANCH  31  32
ATOM     32  C   UNL     1      -3.167   4.970   4.360  1.00  0.00     0.031 A 
ATOM     33  C   UNL     1      -2.264   6.121   4.684  1.00  0.00     0.074 A 
ATOM     34  C   UNL     1      -4.415   5.172   3.909  1.00  0.00     0.049 A 
ATOM     35  N   UNL     1      -2.535   7.397   4.737  1.00  0.00    -0.248 NA
ATOM     36  C   UNL     1      -0.865   5.784   4.998  1.00  0.00     0.031 C 
ATOM     37  C   UNL     1      -5.348   4.121   3.505  1.00  0.00     0.029 A 
ATOM     38  N   UNL     1      -5.116   6.335   3.730  1.00  0.00    -0.354 N 
ATOM     39  C   UNL     1      -1.351   8.015   5.116  1.00  0.00     0.074 A 
ATOM     40  C   UNL     1      -0.362   6.974   5.290  1.00  0.00     0.031 C 
ATOM     41  C   UNL     1      -6.511   4.688   3.143  1.00  0.00     0.029 A 
ATOM     42  C   UNL     1      -6.414   6.133   3.334  1.00  0.00     0.049 A 
ATOM     43  H   UNL     1      -4.726   7.228   3.871  1.00  0.00     0.167 HD
ATOM     44  C   UNL     1      -1.119   9.335   5.303  1.00  0.00     0.037 A 
ATOM     45  C   UNL     1      -7.417   7.017   3.183  1.00  0.00     0.037 A 
ATOM     46  C   UNL     1      -2.114  10.357   5.116  1.00  0.00     0.049 A 
ATOM     47  C   UNL     1      -7.150   8.472   3.454  1.00  0.00     0.074 A 
ATOM     48  C   UNL     1      -1.988  11.725   5.273  1.00  0.00     0.029 A 
ATOM     49  N   UNL     1      -3.423  10.115   4.726  1.00  0.00    -0.354 N 
ATOM     50  N   UNL     1      -6.034   9.052   3.829  1.00  0.00    -0.248 NA
ATOM     51  C   UNL     1      -8.280   9.395   3.288  1.00  0.00     0.031 C 
ATOM     52  C   UNL     1      -3.233  12.308   5.015  1.00  0.00     0.029 A 
ATOM     53  C   UNL     1      -4.122  11.307   4.654  1.00  0.00     0.049 A 
ATOM     54  H   UNL     1      -3.800   9.226   4.530  1.00  0.00     0.167 HD
ATOM     55  C   UNL     1      -6.320  10.408   3.919  1.00  0.00     0.074 A 
ATOM     56  C   UNL     1      -7.713  10.564   3.551  1.00  0.00     0.031 C 
ATOM     57  C   UNL     1      -5.507  11.432   4.274  1.00  0.00     0.037 A 
BRANCH  44  58
ATOM     58  C   UNL     1       0.249   9.733   5.769  1.00  0.00     0.057 A 
ATOM     59  C   UNL     1       1.366   9.681   4.926  1.00  0.00     0.134 A 
ATOM     60  C   UNL     1       0.450  10.181   7.081  1.00  0.00     0.134 A 
ATOM     61  F   UNL     1       1.246   9.241   3.664  1.00  0.00    -0.206 F 
ATOM     62  C   UNL     1       2.638  10.040   5.377  1.00  0.00     0.040 A 
ATOM     63  C   UNL     1       1.712  10.565   7.537  1.00  0.00     0.040 A 
ATOM     64  F   UNL     1      -0.578  10.252   7.941  1.00  0.00    -0.206 F 
ATOM     65  C   UNL     1       2.812  10.489   6.685  1.00  0.00     0.006 A 
ENDBRANCH  44  58
BRANCH  45  66
ATOM     66  C   UNL     1      -8.765   6.547   2.782  1.00  0.00     0.057 A 
ATOM     67  C   UNL     1      -9.290   6.844   1.520  1.00  0.00     0.134 A 
ATOM     68  C   UNL     1      -9.562   5.790   3.651  1.00  0.00     0.134 A 
ATOM     69  F   UNL     1      -8.583   7.582   0.652  1.00  0.00    -0.206 F 
ATOM     70  C   UNL     1     -10.563   6.415   1.139  1.00  0.00     0.040 A 
ATOM     71  C   UNL     1     -10.826   5.335   3.274  1.00  0.00     0.040 A 
ATOM     72  F   UNL     1      -9.115   5.470   4.874  1.00  0.00    -0.206 F 
ATOM     73  C   UNL     1     -11.332   5.653   2.016  1.00  0.00     0.006 A 
ENDBRANCH  45  66
BRANCH  57  74
ATOM     74  C   UNL     1      -6.093  12.812   4.242  1.00  0.00     0.057 A 
ATOM     75  C   UNL     1      -6.987  13.257   5.223  1.00  0.00     0.134 A 
ATOM     76  C   UNL     1      -5.722  13.717   3.240  1.00  0.00     0.134 A 
ATOM     77  F   UNL     1      -7.390  12.432   6.201  1.00  0.00    -0.206 F 
ATOM     78  C   UNL     1      -7.506  14.552   5.198  1.00  0.00     0.040 A 
ATOM     79  C   UNL     1      -6.216  15.021   3.218  1.00  0.00     0.040 A 
ATOM     80  F   UNL     1      -4.863  13.352   2.276  1.00  0.00    -0.206 F 
ATOM     81  C   UNL     1      -7.114  15.440   4.197  1.00  0.00     0.006 A 
ENDBRANCH  57  74
ENDBRANCH  31  32
ENDBRANCH  24  26
ENDBRANCH  23  24
ENDBRANCH  22  23
ENDBRANCH   1  22
TORSDOF 17
