REMARK SMILES Cc1ccc(-c2cnnc(-n3nc(C)c4c3NC(=O)C[C@@H]4c3ccc(C(=O)OCCOC(=O)c4ccc(-c5c6nc(c(-c7c(F)cccc7F)c7ccc([nH]7)c(-c7c(F)cccc7F)c7nc(c(-c8c(F)cccc8F)c8ccc5[nH]8)C=C7)C=C6)cc4)cc3)n2)cc1
REMARK SMILES IDX 29 1 28 2 26 3 27 4 25 5 22 6 23 7 89 8 24 9 88 10 21 11
REMARK SMILES IDX 11 12 12 13 16 14 13 15 15 16 17 17 14 18 18 19 20 21 19 22
REMARK SMILES IDX 10 23 6 24 7 25 90 26 8 27 9 28 5 29 1 30 2 31 3 32 92 33
REMARK SMILES IDX 4 34 91 35 30 36 31 37 32 38 33 39 34 40 35 41 87 42 36 43
REMARK SMILES IDX 86 44 37 45 38 46 39 47 80 48 40 49 85 50 79 51 81 52 41 53
REMARK SMILES IDX 84 54 78 55 77 56 42 58 68 59 51 60 67 61 52 62 55 63 66 64
REMARK SMILES IDX 82 65 53 66 54 67 65 69 83 70 56 71 43 72 44 73 49 74 45 75
REMARK SMILES IDX 46 76 48 77 50 78 47 79 69 80 70 81 75 82 71 83 72 84 74 85
REMARK SMILES IDX 76 86 73 87 57 88 58 89 63 90 59 91 60 92 62 93 64 94 61 95
REMARK H PARENT 17 20 81 57 55 68
REMARK Flexibility Score: inf
ROOT
ATOM      1  C   UNL     1     -11.073   7.493  -7.737  1.00  0.00     0.275 C 
ENDROOT
BRANCH   1   2
ATOM      2  O   UNL     1      -9.916   6.658  -7.858  1.00  0.00    -0.458 OA
BRANCH   2   3
ATOM      3  C   UNL     1     -10.089   5.478  -7.221  1.00  0.00     0.338 C 
ATOM      4  O   UNL     1     -11.075   5.117  -6.599  1.00  0.00    -0.246 OA
BRANCH   3   5
ATOM      5  C   UNL     1      -8.865   4.684  -7.163  1.00  0.00     0.060 A 
ATOM      6  C   UNL     1      -7.254   2.647  -6.198  1.00  0.00    -0.040 A 
ATOM      7  C   UNL     1      -7.906   2.483  -7.419  1.00  0.00     0.005 A 
ATOM      8  C   UNL     1      -7.243   3.925  -5.598  1.00  0.00     0.005 A 
ATOM      9  C   UNL     1      -8.711   3.506  -7.898  1.00  0.00     0.016 A 
ATOM     10  C   UNL     1      -8.084   4.925  -6.047  1.00  0.00     0.016 A 
BRANCH   6  11
ATOM     11  C   UNL     1      -6.713   1.398  -5.530  1.00  0.00     0.064 C 
ATOM     12  N   UNL     1      -5.712   2.031  -2.125  1.00  0.00    -0.180 N 
ATOM     13  N   UNL     1      -7.018   2.369  -1.950  1.00  0.00    -0.168 NA
ATOM     14  C   UNL     1      -5.413   2.013  -3.474  1.00  0.00     0.143 A 
ATOM     15  C   UNL     1      -7.598   2.025  -3.102  1.00  0.00     0.066 A 
ATOM     16  C   UNL     1      -6.614   1.706  -4.081  1.00  0.00     0.026 A 
ATOM     17  N   UNL     1      -4.276   2.241  -4.232  1.00  0.00    -0.310 N 
ATOM     18  C   UNL     1      -9.067   2.200  -3.232  1.00  0.00     0.069 C 
ATOM     19  C   UNL     1      -4.309   1.951  -5.643  1.00  0.00     0.226 C 
ATOM     20  H   UNL     1      -3.459   2.595  -3.813  1.00  0.00     0.171 HD
ATOM     21  C   UNL     1      -5.365   0.968  -6.093  1.00  0.00     0.113 C 
ATOM     22  O   UNL     1      -3.453   2.432  -6.344  1.00  0.00    -0.275 OA
BRANCH  12  23
ATOM     23  C   UNL     1      -5.011   1.333  -1.111  1.00  0.00     0.272 A 
ATOM     24  C   UNL     1      -3.180   0.232  -0.344  1.00  0.00     0.095 A 
ATOM     25  C   UNL     1      -3.978  -0.431   0.572  1.00  0.00     0.164 A 
ATOM     26  N   UNL     1      -3.694   1.096  -1.256  1.00  0.00    -0.208 NA
ATOM     27  N   UNL     1      -5.290  -0.175   0.658  1.00  0.00    -0.153 NA
ATOM     28  N   UNL     1      -5.801   0.756  -0.167  1.00  0.00    -0.109 NA
BRANCH  24  29
ATOM     29  C   UNL     1      -1.723   0.131  -0.298  1.00  0.00     0.002 A 
ATOM     30  C   UNL     1       2.577  -0.057   0.065  1.00  0.00     0.044 C 
ATOM     31  C   UNL     1       1.085   0.015  -0.053  1.00  0.00    -0.051 A 
ATOM     32  C   UNL     1       0.327  -1.161  -0.099  1.00  0.00     0.004 A 
ATOM     33  C   UNL     1       0.436   1.249  -0.130  1.00  0.00     0.004 A 
ATOM     34  C   UNL     1      -1.063  -1.104  -0.219  1.00  0.00     0.011 A 
ATOM     35  C   UNL     1      -0.951   1.304  -0.256  1.00  0.00     0.011 A 
ENDBRANCH  24  29
ENDBRANCH  12  23
ENDBRANCH   6  11
ENDBRANCH   3   5
ENDBRANCH   2   3
ENDBRANCH   1   2
BRANCH   1  36
ATOM     36  C   UNL     1     -11.189   8.532  -8.857  1.00  0.00     0.275 C 
BRANCH  36  37
ATOM     37  O   UNL     1     -10.883   8.200 -10.241  1.00  0.00    -0.458 OA
BRANCH  37  38
ATOM     38  C   UNL     1     -10.567   6.981 -10.727  1.00  0.00     0.338 C 
ATOM     39  O   UNL     1      -9.619   6.783 -11.473  1.00  0.00    -0.246 OA
BRANCH  38  40
ATOM     40  C   UNL     1     -11.462   5.887 -10.334  1.00  0.00     0.060 A 
ATOM     41  C   UNL     1     -10.918   4.598 -10.246  1.00  0.00     0.016 A 
ATOM     42  C   UNL     1     -12.770   6.155  -9.937  1.00  0.00     0.016 A 
ATOM     43  C   UNL     1     -11.635   3.593  -9.620  1.00  0.00     0.010 A 
ATOM     44  C   UNL     1     -13.449   5.188  -9.241  1.00  0.00     0.010 A 
ATOM     45  C   UNL     1     -12.882   3.909  -9.107  1.00  0.00    -0.014 A 
BRANCH  45  46
ATOM     46  C   UNL     1     -13.855   2.880  -8.823  1.00  0.00     0.031 A 
ATOM     47  C   UNL     1     -14.155   2.458  -7.452  1.00  0.00     0.074 A 
ATOM     48  C   UNL     1     -14.602   2.720  -9.937  1.00  0.00     0.049 A 
ATOM     49  N   UNL     1     -15.007   1.542  -7.167  1.00  0.00    -0.248 NA
ATOM     50  C   UNL     1     -13.489   2.973  -6.257  1.00  0.00     0.031 C 
ATOM     51  C   UNL     1     -15.984   2.354 -10.146  1.00  0.00     0.029 A 
ATOM     52  N   UNL     1     -14.082   2.815 -11.244  1.00  0.00    -0.354 N 
ATOM     53  C   UNL     1     -15.303   1.668  -5.824  1.00  0.00     0.074 A 
ATOM     54  C   UNL     1     -14.214   2.427  -5.272  1.00  0.00     0.031 C 
ATOM     55  C   UNL     1     -16.121   1.946 -11.426  1.00  0.00     0.029 A 
ATOM     56  C   UNL     1     -14.779   1.867 -11.997  1.00  0.00     0.049 A 
ATOM     57  H   UNL     1     -13.375   3.422 -11.560  1.00  0.00     0.167 HD
ATOM     58  C   UNL     1     -16.546   1.280  -5.414  1.00  0.00     0.037 A 
ATOM     59  C   UNL     1     -14.109   0.710 -12.295  1.00  0.00     0.037 A 
ATOM     60  C   UNL     1     -17.260   0.708  -6.555  1.00  0.00     0.049 A 
ATOM     61  C   UNL     1     -14.692  -0.481 -11.555  1.00  0.00     0.074 A 
ATOM     62  C   UNL     1     -18.154   1.218  -7.480  1.00  0.00     0.029 A 
ATOM     63  N   UNL     1     -16.752  -0.445  -7.111  1.00  0.00    -0.354 N 
ATOM     64  N   UNL     1     -15.394  -0.398 -10.456  1.00  0.00    -0.248 NA
ATOM     65  C   UNL     1     -14.521  -1.859 -11.998  1.00  0.00     0.031 C 
ATOM     66  C   UNL     1     -18.154   0.346  -8.613  1.00  0.00     0.029 A 
ATOM     67  C   UNL     1     -17.248  -0.673  -8.373  1.00  0.00     0.049 A 
ATOM     68  H   UNL     1     -16.110  -1.037  -6.657  1.00  0.00     0.167 HD
ATOM     69  C   UNL     1     -15.861  -1.634 -10.108  1.00  0.00     0.074 A 
ATOM     70  C   UNL     1     -15.216  -2.526 -11.058  1.00  0.00     0.031 C 
ATOM     71  C   UNL     1     -16.753  -1.836  -9.089  1.00  0.00     0.037 A 
BRANCH  58  72
ATOM     72  C   UNL     1     -17.232   1.615  -4.110  1.00  0.00     0.057 A 
ATOM     73  C   UNL     1     -18.641   1.554  -4.027  1.00  0.00     0.134 A 
ATOM     74  C   UNL     1     -16.603   2.012  -2.917  1.00  0.00     0.134 A 
ATOM     75  F   UNL     1     -19.391   1.131  -5.053  1.00  0.00    -0.206 F 
ATOM     76  C   UNL     1     -19.364   1.920  -2.886  1.00  0.00     0.040 A 
ATOM     77  C   UNL     1     -17.318   2.401  -1.770  1.00  0.00     0.040 A 
ATOM     78  F   UNL     1     -15.273   2.004  -2.780  1.00  0.00    -0.206 F 
ATOM     79  C   UNL     1     -18.704   2.364  -1.754  1.00  0.00     0.006 A 
ENDBRANCH  58  72
BRANCH  59  80
ATOM     80  C   UNL     1     -12.644   0.928 -12.576  1.00  0.00     0.057 A 
ATOM     81  C   UNL     1     -12.265   1.893 -13.537  1.00  0.00     0.134 A 
ATOM     82  C   UNL     1     -11.629   0.476 -11.727  1.00  0.00     0.134 A 
ATOM     83  F   UNL     1     -13.172   2.379 -14.400  1.00  0.00    -0.206 F 
ATOM     84  C   UNL     1     -10.986   2.464 -13.568  1.00  0.00     0.040 A 
ATOM     85  C   UNL     1     -10.333   1.021 -11.768  1.00  0.00     0.040 A 
ATOM     86  F   UNL     1     -11.883  -0.431 -10.774  1.00  0.00    -0.206 F 
ATOM     87  C   UNL     1     -10.019   2.043 -12.664  1.00  0.00     0.006 A 
ENDBRANCH  59  80
BRANCH  71  88
ATOM     88  C   UNL     1     -17.225  -3.192  -8.643  1.00  0.00     0.057 A 
ATOM     89  C   UNL     1     -17.566  -4.207  -9.539  1.00  0.00     0.134 A 
ATOM     90  C   UNL     1     -17.431  -3.496  -7.277  1.00  0.00     0.134 A 
ATOM     91  F   UNL     1     -17.548  -3.998 -10.864  1.00  0.00    -0.206 F 
ATOM     92  C   UNL     1     -17.966  -5.475  -9.105  1.00  0.00     0.040 A 
ATOM     93  C   UNL     1     -17.895  -4.732  -6.835  1.00  0.00     0.040 A 
ATOM     94  F   UNL     1     -17.166  -2.626  -6.294  1.00  0.00    -0.206 F 
ATOM     95  C   UNL     1     -18.130  -5.742  -7.750  1.00  0.00     0.006 A 
ENDBRANCH  71  88
ENDBRANCH  45  46
ENDBRANCH  38  40
ENDBRANCH  37  38
ENDBRANCH  36  37
ENDBRANCH   1  36
TORSDOF 14
