REMARK SMILES CC(C)C[C@H](NC(=O)[C@H](C)NC(=O)[C@@H](NC(=O)CNC(=O)OCc1ccccc1)C(C)C)C(=O)OCCOC(=O)c1ccc(-c2c3nc(c(-c4c(F)cccc4F)c4ccc([nH]4)c(-c4c(F)cccc4F)c4nc(c(-c5c(F)cccc5F)c5ccc2[nH]5)C=C4)C=C3)cc1
REMARK SMILES IDX 6 1 7 2 8 3 5 5 4 6 2 7 1 8 3 9 33 10 34 11 35 12 36 13
REMARK SMILES IDX 37 14 38 15 39 16 40 17 41 18 42 19 94 20 43 21 93 22 44 23
REMARK SMILES IDX 45 24 46 25 87 26 47 27 92 28 86 29 88 30 48 31 91 32 85 33
REMARK SMILES IDX 84 34 49 36 75 37 58 38 74 39 59 40 62 41 73 42 89 43 60 44
REMARK SMILES IDX 61 45 72 47 90 48 63 49 50 50 51 51 56 52 52 53 53 54 55 55
REMARK SMILES IDX 57 56 54 57 76 58 77 59 82 60 78 61 79 62 81 63 83 64 80 65
REMARK SMILES IDX 64 66 65 67 70 68 66 69 67 70 69 71 71 72 68 73 9 74 10 75
REMARK SMILES IDX 11 76 12 77 13 79 14 80 15 81 16 82 17 84 18 85 19 86 20 87
REMARK SMILES IDX 21 89 22 90 23 91 24 92 25 93 29 94 26 95 28 96 27 97 30 98
REMARK SMILES IDX 31 99 32 100
REMARK H PARENT 6 4 88 35 62 46 11 78 15 83 19 88
REMARK Flexibility Score: inf
ROOT
ATOM      1  N   UNL     1      -3.499   7.176  -3.018  1.00  0.00    -0.341 N 
ATOM      2  C   UNL     1      -2.262   7.696  -2.799  1.00  0.00     0.242 C 
ATOM      3  O   UNL     1      -1.778   8.310  -3.757  1.00  0.00    -0.273 OA
ATOM      4  H   UNL     1      -4.015   7.702  -3.671  1.00  0.00     0.164 HD
ENDROOT
BRANCH   1   5
ATOM      5  C   UNL     1      -4.248   6.024  -2.518  1.00  0.00     0.192 C 
BRANCH   5   6
ATOM      6  C   UNL     1      -4.159   4.740  -3.381  1.00  0.00     0.040 C 
BRANCH   6   7
ATOM      7  C   UNL     1      -3.244   4.706  -4.624  1.00  0.00    -0.015 C 
ATOM      8  C   UNL     1      -1.767   4.890  -4.299  1.00  0.00     0.007 C 
ATOM      9  C   UNL     1      -3.434   3.363  -5.338  1.00  0.00     0.007 C 
ENDBRANCH   6   7
ENDBRANCH   5   6
BRANCH   5  10
ATOM     10  C   UNL     1      -4.412   5.732  -1.002  1.00  0.00     0.328 C 
ATOM     11  O   UNL     1      -4.906   4.705  -0.559  1.00  0.00    -0.250 OA
BRANCH  10  12
ATOM     12  O   UNL     1      -4.087   6.806  -0.247  1.00  0.00    -0.461 OA
BRANCH  12  13
ATOM     13  C   UNL     1      -4.276   6.751   1.184  1.00  0.00     0.274 C 
BRANCH  13  14
ATOM     14  C   UNL     1      -4.396   8.177   1.726  1.00  0.00     0.275 C 
BRANCH  14  15
ATOM     15  O   UNL     1      -5.614   8.746   1.228  1.00  0.00    -0.458 OA
BRANCH  15  16
ATOM     16  C   UNL     1      -5.490   9.374   0.042  1.00  0.00     0.338 C 
ATOM     17  O   UNL     1      -4.471   9.761  -0.516  1.00  0.00    -0.246 OA
BRANCH  16  18
ATOM     18  C   UNL     1      -6.784   9.278  -0.625  1.00  0.00     0.060 A 
ATOM     19  C   UNL     1      -7.069   8.091  -1.301  1.00  0.00     0.016 A 
ATOM     20  C   UNL     1      -7.671  10.344  -0.646  1.00  0.00     0.016 A 
ATOM     21  C   UNL     1      -8.194   7.987  -2.095  1.00  0.00     0.010 A 
ATOM     22  C   UNL     1      -8.856  10.206  -1.367  1.00  0.00     0.010 A 
ATOM     23  C   UNL     1      -9.107   9.041  -2.120  1.00  0.00    -0.014 A 
BRANCH  23  24
ATOM     24  C   UNL     1     -10.303   8.957  -2.983  1.00  0.00     0.031 A 
ATOM     25  C   UNL     1     -10.472   9.968  -4.075  1.00  0.00     0.074 A 
ATOM     26  C   UNL     1     -11.216   7.989  -2.782  1.00  0.00     0.049 A 
ATOM     27  N   UNL     1     -11.542  10.283  -4.752  1.00  0.00    -0.248 NA
ATOM     28  C   UNL     1      -9.277  10.752  -4.431  1.00  0.00     0.031 C 
ATOM     29  C   UNL     1     -11.110   6.911  -1.795  1.00  0.00     0.029 A 
ATOM     30  N   UNL     1     -12.420   7.762  -3.393  1.00  0.00    -0.354 N 
ATOM     31  C   UNL     1     -11.171  11.349  -5.560  1.00  0.00     0.074 A 
ATOM     32  C   UNL     1      -9.775  11.621  -5.298  1.00  0.00     0.031 C 
ATOM     33  C   UNL     1     -12.198   6.131  -1.877  1.00  0.00     0.029 A 
ATOM     34  C   UNL     1     -13.114   6.708  -2.851  1.00  0.00     0.049 A 
ATOM     35  H   UNL     1     -12.755   8.300  -4.146  1.00  0.00     0.167 HD
ATOM     36  C   UNL     1     -11.943  12.041  -6.429  1.00  0.00     0.037 A 
ATOM     37  C   UNL     1     -14.374   6.295  -3.074  1.00  0.00     0.037 A 
ATOM     38  C   UNL     1     -13.320  11.713  -6.692  1.00  0.00     0.049 A 
ATOM     39  C   UNL     1     -15.210   7.072  -4.048  1.00  0.00     0.074 A 
ATOM     40  C   UNL     1     -14.227  12.356  -7.513  1.00  0.00     0.029 A 
ATOM     41  N   UNL     1     -13.978  10.620  -6.143  1.00  0.00    -0.354 N 
ATOM     42  N   UNL     1     -14.895   8.150  -4.727  1.00  0.00    -0.248 NA
ATOM     43  C   UNL     1     -16.577   6.592  -4.275  1.00  0.00     0.031 C 
ATOM     44  C   UNL     1     -15.439  11.656  -7.452  1.00  0.00     0.029 A 
ATOM     45  C   UNL     1     -15.276  10.560  -6.618  1.00  0.00     0.049 A 
ATOM     46  H   UNL     1     -13.580   9.981  -5.508  1.00  0.00     0.167 HD
ATOM     47  C   UNL     1     -16.024   8.481  -5.461  1.00  0.00     0.074 A 
ATOM     48  C   UNL     1     -17.020   7.468  -5.167  1.00  0.00     0.031 C 
ATOM     49  C   UNL     1     -16.232   9.532  -6.292  1.00  0.00     0.037 A 
BRANCH  36  50
ATOM     50  C   UNL     1     -11.324  13.227  -7.106  1.00  0.00     0.057 A 
ATOM     51  C   UNL     1     -10.353  13.092  -8.107  1.00  0.00     0.134 A 
ATOM     52  C   UNL     1     -11.691  14.528  -6.737  1.00  0.00     0.134 A 
ATOM     53  F   UNL     1      -9.936  11.876  -8.489  1.00  0.00    -0.206 F 
ATOM     54  C   UNL     1      -9.752  14.207  -8.698  1.00  0.00     0.040 A 
ATOM     55  C   UNL     1     -11.116  15.650  -7.337  1.00  0.00     0.040 A 
ATOM     56  F   UNL     1     -12.611  14.730  -5.781  1.00  0.00    -0.206 F 
ATOM     57  C   UNL     1     -10.137  15.490  -8.316  1.00  0.00     0.006 A 
ENDBRANCH  36  50
BRANCH  37  58
ATOM     58  C   UNL     1     -14.919   5.136  -2.325  1.00  0.00     0.057 A 
ATOM     59  C   UNL     1     -15.187   3.921  -2.965  1.00  0.00     0.134 A 
ATOM     60  C   UNL     1     -15.152   5.200  -0.944  1.00  0.00     0.134 A 
ATOM     61  F   UNL     1     -15.001   3.800  -4.287  1.00  0.00    -0.206 F 
ATOM     62  C   UNL     1     -15.670   2.815  -2.263  1.00  0.00     0.040 A 
ATOM     63  C   UNL     1     -15.609   4.095  -0.225  1.00  0.00     0.040 A 
ATOM     64  F   UNL     1     -14.907   6.333  -0.269  1.00  0.00    -0.206 F 
ATOM     65  C   UNL     1     -15.873   2.898  -0.886  1.00  0.00     0.006 A 
ENDBRANCH  37  58
BRANCH  49  66
ATOM     66  C   UNL     1     -17.578   9.605  -6.941  1.00  0.00     0.057 A 
ATOM     67  C   UNL     1     -18.712  10.014  -6.229  1.00  0.00     0.134 A 
ATOM     68  C   UNL     1     -17.737   9.266  -8.289  1.00  0.00     0.134 A 
ATOM     69  F   UNL     1     -18.621  10.335  -4.929  1.00  0.00    -0.206 F 
ATOM     70  C   UNL     1     -19.969  10.056  -6.832  1.00  0.00     0.040 A 
ATOM     71  C   UNL     1     -18.985   9.324  -8.907  1.00  0.00     0.040 A 
ATOM     72  F   UNL     1     -16.685   8.872  -9.021  1.00  0.00    -0.206 F 
ATOM     73  C   UNL     1     -20.106   9.713  -8.176  1.00  0.00     0.006 A 
ENDBRANCH  49  66
ENDBRANCH  23  24
ENDBRANCH  16  18
ENDBRANCH  15  16
ENDBRANCH  14  15
ENDBRANCH  13  14
ENDBRANCH  12  13
ENDBRANCH  10  12
ENDBRANCH   5  10
ENDBRANCH   1   5
BRANCH   2  74
ATOM     74  C   UNL     1      -1.511   7.599  -1.446  1.00  0.00     0.168 C 
ATOM     75  C   UNL     1      -0.559   8.802  -1.341  1.00  0.00     0.041 C 
BRANCH  74  76
ATOM     76  N   UNL     1      -0.888   6.292  -1.130  1.00  0.00    -0.343 N 
ATOM     77  C   UNL     1      -0.266   6.066   0.079  1.00  0.00     0.243 C 
ATOM     78  H   UNL     1      -0.919   5.570  -1.799  1.00  0.00     0.164 HD
ATOM     79  O   UNL     1       0.161   7.000   0.762  1.00  0.00    -0.273 OA
BRANCH  77  80
ATOM     80  C   UNL     1      -0.291   4.638   0.709  1.00  0.00     0.174 C 
BRANCH  80  81
ATOM     81  N   UNL     1      -1.626   4.412   1.318  1.00  0.00    -0.343 N 
ATOM     82  C   UNL     1      -2.705   3.593   1.220  1.00  0.00     0.240 C 
ATOM     83  H   UNL     1      -1.779   5.075   2.029  1.00  0.00     0.164 HD
ATOM     84  O   UNL     1      -3.520   3.704   2.148  1.00  0.00    -0.273 OA
BRANCH  82  85
ATOM     85  C   UNL     1      -2.894   2.473   0.188  1.00  0.00     0.219 C 
BRANCH  85  86
ATOM     86  N   UNL     1      -2.350   2.797  -1.104  1.00  0.00    -0.312 N 
ATOM     87  C   UNL     1      -1.789   1.946  -1.997  1.00  0.00     0.407 C 
ATOM     88  H   UNL     1      -2.389   3.744  -1.369  1.00  0.00     0.167 HD
ATOM     89  O   UNL     1      -1.073   2.407  -2.892  1.00  0.00    -0.225 OA
BRANCH  87  90
ATOM     90  O   UNL     1      -2.003   0.637  -1.766  1.00  0.00    -0.445 OA
BRANCH  90  91
ATOM     91  C   UNL     1      -1.225  -0.240  -2.603  1.00  0.00     0.270 C 
BRANCH  91  92
ATOM     92  C   UNL     1      -1.630  -0.201  -4.060  1.00  0.00    -0.011 A 
ATOM     93  C   UNL     1      -2.881  -0.676  -4.469  1.00  0.00     0.007 A 
ATOM     94  C   UNL     1      -0.777   0.376  -5.016  1.00  0.00     0.007 A 
ATOM     95  C   UNL     1      -3.274  -0.564  -5.805  1.00  0.00     0.000 A 
ATOM     96  C   UNL     1      -1.176   0.498  -6.347  1.00  0.00     0.000 A 
ATOM     97  C   UNL     1      -2.426   0.028  -6.741  1.00  0.00     0.000 A 
ENDBRANCH  91  92
ENDBRANCH  90  91
ENDBRANCH  87  90
ENDBRANCH  85  86
ENDBRANCH  82  85
ENDBRANCH  80  81
BRANCH  80  98
ATOM     98  C   UNL     1       0.408   3.458   0.035  1.00  0.00     0.015 C 
ATOM     99  C   UNL     1       1.860   3.757  -0.338  1.00  0.00     0.010 C 
ATOM    100  C   UNL     1       0.364   2.199   0.924  1.00  0.00     0.010 C 
ENDBRANCH  80  98
ENDBRANCH  77  80
ENDBRANCH  74  76
ENDBRANCH   2  74
TORSDOF 24
