REMARK SMILES CCN1C(=O)C[C@@H](C(=O)Nc2ccc(C(=O)OCCOC(=O)c3ccc(-c4c5nc(c(-c6c(F)cccc6F)c6ccc([nH]6)c(-c6c(F)cccc6F)c6nc(c(-c7c(F)cccc7F)c7ccc4[nH]7)C=C6)C=C5)cc3)cc2)S/C1=[NH+]\c1ccccc1
REMARK SMILES IDX 18 1 17 2 15 3 16 4 14 5 11 6 12 7 78 8 13 9 77 10 10 11
REMARK SMILES IDX 8 12 9 13 7 15 3 16 4 17 80 18 5 19 6 20 79 21 81 22 2 24
REMARK SMILES IDX 1 25 82 26 83 27 87 28 84 29 86 30 85 31 19 32 20 33 21 34
REMARK SMILES IDX 22 35 23 36 24 37 76 38 25 39 75 40 26 41 27 42 28 43 69 44
REMARK SMILES IDX 29 45 74 46 68 47 70 48 30 49 73 50 67 51 66 52 31 54 57 55
REMARK SMILES IDX 40 56 56 57 41 58 44 59 55 60 71 61 42 62 43 63 54 65 72 66
REMARK SMILES IDX 45 67 32 68 33 69 38 70 34 71 35 72 37 73 39 74 36 75 58 76
REMARK SMILES IDX 59 77 64 78 60 79 61 80 63 81 65 82 62 83 46 84 47 85 52 86
REMARK SMILES IDX 48 87 49 88 51 89 53 90 50 91
REMARK H PARENT 10 14 81 23 70 53 44 64
REMARK Flexibility Score: inf
ROOT
ATOM      1  C   UNL     1      -4.878   0.707  -0.370  1.00  0.00     0.275 C 
ENDROOT
BRANCH   1   2
ATOM      2  O   UNL     1      -4.215  -0.374  -1.063  1.00  0.00    -0.458 OA
BRANCH   2   3
ATOM      3  C   UNL     1      -3.526  -1.234  -0.275  1.00  0.00     0.338 C 
ATOM      4  O   UNL     1      -3.398  -1.166   0.934  1.00  0.00    -0.246 OA
BRANCH   3   5
ATOM      5  C   UNL     1      -2.967  -2.365  -1.056  1.00  0.00     0.060 A 
ATOM      6  C   UNL     1      -1.647  -4.505  -2.273  1.00  0.00     0.041 A 
ATOM      7  C   UNL     1      -2.338  -4.715  -1.087  1.00  0.00     0.027 A 
ATOM      8  C   UNL     1      -1.718  -3.268  -2.914  1.00  0.00     0.027 A 
ATOM      9  C   UNL     1      -2.934  -3.630  -0.454  1.00  0.00     0.018 A 
ATOM     10  C   UNL     1      -2.393  -2.195  -2.315  1.00  0.00     0.018 A 
BRANCH   6  11
ATOM     11  N   UNL     1      -0.861  -5.557  -2.736  1.00  0.00    -0.325 N 
ATOM     12  C   UNL     1       0.485  -5.619  -2.962  1.00  0.00     0.238 C 
ATOM     13  O   UNL     1       0.918  -6.706  -3.368  1.00  0.00    -0.273 OA
ATOM     14  H   UNL     1      -1.353  -6.387  -2.933  1.00  0.00     0.169 HD
BRANCH  12  15
ATOM     15  C   UNL     1       1.475  -4.484  -2.658  1.00  0.00     0.160 C 
ATOM     16  N   UNL     1       1.259  -1.559  -2.202  1.00  0.00    -0.191 N 
ATOM     17  C   UNL     1       1.895  -2.410  -1.317  1.00  0.00     0.311 C 
ATOM     18  C   UNL     1       1.166  -1.851  -3.562  1.00  0.00     0.319 C 
ATOM     19  O   UNL     1       2.778  -2.074  -0.532  1.00  0.00    -0.247 OA
ATOM     20  C   UNL     1       1.347  -3.806  -1.317  1.00  0.00     0.153 C 
ATOM     21  S   UNL     1       1.700  -3.434  -4.096  1.00  0.00    -0.024 SA
ATOM     22  N   UNL     1       0.725  -0.943  -4.383  1.00  0.00    -0.235 N 
ATOM     23  H   UNL     1       0.426  -0.072  -4.033  1.00  0.00     0.313 HD
BRANCH  16  24
ATOM     24  C   UNL     1       0.940  -0.189  -1.781  1.00  0.00     0.243 C 
ATOM     25  C   UNL     1       0.909   0.086  -0.281  1.00  0.00     0.054 C 
ENDBRANCH  16  24
BRANCH  22  26
ATOM     26  C   UNL     1       0.672  -1.193  -5.766  1.00  0.00     0.125 A 
ATOM     27  C   UNL     1       1.832  -1.196  -6.550  1.00  0.00     0.051 A 
ATOM     28  C   UNL     1      -0.557  -1.466  -6.372  1.00  0.00     0.051 A 
ATOM     29  C   UNL     1       1.777  -1.565  -7.896  1.00  0.00     0.004 A 
ATOM     30  C   UNL     1      -0.617  -1.825  -7.719  1.00  0.00     0.004 A 
ATOM     31  C   UNL     1       0.552  -1.893  -8.476  1.00  0.00     0.000 A 
ENDBRANCH  22  26
ENDBRANCH  12  15
ENDBRANCH   6  11
ENDBRANCH   3   5
ENDBRANCH   2   3
ENDBRANCH   1   2
BRANCH   1  32
ATOM     32  C   UNL     1      -6.378   0.444  -0.221  1.00  0.00     0.275 C 
BRANCH  32  33
ATOM     33  O   UNL     1      -6.625  -0.638   0.700  1.00  0.00    -0.458 OA
BRANCH  33  34
ATOM     34  C   UNL     1      -6.968  -1.808   0.119  1.00  0.00     0.338 C 
ATOM     35  O   UNL     1      -7.109  -2.032  -1.074  1.00  0.00    -0.246 OA
BRANCH  34  36
ATOM     36  C   UNL     1      -7.055  -2.888   1.113  1.00  0.00     0.060 A 
ATOM     37  C   UNL     1      -5.865  -3.467   1.525  1.00  0.00     0.016 A 
ATOM     38  C   UNL     1      -8.265  -3.510   1.405  1.00  0.00     0.016 A 
ATOM     39  C   UNL     1      -5.858  -4.757   2.044  1.00  0.00     0.010 A 
ATOM     40  C   UNL     1      -8.261  -4.740   2.082  1.00  0.00     0.010 A 
ATOM     41  C   UNL     1      -7.056  -5.420   2.344  1.00  0.00    -0.014 A 
BRANCH  41  42
ATOM     42  C   UNL     1      -7.031  -6.825   2.865  1.00  0.00     0.031 A 
ATOM     43  C   UNL     1      -7.840  -7.914   2.192  1.00  0.00     0.074 A 
ATOM     44  C   UNL     1      -6.251  -7.156   3.918  1.00  0.00     0.049 A 
ATOM     45  N   UNL     1      -8.065  -9.145   2.585  1.00  0.00    -0.248 NA
ATOM     46  C   UNL     1      -8.500  -7.571   0.922  1.00  0.00     0.031 C 
ATOM     47  C   UNL     1      -5.381  -6.237   4.656  1.00  0.00     0.029 A 
ATOM     48  N   UNL     1      -6.049  -8.364   4.545  1.00  0.00    -0.354 N 
ATOM     49  C   UNL     1      -8.940  -9.694   1.653  1.00  0.00     0.074 A 
ATOM     50  C   UNL     1      -9.216  -8.659   0.680  1.00  0.00     0.031 C 
ATOM     51  C   UNL     1      -4.698  -6.918   5.585  1.00  0.00     0.029 A 
ATOM     52  C   UNL     1      -5.163  -8.298   5.595  1.00  0.00     0.049 A 
ATOM     53  H   UNL     1      -6.496  -9.196   4.268  1.00  0.00     0.167 HD
ATOM     54  C   UNL     1      -9.463 -10.944   1.606  1.00  0.00     0.037 A 
ATOM     55  C   UNL     1      -4.797  -9.222   6.505  1.00  0.00     0.037 A 
ATOM     56  C   UNL     1      -9.136 -11.998   2.533  1.00  0.00     0.049 A 
ATOM     57  C   UNL     1      -5.414 -10.589   6.451  1.00  0.00     0.074 A 
ATOM     58  C   UNL     1      -9.591 -13.306   2.547  1.00  0.00     0.029 A 
ATOM     59  N   UNL     1      -8.260 -11.871   3.600  1.00  0.00    -0.354 N 
ATOM     60  N   UNL     1      -6.272 -11.075   5.588  1.00  0.00    -0.248 NA
ATOM     61  C   UNL     1      -5.027 -11.530   7.511  1.00  0.00     0.031 C 
ATOM     62  C   UNL     1      -9.029 -13.956   3.651  1.00  0.00     0.029 A 
ATOM     63  C   UNL     1      -8.178 -13.070   4.291  1.00  0.00     0.049 A 
ATOM     64  H   UNL     1      -7.769 -11.050   3.833  1.00  0.00     0.167 HD
ATOM     65  C   UNL     1      -6.515 -12.381   5.992  1.00  0.00     0.074 A 
ATOM     66  C   UNL     1      -5.692 -12.620   7.159  1.00  0.00     0.031 C 
ATOM     67  C   UNL     1      -7.353 -13.298   5.449  1.00  0.00     0.037 A 
BRANCH  54  68
ATOM     68  C   UNL     1     -10.474 -11.243   0.532  1.00  0.00     0.057 A 
ATOM     69  C   UNL     1     -10.125 -11.361  -0.819  1.00  0.00     0.134 A 
ATOM     70  C   UNL     1     -11.818 -11.465   0.870  1.00  0.00     0.134 A 
ATOM     71  F   UNL     1      -8.860 -11.152  -1.214  1.00  0.00    -0.206 F 
ATOM     72  C   UNL     1     -11.077 -11.663  -1.796  1.00  0.00     0.040 A 
ATOM     73  C   UNL     1     -12.772 -11.797  -0.094  1.00  0.00     0.040 A 
ATOM     74  F   UNL     1     -12.222 -11.380   2.146  1.00  0.00    -0.206 F 
ATOM     75  C   UNL     1     -12.403 -11.889  -1.433  1.00  0.00     0.006 A 
ENDBRANCH  54  68
BRANCH  55  76
ATOM     76  C   UNL     1      -3.837  -8.867   7.585  1.00  0.00     0.057 A 
ATOM     77  C   UNL     1      -2.573  -9.463   7.659  1.00  0.00     0.134 A 
ATOM     78  C   UNL     1      -4.167  -7.935   8.578  1.00  0.00     0.134 A 
ATOM     79  F   UNL     1      -2.205 -10.381   6.753  1.00  0.00    -0.206 F 
ATOM     80  C   UNL     1      -1.680  -9.159   8.688  1.00  0.00     0.040 A 
ATOM     81  C   UNL     1      -3.271  -7.595   9.592  1.00  0.00     0.040 A 
ATOM     82  F   UNL     1      -5.361  -7.325   8.565  1.00  0.00    -0.206 F 
ATOM     83  C   UNL     1      -2.026  -8.216   9.655  1.00  0.00     0.006 A 
ENDBRANCH  55  76
BRANCH  67  84
ATOM     84  C   UNL     1      -7.388 -14.654   6.093  1.00  0.00     0.057 A 
ATOM     85  C   UNL     1      -7.962 -14.861   7.355  1.00  0.00     0.134 A 
ATOM     86  C   UNL     1      -6.848 -15.768   5.439  1.00  0.00     0.134 A 
ATOM     87  F   UNL     1      -8.482 -13.832   8.042  1.00  0.00    -0.206 F 
ATOM     88  C   UNL     1      -7.967 -16.120   7.956  1.00  0.00     0.040 A 
ATOM     89  C   UNL     1      -6.875 -17.038   6.016  1.00  0.00     0.040 A 
ATOM     90  F   UNL     1      -6.291 -15.642   4.225  1.00  0.00    -0.206 F 
ATOM     91  C   UNL     1      -7.427 -17.215   7.283  1.00  0.00     0.006 A 
ENDBRANCH  67  84
ENDBRANCH  41  42
ENDBRANCH  34  36
ENDBRANCH  33  34
ENDBRANCH  32  33
ENDBRANCH   1  32
TORSDOF 15
