REMARK SMILES Cc1cc(C(=O)OCCOC(=O)c2ccc(-c3c4nc(c(-c5c(F)cccc5F)c5ccc([nH]5)c(-c5c(F)cccc5F)c5nc(c(-c6c(F)cccc6F)c6ccc3[nH]6)C=C5)C=C4)cc2)ccc1NC(=O)c1ccc(=O)n(CCOc2ccccc2)n1
REMARK SMILES IDX 5 1 6 2 4 3 1 4 2 5 3 6 69 7 68 8 67 9 70 10 71 11 72 13
REMARK SMILES IDX 73 14 74 15 88 16 75 17 78 18 76 19 77 20 79 21 80 22 81 23
REMARK SMILES IDX 82 24 83 25 87 26 84 27 86 28 85 29 7 30 8 31 9 32 10 33
REMARK SMILES IDX 11 34 12 35 13 36 14 37 66 38 15 39 65 40 16 41 17 42 18 43
REMARK SMILES IDX 59 44 19 45 64 46 58 47 60 48 20 49 63 50 57 51 56 52 21 54
REMARK SMILES IDX 47 55 30 56 46 57 31 58 34 59 45 60 61 61 32 62 33 63 44 65
REMARK SMILES IDX 62 66 35 67 22 68 23 69 28 70 24 71 25 72 27 73 29 74 26 75
REMARK SMILES IDX 48 76 49 77 54 78 50 79 51 80 53 81 55 82 52 83 36 84 37 85
REMARK SMILES IDX 42 86 38 87 39 88 41 89 43 90 40 91
REMARK H PARENT 70 12 60 53 34 64
REMARK Flexibility Score: inf
ROOT
ATOM      1  C   UNL     1      -2.111  -1.579  -1.253  1.00  0.00     0.338 C 
ATOM      2  O   UNL     1      -2.732  -1.498  -0.197  1.00  0.00    -0.246 OA
ENDROOT
BRANCH   1   3
ATOM      3  C   UNL     1      -1.019  -0.625  -1.487  1.00  0.00     0.060 A 
ATOM      4  C   UNL     1       2.540   0.094  -0.265  1.00  0.00     0.046 C 
ATOM      5  C   UNL     1       1.104   0.327  -0.642  1.00  0.00    -0.027 A 
ATOM      6  C   UNL     1       0.332  -0.785  -1.120  1.00  0.00     0.021 A 
ATOM      7  C   UNL     1       0.436   1.526  -0.363  1.00  0.00     0.044 A 
ATOM      8  C   UNL     1      -0.912   1.516  -0.633  1.00  0.00     0.027 A 
ATOM      9  C   UNL     1      -1.588   0.612  -1.407  1.00  0.00     0.018 A 
BRANCH   7  10
ATOM     10  N   UNL     1       1.013   2.697   0.203  1.00  0.00    -0.320 N 
ATOM     11  C   UNL     1       0.449   3.968   0.435  1.00  0.00     0.276 C 
ATOM     12  H   UNL     1       1.955   2.605   0.475  1.00  0.00     0.170 HD
ATOM     13  O   UNL     1       1.132   4.916   0.809  1.00  0.00    -0.267 OA
BRANCH  11  14
ATOM     14  C   UNL     1      -1.041   4.215   0.157  1.00  0.00     0.149 A 
ATOM     15  C   UNL     1      -1.387   4.497  -1.256  1.00  0.00     0.042 A 
ATOM     16  N   UNL     1      -1.913   3.978   1.101  1.00  0.00    -0.164 NA
ATOM     17  C   UNL     1      -2.575   4.034  -1.652  1.00  0.00     0.076 A 
ATOM     18  N   UNL     1      -3.216   3.650   0.665  1.00  0.00    -0.226 N 
ATOM     19  C   UNL     1      -3.458   3.346  -0.680  1.00  0.00     0.266 A 
ATOM     20  O   UNL     1      -4.281   2.536  -1.099  1.00  0.00    -0.268 OA
BRANCH  18  21
ATOM     21  C   UNL     1      -4.144   3.150   1.693  1.00  0.00     0.190 C 
BRANCH  21  22
ATOM     22  C   UNL     1      -5.018   4.250   2.317  1.00  0.00     0.253 C 
BRANCH  22  23
ATOM     23  O   UNL     1      -6.258   4.484   1.610  1.00  0.00    -0.492 OA
BRANCH  23  24
ATOM     24  C   UNL     1      -6.118   5.418   0.623  1.00  0.00     0.119 A 
ATOM     25  C   UNL     1      -6.236   6.777   0.877  1.00  0.00     0.046 A 
ATOM     26  C   UNL     1      -5.917   4.983  -0.678  1.00  0.00     0.046 A 
ATOM     27  C   UNL     1      -5.990   7.692  -0.153  1.00  0.00     0.004 A 
ATOM     28  C   UNL     1      -5.569   5.882  -1.683  1.00  0.00     0.004 A 
ATOM     29  C   UNL     1      -5.593   7.244  -1.415  1.00  0.00     0.000 A 
ENDBRANCH  23  24
ENDBRANCH  22  23
ENDBRANCH  21  22
ENDBRANCH  18  21
ENDBRANCH  11  14
ENDBRANCH   7  10
ENDBRANCH   1   3
BRANCH   1  30
ATOM     30  O   UNL     1      -2.516  -2.239  -2.359  1.00  0.00    -0.458 OA
BRANCH  30  31
ATOM     31  C   UNL     1      -3.793  -2.871  -2.173  1.00  0.00     0.275 C 
BRANCH  31  32
ATOM     32  C   UNL     1      -3.827  -4.285  -2.755  1.00  0.00     0.275 C 
BRANCH  32  33
ATOM     33  O   UNL     1      -2.585  -5.050  -2.795  1.00  0.00    -0.458 OA
BRANCH  33  34
ATOM     34  C   UNL     1      -1.539  -4.975  -1.938  1.00  0.00     0.338 C 
ATOM     35  O   UNL     1      -0.377  -5.151  -2.300  1.00  0.00    -0.246 OA
BRANCH  34  36
ATOM     36  C   UNL     1      -1.831  -4.651  -0.537  1.00  0.00     0.060 A 
ATOM     37  C   UNL     1      -0.898  -3.889   0.190  1.00  0.00     0.016 A 
ATOM     38  C   UNL     1      -3.067  -4.993   0.001  1.00  0.00     0.016 A 
ATOM     39  C   UNL     1      -1.236  -3.380   1.432  1.00  0.00     0.010 A 
ATOM     40  C   UNL     1      -3.467  -4.377   1.155  1.00  0.00     0.010 A 
ATOM     41  C   UNL     1      -2.526  -3.634   1.889  1.00  0.00    -0.014 A 
BRANCH  41  42
ATOM     42  C   UNL     1      -2.854  -3.592   3.295  1.00  0.00     0.031 A 
ATOM     43  C   UNL     1      -3.450  -2.398   3.898  1.00  0.00     0.074 A 
ATOM     44  C   UNL     1      -2.719  -4.838   3.805  1.00  0.00     0.049 A 
ATOM     45  N   UNL     1      -3.513  -2.203   5.163  1.00  0.00    -0.248 NA
ATOM     46  C   UNL     1      -3.995  -1.277   3.133  1.00  0.00     0.031 C 
ATOM     47  C   UNL     1      -3.205  -5.476   5.008  1.00  0.00     0.029 A 
ATOM     48  N   UNL     1      -1.885  -5.820   3.230  1.00  0.00    -0.354 N 
ATOM     49  C   UNL     1      -4.399  -1.167   5.386  1.00  0.00     0.074 A 
ATOM     50  C   UNL     1      -4.542  -0.529   4.102  1.00  0.00     0.031 C 
ATOM     51  C   UNL     1      -2.426  -6.553   5.254  1.00  0.00     0.029 A 
ATOM     52  C   UNL     1      -1.338  -6.549   4.276  1.00  0.00     0.049 A 
ATOM     53  H   UNL     1      -1.722  -5.960   2.269  1.00  0.00     0.167 HD
ATOM     54  C   UNL     1      -5.022  -1.127   6.603  1.00  0.00     0.037 A 
ATOM     55  C   UNL     1      -0.017  -6.324   4.542  1.00  0.00     0.037 A 
ATOM     56  C   UNL     1      -4.473  -2.202   7.437  1.00  0.00     0.049 A 
ATOM     57  C   UNL     1       0.097  -5.592   5.858  1.00  0.00     0.074 A 
ATOM     58  C   UNL     1      -4.894  -3.507   7.636  1.00  0.00     0.029 A 
ATOM     59  N   UNL     1      -3.134  -2.154   7.810  1.00  0.00    -0.354 N 
ATOM     60  N   UNL     1      -0.739  -4.676   6.278  1.00  0.00    -0.248 NA
ATOM     61  C   UNL     1       1.080  -5.981   6.859  1.00  0.00     0.031 C 
ATOM     62  C   UNL     1      -3.753  -4.271   8.012  1.00  0.00     0.029 A 
ATOM     63  C   UNL     1      -2.650  -3.431   8.042  1.00  0.00     0.049 A 
ATOM     64  H   UNL     1      -2.604  -1.329   7.896  1.00  0.00     0.167 HD
ATOM     65  C   UNL     1      -0.492  -4.434   7.604  1.00  0.00     0.074 A 
ATOM     66  C   UNL     1       0.669  -5.256   7.911  1.00  0.00     0.031 C 
ATOM     67  C   UNL     1      -1.258  -3.638   8.410  1.00  0.00     0.037 A 
BRANCH  54  68
ATOM     68  C   UNL     1      -6.292  -0.378   6.969  1.00  0.00     0.057 A 
ATOM     69  C   UNL     1      -7.027  -0.758   8.116  1.00  0.00     0.134 A 
ATOM     70  C   UNL     1      -6.881   0.672   6.242  1.00  0.00     0.134 A 
ATOM     71  F   UNL     1      -6.581  -1.702   8.957  1.00  0.00    -0.206 F 
ATOM     72  C   UNL     1      -8.262  -0.194   8.469  1.00  0.00     0.040 A 
ATOM     73  C   UNL     1      -8.126   1.237   6.577  1.00  0.00     0.040 A 
ATOM     74  F   UNL     1      -6.281   1.235   5.191  1.00  0.00    -0.206 F 
ATOM     75  C   UNL     1      -8.827   0.799   7.689  1.00  0.00     0.006 A 
ENDBRANCH  54  68
BRANCH  55  76
ATOM     76  C   UNL     1       0.851  -6.124   3.325  1.00  0.00     0.057 A 
ATOM     77  C   UNL     1       0.778  -7.071   2.275  1.00  0.00     0.134 A 
ATOM     78  C   UNL     1       1.562  -4.955   3.035  1.00  0.00     0.134 A 
ATOM     79  F   UNL     1       0.136  -8.236   2.463  1.00  0.00    -0.206 F 
ATOM     80  C   UNL     1       1.281  -6.828   0.990  1.00  0.00     0.040 A 
ATOM     81  C   UNL     1       2.099  -4.710   1.754  1.00  0.00     0.040 A 
ATOM     82  F   UNL     1       1.695  -3.987   3.951  1.00  0.00    -0.206 F 
ATOM     83  C   UNL     1       1.933  -5.633   0.721  1.00  0.00     0.006 A 
ENDBRANCH  55  76
BRANCH  67  84
ATOM     84  C   UNL     1      -0.763  -3.047   9.705  1.00  0.00     0.057 A 
ATOM     85  C   UNL     1       0.593  -2.804   9.969  1.00  0.00     0.134 A 
ATOM     86  C   UNL     1      -1.664  -2.530  10.662  1.00  0.00     0.134 A 
ATOM     87  F   UNL     1       1.551  -3.107   9.082  1.00  0.00    -0.206 F 
ATOM     88  C   UNL     1       1.028  -2.178  11.139  1.00  0.00     0.040 A 
ATOM     89  C   UNL     1      -1.243  -1.831  11.793  1.00  0.00     0.040 A 
ATOM     90  F   UNL     1      -2.993  -2.645  10.525  1.00  0.00    -0.206 F 
ATOM     91  C   UNL     1       0.109  -1.676  12.049  1.00  0.00     0.006 A 
ENDBRANCH  67  84
ENDBRANCH  41  42
ENDBRANCH  34  36
ENDBRANCH  33  34
ENDBRANCH  32  33
ENDBRANCH  31  32
ENDBRANCH  30  31
ENDBRANCH   1  30
TORSDOF 17
