REMARK SMILES O=C(OCCOC(=O)c1ccccc1Nc1cccc(S(F)(F)(F)(F)F)c1)c1ccc(-c2c3nc(c(-c4c(F)cccc4F)c4ccc([nH]4)c(-c4c(F)cccc4F)c4nc(c(-c5c(F)cccc5F)c5ccc2[nH]5)C=C4)C=C3)cc1
REMARK SMILES IDX 5 1 4 2 3 3 2 4 1 5 28 6 29 7 81 8 30 9 80 10 31 11 32 12
REMARK SMILES IDX 33 13 74 14 34 15 79 16 73 17 75 18 35 19 78 20 72 21 71 22
REMARK SMILES IDX 36 24 62 25 45 26 61 27 46 28 49 29 60 30 76 31 47 32 48 33
REMARK SMILES IDX 59 35 77 36 50 37 37 38 38 39 43 40 39 41 40 42 42 43 44 44
REMARK SMILES IDX 41 45 63 46 64 47 69 48 65 49 66 50 68 51 70 52 67 53 51 54
REMARK SMILES IDX 52 55 57 56 53 57 54 58 56 59 58 60 55 61 6 62 7 63 8 64
REMARK SMILES IDX 9 65 10 66 14 67 11 68 13 69 12 70 15 71 16 73 17 74 27 75
REMARK SMILES IDX 18 76 20 77 19 78 21 79 22 80 23 81 24 82 25 83 26 84
REMARK H PARENT 75 23 49 34 15 72
REMARK Flexibility Score: inf
ROOT
ATOM      1  C   UNL     1       4.992   1.298   0.163  1.00  0.00     0.275 C 
ENDROOT
BRANCH   1   2
ATOM      2  C   UNL     1       4.485   0.611  -1.095  1.00  0.00     0.275 C 
BRANCH   2   3
ATOM      3  O   UNL     1       3.065   0.611  -1.095  1.00  0.00    -0.458 OA
BRANCH   3   4
ATOM      4  C   UNL     1       2.355  -0.029  -0.045  1.00  0.00     0.338 C 
ATOM      5  O   UNL     1       1.084  -0.029  -0.045  1.00  0.00    -0.246 OA
BRANCH   4   6
ATOM      6  C   UNL     1       3.115  -0.714   1.079  1.00  0.00     0.060 A 
ATOM      7  C   UNL     1       4.259  -0.094   1.554  1.00  0.00     0.016 A 
ATOM      8  C   UNL     1       2.757  -1.920   1.506  1.00  0.00     0.016 A 
ATOM      9  C   UNL     1       5.122  -0.956   2.272  1.00  0.00     0.010 A 
ATOM     10  C   UNL     1       3.591  -2.651   2.316  1.00  0.00     0.010 A 
ATOM     11  C   UNL     1       4.766  -2.123   2.776  1.00  0.00    -0.014 A 
BRANCH  11  12
ATOM     12  C   UNL     1       5.615  -2.841   3.812  1.00  0.00     0.031 A 
ATOM     13  C   UNL     1       6.127  -4.112   3.546  1.00  0.00     0.074 A 
ATOM     14  C   UNL     1       5.910  -2.111   4.951  1.00  0.00     0.049 A 
ATOM     15  N   UNL     1       6.984  -4.816   4.287  1.00  0.00    -0.248 NA
ATOM     16  C   UNL     1       5.788  -4.904   2.354  1.00  0.00     0.031 C 
ATOM     17  C   UNL     1       5.404  -0.824   5.223  1.00  0.00     0.029 A 
ATOM     18  N   UNL     1       6.720  -2.476   6.003  1.00  0.00    -0.354 N 
ATOM     19  C   UNL     1       7.256  -5.981   3.696  1.00  0.00     0.074 A 
ATOM     20  C   UNL     1       6.486  -6.057   2.447  1.00  0.00     0.031 C 
ATOM     21  C   UNL     1       5.893  -0.425   6.426  1.00  0.00     0.029 A 
ATOM     22  C   UNL     1       6.713  -1.454   6.926  1.00  0.00     0.049 A 
ATOM     23  H   UNL     1       7.218  -3.321   6.081  1.00  0.00     0.167 HD
ATOM     24  C   UNL     1       8.117  -6.982   4.149  1.00  0.00     0.037 A 
ATOM     25  C   UNL     1       7.375  -1.405   8.143  1.00  0.00     0.037 A 
ATOM     26  C   UNL     1       8.814  -6.913   5.345  1.00  0.00     0.049 A 
ATOM     27  C   UNL     1       8.191  -2.432   8.623  1.00  0.00     0.074 A 
ATOM     28  C   UNL     1       9.692  -7.910   5.812  1.00  0.00     0.029 A 
ATOM     29  N   UNL     1       8.787  -5.902   6.280  1.00  0.00    -0.354 N 
ATOM     30  N   UNL     1       8.494  -3.579   8.014  1.00  0.00    -0.248 NA
ATOM     31  C   UNL     1       8.872  -2.404   9.924  1.00  0.00     0.031 C 
ATOM     32  C   UNL     1      10.181  -7.511   7.016  1.00  0.00     0.029 A 
ATOM     33  C   UNL     1       9.615  -6.258   7.321  1.00  0.00     0.049 A 
ATOM     34  H   UNL     1       8.266  -5.070   6.215  1.00  0.00     0.167 HD
ATOM     35  C   UNL     1       9.319  -4.300   8.775  1.00  0.00     0.074 A 
ATOM     36  C   UNL     1       9.569  -3.558  10.019  1.00  0.00     0.031 C 
ATOM     37  C   UNL     1       9.877  -5.546   8.482  1.00  0.00     0.037 A 
BRANCH  24  38
ATOM     38  C   UNL     1       8.301  -8.216   3.281  1.00  0.00     0.057 A 
ATOM     39  C   UNL     1       8.873  -7.997   2.039  1.00  0.00     0.134 A 
ATOM     40  C   UNL     1       8.006  -9.442   3.697  1.00  0.00     0.134 A 
ATOM     41  F   UNL     1       9.413  -6.835   1.683  1.00  0.00    -0.206 F 
ATOM     42  C   UNL     1       8.830  -9.122   1.182  1.00  0.00     0.040 A 
ATOM     43  C   UNL     1       8.117 -10.515   2.846  1.00  0.00     0.040 A 
ATOM     44  F   UNL     1       7.599  -9.633   4.949  1.00  0.00    -0.206 F 
ATOM     45  C   UNL     1       8.618 -10.363   1.583  1.00  0.00     0.006 A 
ENDBRANCH  24  38
BRANCH  25  46
ATOM     46  C   UNL     1       7.204  -0.163   9.002  1.00  0.00     0.057 A 
ATOM     47  C   UNL     1       8.295   0.571   9.438  1.00  0.00     0.134 A 
ATOM     48  C   UNL     1       5.971   0.138   9.393  1.00  0.00     0.134 A 
ATOM     49  F   UNL     1       9.502   0.473   8.887  1.00  0.00    -0.206 F 
ATOM     50  C   UNL     1       8.010   1.432  10.524  1.00  0.00     0.040 A 
ATOM     51  C   UNL     1       5.757   1.088  10.363  1.00  0.00     0.040 A 
ATOM     52  F   UNL     1       4.935  -0.486   8.842  1.00  0.00    -0.206 F 
ATOM     53  C   UNL     1       6.796   1.810  10.881  1.00  0.00     0.006 A 
ENDBRANCH  25  46
BRANCH  37  54
ATOM     54  C   UNL     1      10.828  -6.159   9.496  1.00  0.00     0.057 A 
ATOM     55  C   UNL     1      10.371  -6.340  10.791  1.00  0.00     0.134 A 
ATOM     56  C   UNL     1      12.082  -6.440   9.163  1.00  0.00     0.134 A 
ATOM     57  F   UNL     1       9.081  -6.316  11.115  1.00  0.00    -0.206 F 
ATOM     58  C   UNL     1      11.401  -6.551  11.738  1.00  0.00     0.040 A 
ATOM     59  C   UNL     1      13.005  -6.772  10.126  1.00  0.00     0.040 A 
ATOM     60  F   UNL     1      12.450  -6.399   7.885  1.00  0.00    -0.206 F 
ATOM     61  C   UNL     1      12.635  -6.910  11.435  1.00  0.00     0.006 A 
ENDBRANCH  37  54
ENDBRANCH  11  12
ENDBRANCH   4   6
ENDBRANCH   3   4
ENDBRANCH   2   3
ENDBRANCH   1   2
BRANCH   1  62
ATOM     62  O   UNL     1       4.519   0.601   1.306  1.00  0.00    -0.458 OA
BRANCH  62  63
ATOM     63  C   UNL     1       3.123   0.466   1.528  1.00  0.00     0.340 C 
ATOM     64  O   UNL     1       2.297   0.969   0.703  1.00  0.00    -0.246 OA
BRANCH  63  65
ATOM     65  C   UNL     1       2.616  -0.281   2.751  1.00  0.00     0.083 A 
ATOM     66  C   UNL     1       1.488  -1.080   2.669  1.00  0.00     0.018 A 
ATOM     67  C   UNL     1       3.192  -0.020   3.918  1.00  0.00     0.053 A 
ATOM     68  C   UNL     1       0.868  -1.326   3.917  1.00  0.00     0.001 A 
ATOM     69  C   UNL     1       2.598  -0.409   5.094  1.00  0.00     0.027 A 
ATOM     70  C   UNL     1       1.449  -1.151   5.090  1.00  0.00     0.002 A 
BRANCH  67  71
ATOM     71  N   UNL     1       4.478   0.692   3.953  1.00  0.00    -0.355 N 
ATOM     72  H   UNL     1       4.908   0.972   3.113  1.00  0.00     0.167 HD
BRANCH  71  73
ATOM     73  C   UNL     1       5.122   0.984   5.242  1.00  0.00     0.040 A 
ATOM     74  C   UNL     1       5.414   2.294   5.582  1.00  0.00     0.026 A 
ATOM     75  C   UNL     1       5.452  -0.025   6.040  1.00  0.00     0.050 A 
ATOM     76  C   UNL     1       6.321   2.418   6.660  1.00  0.00     0.004 A 
ATOM     77  C   UNL     1       6.229   0.189   7.153  1.00  0.00     0.109 A 
ATOM     78  C   UNL     1       6.604   1.453   7.516  1.00  0.00     0.024 A 
BRANCH  77  79
ATOM     79  S   UNL     1       6.763  -1.222   8.153  1.00  0.00     0.310 S 
ATOM     80  F   UNL     1       5.435  -0.984   8.988  1.00  0.00    -0.094 F 
ATOM     81  F   UNL     1       7.500  -0.296   9.193  1.00  0.00    -0.094 F 
ATOM     82  F   UNL     1       7.023  -2.472   9.040  1.00  0.00    -0.094 F 
ATOM     83  F   UNL     1       5.900  -2.107   7.171  1.00  0.00    -0.094 F 
ATOM     84  F   UNL     1       6.394   0.057   7.301  1.00  0.00    -0.094 F 
ENDBRANCH  77  79
ENDBRANCH  71  73
ENDBRANCH  67  71
ENDBRANCH  63  65
ENDBRANCH  62  63
ENDBRANCH   1  62
TORSDOF 14
