REMARK SMILES C[C@H]1[C@H](C)CC[C@@]2(C(=O)OCCOC(=O)c3ccc(-c4c5nc(c(-c6c(F)cccc6F)c6ccc([nH]6)c(-c6c(F)cccc6F)c6nc(c(-c7c(F)cccc7F)c7ccc4[nH]7)C=C6)C=C5)cc3)CC[C@@]3(C)C(=CC[C@@H]4[C@@]5(C)CC[C@H](O)C(C)(C)[C@@H]5CC[C@]43C)[C@H]12
REMARK SMILES IDX 12 1 11 2 10 3 8 4 9 5 7 6 1 7 2 8 3 9 92 10 4 11 5 12 74 13
REMARK SMILES IDX 6 14 70 15 72 16 75 17 71 18 73 19 90 20 76 21 77 22 89 23
REMARK SMILES IDX 91 24 78 25 88 26 79 27 80 28 87 29 81 30 84 31 82 32 85 33
REMARK SMILES IDX 86 34 83 35 13 37 14 38 15 39 16 40 17 41 69 42 18 43 68 44
REMARK SMILES IDX 19 45 20 46 21 47 62 48 22 49 67 50 61 51 63 52 23 53 66 54
REMARK SMILES IDX 60 55 59 56 24 58 50 59 33 60 49 61 34 62 37 63 48 64 64 65
REMARK SMILES IDX 35 66 36 67 47 69 65 70 38 71 25 72 26 73 31 74 27 75 28 76
REMARK SMILES IDX 30 77 32 78 29 79 51 80 52 81 57 82 53 83 54 84 56 85 58 86
REMARK SMILES IDX 55 87 39 88 40 89 45 90 41 91 42 92 44 93 46 94 43 95
REMARK H PARENT 83 36 63 57 37 68
REMARK Flexibility Score: inf
ROOT
ATOM      1  C   UNL     1      -3.792   0.822   2.395  1.00  0.00     0.275 C 
ENDROOT
BRANCH   1   2
ATOM      2  C   UNL     1      -2.484   0.586   1.619  1.00  0.00     0.274 C 
BRANCH   2   3
ATOM      3  O   UNL     1      -1.333   0.161   2.380  1.00  0.00    -0.462 OA
BRANCH   3   4
ATOM      4  C   UNL     1      -0.631   1.180   2.943  1.00  0.00     0.312 C 
ATOM      5  O   UNL     1      -1.141   2.265   3.126  1.00  0.00    -0.252 OA
BRANCH   4   6
ATOM      6  C   UNL     1       0.881   0.934   3.138  1.00  0.00     0.075 C 
ATOM      7  C   UNL     1       2.227  -0.022  -0.425  1.00  0.00     0.008 C 
ATOM      8  C   UNL     1       1.343  -0.115   0.831  1.00  0.00    -0.003 C 
ATOM      9  C   UNL     1       1.595  -1.488   1.538  1.00  0.00    -0.011 C 
ATOM     10  C   UNL     1       1.591   1.128   1.767  1.00  0.00     0.036 C 
ATOM     11  C   UNL     1       1.125  -2.678   0.684  1.00  0.00     0.008 C 
ATOM     12  C   UNL     1       0.916  -1.623   2.903  1.00  0.00     0.005 C 
ATOM     13  C   UNL     1       1.172   2.558   1.272  1.00  0.00    -0.063 C 
ATOM     14  C   UNL     1       1.153  -0.426   3.798  1.00  0.00     0.020 C 
ATOM     15  C   UNL     1       1.475   2.004   4.103  1.00  0.00     0.020 C 
ATOM     16  C   UNL     1       1.584   3.789   2.162  1.00  0.00    -0.006 C 
ATOM     17  C   UNL     1       0.268   2.694   0.279  1.00  0.00    -0.027 C 
ATOM     18  C   UNL     1       1.298   3.464   3.664  1.00  0.00     0.013 C 
ATOM     19  C   UNL     1       3.121   3.967   2.052  1.00  0.00     0.017 C 
ATOM     20  C   UNL     1       0.812   5.199   1.706  1.00  0.00    -0.020 C 
ATOM     21  C   UNL     1      -0.607   3.896   0.073  1.00  0.00     0.032 C 
ATOM     22  C   UNL     1      -0.659   4.813   1.315  1.00  0.00     0.006 C 
ATOM     23  C   UNL     1       0.774   6.268   2.832  1.00  0.00     0.008 C 
ATOM     24  C   UNL     1       1.556   5.858   0.514  1.00  0.00     0.012 C 
ATOM     25  C   UNL     1      -1.806   5.921   1.283  1.00  0.00    -0.025 C 
ATOM     26  C   UNL     1      -0.206   7.431   2.594  1.00  0.00     0.005 C 
ATOM     27  C   UNL     1      -1.834   6.645  -0.075  1.00  0.00     0.012 C 
ATOM     28  C   UNL     1      -3.183   5.196   1.470  1.00  0.00     0.010 C 
ATOM     29  C   UNL     1      -1.642   6.884   2.512  1.00  0.00     0.003 C 
ATOM     30  C   UNL     1      -4.375   6.116   1.739  1.00  0.00     0.033 C 
ATOM     31  C   UNL     1      -2.808   7.926   2.744  1.00  0.00    -0.006 C 
ATOM     32  C   UNL     1      -4.138   7.120   2.868  1.00  0.00     0.120 C 
ATOM     33  C   UNL     1      -2.924   9.021   1.666  1.00  0.00     0.014 C 
ATOM     34  C   UNL     1      -2.590   8.696   4.078  1.00  0.00     0.014 C 
BRANCH  32  35
ATOM     35  O   UNL     1      -5.278   7.973   2.980  1.00  0.00    -0.393 OA
ATOM     36  H   UNL     1      -5.386   8.478   2.159  1.00  0.00     0.210 HD
ENDBRANCH  32  35
ENDBRANCH   4   6
ENDBRANCH   3   4
ENDBRANCH   2   3
ENDBRANCH   1   2
BRANCH   1  37
ATOM     37  O   UNL     1      -3.713   1.887   3.357  1.00  0.00    -0.458 OA
BRANCH  37  38
ATOM     38  C   UNL     1      -3.281   1.526   4.595  1.00  0.00     0.338 C 
ATOM     39  O   UNL     1      -3.184   0.382   5.016  1.00  0.00    -0.246 OA
BRANCH  38  40
ATOM     40  C   UNL     1      -2.721   2.707   5.310  1.00  0.00     0.060 A 
ATOM     41  C   UNL     1      -1.599   2.522   6.138  1.00  0.00     0.016 A 
ATOM     42  C   UNL     1      -3.209   3.993   5.099  1.00  0.00     0.016 A 
ATOM     43  C   UNL     1      -0.968   3.612   6.757  1.00  0.00     0.010 A 
ATOM     44  C   UNL     1      -2.579   5.076   5.717  1.00  0.00     0.010 A 
ATOM     45  C   UNL     1      -1.473   4.901   6.571  1.00  0.00    -0.014 A 
BRANCH  45  46
ATOM     46  C   UNL     1      -1.121   6.021   7.488  1.00  0.00     0.031 A 
ATOM     47  C   UNL     1      -2.139   6.354   8.546  1.00  0.00     0.074 A 
ATOM     48  C   UNL     1      -0.017   6.784   7.372  1.00  0.00     0.049 A 
ATOM     49  N   UNL     1      -2.165   7.337   9.407  1.00  0.00    -0.248 NA
ATOM     50  C   UNL     1      -3.315   5.466   8.611  1.00  0.00     0.031 C 
ATOM     51  C   UNL     1       1.059   6.597   6.407  1.00  0.00     0.029 A 
ATOM     52  N   UNL     1       0.359   7.912   8.065  1.00  0.00    -0.354 N 
ATOM     53  C   UNL     1      -3.354   7.178  10.105  1.00  0.00     0.074 A 
ATOM     54  C   UNL     1      -4.077   6.091   9.487  1.00  0.00     0.031 C 
ATOM     55  C   UNL     1       1.934   7.616   6.509  1.00  0.00     0.029 A 
ATOM     56  C   UNL     1       1.503   8.506   7.585  1.00  0.00     0.049 A 
ATOM     57  H   UNL     1      -0.144   8.261   8.835  1.00  0.00     0.167 HD
ATOM     58  C   UNL     1      -3.784   7.821  11.213  1.00  0.00     0.037 A 
ATOM     59  C   UNL     1       2.135   9.628   7.984  1.00  0.00     0.037 A 
ATOM     60  C   UNL     1      -3.060   8.875  11.857  1.00  0.00     0.049 A 
ATOM     61  C   UNL     1       1.628  10.368   9.197  1.00  0.00     0.074 A 
ATOM     62  C   UNL     1      -3.365   9.547  13.025  1.00  0.00     0.029 A 
ATOM     63  N   UNL     1      -1.876   9.412  11.377  1.00  0.00    -0.354 N 
ATOM     64  N   UNL     1       0.568  10.128   9.931  1.00  0.00    -0.248 NA
ATOM     65  C   UNL     1       2.437  11.503   9.669  1.00  0.00     0.031 C 
ATOM     66  C   UNL     1      -2.373  10.510  13.241  1.00  0.00     0.029 A 
ATOM     67  C   UNL     1      -1.437  10.414  12.222  1.00  0.00     0.049 A 
ATOM     68  H   UNL     1      -1.416   9.122  10.556  1.00  0.00     0.167 HD
ATOM     69  C   UNL     1       0.618  11.036  10.982  1.00  0.00     0.074 A 
ATOM     70  C   UNL     1       1.806  11.840  10.785  1.00  0.00     0.031 C 
ATOM     71  C   UNL     1      -0.234  11.180  12.027  1.00  0.00     0.037 A 
BRANCH  58  72
ATOM     72  C   UNL     1      -5.078   7.339  11.792  1.00  0.00     0.057 A 
ATOM     73  C   UNL     1      -5.184   6.067  12.377  1.00  0.00     0.134 A 
ATOM     74  C   UNL     1      -6.244   8.103  11.686  1.00  0.00     0.134 A 
ATOM     75  F   UNL     1      -4.105   5.274  12.479  1.00  0.00    -0.206 F 
ATOM     76  C   UNL     1      -6.413   5.550  12.783  1.00  0.00     0.040 A 
ATOM     77  C   UNL     1      -7.475   7.609  12.119  1.00  0.00     0.040 A 
ATOM     78  F   UNL     1      -6.211   9.325  11.135  1.00  0.00    -0.206 F 
ATOM     79  C   UNL     1      -7.564   6.323  12.653  1.00  0.00     0.006 A 
ENDBRANCH  58  72
BRANCH  59  80
ATOM     80  C   UNL     1       3.365  10.098   7.293  1.00  0.00     0.057 A 
ATOM     81  C   UNL     1       4.626   9.953   7.885  1.00  0.00     0.134 A 
ATOM     82  C   UNL     1       3.305  10.765   6.064  1.00  0.00     0.134 A 
ATOM     83  F   UNL     1       4.744   9.348   9.076  1.00  0.00    -0.206 F 
ATOM     84  C   UNL     1       5.778  10.479   7.298  1.00  0.00     0.040 A 
ATOM     85  C   UNL     1       4.453  11.282   5.456  1.00  0.00     0.040 A 
ATOM     86  F   UNL     1       2.129  10.943   5.445  1.00  0.00    -0.206 F 
ATOM     87  C   UNL     1       5.694  11.148   6.079  1.00  0.00     0.006 A 
ENDBRANCH  59  80
BRANCH  71  88
ATOM     88  C   UNL     1       0.118  12.192  13.075  1.00  0.00     0.057 A 
ATOM     89  C   UNL     1      -0.008  13.568  12.852  1.00  0.00     0.134 A 
ATOM     90  C   UNL     1       0.536  11.776  14.346  1.00  0.00     0.134 A 
ATOM     91  F   UNL     1      -0.391  14.030  11.652  1.00  0.00    -0.206 F 
ATOM     92  C   UNL     1       0.285  14.496  13.852  1.00  0.00     0.040 A 
ATOM     93  C   UNL     1       0.807  12.693  15.361  1.00  0.00     0.040 A 
ATOM     94  F   UNL     1       0.668  10.471  14.627  1.00  0.00    -0.206 F 
ATOM     95  C   UNL     1       0.685  14.059  15.114  1.00  0.00     0.006 A 
ENDBRANCH  71  88
ENDBRANCH  45  46
ENDBRANCH  38  40
ENDBRANCH  37  38
ENDBRANCH   1  37
TORSDOF 12
