REMARK SMILES Cc1ccc(/C=C2\SC(=S)N([C@H](C(=O)OCCOC(=O)c3ccc(-c4c5nc(c(-c6c(F)cccc6F)c6ccc([nH]6)c(-c6c(F)cccc6F)c6nc(c(-c7c(F)cccc7F)c7ccc4[nH]7)C=C6)C=C5)cc3)C(C)C)C2=O)cc1
REMARK SMILES IDX 16 1 15 2 13 3 14 4 12 5 11 6 6 7 7 8 8 9 78 10 9 11 79 12
REMARK SMILES IDX 10 13 5 14 1 15 2 16 3 17 81 18 4 19 80 20 75 21 76 22 77 23
REMARK SMILES IDX 17 24 18 25 19 26 20 27 21 28 22 29 74 30 23 31 73 32 24 33
REMARK SMILES IDX 25 34 26 35 67 36 27 37 72 38 66 39 68 40 28 41 71 42 65 43
REMARK SMILES IDX 64 44 29 46 55 47 38 48 54 49 39 50 42 51 53 52 69 53 40 54
REMARK SMILES IDX 41 55 52 57 70 58 43 59 30 60 31 61 36 62 32 63 33 64 35 65
REMARK SMILES IDX 37 66 34 67 56 68 57 69 62 70 58 71 59 72 61 73 63 74 60 75
REMARK SMILES IDX 44 76 45 77 50 78 46 79 47 80 49 81 51 82 48 83
REMARK H PARENT 68 45 42 56
REMARK Flexibility Score: inf
ROOT
ATOM      1  C   UNL     1      -4.503   2.809   1.198  1.00  0.00     0.274 C 
ENDROOT
BRANCH   1   2
ATOM      2  O   UNL     1      -4.566   2.319  -0.156  1.00  0.00    -0.461 OA
BRANCH   2   3
ATOM      3  C   UNL     1      -5.558   2.892  -0.882  1.00  0.00     0.329 C 
ATOM      4  O   UNL     1      -5.828   4.079  -0.699  1.00  0.00    -0.250 OA
BRANCH   3   5
ATOM      5  C   UNL     1      -6.391   1.794  -2.078  1.00  0.00     0.204 C 
BRANCH   5   6
ATOM      6  N   UNL     1      -7.340  -0.096  -1.895  1.00  0.00    -0.278 N 
ATOM      7  C   UNL     1     -10.168  -2.328  -0.650  1.00  0.00     0.029 C 
ATOM      8  C   UNL     1      -9.430  -1.502  -1.409  1.00  0.00     0.081 C 
ATOM      9  S   UNL     1      -9.299  -1.488  -3.105  1.00  0.00    -0.054 SA
ATOM     10  C   UNL     1      -8.252  -0.730  -0.833  1.00  0.00     0.267 C 
ATOM     11  C   UNL     1      -7.557  -1.270  -2.758  1.00  0.00     0.149 C 
ATOM     12  O   UNL     1      -8.052  -0.829   0.382  1.00  0.00    -0.268 OA
ATOM     13  S   UNL     1      -6.689  -2.732  -2.853  1.00  0.00    -0.052 S 
BRANCH   7  14
ATOM     14  C   UNL     1     -10.928  -3.463  -1.192  1.00  0.00    -0.024 A 
ATOM     15  C   UNL     1     -12.764  -6.862  -3.109  1.00  0.00     0.044 C 
ATOM     16  C   UNL     1     -12.153  -5.693  -2.395  1.00  0.00    -0.051 A 
ATOM     17  C   UNL     1     -12.701  -4.412  -2.539  1.00  0.00     0.004 A 
ATOM     18  C   UNL     1     -11.000  -5.855  -1.623  1.00  0.00     0.004 A 
ATOM     19  C   UNL     1     -12.096  -3.303  -1.938  1.00  0.00     0.008 A 
ATOM     20  C   UNL     1     -10.395  -4.748  -1.023  1.00  0.00     0.008 A 
ENDBRANCH   7  14
ENDBRANCH   5   6
BRANCH   5  21
ATOM     21  C   UNL     1      -7.024   3.345  -2.945  1.00  0.00     0.017 C 
ATOM     22  C   UNL     1      -5.815   4.064  -3.598  1.00  0.00     0.010 C 
ATOM     23  C   UNL     1      -8.172   3.576  -3.972  1.00  0.00     0.010 C 
ENDBRANCH   5  21
ENDBRANCH   3   5
ENDBRANCH   2   3
ENDBRANCH   1   2
BRANCH   1  24
ATOM     24  C   UNL     1      -5.866   3.002   1.908  1.00  0.00     0.275 C 
BRANCH  24  25
ATOM     25  O   UNL     1      -6.746   1.887   1.665  1.00  0.00    -0.458 OA
BRANCH  25  26
ATOM     26  C   UNL     1      -7.804   2.125   0.842  1.00  0.00     0.338 C 
ATOM     27  O   UNL     1      -8.684   2.950   0.974  1.00  0.00    -0.246 OA
BRANCH  26  28
ATOM     28  C   UNL     1      -7.530   1.403  -0.418  1.00  0.00     0.060 A 
ATOM     29  C   UNL     1      -8.431   1.605  -1.971  1.00  0.00     0.016 A 
ATOM     30  C   UNL     1      -5.983   0.472  -0.452  1.00  0.00     0.016 A 
ATOM     31  C   UNL     1      -7.649   1.043  -3.554  1.00  0.00     0.010 A 
ATOM     32  C   UNL     1      -5.231  -0.002  -1.976  1.00  0.00     0.010 A 
ATOM     33  C   UNL     1      -6.011   0.279  -3.578  1.00  0.00    -0.014 A 
BRANCH  33  34
ATOM     34  C   UNL     1      -5.203  -0.141  -4.782  1.00  0.00     0.031 A 
ATOM     35  C   UNL     1      -5.576   0.017  -6.222  1.00  0.00     0.074 A 
ATOM     36  C   UNL     1      -4.094  -0.929  -4.664  1.00  0.00     0.049 A 
ATOM     37  N   UNL     1      -5.572  -0.985  -7.062  1.00  0.00    -0.248 NA
ATOM     38  C   UNL     1      -5.833   1.304  -6.859  1.00  0.00     0.031 C 
ATOM     39  C   UNL     1      -3.135  -1.280  -5.714  1.00  0.00     0.029 A 
ATOM     40  N   UNL     1      -3.731  -1.773  -3.615  1.00  0.00    -0.354 N 
ATOM     41  C   UNL     1      -5.515  -0.445  -8.327  1.00  0.00     0.074 A 
ATOM     42  C   UNL     1      -5.812   0.966  -8.158  1.00  0.00     0.031 C 
ATOM     43  C   UNL     1      -2.494  -2.408  -5.371  1.00  0.00     0.029 A 
ATOM     44  C   UNL     1      -2.961  -2.843  -4.069  1.00  0.00     0.049 A 
ATOM     45  H   UNL     1      -3.986  -1.631  -2.675  1.00  0.00     0.167 HD
ATOM     46  C   UNL     1      -5.030  -1.119  -9.409  1.00  0.00     0.037 A 
ATOM     47  C   UNL     1      -3.011  -4.099  -3.545  1.00  0.00     0.037 A 
ATOM     48  C   UNL     1      -4.410  -2.408  -9.138  1.00  0.00     0.049 A 
ATOM     49  C   UNL     1      -3.361  -5.129  -4.588  1.00  0.00     0.074 A 
ATOM     50  C   UNL     1      -3.081  -2.801  -9.151  1.00  0.00     0.029 A 
ATOM     51  N   UNL     1      -5.126  -3.491  -8.635  1.00  0.00    -0.354 N 
ATOM     52  N   UNL     1      -3.593  -4.819  -5.828  1.00  0.00    -0.248 NA
ATOM     53  C   UNL     1      -3.625  -6.544  -4.319  1.00  0.00     0.031 C 
ATOM     54  C   UNL     1      -3.003  -4.149  -8.770  1.00  0.00     0.029 A 
ATOM     55  C   UNL     1      -4.268  -4.552  -8.394  1.00  0.00     0.049 A 
ATOM     56  H   UNL     1      -6.097  -3.501  -8.474  1.00  0.00     0.167 HD
ATOM     57  C   UNL     1      -4.182  -5.885  -6.452  1.00  0.00     0.074 A 
ATOM     58  C   UNL     1      -4.160  -6.954  -5.481  1.00  0.00     0.031 C 
ATOM     59  C   UNL     1      -4.680  -5.762  -7.711  1.00  0.00     0.037 A 
BRANCH  46  60
ATOM     60  C   UNL     1      -4.900  -0.454 -10.754  1.00  0.00     0.057 A 
ATOM     61  C   UNL     1      -3.746  -0.519 -11.551  1.00  0.00     0.134 A 
ATOM     62  C   UNL     1      -5.963   0.232 -11.338  1.00  0.00     0.134 A 
ATOM     63  F   UNL     1      -2.637  -1.123 -11.127  1.00  0.00    -0.206 F 
ATOM     64  C   UNL     1      -3.641   0.058 -12.821  1.00  0.00     0.040 A 
ATOM     65  C   UNL     1      -5.862   0.847 -12.593  1.00  0.00     0.040 A 
ATOM     66  F   UNL     1      -7.139   0.333 -10.705  1.00  0.00    -0.206 F 
ATOM     67  C   UNL     1      -4.702   0.760 -13.345  1.00  0.00     0.006 A 
ENDBRANCH  46  60
BRANCH  47  68
ATOM     68  C   UNL     1      -3.317  -4.199  -2.087  1.00  0.00     0.057 A 
ATOM     69  C   UNL     1      -2.579  -3.404  -1.187  1.00  0.00     0.134 A 
ATOM     70  C   UNL     1      -4.377  -4.920  -1.530  1.00  0.00     0.134 A 
ATOM     71  F   UNL     1      -1.518  -2.699  -1.613  1.00  0.00    -0.206 F 
ATOM     72  C   UNL     1      -2.933  -3.265   0.157  1.00  0.00     0.040 A 
ATOM     73  C   UNL     1      -4.735  -4.800  -0.181  1.00  0.00     0.040 A 
ATOM     74  F   UNL     1      -5.156  -5.704  -2.286  1.00  0.00    -0.206 F 
ATOM     75  C   UNL     1      -4.027  -3.953   0.662  1.00  0.00     0.006 A 
ENDBRANCH  47  68
BRANCH  59  76
ATOM     76  C   UNL     1      -5.434  -6.840  -8.402  1.00  0.00     0.057 A 
ATOM     77  C   UNL     1      -6.466  -7.559  -7.800  1.00  0.00     0.134 A 
ATOM     78  C   UNL     1      -5.197  -7.138  -9.745  1.00  0.00     0.134 A 
ATOM     79  F   UNL     1      -6.814  -7.314  -6.532  1.00  0.00    -0.206 F 
ATOM     80  C   UNL     1      -7.196  -8.541  -8.480  1.00  0.00     0.040 A 
ATOM     81  C   UNL     1      -5.935  -8.102 -10.442  1.00  0.00     0.040 A 
ATOM     82  F   UNL     1      -4.234  -6.506 -10.427  1.00  0.00    -0.206 F 
ATOM     83  C   UNL     1      -6.937  -8.817  -9.811  1.00  0.00     0.006 A 
ENDBRANCH  59  76
ENDBRANCH  33  34
ENDBRANCH  26  28
ENDBRANCH  25  26
ENDBRANCH  24  25
ENDBRANCH   1  24
TORSDOF 14
