REMARK SMILES Cc1nn(C)c(C)c1[C@@H](C(=O)OCCOC(=O)c1ccc(-c2c3nc(c(-c4c(F)cccc4F)c4ccc([nH]4)c(-c4c(F)cccc4F)c4nc(c(-c5c(F)cccc5F)c5ccc2[nH]5)C=C4)C=C3)cc1)[NH+]1CCN(c2ccccc2F)CC1
REMARK SMILES IDX 13 1 12 2 10 3 11 4 9 5 8 6 1 7 2 8 3 9 4 10 6 11 5 12 7 13
REMARK SMILES IDX 72 14 73 15 84 16 74 18 83 19 75 20 76 21 77 22 81 23 78 24
REMARK SMILES IDX 80 25 82 26 79 27 14 28 15 29 16 30 17 31 18 32 19 33 71 34
REMARK SMILES IDX 20 35 70 36 21 37 22 38 23 39 64 40 24 41 69 42 63 43 65 44
REMARK SMILES IDX 25 45 68 46 62 47 61 48 26 50 52 51 35 52 51 53 36 54 39 55
REMARK SMILES IDX 50 56 66 57 37 58 38 59 49 61 67 62 40 63 27 64 28 65 33 66
REMARK SMILES IDX 29 67 30 68 32 69 34 70 31 71 53 72 54 73 59 74 55 75 56 76
REMARK SMILES IDX 58 77 60 78 57 79 41 80 42 81 47 82 43 83 44 84 46 85 48 86
REMARK SMILES IDX 45 87
REMARK H PARENT 72 17 65 49 39 60
REMARK Flexibility Score: inf
ROOT
ATOM      1  C   UNL     1      -0.216   3.387   3.599  1.00  0.00     0.274 C 
ENDROOT
BRANCH   1   2
ATOM      2  O   UNL     1      -0.329   2.507   2.460  1.00  0.00    -0.457 OA
BRANCH   2   3
ATOM      3  C   UNL     1      -0.684   3.102   1.284  1.00  0.00     0.370 C 
ATOM      4  O   UNL     1      -0.840   4.317   1.168  1.00  0.00    -0.245 OA
BRANCH   3   5
ATOM      5  C   UNL     1      -1.012   2.102   0.153  1.00  0.00     0.330 C 
BRANCH   5   6
ATOM      6  C   UNL     1      -0.613   0.662   0.347  1.00  0.00     0.065 A 
ATOM      7  C   UNL     1      -2.995  -0.449   0.080  1.00  0.00     0.069 C 
ATOM      8  C   UNL     1      -1.521  -0.444   0.276  1.00  0.00     0.069 A 
ATOM      9  N   UNL     1      -0.891  -1.615   0.382  1.00  0.00    -0.178 NA
ATOM     10  N   UNL     1       0.396  -1.289   0.555  1.00  0.00    -0.272 N 
ATOM     11  C   UNL     1       0.609   0.064   0.657  1.00  0.00     0.045 A 
ATOM     12  C   UNL     1       1.358  -2.365   0.587  1.00  0.00     0.174 C 
ATOM     13  C   UNL     1       1.933   0.628   1.037  1.00  0.00     0.067 C 
ENDBRANCH   5   6
BRANCH   5  14
ATOM     14  N   UNL     1      -0.666   2.641  -1.182  1.00  0.00    -0.316 N 
ATOM     15  C   UNL     1       0.738   2.913  -1.485  1.00  0.00     0.284 C 
ATOM     16  C   UNL     1      -1.364   2.062  -2.339  1.00  0.00     0.284 C 
ATOM     17  H   UNL     1      -1.073   3.564  -1.031  1.00  0.00     0.349 HD
ATOM     18  C   UNL     1       1.526   1.837  -2.254  1.00  0.00     0.178 C 
ATOM     19  C   UNL     1      -0.626   0.930  -3.095  1.00  0.00     0.178 C 
ATOM     20  N   UNL     1       0.763   1.311  -3.384  1.00  0.00    -0.358 N 
BRANCH  20  21
ATOM     21  C   UNL     1       1.460   0.460  -4.246  1.00  0.00     0.073 A 
ATOM     22  C   UNL     1       2.169  -0.654  -3.770  1.00  0.00     0.029 A 
ATOM     23  C   UNL     1       1.495   0.710  -5.627  1.00  0.00     0.146 A 
ATOM     24  C   UNL     1       2.917  -1.459  -4.634  1.00  0.00     0.002 A 
ATOM     25  C   UNL     1       2.243  -0.085  -6.495  1.00  0.00     0.041 A 
ATOM     26  F   UNL     1       0.820   1.751  -6.139  1.00  0.00    -0.205 F 
ATOM     27  C   UNL     1       2.963  -1.169  -5.995  1.00  0.00     0.003 A 
ENDBRANCH  20  21
ENDBRANCH   5  14
ENDBRANCH   3   5
ENDBRANCH   2   3
ENDBRANCH   1   2
BRANCH   1  28
ATOM     28  C   UNL     1       1.223   3.844   3.827  1.00  0.00     0.275 C 
BRANCH  28  29
ATOM     29  O   UNL     1       1.682   4.608   2.699  1.00  0.00    -0.458 OA
BRANCH  29  30
ATOM     30  C   UNL     1       2.879   4.255   2.186  1.00  0.00     0.338 C 
ATOM     31  O   UNL     1       3.641   3.404   2.631  1.00  0.00    -0.246 OA
BRANCH  30  32
ATOM     32  C   UNL     1       3.171   5.008   0.944  1.00  0.00     0.060 A 
ATOM     33  C   UNL     1       2.154   5.506   0.126  1.00  0.00     0.016 A 
ATOM     34  C   UNL     1       4.500   5.121   0.529  1.00  0.00     0.016 A 
ATOM     35  C   UNL     1       2.455   6.020  -1.137  1.00  0.00     0.010 A 
ATOM     36  C   UNL     1       4.804   5.732  -0.691  1.00  0.00     0.010 A 
ATOM     37  C   UNL     1       3.784   6.170  -1.552  1.00  0.00    -0.014 A 
BRANCH  37  38
ATOM     38  C   UNL     1       4.145   6.801  -2.853  1.00  0.00     0.031 A 
ATOM     39  C   UNL     1       5.062   6.090  -3.811  1.00  0.00     0.074 A 
ATOM     40  C   UNL     1       3.723   8.046  -3.152  1.00  0.00     0.049 A 
ATOM     41  N   UNL     1       5.805   6.583  -4.768  1.00  0.00    -0.248 NA
ATOM     42  C   UNL     1       5.172   4.631  -3.655  1.00  0.00     0.031 C 
ATOM     43  C   UNL     1       2.775   8.840  -2.369  1.00  0.00     0.029 A 
ATOM     44  N   UNL     1       4.068   8.875  -4.192  1.00  0.00    -0.354 N 
ATOM     45  C   UNL     1       6.519   5.510  -5.286  1.00  0.00     0.074 A 
ATOM     46  C   UNL     1       6.108   4.334  -4.548  1.00  0.00     0.031 C 
ATOM     47  C   UNL     1       2.608  10.033  -2.956  1.00  0.00     0.029 A 
ATOM     48  C   UNL     1       3.519  10.131  -4.089  1.00  0.00     0.049 A 
ATOM     49  H   UNL     1       4.649   8.598  -4.937  1.00  0.00     0.167 HD
ATOM     50  C   UNL     1       7.444   5.516  -6.276  1.00  0.00     0.037 A 
ATOM     51  C   UNL     1       3.774  11.264  -4.768  1.00  0.00     0.037 A 
ATOM     52  C   UNL     1       7.801   6.682  -7.044  1.00  0.00     0.049 A 
ATOM     53  C   UNL     1       4.839  11.267  -5.823  1.00  0.00     0.074 A 
ATOM     54  C   UNL     1       8.729   6.795  -8.066  1.00  0.00     0.029 A 
ATOM     55  N   UNL     1       7.223   7.933  -6.890  1.00  0.00    -0.354 N 
ATOM     56  N   UNL     1       5.602  10.281  -6.225  1.00  0.00    -0.248 NA
ATOM     57  C   UNL     1       5.100  12.547  -6.494  1.00  0.00     0.031 C 
ATOM     58  C   UNL     1       8.727   8.120  -8.516  1.00  0.00     0.029 A 
ATOM     59  C   UNL     1       7.775   8.823  -7.796  1.00  0.00     0.049 A 
ATOM     60  H   UNL     1       6.524   8.156  -6.234  1.00  0.00     0.167 HD
ATOM     61  C   UNL     1       6.426  10.817  -7.204  1.00  0.00     0.074 A 
ATOM     62  C   UNL     1       6.064  12.213  -7.341  1.00  0.00     0.031 C 
ATOM     63  C   UNL     1       7.398  10.206  -7.923  1.00  0.00     0.037 A 
BRANCH  50  64
ATOM     64  C   UNL     1       8.168   4.236  -6.571  1.00  0.00     0.057 A 
ATOM     65  C   UNL     1       7.572   3.188  -7.280  1.00  0.00     0.134 A 
ATOM     66  C   UNL     1       9.511   4.083  -6.198  1.00  0.00     0.134 A 
ATOM     67  F   UNL     1       6.287   3.267  -7.658  1.00  0.00    -0.206 F 
ATOM     68  C   UNL     1       8.283   2.029  -7.601  1.00  0.00     0.040 A 
ATOM     69  C   UNL     1      10.237   2.939  -6.531  1.00  0.00     0.040 A 
ATOM     70  F   UNL     1      10.144   5.054  -5.521  1.00  0.00    -0.206 F 
ATOM     71  C   UNL     1       9.622   1.906  -7.234  1.00  0.00     0.006 A 
ENDBRANCH  50  64
BRANCH  51  72
ATOM     72  C   UNL     1       3.049  12.506  -4.407  1.00  0.00     0.057 A 
ATOM     73  C   UNL     1       2.061  13.031  -5.245  1.00  0.00     0.134 A 
ATOM     74  C   UNL     1       3.295  13.169  -3.198  1.00  0.00     0.134 A 
ATOM     75  F   UNL     1       1.799  12.452  -6.426  1.00  0.00    -0.206 F 
ATOM     76  C   UNL     1       1.335  14.169  -4.890  1.00  0.00     0.040 A 
ATOM     77  C   UNL     1       2.561  14.292  -2.819  1.00  0.00     0.040 A 
ATOM     78  F   UNL     1       4.229  12.710  -2.352  1.00  0.00    -0.206 F 
ATOM     79  C   UNL     1       1.577  14.796  -3.668  1.00  0.00     0.006 A 
ENDBRANCH  51  72
BRANCH  63  80
ATOM     80  C   UNL     1       8.106  11.035  -8.948  1.00  0.00     0.057 A 
ATOM     81  C   UNL     1       9.107  11.945  -8.592  1.00  0.00     0.134 A 
ATOM     82  C   UNL     1       7.798  10.900 -10.307  1.00  0.00     0.134 A 
ATOM     83  F   UNL     1       9.435  12.128  -7.304  1.00  0.00    -0.206 F 
ATOM     84  C   UNL     1       9.771  12.706  -9.556  1.00  0.00     0.040 A 
ATOM     85  C   UNL     1       8.465  11.643 -11.280  1.00  0.00     0.040 A 
ATOM     86  F   UNL     1       6.848  10.042 -10.708  1.00  0.00    -0.206 F 
ATOM     87  C   UNL     1       9.453  12.552 -10.905  1.00  0.00     0.006 A 
ENDBRANCH  63  80
ENDBRANCH  37  38
ENDBRANCH  30  32
ENDBRANCH  29  30
ENDBRANCH  28  29
ENDBRANCH   1  28
TORSDOF 14
