REMARK SMILES CCC[NH2+][C@]1(C(=O)OCCOC(=O)c2ccc(-c3c4nc(c(-c5c(F)cccc5F)c5ccc([nH]5)c(-c5c(F)cccc5F)c5nc(c(-c6c(F)cccc6F)c6ccc3[nH]6)C=C5)C=C4)cc2)CC[C@H](n2nc(C)c(CC)c2C)C1
REMARK SMILES IDX 9 1 8 2 6 3 7 4 5 5 68 6 80 7 69 8 70 9 4 10 3 13 2 14 1 15
REMARK SMILES IDX 71 16 72 17 78 18 73 19 75 20 79 21 74 22 76 23 77 24 10 25
REMARK SMILES IDX 11 26 12 27 13 28 14 29 15 30 67 31 16 32 66 33 17 34 18 35
REMARK SMILES IDX 19 36 60 37 20 38 65 39 59 40 61 41 21 42 64 43 58 44 57 45
REMARK SMILES IDX 22 47 48 48 31 49 47 50 32 51 35 52 46 53 62 54 33 55 34 56
REMARK SMILES IDX 45 58 63 59 36 60 23 61 24 62 29 63 25 64 26 65 28 66 30 67
REMARK SMILES IDX 27 68 49 69 50 70 55 71 51 72 52 73 54 74 56 75 53 76 37 77
REMARK SMILES IDX 38 78 43 79 39 80 40 81 42 82 44 83 41 84
REMARK H PARENT 4 11 4 12 61 46 35 57
REMARK Flexibility Score: inf
ROOT
ATOM      1  C   UNL     1      -1.349  -0.231  -1.473  1.00  0.00     0.274 C 
ENDROOT
BRANCH   1   2
ATOM      2  O   UNL     1      -0.829  -0.481  -2.797  1.00  0.00    -0.457 OA
BRANCH   2   3
ATOM      3  C   UNL     1       0.324   0.173  -3.086  1.00  0.00     0.368 C 
ATOM      4  O   UNL     1       0.927   0.902  -2.297  1.00  0.00    -0.245 OA
BRANCH   3   5
ATOM      5  C   UNL     1       0.779   0.035  -4.549  1.00  0.00     0.196 C 
ATOM      6  C   UNL     1       0.230  -1.090  -5.424  1.00  0.00     0.083 C 
ATOM      7  C   UNL     1       0.161   1.230  -5.308  1.00  0.00     0.108 C 
ATOM      8  C   UNL     1       0.477  -0.578  -6.860  1.00  0.00     0.034 C 
ATOM      9  C   UNL     1       0.542   0.985  -6.770  1.00  0.00     0.115 C 
BRANCH   5  10
ATOM     10  N   UNL     1       2.253   0.181  -4.609  1.00  0.00    -0.332 N 
ATOM     11  H   UNL     1       2.469   0.691  -5.466  1.00  0.00     0.347 HD
ATOM     12  H   UNL     1       2.490   0.645  -3.733  1.00  0.00     0.347 HD
BRANCH  10  13
ATOM     13  C   UNL     1       3.076  -1.016  -4.607  1.00  0.00     0.261 C 
BRANCH  13  14
ATOM     14  C   UNL     1       4.562  -0.694  -4.842  1.00  0.00     0.058 C 
ATOM     15  C   UNL     1       5.072   0.612  -4.243  1.00  0.00     0.010 C 
ENDBRANCH  13  14
ENDBRANCH  10  13
ENDBRANCH   5  10
BRANCH   9  16
ATOM     16  N   UNL     1       1.804   1.544  -7.270  1.00  0.00    -0.266 N 
ATOM     17  N   UNL     1       2.173   1.127  -8.506  1.00  0.00    -0.178 NA
ATOM     18  C   UNL     1       2.646   2.542  -6.798  1.00  0.00     0.039 A 
ATOM     19  C   UNL     1       3.323   1.752  -8.760  1.00  0.00     0.063 A 
ATOM     20  C   UNL     1       3.688   2.634  -7.716  1.00  0.00    -0.004 A 
ATOM     21  C   UNL     1       2.464   3.350  -5.561  1.00  0.00     0.066 C 
ATOM     22  C   UNL     1       4.028   1.492 -10.040  1.00  0.00     0.069 C 
BRANCH  20  23
ATOM     23  C   UNL     1       4.897   3.517  -7.658  1.00  0.00     0.036 C 
ATOM     24  C   UNL     1       6.193   2.751  -7.433  1.00  0.00     0.009 C 
ENDBRANCH  20  23
ENDBRANCH   9  16
ENDBRANCH   3   5
ENDBRANCH   2   3
ENDBRANCH   1   2
BRANCH   1  25
ATOM     25  C   UNL     1      -0.926  -1.325  -0.494  1.00  0.00     0.275 C 
BRANCH  25  26
ATOM     26  O   UNL     1       0.507  -1.345  -0.370  1.00  0.00    -0.458 OA
BRANCH  26  27
ATOM     27  C   UNL     1       1.090  -2.567  -0.405  1.00  0.00     0.338 C 
ATOM     28  O   UNL     1       0.523  -3.644  -0.475  1.00  0.00    -0.246 OA
BRANCH  27  29
ATOM     29  C   UNL     1       2.566  -2.440  -0.368  1.00  0.00     0.060 A 
ATOM     30  C   UNL     1       3.209  -1.401  -1.032  1.00  0.00     0.016 A 
ATOM     31  C   UNL     1       3.332  -3.445   0.230  1.00  0.00     0.016 A 
ATOM     32  C   UNL     1       4.593  -1.437  -1.197  1.00  0.00     0.010 A 
ATOM     33  C   UNL     1       4.734  -3.417   0.141  1.00  0.00     0.010 A 
ATOM     34  C   UNL     1       5.387  -2.437  -0.622  1.00  0.00    -0.014 A 
BRANCH  34  35
ATOM     35  C   UNL     1       6.855  -2.494  -0.918  1.00  0.00     0.031 A 
ATOM     36  C   UNL     1       7.465  -3.752  -1.491  1.00  0.00     0.074 A 
ATOM     37  C   UNL     1       7.652  -1.411  -0.782  1.00  0.00     0.049 A 
ATOM     38  N   UNL     1       8.728  -4.075  -1.624  1.00  0.00    -0.248 NA
ATOM     39  C   UNL     1       6.534  -4.784  -1.976  1.00  0.00     0.031 C 
ATOM     40  C   UNL     1       7.223  -0.082  -0.345  1.00  0.00     0.029 A 
ATOM     41  N   UNL     1       8.994  -1.248  -1.044  1.00  0.00    -0.354 N 
ATOM     42  C   UNL     1       8.740  -5.374  -2.119  1.00  0.00     0.074 A 
ATOM     43  C   UNL     1       7.360  -5.771  -2.293  1.00  0.00     0.031 C 
ATOM     44  C   UNL     1       8.248   0.775  -0.464  1.00  0.00     0.029 A 
ATOM     45  C   UNL     1       9.443   0.038  -0.860  1.00  0.00     0.049 A 
ATOM     46  H   UNL     1       9.578  -1.985  -1.336  1.00  0.00     0.167 HD
ATOM     47  C   UNL     1       9.803  -6.168  -2.391  1.00  0.00     0.037 A 
ATOM     48  C   UNL     1      10.680   0.566  -0.952  1.00  0.00     0.037 A 
ATOM     49  C   UNL     1      11.179  -5.753  -2.304  1.00  0.00     0.049 A 
ATOM     50  C   UNL     1      11.850  -0.336  -1.226  1.00  0.00     0.074 A 
ATOM     51  C   UNL     1      12.325  -6.505  -2.505  1.00  0.00     0.029 A 
ATOM     52  N   UNL     1      11.593  -4.460  -2.035  1.00  0.00    -0.354 N 
ATOM     53  N   UNL     1      11.859  -1.613  -1.516  1.00  0.00    -0.248 NA
ATOM     54  C   UNL     1      13.187   0.269  -1.131  1.00  0.00     0.031 C 
ATOM     55  C   UNL     1      13.434  -5.668  -2.341  1.00  0.00     0.029 A 
ATOM     56  C   UNL     1      12.976  -4.390  -2.067  1.00  0.00     0.049 A 
ATOM     57  H   UNL     1      10.994  -3.701  -1.849  1.00  0.00     0.167 HD
ATOM     58  C   UNL     1      13.198  -1.968  -1.619  1.00  0.00     0.074 A 
ATOM     59  C   UNL     1      13.972  -0.764  -1.404  1.00  0.00     0.031 C 
ATOM     60  C   UNL     1      13.737  -3.189  -1.848  1.00  0.00     0.037 A 
BRANCH  47  61
ATOM     61  C   UNL     1       9.522  -7.595  -2.754  1.00  0.00     0.057 A 
ATOM     62  C   UNL     1       9.078  -7.973  -4.025  1.00  0.00     0.134 A 
ATOM     63  C   UNL     1       9.736  -8.611  -1.812  1.00  0.00     0.134 A 
ATOM     64  F   UNL     1       8.839  -7.046  -4.964  1.00  0.00    -0.206 F 
ATOM     65  C   UNL     1       8.841  -9.312  -4.343  1.00  0.00     0.040 A 
ATOM     66  C   UNL     1       9.522  -9.954  -2.124  1.00  0.00     0.040 A 
ATOM     67  F   UNL     1      10.166  -8.314  -0.576  1.00  0.00    -0.206 F 
ATOM     68  C   UNL     1       9.069 -10.307  -3.393  1.00  0.00     0.006 A 
ENDBRANCH  47  61
BRANCH  48  69
ATOM     69  C   UNL     1      10.897   2.016  -0.710  1.00  0.00     0.057 A 
ATOM     70  C   UNL     1      11.312   2.863  -1.744  1.00  0.00     0.134 A 
ATOM     71  C   UNL     1      10.718   2.584   0.557  1.00  0.00     0.134 A 
ATOM     72  F   UNL     1      11.534   2.372  -2.972  1.00  0.00    -0.206 F 
ATOM     73  C   UNL     1      11.543   4.223  -1.526  1.00  0.00     0.040 A 
ATOM     74  C   UNL     1      10.917   3.947   0.782  1.00  0.00     0.040 A 
ATOM     75  F   UNL     1      10.331   1.825   1.592  1.00  0.00    -0.206 F 
ATOM     76  C   UNL     1      11.336   4.769  -0.261  1.00  0.00     0.006 A 
ENDBRANCH  48  69
BRANCH  60  77
ATOM     77  C   UNL     1      15.232  -3.282  -1.874  1.00  0.00     0.057 A 
ATOM     78  C   UNL     1      15.983  -3.255  -0.692  1.00  0.00     0.134 A 
ATOM     79  C   UNL     1      15.924  -3.425  -3.082  1.00  0.00     0.134 A 
ATOM     80  F   UNL     1      15.378  -3.106   0.495  1.00  0.00    -0.206 F 
ATOM     81  C   UNL     1      17.375  -3.351  -0.713  1.00  0.00     0.040 A 
ATOM     82  C   UNL     1      17.314  -3.539  -3.114  1.00  0.00     0.040 A 
ATOM     83  F   UNL     1      15.260  -3.461  -4.247  1.00  0.00    -0.206 F 
ATOM     84  C   UNL     1      18.044  -3.498  -1.927  1.00  0.00     0.006 A 
ENDBRANCH  60  77
ENDBRANCH  34  35
ENDBRANCH  27  29
ENDBRANCH  26  27
ENDBRANCH  25  26
ENDBRANCH   1  25
TORSDOF 16
