REMARK SMILES Cc1nn(C)cc1-c1cc(C(F)(F)F)nc(N2CCC[C@@H]2C(=O)OCCOC(=O)c2ccc(-c3c4nc(c(-c5c(F)cccc5F)c5ccc([nH]5)c(-c5c(F)cccc5F)c5nc(c(-c6c(F)cccc6F)c6ccc3[nH]6)C=C5)C=C4)cc2)n1
REMARK SMILES IDX 25 1 24 2 22 3 23 4 21 5 17 6 18 7 19 8 20 9 16 10 8 11 9 12
REMARK SMILES IDX 84 13 10 14 15 15 7 16 1 17 2 18 3 19 4 20 6 21 5 22 11 23
REMARK SMILES IDX 12 24 13 25 14 26 26 27 27 28 28 29 29 30 30 31 31 32 83 33
REMARK SMILES IDX 32 34 82 35 33 36 34 37 35 38 76 39 36 40 81 41 75 42 77 43
REMARK SMILES IDX 37 44 80 45 74 46 73 47 38 49 64 50 47 51 63 52 48 53 51 54
REMARK SMILES IDX 62 55 78 56 49 57 50 58 61 60 79 61 52 62 39 63 40 64 45 65
REMARK SMILES IDX 41 66 42 67 44 68 46 69 43 70 65 71 66 72 71 73 67 74 68 75
REMARK SMILES IDX 70 76 72 77 69 78 53 79 54 80 59 81 55 82 56 83 58 84 60 85
REMARK SMILES IDX 57 86
REMARK H PARENT 77 48 51 59
REMARK Flexibility Score: inf
ROOT
ATOM      1  C   UNL     1      -5.861  -4.094   3.328  1.00  0.00     0.274 C 
ENDROOT
BRANCH   1   2
ATOM      2  O   UNL     1      -4.730  -4.979   3.188  1.00  0.00    -0.461 OA
BRANCH   2   3
ATOM      3  C   UNL     1      -3.532  -4.375   2.943  1.00  0.00     0.328 C 
ATOM      4  O   UNL     1      -3.409  -3.160   2.806  1.00  0.00    -0.250 OA
BRANCH   3   5
ATOM      5  C   UNL     1      -2.342  -5.365   2.871  1.00  0.00     0.195 C 
ATOM      6  N   UNL     1      -1.942  -5.727   1.507  1.00  0.00    -0.327 N 
ATOM      7  C   UNL     1      -2.108  -7.138   1.231  1.00  0.00     0.121 C 
ATOM      8  C   UNL     1      -2.969  -7.639   2.385  1.00  0.00     0.024 C 
ATOM      9  C   UNL     1      -2.590  -6.724   3.542  1.00  0.00     0.039 C 
BRANCH   6  10
ATOM     10  C   UNL     1      -2.006  -4.770   0.538  1.00  0.00     0.227 A 
ATOM     11  C   UNL     1      -1.534  -2.639  -0.165  1.00  0.00     0.080 A 
ATOM     12  C   UNL     1      -2.446  -2.728  -1.192  1.00  0.00     0.062 A 
ATOM     13  N   UNL     1      -1.306  -3.643   0.703  1.00  0.00    -0.213 NA
ATOM     14  C   UNL     1      -3.108  -3.931  -1.312  1.00  0.00     0.150 A 
ATOM     15  N   UNL     1      -2.874  -4.959  -0.461  1.00  0.00    -0.208 NA
BRANCH  11  16
ATOM     16  C   UNL     1      -0.750  -1.433   0.007  1.00  0.00     0.041 A 
ATOM     17  C   UNL     1      -2.479   0.542   0.071  1.00  0.00     0.069 C 
ATOM     18  C   UNL     1      -1.123  -0.061   0.071  1.00  0.00     0.069 A 
ATOM     19  N   UNL     1      -0.050   0.741   0.132  1.00  0.00    -0.178 NA
ATOM     20  N   UNL     1       0.992  -0.108   0.142  1.00  0.00    -0.275 N 
ATOM     21  C   UNL     1       0.628  -1.419   0.082  1.00  0.00     0.119 A 
ATOM     22  C   UNL     1       2.333   0.423   0.161  1.00  0.00     0.173 C 
ENDBRANCH  11  16
BRANCH  14  23
ATOM     23  C   UNL     1      -4.177  -4.111  -2.370  1.00  0.00     0.433 C 
ATOM     24  F   UNL     1      -4.047  -5.266  -3.082  1.00  0.00    -0.165 F 
ATOM     25  F   UNL     1      -5.437  -4.130  -1.846  1.00  0.00    -0.165 F 
ATOM     26  F   UNL     1      -4.187  -3.109  -3.299  1.00  0.00    -0.165 F 
ENDBRANCH  14  23
ENDBRANCH   6  10
ENDBRANCH   3   5
ENDBRANCH   2   3
ENDBRANCH   1   2
BRANCH   1  27
ATOM     27  C   UNL     1      -6.165  -3.757   4.794  1.00  0.00     0.275 C 
BRANCH  27  28
ATOM     28  O   UNL     1      -5.127  -2.969   5.410  1.00  0.00    -0.458 OA
BRANCH  28  29
ATOM     29  C   UNL     1      -4.165  -3.689   6.030  1.00  0.00     0.338 C 
ATOM     30  O   UNL     1      -4.102  -4.903   6.131  1.00  0.00    -0.246 OA
BRANCH  29  31
ATOM     31  C   UNL     1      -3.065  -2.819   6.471  1.00  0.00     0.060 A 
ATOM     32  C   UNL     1      -1.815  -3.027   5.886  1.00  0.00     0.016 A 
ATOM     33  C   UNL     1      -3.208  -1.922   7.529  1.00  0.00     0.016 A 
ATOM     34  C   UNL     1      -0.692  -2.368   6.366  1.00  0.00     0.010 A 
ATOM     35  C   UNL     1      -2.077  -1.250   8.011  1.00  0.00     0.010 A 
ATOM     36  C   UNL     1      -0.811  -1.488   7.446  1.00  0.00    -0.014 A 
BRANCH  36  37
ATOM     37  C   UNL     1       0.420  -0.894   8.016  1.00  0.00     0.031 A 
ATOM     38  C   UNL     1       0.952  -1.395   9.327  1.00  0.00     0.074 A 
ATOM     39  C   UNL     1       1.099   0.037   7.321  1.00  0.00     0.049 A 
ATOM     40  N   UNL     1       1.978  -0.972  10.020  1.00  0.00    -0.248 NA
ATOM     41  C   UNL     1       0.235  -2.525   9.938  1.00  0.00     0.031 C 
ATOM     42  C   UNL     1       0.717   0.553   6.007  1.00  0.00     0.029 A 
ATOM     43  N   UNL     1       2.257   0.705   7.623  1.00  0.00    -0.354 N 
ATOM     44  C   UNL     1       2.015  -1.764  11.160  1.00  0.00     0.074 A 
ATOM     45  C   UNL     1       0.903  -2.687  11.071  1.00  0.00     0.031 C 
ATOM     46  C   UNL     1       1.629   1.457   5.612  1.00  0.00     0.029 A 
ATOM     47  C   UNL     1       2.630   1.613   6.664  1.00  0.00     0.049 A 
ATOM     48  H   UNL     1       2.772   0.548   8.448  1.00  0.00     0.167 HD
ATOM     49  C   UNL     1       2.898  -1.724  12.186  1.00  0.00     0.037 A 
ATOM     50  C   UNL     1       3.649   2.491   6.648  1.00  0.00     0.037 A 
ATOM     51  C   UNL     1       4.015  -0.820  12.261  1.00  0.00     0.049 A 
ATOM     52  C   UNL     1       4.594   2.543   7.814  1.00  0.00     0.074 A 
ATOM     53  C   UNL     1       4.957  -0.690  13.266  1.00  0.00     0.029 A 
ATOM     54  N   UNL     1       4.343   0.106  11.282  1.00  0.00    -0.354 N 
ATOM     55  N   UNL     1       4.594   1.821   8.909  1.00  0.00    -0.248 NA
ATOM     56  C   UNL     1       5.675   3.536   7.747  1.00  0.00     0.031 C 
ATOM     57  C   UNL     1       5.842   0.334  12.906  1.00  0.00     0.029 A 
ATOM     58  C   UNL     1       5.470   0.817  11.662  1.00  0.00     0.049 A 
ATOM     59  H   UNL     1       3.849   0.238  10.441  1.00  0.00     0.167 HD
ATOM     60  C   UNL     1       5.675   2.265   9.657  1.00  0.00     0.074 A 
ATOM     61  C   UNL     1       6.320   3.307   8.883  1.00  0.00     0.031 C 
ATOM     62  C   UNL     1       6.094   1.851  10.877  1.00  0.00     0.037 A 
BRANCH  49  63
ATOM     63  C   UNL     1       2.662  -2.669  13.326  1.00  0.00     0.057 A 
ATOM     64  C   UNL     1       2.938  -4.038  13.224  1.00  0.00     0.134 A 
ATOM     65  C   UNL     1       2.154  -2.199  14.543  1.00  0.00     0.134 A 
ATOM     66  F   UNL     1       3.408  -4.553  12.078  1.00  0.00    -0.206 F 
ATOM     67  C   UNL     1       2.695  -4.911  14.286  1.00  0.00     0.040 A 
ATOM     68  C   UNL     1       1.926  -3.059  15.619  1.00  0.00     0.040 A 
ATOM     69  F   UNL     1       1.869  -0.898  14.706  1.00  0.00    -0.206 F 
ATOM     70  C   UNL     1       2.190  -4.420  15.489  1.00  0.00     0.006 A 
ENDBRANCH  49  63
BRANCH  50  71
ATOM     71  C   UNL     1       3.803   3.408   5.494  1.00  0.00     0.057 A 
ATOM     72  C   UNL     1       4.832   3.240   4.563  1.00  0.00     0.134 A 
ATOM     73  C   UNL     1       2.906   4.463   5.285  1.00  0.00     0.134 A 
ATOM     74  F   UNL     1       5.733   2.259   4.722  1.00  0.00    -0.206 F 
ATOM     75  C   UNL     1       4.967   4.090   3.464  1.00  0.00     0.040 A 
ATOM     76  C   UNL     1       3.014   5.306   4.180  1.00  0.00     0.040 A 
ATOM     77  F   UNL     1       1.898   4.674   6.145  1.00  0.00    -0.206 F 
ATOM     78  C   UNL     1       4.050   5.121   3.266  1.00  0.00     0.006 A 
ENDBRANCH  50  71
BRANCH  62  79
ATOM     79  C   UNL     1       7.314   2.515  11.438  1.00  0.00     0.057 A 
ATOM     80  C   UNL     1       7.262   3.804  11.984  1.00  0.00     0.134 A 
ATOM     81  C   UNL     1       8.544   1.848  11.462  1.00  0.00     0.134 A 
ATOM     82  F   UNL     1       6.115   4.499  11.978  1.00  0.00    -0.206 F 
ATOM     83  C   UNL     1       8.398   4.413  12.518  1.00  0.00     0.040 A 
ATOM     84  C   UNL     1       9.683   2.439  12.010  1.00  0.00     0.040 A 
ATOM     85  F   UNL     1       8.657   0.609  10.959  1.00  0.00    -0.206 F 
ATOM     86  C   UNL     1       9.612   3.728  12.537  1.00  0.00     0.006 A 
ENDBRANCH  62  79
ENDBRANCH  36  37
ENDBRANCH  29  31
ENDBRANCH  28  29
ENDBRANCH  27  28
ENDBRANCH   1  27
TORSDOF 14
