REMARK SMILES O=C(C[C@@H]1C(=O)NCC[N@@H+]1Cc1ccc(F)c(F)c1)OCCOC(=O)c1ccc(-c2c3nc(c(-c4c(F)cccc4F)c4ccc([nH]4)c(-c4c(F)cccc4F)c4nc(c(-c5c(F)cccc5F)c5ccc2[nH]5)C=C4)C=C3)cc1
REMARK SMILES IDX 21 1 20 2 2 3 1 4 3 5 4 6 5 7 10 8 6 9 7 10 9 11 8 13 11 15
REMARK SMILES IDX 12 16 13 17 19 18 14 19 17 20 15 21 18 22 16 23 22 24 23 25
REMARK SMILES IDX 24 26 25 27 26 28 27 29 79 30 28 31 78 32 29 33 30 34 31 35
REMARK SMILES IDX 72 36 32 37 77 38 71 39 73 40 33 41 76 42 70 43 69 44 34 46
REMARK SMILES IDX 60 47 43 48 59 49 44 50 47 51 58 52 74 53 45 54 46 55 57 57
REMARK SMILES IDX 75 58 48 59 35 60 36 61 41 62 37 63 38 64 40 65 42 66 39 67
REMARK SMILES IDX 61 68 62 69 67 70 63 71 64 72 66 73 68 74 65 75 49 76 50 77
REMARK SMILES IDX 55 78 51 79 52 80 54 81 56 82 53 83
REMARK H PARENT 10 12 7 14 73 45 47 56
REMARK Flexibility Score: inf
ROOT
ATOM      1  C   UNL     1       4.649   0.752  -1.101  1.00  0.00     0.274 C 
ENDROOT
BRANCH   1   2
ATOM      2  O   UNL     1       3.327   0.195  -1.247  1.00  0.00    -0.462 OA
BRANCH   2   3
ATOM      3  C   UNL     1       2.604  -0.381  -0.263  1.00  0.00     0.312 C 
ATOM      4  O   UNL     1       1.450  -0.752  -0.470  1.00  0.00    -0.252 OA
BRANCH   3   5
ATOM      5  C   UNL     1       3.184  -0.460   1.125  1.00  0.00     0.198 C 
BRANCH   5   6
ATOM      6  C   UNL     1       4.016  -1.678   1.510  1.00  0.00     0.285 C 
ATOM      7  C   UNL     1       3.892  -2.953   0.655  1.00  0.00     0.279 C 
ATOM      8  N   UNL     1       4.013  -1.950   2.975  1.00  0.00    -0.319 N 
ATOM      9  O   UNL     1       3.455  -2.972  -0.491  1.00  0.00    -0.268 OA
ATOM     10  N   UNL     1       4.481  -4.087   1.151  1.00  0.00    -0.345 N 
ATOM     11  C   UNL     1       5.033  -2.943   3.321  1.00  0.00     0.284 C 
ATOM     12  H   UNL     1       4.281  -1.060   3.394  1.00  0.00     0.349 HD
ATOM     13  C   UNL     1       5.017  -4.231   2.487  1.00  0.00     0.177 C 
ATOM     14  H   UNL     1       4.544  -4.865   0.551  1.00  0.00     0.163 HD
BRANCH   8  15
ATOM     15  C   UNL     1       2.723  -2.099   3.661  1.00  0.00     0.299 C 
BRANCH  15  16
ATOM     16  C   UNL     1       1.701  -3.056   3.092  1.00  0.00     0.009 A 
ATOM     17  C   UNL     1       1.749  -4.426   3.393  1.00  0.00     0.013 A 
ATOM     18  C   UNL     1       0.649  -2.590   2.283  1.00  0.00     0.052 A 
ATOM     19  C   UNL     1       0.826  -5.315   2.835  1.00  0.00     0.043 A 
ATOM     20  C   UNL     1      -0.278  -3.478   1.743  1.00  0.00     0.159 A 
ATOM     21  C   UNL     1      -0.178  -4.835   2.004  1.00  0.00     0.158 A 
ATOM     22  F   UNL     1      -1.278  -3.006   0.986  1.00  0.00    -0.204 F 
ATOM     23  F   UNL     1      -1.063  -5.693   1.479  1.00  0.00    -0.204 F 
ENDBRANCH  15  16
ENDBRANCH   8  15
ENDBRANCH   5   6
ENDBRANCH   3   5
ENDBRANCH   2   3
ENDBRANCH   1   2
BRANCH   1  24
ATOM     24  C   UNL     1       4.596   2.266  -0.874  1.00  0.00     0.275 C 
BRANCH  24  25
ATOM     25  O   UNL     1       4.144   2.561   0.463  1.00  0.00    -0.458 OA
BRANCH  25  26
ATOM     26  C   UNL     1       2.837   2.911   0.588  1.00  0.00     0.338 C 
ATOM     27  O   UNL     1       2.056   3.134  -0.317  1.00  0.00    -0.246 OA
BRANCH  26  28
ATOM     28  C   UNL     1       2.433   2.816   2.014  1.00  0.00     0.060 A 
ATOM     29  C   UNL     1       1.134   2.373   2.300  1.00  0.00     0.016 A 
ATOM     30  C   UNL     1       3.307   3.128   3.062  1.00  0.00     0.016 A 
ATOM     31  C   UNL     1       0.696   2.280   3.624  1.00  0.00     0.010 A 
ATOM     32  C   UNL     1       2.866   3.040   4.388  1.00  0.00     0.010 A 
ATOM     33  C   UNL     1       1.549   2.644   4.675  1.00  0.00    -0.014 A 
BRANCH  33  34
ATOM     34  C   UNL     1       1.011   2.774   6.053  1.00  0.00     0.031 A 
ATOM     35  C   UNL     1       0.507   4.115   6.507  1.00  0.00     0.074 A 
ATOM     36  C   UNL     1       0.951   1.722   6.890  1.00  0.00     0.049 A 
ATOM     37  N   UNL     1      -0.025   4.458   7.653  1.00  0.00    -0.248 NA
ATOM     38  C   UNL     1       0.620   5.218   5.539  1.00  0.00     0.031 C 
ATOM     39  C   UNL     1       1.395   0.368   6.579  1.00  0.00     0.029 A 
ATOM     40  N   UNL     1       0.491   1.636   8.182  1.00  0.00    -0.354 N 
ATOM     41  C   UNL     1      -0.330   5.808   7.535  1.00  0.00     0.074 A 
ATOM     42  C   UNL     1       0.119   6.232   6.226  1.00  0.00     0.031 C 
ATOM     43  C   UNL     1       1.190  -0.419   7.650  1.00  0.00     0.029 A 
ATOM     44  C   UNL     1       0.615   0.383   8.730  1.00  0.00     0.049 A 
ATOM     45  H   UNL     1       0.108   2.401   8.669  1.00  0.00     0.167 HD
ATOM     46  C   UNL     1      -0.945   6.619   8.427  1.00  0.00     0.037 A 
ATOM     47  C   UNL     1       0.307  -0.062   9.964  1.00  0.00     0.037 A 
ATOM     48  C   UNL     1      -1.372   6.217   9.739  1.00  0.00     0.049 A 
ATOM     49  C   UNL     1      -0.303   0.880  10.967  1.00  0.00     0.074 A 
ATOM     50  C   UNL     1      -2.001   6.974  10.713  1.00  0.00     0.029 A 
ATOM     51  N   UNL     1      -1.204   4.946  10.266  1.00  0.00    -0.354 N 
ATOM     52  N   UNL     1      -0.629   2.142  10.827  1.00  0.00    -0.248 NA
ATOM     53  C   UNL     1      -0.595   0.332  12.302  1.00  0.00     0.031 C 
ATOM     54  C   UNL     1      -2.181   6.170  11.844  1.00  0.00     0.029 A 
ATOM     55  C   UNL     1      -1.699   4.903  11.559  1.00  0.00     0.049 A 
ATOM     56  H   UNL     1      -0.794   4.187   9.792  1.00  0.00     0.167 HD
ATOM     57  C   UNL     1      -1.191   2.528  12.039  1.00  0.00     0.074 A 
ATOM     58  C   UNL     1      -1.169   1.366  12.901  1.00  0.00     0.031 C 
ATOM     59  C   UNL     1      -1.684   3.737  12.403  1.00  0.00     0.037 A 
BRANCH  46  60
ATOM     60  C   UNL     1      -1.183   8.036   8.003  1.00  0.00     0.057 A 
ATOM     61  C   UNL     1      -2.181   8.361   7.075  1.00  0.00     0.134 A 
ATOM     62  C   UNL     1      -0.422   9.083   8.534  1.00  0.00     0.134 A 
ATOM     63  F   UNL     1      -2.930   7.398   6.518  1.00  0.00    -0.206 F 
ATOM     64  C   UNL     1      -2.400   9.679   6.674  1.00  0.00     0.040 A 
ATOM     65  C   UNL     1      -0.646  10.408   8.156  1.00  0.00     0.040 A 
ATOM     66  F   UNL     1       0.549   8.836   9.426  1.00  0.00    -0.206 F 
ATOM     67  C   UNL     1      -1.634  10.708   7.220  1.00  0.00     0.006 A 
ENDBRANCH  46  60
BRANCH  47  68
ATOM     68  C   UNL     1       0.569  -1.475  10.338  1.00  0.00     0.057 A 
ATOM     69  C   UNL     1      -0.482  -2.375  10.548  1.00  0.00     0.134 A 
ATOM     70  C   UNL     1       1.871  -1.942  10.549  1.00  0.00     0.134 A 
ATOM     71  F   UNL     1      -1.753  -1.977  10.388  1.00  0.00    -0.206 F 
ATOM     72  C   UNL     1      -0.249  -3.683  10.977  1.00  0.00     0.040 A 
ATOM     73  C   UNL     1       2.120  -3.253  10.959  1.00  0.00     0.040 A 
ATOM     74  F   UNL     1       2.921  -1.127  10.366  1.00  0.00    -0.206 F 
ATOM     75  C   UNL     1       1.056  -4.125  11.183  1.00  0.00     0.006 A 
ENDBRANCH  47  68
BRANCH  59  76
ATOM     76  C   UNL     1      -2.275   3.856  13.776  1.00  0.00     0.057 A 
ATOM     77  C   UNL     1      -1.474   3.899  14.924  1.00  0.00     0.134 A 
ATOM     78  C   UNL     1      -3.661   3.970  13.948  1.00  0.00     0.134 A 
ATOM     79  F   UNL     1      -0.141   3.782  14.828  1.00  0.00    -0.206 F 
ATOM     80  C   UNL     1      -2.033   4.032  16.197  1.00  0.00     0.040 A 
ATOM     81  C   UNL     1      -4.229   4.126  15.213  1.00  0.00     0.040 A 
ATOM     82  F   UNL     1      -4.483   3.943  12.889  1.00  0.00    -0.206 F 
ATOM     83  C   UNL     1      -3.414   4.153  16.343  1.00  0.00     0.006 A 
ENDBRANCH  59  76
ENDBRANCH  33  34
ENDBRANCH  26  28
ENDBRANCH  25  26
ENDBRANCH  24  25
ENDBRANCH   1  24
TORSDOF 14
