REMARK SMILES O=C(OCCOC(=O)c1nc(/N=C/c2cccc([N+](=O)[O-])c2)n[nH]1)c1ccc(-c2c3nc(c(-c4c(F)cccc4F)c4ccc([nH]4)c(-c4c(F)cccc4F)c4nc(c(-c5c(F)cccc5F)c5ccc2[nH]5)C=C4)C=C3)cc1
REMARK SMILES IDX 5 1 4 2 3 3 2 4 1 5 25 6 26 7 78 8 27 9 77 10 28 11 29 12
REMARK SMILES IDX 30 13 71 14 31 15 76 16 70 17 72 18 32 19 75 20 69 21 68 22
REMARK SMILES IDX 33 24 59 25 42 26 58 27 43 28 46 29 57 30 73 31 44 32 45 33
REMARK SMILES IDX 56 35 74 36 47 37 34 38 35 39 40 40 36 41 37 42 39 43 41 44
REMARK SMILES IDX 38 45 60 46 61 47 66 48 62 49 63 50 65 51 67 52 64 53 48 54
REMARK SMILES IDX 49 55 54 56 50 57 51 58 53 59 55 60 52 61 6 62 7 63 8 64
REMARK SMILES IDX 9 65 10 66 24 67 11 68 23 69 12 71 13 72 14 73 15 74 22 75
REMARK SMILES IDX 16 76 18 77 17 78 19 79 20 80 21 81
REMARK H PARENT 72 23 46 34 24 70
REMARK Flexibility Score: inf
ROOT
ATOM      1  C   UNL     1       4.096   1.012  -2.181  1.00  0.00     0.275 C 
ENDROOT
BRANCH   1   2
ATOM      2  C   UNL     1       4.195  -0.400  -1.599  1.00  0.00     0.275 C 
BRANCH   2   3
ATOM      3  O   UNL     1       3.075  -0.798  -0.782  1.00  0.00    -0.458 OA
BRANCH   3   4
ATOM      4  C   UNL     1       2.832  -0.637   0.539  1.00  0.00     0.338 C 
ATOM      5  O   UNL     1       1.822  -1.149   1.021  1.00  0.00    -0.246 OA
BRANCH   4   6
ATOM      6  C   UNL     1       3.635   0.257   1.426  1.00  0.00     0.060 A 
ATOM      7  C   UNL     1       5.011   0.461   1.335  1.00  0.00     0.016 A 
ATOM      8  C   UNL     1       2.934   0.909   2.461  1.00  0.00     0.016 A 
ATOM      9  C   UNL     1       5.660   1.350   2.197  1.00  0.00     0.010 A 
ATOM     10  C   UNL     1       3.579   1.795   3.330  1.00  0.00     0.010 A 
ATOM     11  C   UNL     1       4.952   2.019   3.201  1.00  0.00    -0.014 A 
BRANCH  11  12
ATOM     12  C   UNL     1       5.701   2.817   4.198  1.00  0.00     0.031 A 
ATOM     13  C   UNL     1       6.088   2.154   5.490  1.00  0.00     0.074 A 
ATOM     14  C   UNL     1       6.138   4.054   3.898  1.00  0.00     0.049 A 
ATOM     15  N   UNL     1       6.888   2.580   6.431  1.00  0.00    -0.248 NA
ATOM     16  C   UNL     1       5.534   0.810   5.731  1.00  0.00     0.031 C 
ATOM     17  C   UNL     1       5.907   4.748   2.632  1.00  0.00     0.029 A 
ATOM     18  N   UNL     1       6.907   4.931   4.622  1.00  0.00    -0.354 N 
ATOM     19  C   UNL     1       6.979   1.537   7.344  1.00  0.00     0.074 A 
ATOM     20  C   UNL     1       6.100   0.485   6.883  1.00  0.00     0.031 C 
ATOM     21  C   UNL     1       6.553   5.928   2.654  1.00  0.00     0.029 A 
ATOM     22  C   UNL     1       7.211   6.089   3.946  1.00  0.00     0.049 A 
ATOM     23  H   UNL     1       7.211   4.747   5.540  1.00  0.00     0.167 HD
ATOM     24  C   UNL     1       7.758   1.447   8.446  1.00  0.00     0.037 A 
ATOM     25  C   UNL     1       7.938   7.153   4.345  1.00  0.00     0.037 A 
ATOM     26  C   UNL     1       8.598   2.510   8.923  1.00  0.00     0.049 A 
ATOM     27  C   UNL     1       8.520   7.130   5.735  1.00  0.00     0.074 A 
ATOM     28  C   UNL     1       9.432   2.534  10.025  1.00  0.00     0.029 A 
ATOM     29  N   UNL     1       8.682   3.759   8.326  1.00  0.00    -0.354 N 
ATOM     30  N   UNL     1       8.653   6.121   6.561  1.00  0.00    -0.248 NA
ATOM     31  C   UNL     1       9.033   8.405   6.255  1.00  0.00     0.031 C 
ATOM     32  C   UNL     1       9.992   3.814  10.117  1.00  0.00     0.029 A 
ATOM     33  C   UNL     1       9.527   4.575   9.056  1.00  0.00     0.049 A 
ATOM     34  H   UNL     1       8.210   4.026   7.504  1.00  0.00     0.167 HD
ATOM     35  C   UNL     1       9.350   6.617   7.655  1.00  0.00     0.074 A 
ATOM     36  C   UNL     1       9.570   8.027   7.407  1.00  0.00     0.031 C 
ATOM     37  C   UNL     1       9.796   5.956   8.751  1.00  0.00     0.037 A 
BRANCH  24  38
ATOM     38  C   UNL     1       7.726   0.149   9.191  1.00  0.00     0.057 A 
ATOM     39  C   UNL     1       8.370  -0.991   8.690  1.00  0.00     0.134 A 
ATOM     40  C   UNL     1       7.032   0.024  10.399  1.00  0.00     0.134 A 
ATOM     41  F   UNL     1       9.035  -0.940   7.526  1.00  0.00    -0.206 F 
ATOM     42  C   UNL     1       8.303  -2.217   9.353  1.00  0.00     0.040 A 
ATOM     43  C   UNL     1       6.971  -1.193  11.079  1.00  0.00     0.040 A 
ATOM     44  F   UNL     1       6.392   1.077  10.929  1.00  0.00    -0.206 F 
ATOM     45  C   UNL     1       7.602  -2.320  10.553  1.00  0.00     0.006 A 
ENDBRANCH  24  38
BRANCH  25  46
ATOM     46  C   UNL     1       8.147   8.345   3.475  1.00  0.00     0.057 A 
ATOM     47  C   UNL     1       9.426   8.787   3.120  1.00  0.00     0.134 A 
ATOM     48  C   UNL     1       7.075   9.141   3.065  1.00  0.00     0.134 A 
ATOM     49  F   UNL     1      10.508   8.088   3.490  1.00  0.00    -0.206 F 
ATOM     50  C   UNL     1       9.623   9.985   2.425  1.00  0.00     0.040 A 
ATOM     51  C   UNL     1       7.248  10.331   2.358  1.00  0.00     0.040 A 
ATOM     52  F   UNL     1       5.827   8.769   3.356  1.00  0.00    -0.206 F 
ATOM     53  C   UNL     1       8.532  10.765   2.047  1.00  0.00     0.006 A 
ENDBRANCH  25  46
BRANCH  37  54
ATOM     54  C   UNL     1      10.696   6.713   9.677  1.00  0.00     0.057 A 
ATOM     55  C   UNL     1      10.212   7.655  10.590  1.00  0.00     0.134 A 
ATOM     56  C   UNL     1      12.076   6.471   9.657  1.00  0.00     0.134 A 
ATOM     57  F   UNL     1       8.904   7.944  10.642  1.00  0.00    -0.206 F 
ATOM     58  C   UNL     1      11.076   8.347  11.442  1.00  0.00     0.040 A 
ATOM     59  C   UNL     1      12.945   7.140  10.518  1.00  0.00     0.040 A 
ATOM     60  F   UNL     1      12.598   5.576   8.805  1.00  0.00    -0.206 F 
ATOM     61  C   UNL     1      12.445   8.085  11.410  1.00  0.00     0.006 A 
ENDBRANCH  37  54
ENDBRANCH  11  12
ENDBRANCH   4   6
ENDBRANCH   3   4
ENDBRANCH   2   3
ENDBRANCH   1   2
BRANCH   1  62
ATOM     62  O   UNL     1       3.722   1.997  -1.210  1.00  0.00    -0.456 OA
BRANCH  62  63
ATOM     63  C   UNL     1       2.381   2.235  -1.125  1.00  0.00     0.376 C 
ATOM     64  O   UNL     1       1.529   1.715  -1.836  1.00  0.00    -0.242 OA
BRANCH  63  65
ATOM     65  C   UNL     1       2.077   3.087  -0.011  1.00  0.00     0.237 A 
ATOM     66  N   UNL     1       2.860   3.959   0.600  1.00  0.00    -0.184 NA
ATOM     67  N   UNL     1       0.868   3.059   0.621  1.00  0.00    -0.251 N 
ATOM     68  C   UNL     1       2.068   4.411   1.621  1.00  0.00     0.268 A 
ATOM     69  N   UNL     1       0.843   3.890   1.669  1.00  0.00    -0.132 NA
ATOM     70  H   UNL     1       0.110   2.497   0.341  1.00  0.00     0.192 HD
BRANCH  68  71
ATOM     71  N   UNL     1       2.429   5.362   2.566  1.00  0.00    -0.218 NA
ATOM     72  C   UNL     1       2.544   6.519   2.002  1.00  0.00     0.123 C 
BRANCH  72  73
ATOM     73  C   UNL     1       2.834   7.744   2.773  1.00  0.00    -0.000 A 
ATOM     74  C   UNL     1       2.721   8.973   2.108  1.00  0.00     0.010 A 
ATOM     75  C   UNL     1       3.201   7.694   4.121  1.00  0.00     0.095 A 
ATOM     76  C   UNL     1       2.962  10.167   2.789  1.00  0.00     0.008 A 
ATOM     77  C   UNL     1       3.466   8.898   4.787  1.00  0.00     0.270 A 
ATOM     78  C   UNL     1       3.336  10.135   4.133  1.00  0.00     0.085 A 
BRANCH  77  79
ATOM     79  N   UNL     1       3.962   8.872   6.164  1.00  0.00     0.062 N 
ATOM     80  O   UNL     1       4.596   9.863   6.560  1.00  0.00    -0.258 OA
ATOM     81  O   UNL     1       3.709   7.874   6.850  1.00  0.00    -0.258 OA
ENDBRANCH  77  79
ENDBRANCH  72  73
ENDBRANCH  68  71
ENDBRANCH  63  65
ENDBRANCH  62  63
ENDBRANCH   1  62
TORSDOF 14
