REMARK SMILES COCc1cc(SCC(=O)OCCOC(=O)c2ccc(-c3c4nc(c(-c5c(F)cccc5F)c5ccc([nH]5)c(-c5c(F)cccc5F)c5nc(c(-c6c(F)cccc6F)c6ccc3[nH]6)C=C5)C=C4)cc2)nc(-c2cccnc2)n1
REMARK SMILES IDX 12 1 11 2 9 3 10 4 8 5 7 6 6 7 4 8 5 9 79 10 72 11 71 12
REMARK SMILES IDX 3 13 2 14 1 15 73 16 74 17 78 18 75 19 77 20 76 21 13 22
REMARK SMILES IDX 14 23 15 24 16 25 17 26 18 27 70 28 19 29 69 30 20 31 21 32
REMARK SMILES IDX 22 33 63 34 23 35 68 36 62 37 64 38 24 39 67 40 61 41 60 42
REMARK SMILES IDX 25 44 51 45 34 46 50 47 35 48 38 49 49 50 65 51 36 52 37 53
REMARK SMILES IDX 48 55 66 56 39 57 26 58 27 59 32 60 28 61 29 62 31 63 33 64
REMARK SMILES IDX 30 65 52 66 53 67 58 68 54 69 55 70 57 71 59 72 56 73 40 74
REMARK SMILES IDX 41 75 46 76 42 77 43 78 45 79 47 80 44 81
REMARK H PARENT 64 43 38 54
REMARK Flexibility Score: inf
ROOT
ATOM      1  C   UNL     1       4.914  -6.155  -0.182  1.00  0.00     0.274 C 
ENDROOT
BRANCH   1   2
ATOM      2  O   UNL     1       3.586  -6.161  -0.744  1.00  0.00    -0.461 OA
BRANCH   2   3
ATOM      3  C   UNL     1       2.676  -6.951  -0.118  1.00  0.00     0.316 C 
ATOM      4  O   UNL     1       2.895  -7.557   0.928  1.00  0.00    -0.251 OA
BRANCH   3   5
ATOM      5  C   UNL     1       1.319  -7.020  -0.787  1.00  0.00     0.199 C 
BRANCH   5   6
ATOM      6  S   UNL     1       1.201  -6.222  -2.414  1.00  0.00    -0.094 SA
BRANCH   6   7
ATOM      7  C   UNL     1       0.543  -4.601  -2.068  1.00  0.00     0.101 A 
ATOM      8  C   UNL     1       0.113  -2.682  -0.764  1.00  0.00     0.071 A 
ATOM      9  C   UNL     1       0.633  -3.963  -0.849  1.00  0.00     0.062 A 
ATOM     10  N   UNL     1      -0.436  -2.072  -1.827  1.00  0.00    -0.230 NA
ATOM     11  C   UNL     1      -0.482  -2.765  -2.972  1.00  0.00     0.162 A 
ATOM     12  N   UNL     1      -0.031  -4.017  -3.135  1.00  0.00    -0.222 NA
BRANCH   8  13
ATOM     13  C   UNL     1       0.149  -1.941   0.557  1.00  0.00     0.215 C 
BRANCH  13  14
ATOM     14  O   UNL     1      -0.393  -0.618   0.539  1.00  0.00    -0.378 OA
ATOM     15  C   UNL     1       0.538   0.334   0.034  1.00  0.00     0.195 C 
ENDBRANCH  13  14
ENDBRANCH   8  13
BRANCH  11  16
ATOM     16  C   UNL     1      -1.023  -2.069  -4.124  1.00  0.00     0.038 A 
ATOM     17  C   UNL     1      -2.220  -2.450  -4.739  1.00  0.00     0.015 A 
ATOM     18  C   UNL     1      -0.379  -0.947  -4.641  1.00  0.00     0.123 A 
ATOM     19  C   UNL     1      -2.718  -1.707  -5.808  1.00  0.00     0.021 A 
ATOM     20  N   UNL     1      -0.827  -0.213  -5.689  1.00  0.00    -0.264 NA
ATOM     21  C   UNL     1      -1.991  -0.610  -6.243  1.00  0.00     0.111 A 
ENDBRANCH  11  16
ENDBRANCH   6   7
ENDBRANCH   5   6
ENDBRANCH   3   5
ENDBRANCH   2   3
ENDBRANCH   1   2
BRANCH   1  22
ATOM     22  C   UNL     1       5.145  -4.920   0.682  1.00  0.00     0.275 C 
BRANCH  22  23
ATOM     23  O   UNL     1       4.153  -4.848   1.724  1.00  0.00    -0.458 OA
BRANCH  23  24
ATOM     24  C   UNL     1       3.420  -3.719   1.739  1.00  0.00     0.338 C 
ATOM     25  O   UNL     1       3.525  -2.757   0.984  1.00  0.00    -0.246 OA
BRANCH  24  26
ATOM     26  C   UNL     1       2.384  -3.760   2.785  1.00  0.00     0.060 A 
ATOM     27  C   UNL     1       1.497  -4.836   2.885  1.00  0.00     0.016 A 
ATOM     28  C   UNL     1       2.190  -2.613   3.562  1.00  0.00     0.016 A 
ATOM     29  C   UNL     1       0.390  -4.744   3.733  1.00  0.00     0.010 A 
ATOM     30  C   UNL     1       1.112  -2.544   4.446  1.00  0.00     0.010 A 
ATOM     31  C   UNL     1       0.193  -3.601   4.526  1.00  0.00    -0.014 A 
BRANCH  31  32
ATOM     32  C   UNL     1      -0.926  -3.527   5.498  1.00  0.00     0.031 A 
ATOM     33  C   UNL     1      -2.084  -2.591   5.290  1.00  0.00     0.074 A 
ATOM     34  C   UNL     1      -0.871  -4.288   6.606  1.00  0.00     0.049 A 
ATOM     35  N   UNL     1      -3.089  -2.333   6.090  1.00  0.00    -0.248 NA
ATOM     36  C   UNL     1      -2.127  -1.858   4.018  1.00  0.00     0.031 C 
ATOM     37  C   UNL     1       0.190  -5.247   6.920  1.00  0.00     0.029 A 
ATOM     38  N   UNL     1      -1.718  -4.361   7.682  1.00  0.00    -0.354 N 
ATOM     39  C   UNL     1      -3.889  -1.421   5.413  1.00  0.00     0.074 A 
ATOM     40  C   UNL     1      -3.245  -1.154   4.145  1.00  0.00     0.031 C 
ATOM     41  C   UNL     1      -0.068  -5.809   8.111  1.00  0.00     0.029 A 
ATOM     42  C   UNL     1      -1.281  -5.215   8.663  1.00  0.00     0.049 A 
ATOM     43  H   UNL     1      -2.557  -3.850   7.745  1.00  0.00     0.167 HD
ATOM     44  C   UNL     1      -5.055  -0.859   5.813  1.00  0.00     0.037 A 
ATOM     45  C   UNL     1      -1.777  -5.467   9.887  1.00  0.00     0.037 A 
ATOM     46  C   UNL     1      -5.683  -1.092   7.087  1.00  0.00     0.049 A 
ATOM     47  C   UNL     1      -3.011  -4.751  10.348  1.00  0.00     0.074 A 
ATOM     48  C   UNL     1      -6.857  -0.551   7.584  1.00  0.00     0.029 A 
ATOM     49  N   UNL     1      -5.181  -1.929   8.070  1.00  0.00    -0.354 N 
ATOM     50  N   UNL     1      -3.749  -3.883   9.703  1.00  0.00    -0.248 NA
ATOM     51  C   UNL     1      -3.471  -5.041  11.713  1.00  0.00     0.031 C 
ATOM     52  C   UNL     1      -7.051  -1.041   8.881  1.00  0.00     0.029 A 
ATOM     53  C   UNL     1      -6.011  -1.907   9.179  1.00  0.00     0.049 A 
ATOM     54  H   UNL     1      -4.356  -2.461   7.992  1.00  0.00     0.167 HD
ATOM     55  C   UNL     1      -4.766  -3.528  10.577  1.00  0.00     0.074 A 
ATOM     56  C   UNL     1      -4.556  -4.282  11.796  1.00  0.00     0.031 C 
ATOM     57  C   UNL     1      -5.783  -2.655  10.386  1.00  0.00     0.037 A 
BRANCH  44  58
ATOM     58  C   UNL     1      -5.732   0.079   4.862  1.00  0.00     0.057 A 
ATOM     59  C   UNL     1      -6.506  -0.399   3.798  1.00  0.00     0.134 A 
ATOM     60  C   UNL     1      -5.665   1.465   5.048  1.00  0.00     0.134 A 
ATOM     61  F   UNL     1      -6.603  -1.717   3.567  1.00  0.00    -0.206 F 
ATOM     62  C   UNL     1      -7.191   0.471   2.948  1.00  0.00     0.040 A 
ATOM     63  C   UNL     1      -6.354   2.345   4.212  1.00  0.00     0.040 A 
ATOM     64  F   UNL     1      -4.942   1.982   6.052  1.00  0.00    -0.206 F 
ATOM     65  C   UNL     1      -7.121   1.848   3.159  1.00  0.00     0.006 A 
ENDBRANCH  44  58
BRANCH  45  66
ATOM     66  C   UNL     1      -1.077  -6.422  10.774  1.00  0.00     0.057 A 
ATOM     67  C   UNL     1      -1.591  -7.700  11.006  1.00  0.00     0.134 A 
ATOM     68  C   UNL     1       0.134  -6.084  11.391  1.00  0.00     0.134 A 
ATOM     69  F   UNL     1      -2.756  -8.069  10.454  1.00  0.00    -0.206 F 
ATOM     70  C   UNL     1      -0.927  -8.613  11.825  1.00  0.00     0.040 A 
ATOM     71  C   UNL     1       0.818  -6.992  12.198  1.00  0.00     0.040 A 
ATOM     72  F   UNL     1       0.675  -4.872  11.200  1.00  0.00    -0.206 F 
ATOM     73  C   UNL     1       0.285  -8.261  12.418  1.00  0.00     0.006 A 
ENDBRANCH  45  66
BRANCH  57  74
ATOM     74  C   UNL     1      -6.747  -2.484  11.517  1.00  0.00     0.057 A 
ATOM     75  C   UNL     1      -6.437  -1.689  12.626  1.00  0.00     0.134 A 
ATOM     76  C   UNL     1      -7.998  -3.110  11.491  1.00  0.00     0.134 A 
ATOM     77  F   UNL     1      -5.247  -1.077  12.713  1.00  0.00    -0.206 F 
ATOM     78  C   UNL     1      -7.336  -1.535  13.682  1.00  0.00     0.040 A 
ATOM     79  C   UNL     1      -8.911  -2.953  12.534  1.00  0.00     0.040 A 
ATOM     80  F   UNL     1      -8.351  -3.884  10.453  1.00  0.00    -0.206 F 
ATOM     81  C   UNL     1      -8.578  -2.166  13.636  1.00  0.00     0.006 A 
ENDBRANCH  57  74
ENDBRANCH  31  32
ENDBRANCH  24  26
ENDBRANCH  23  24
ENDBRANCH  22  23
ENDBRANCH   1  22
TORSDOF 16
