REMARK SMILES O=C1C[C@H](c2cn[nH]c2C(=O)OCCOC(=O)c2ccc(-c3c4nc(c(-c5c(F)cccc5F)c5ccc([nH]5)c(-c5c(F)cccc5F)c5nc(c(-c6c(F)cccc6F)c6ccc3[nH]6)C=C5)C=C4)cc2)c2c(-c3cccs3)n[nH]c2N1
REMARK SMILES IDX 13 1 12 2 10 3 11 4 9 5 5 6 6 7 7 8 8 9 4 11 1 12 2 13 3 14
REMARK SMILES IDX 82 15 81 16 72 18 80 19 73 20 79 21 74 23 75 24 78 25 76 26
REMARK SMILES IDX 77 27 14 28 15 29 16 30 17 31 18 32 19 33 71 34 20 35 70 36
REMARK SMILES IDX 21 37 22 38 23 39 64 40 24 41 69 42 63 43 65 44 25 45 68 46
REMARK SMILES IDX 62 47 61 48 26 50 52 51 35 52 51 53 36 54 39 55 50 56 66 57
REMARK SMILES IDX 37 58 38 59 49 61 67 62 40 63 27 64 28 65 33 66 29 67 30 68
REMARK SMILES IDX 32 69 34 70 31 71 53 72 54 73 59 74 55 75 56 76 58 77 60 78
REMARK SMILES IDX 57 79 41 80 42 81 47 82 43 83 44 84 46 85 48 86 45 87
REMARK H PARENT 8 10 82 17 80 22 65 49 39 60
REMARK Flexibility Score: inf
ROOT
ATOM      1  C   UNL     1       6.963  -1.966  -1.784  1.00  0.00     0.275 C 
ENDROOT
BRANCH   1   2
ATOM      2  O   UNL     1       6.318  -0.689  -1.645  1.00  0.00    -0.457 OA
BRANCH   2   3
ATOM      3  C   UNL     1       6.436   0.213  -2.635  1.00  0.00     0.356 C 
ATOM      4  O   UNL     1       7.126   0.056  -3.638  1.00  0.00    -0.244 OA
BRANCH   3   5
ATOM      5  C   UNL     1       5.615   1.374  -2.404  1.00  0.00     0.147 A 
ATOM      6  C   UNL     1       4.781   1.882  -1.402  1.00  0.00     0.013 A 
ATOM      7  C   UNL     1       4.363   3.139  -1.943  1.00  0.00     0.140 A 
ATOM      8  N   UNL     1       4.831   3.381  -3.162  1.00  0.00    -0.183 NA
ATOM      9  N   UNL     1       5.556   2.293  -3.425  1.00  0.00    -0.271 N 
ATOM     10  H   UNL     1       6.016   2.158  -4.285  1.00  0.00     0.190 HD
BRANCH   6  11
ATOM     11  C   UNL     1       4.321   1.446  -0.017  1.00  0.00     0.069 C 
ATOM     12  O   UNL     1       1.113  -0.413  -0.423  1.00  0.00    -0.275 OA
ATOM     13  C   UNL     1       2.265  -0.173  -0.058  1.00  0.00     0.226 C 
ATOM     14  C   UNL     1       2.783   1.259   0.058  1.00  0.00     0.114 C 
ATOM     15  N   UNL     1       3.059  -1.190   0.418  1.00  0.00    -0.311 N 
ATOM     16  C   UNL     1       4.348  -0.918   0.778  1.00  0.00     0.132 A 
ATOM     17  H   UNL     1       2.702  -2.104   0.499  1.00  0.00     0.171 HD
ATOM     18  C   UNL     1       4.991   0.281   0.613  1.00  0.00     0.031 A 
ATOM     19  N   UNL     1       5.261  -1.792   1.278  1.00  0.00    -0.262 N 
ATOM     20  C   UNL     1       6.321   0.034   1.040  1.00  0.00     0.108 A 
ATOM     21  N   UNL     1       6.491  -1.251   1.405  1.00  0.00    -0.173 NA
ATOM     22  H   UNL     1       5.047  -2.722   1.523  1.00  0.00     0.192 HD
BRANCH  20  23
ATOM     23  C   UNL     1       7.460   0.990   0.865  1.00  0.00     0.055 A 
ATOM     24  C   UNL     1       8.570   0.728   0.088  1.00  0.00     0.022 A 
ATOM     25  S   UNL     1       7.472   2.580   1.478  1.00  0.00    -0.142 S 
ATOM     26  C   UNL     1       9.389   1.882  -0.080  1.00  0.00     0.012 A 
ATOM     27  C   UNL     1       8.941   2.940   0.678  1.00  0.00     0.065 A 
ENDBRANCH  20  23
ENDBRANCH   6  11
ENDBRANCH   3   5
ENDBRANCH   2   3
ENDBRANCH   1   2
BRANCH   1  28
ATOM     28  C   UNL     1       5.905  -2.984  -2.139  1.00  0.00     0.275 C 
BRANCH  28  29
ATOM     29  O   UNL     1       5.642  -2.859  -3.525  1.00  0.00    -0.458 OA
BRANCH  29  30
ATOM     30  C   UNL     1       4.687  -1.990  -3.913  1.00  0.00     0.338 C 
ATOM     31  O   UNL     1       4.035  -1.226  -3.227  1.00  0.00    -0.246 OA
BRANCH  30  32
ATOM     32  C   UNL     1       4.464  -2.248  -5.334  1.00  0.00     0.060 A 
ATOM     33  C   UNL     1       3.560  -1.442  -6.028  1.00  0.00     0.016 A 
ATOM     34  C   UNL     1       4.985  -3.434  -5.879  1.00  0.00     0.016 A 
ATOM     35  C   UNL     1       3.038  -1.932  -7.204  1.00  0.00     0.010 A 
ATOM     36  C   UNL     1       4.448  -3.931  -7.027  1.00  0.00     0.010 A 
ATOM     37  C   UNL     1       3.428  -3.210  -7.626  1.00  0.00    -0.014 A 
BRANCH  37  38
ATOM     38  C   UNL     1       2.829  -3.779  -8.802  1.00  0.00     0.031 A 
ATOM     39  C   UNL     1       3.332  -3.156 -10.040  1.00  0.00     0.074 A 
ATOM     40  C   UNL     1       2.048  -4.870  -8.746  1.00  0.00     0.049 A 
ATOM     41  N   UNL     1       2.695  -2.349 -10.815  1.00  0.00    -0.248 NA
ATOM     42  C   UNL     1       4.770  -3.276 -10.339  1.00  0.00     0.031 C 
ATOM     43  C   UNL     1       1.768  -5.745  -7.604  1.00  0.00     0.029 A 
ATOM     44  N   UNL     1       1.399  -5.481  -9.766  1.00  0.00    -0.354 N 
ATOM     45  C   UNL     1       3.586  -2.041 -11.833  1.00  0.00     0.074 A 
ATOM     46  C   UNL     1       4.888  -2.446 -11.376  1.00  0.00     0.031 C 
ATOM     47  C   UNL     1       1.186  -6.884  -8.049  1.00  0.00     0.029 A 
ATOM     48  C   UNL     1       0.928  -6.752  -9.473  1.00  0.00     0.049 A 
ATOM     49  H   UNL     1       1.273  -5.057 -10.645  1.00  0.00     0.167 HD
ATOM     50  C   UNL     1       3.133  -1.746 -13.079  1.00  0.00     0.037 A 
ATOM     51  C   UNL     1       0.432  -7.629 -10.380  1.00  0.00     0.037 A 
ATOM     52  C   UNL     1       1.726  -1.429 -13.061  1.00  0.00     0.049 A 
ATOM     53  C   UNL     1       0.060  -6.846 -11.591  1.00  0.00     0.074 A 
ATOM     54  C   UNL     1       0.961  -0.467 -12.429  1.00  0.00     0.029 A 
ATOM     55  N   UNL     1       0.850  -2.417 -13.440  1.00  0.00    -0.354 N 
ATOM     56  N   UNL     1      -0.922  -5.988 -11.624  1.00  0.00    -0.248 NA
ATOM     57  C   UNL     1       1.077  -6.664 -12.617  1.00  0.00     0.031 C 
ATOM     58  C   UNL     1      -0.238  -1.138 -12.048  1.00  0.00     0.029 A 
ATOM     59  C   UNL     1      -0.172  -2.448 -12.525  1.00  0.00     0.049 A 
ATOM     60  H   UNL     1       0.940  -3.000 -14.229  1.00  0.00     0.167 HD
ATOM     61  C   UNL     1      -0.440  -4.922 -12.372  1.00  0.00     0.074 A 
ATOM     62  C   UNL     1       0.763  -5.432 -13.027  1.00  0.00     0.031 C 
ATOM     63  C   UNL     1      -0.888  -3.649 -12.155  1.00  0.00     0.037 A 
BRANCH  50  64
ATOM     64  C   UNL     1       3.858  -2.140 -14.336  1.00  0.00     0.057 A 
ATOM     65  C   UNL     1       3.423  -1.620 -15.564  1.00  0.00     0.134 A 
ATOM     66  C   UNL     1       4.772  -3.213 -14.424  1.00  0.00     0.134 A 
ATOM     67  F   UNL     1       2.534  -0.616 -15.608  1.00  0.00    -0.206 F 
ATOM     68  C   UNL     1       3.821  -2.167 -16.789  1.00  0.00     0.040 A 
ATOM     69  C   UNL     1       5.219  -3.728 -15.640  1.00  0.00     0.040 A 
ATOM     70  F   UNL     1       5.198  -3.889 -13.350  1.00  0.00    -0.206 F 
ATOM     71  C   UNL     1       4.720  -3.227 -16.829  1.00  0.00     0.006 A 
ENDBRANCH  50  64
BRANCH  51  72
ATOM     72  C   UNL     1       0.570  -9.102 -10.408  1.00  0.00     0.057 A 
ATOM     73  C   UNL     1      -0.229  -9.883 -11.254  1.00  0.00     0.134 A 
ATOM     74  C   UNL     1       1.675  -9.751  -9.829  1.00  0.00     0.134 A 
ATOM     75  F   UNL     1      -1.283  -9.343 -11.884  1.00  0.00    -0.206 F 
ATOM     76  C   UNL     1       0.070 -11.223 -11.535  1.00  0.00     0.040 A 
ATOM     77  C   UNL     1       1.981 -11.090 -10.095  1.00  0.00     0.040 A 
ATOM     78  F   UNL     1       2.546  -9.085  -9.058  1.00  0.00    -0.206 F 
ATOM     79  C   UNL     1       1.187 -11.827 -10.965  1.00  0.00     0.006 A 
ENDBRANCH  51  72
BRANCH  63  80
ATOM     80  C   UNL     1      -2.094  -3.474 -11.270  1.00  0.00     0.057 A 
ATOM     81  C   UNL     1      -2.135  -3.814  -9.908  1.00  0.00     0.134 A 
ATOM     82  C   UNL     1      -3.209  -2.802 -11.783  1.00  0.00     0.134 A 
ATOM     83  F   UNL     1      -1.080  -4.370  -9.300  1.00  0.00    -0.206 F 
ATOM     84  C   UNL     1      -3.250  -3.540  -9.110  1.00  0.00     0.040 A 
ATOM     85  C   UNL     1      -4.315  -2.491 -10.988  1.00  0.00     0.040 A 
ATOM     86  F   UNL     1      -3.221  -2.394 -13.061  1.00  0.00    -0.206 F 
ATOM     87  C   UNL     1      -4.343  -2.870  -9.649  1.00  0.00     0.006 A 
ENDBRANCH  63  80
ENDBRANCH  37  38
ENDBRANCH  30  32
ENDBRANCH  29  30
ENDBRANCH  28  29
ENDBRANCH   1  28
TORSDOF 13
