REMARK SMILES CCc1ccc(C[NH+]2CCC3(CC2)[C@@H](C(=O)OCCOC(=O)c2ccc(-c4c5nc(c(-c6c(F)cccc6F)c6ccc([nH]6)c(-c6c(F)cccc6F)c6nc(c(-c7c(F)cccc7F)c7ccc4[nH]7)C=C6)C=C5)cc2)CC(=O)N3C)nc1
REMARK SMILES IDX 18 1 17 2 15 3 16 4 14 5 8 6 9 7 13 8 10 10 12 11 11 12
REMARK SMILES IDX 80 13 77 14 78 15 81 16 79 17 7 18 6 19 3 20 4 21 83 22 5 23
REMARK SMILES IDX 82 24 2 25 1 26 19 27 20 28 21 29 22 30 23 31 24 32 76 33
REMARK SMILES IDX 25 34 75 35 26 36 27 37 28 38 69 39 29 40 74 41 68 42 70 43
REMARK SMILES IDX 30 44 73 45 67 46 66 47 31 49 57 50 40 51 56 52 41 53 44 54
REMARK SMILES IDX 55 55 71 56 42 57 43 58 54 60 72 61 45 62 32 63 33 64 38 65
REMARK SMILES IDX 34 66 35 67 37 68 39 69 36 70 58 71 59 72 64 73 60 74 61 75
REMARK SMILES IDX 63 76 65 77 62 78 46 79 47 80 52 81 48 82 49 83 51 84 53 85
REMARK SMILES IDX 50 86
REMARK H PARENT 8 9 70 48 44 59
REMARK Flexibility Score: inf
ROOT
ATOM      1  C   UNL     1       1.518  -2.030  -1.409  1.00  0.00     0.274 C 
ENDROOT
BRANCH   1   2
ATOM      2  O   UNL     1       2.575  -1.316  -2.085  1.00  0.00    -0.462 OA
BRANCH   2   3
ATOM      3  C   UNL     1       3.569  -0.783  -1.346  1.00  0.00     0.311 C 
ATOM      4  O   UNL     1       3.662  -0.950  -0.133  1.00  0.00    -0.252 OA
BRANCH   3   5
ATOM      5  C   UNL     1       4.486   0.187  -2.098  1.00  0.00     0.134 C 
ATOM      6  N   UNL     1       3.551   1.137  -6.209  1.00  0.00    -0.330 N 
ATOM      7  C   UNL     1       4.653   1.874  -5.615  1.00  0.00     0.265 C 
ATOM      8  C   UNL     1       3.640  -0.293  -5.950  1.00  0.00     0.265 C 
ATOM      9  H   UNL     1       3.699   1.251  -7.212  1.00  0.00     0.348 HD
ATOM     10  C   UNL     1       4.875   1.625  -4.124  1.00  0.00     0.091 C 
ATOM     11  C   UNL     1       3.744  -0.646  -4.471  1.00  0.00     0.091 C 
ATOM     12  C   UNL     1       4.775   0.143  -3.646  1.00  0.00     0.067 C 
ATOM     13  N   UNL     1       6.121  -0.467  -3.690  1.00  0.00    -0.339 N 
ATOM     14  C   UNL     1       5.883   0.170  -1.450  1.00  0.00     0.118 C 
ATOM     15  C   UNL     1       6.770  -0.476  -2.470  1.00  0.00     0.223 C 
ATOM     16  C   UNL     1       6.775  -0.960  -4.888  1.00  0.00     0.147 C 
ATOM     17  O   UNL     1       7.892  -0.900  -2.242  1.00  0.00    -0.275 OA
BRANCH   6  18
ATOM     18  C   UNL     1       2.203   1.728  -6.120  1.00  0.00     0.319 C 
BRANCH  18  19
ATOM     19  C   UNL     1       1.543   1.891  -4.758  1.00  0.00     0.095 A 
ATOM     20  C   UNL     1       0.415   2.093  -2.229  1.00  0.00    -0.030 A 
ATOM     21  C   UNL     1       1.215   3.125  -2.719  1.00  0.00     0.007 A 
ATOM     22  C   UNL     1       0.181   1.026  -3.087  1.00  0.00     0.115 A 
ATOM     23  C   UNL     1       1.766   3.035  -3.997  1.00  0.00     0.030 A 
ATOM     24  N   UNL     1       0.729   0.898  -4.320  1.00  0.00    -0.255 NA
BRANCH  20  25
ATOM     25  C   UNL     1      -0.184   2.161  -0.850  1.00  0.00     0.034 C 
ATOM     26  C   UNL     1       0.310   1.066   0.085  1.00  0.00     0.009 C 
ENDBRANCH  20  25
ENDBRANCH  18  19
ENDBRANCH   6  18
ENDBRANCH   3   5
ENDBRANCH   2   3
ENDBRANCH   1   2
BRANCH   1  27
ATOM     27  C   UNL     1       1.353  -3.430  -1.985  1.00  0.00     0.275 C 
BRANCH  27  28
ATOM     28  O   UNL     1       2.438  -4.239  -1.517  1.00  0.00    -0.458 OA
BRANCH  28  29
ATOM     29  C   UNL     1       3.461  -4.372  -2.383  1.00  0.00     0.338 C 
ATOM     30  O   UNL     1       3.497  -4.079  -3.569  1.00  0.00    -0.246 OA
BRANCH  29  31
ATOM     31  C   UNL     1       4.632  -4.792  -1.621  1.00  0.00     0.060 A 
ATOM     32  C   UNL     1       5.471  -3.800  -1.111  1.00  0.00     0.016 A 
ATOM     33  C   UNL     1       4.939  -6.141  -1.485  1.00  0.00     0.016 A 
ATOM     34  C   UNL     1       6.662  -4.148  -0.495  1.00  0.00     0.010 A 
ATOM     35  C   UNL     1       6.122  -6.493  -0.839  1.00  0.00     0.010 A 
ATOM     36  C   UNL     1       7.000  -5.498  -0.366  1.00  0.00    -0.014 A 
BRANCH  36  37
ATOM     37  C   UNL     1       8.324  -5.884   0.162  1.00  0.00     0.031 A 
ATOM     38  C   UNL     1       9.311  -6.516  -0.772  1.00  0.00     0.074 A 
ATOM     39  C   UNL     1       8.629  -5.678   1.454  1.00  0.00     0.049 A 
ATOM     40  N   UNL     1      10.399  -7.184  -0.499  1.00  0.00    -0.248 NA
ATOM     41  C   UNL     1       9.015  -6.400  -2.210  1.00  0.00     0.031 C 
ATOM     42  C   UNL     1       7.777  -4.997   2.429  1.00  0.00     0.029 A 
ATOM     43  N   UNL     1       9.741  -6.037   2.169  1.00  0.00    -0.354 N 
ATOM     44  C   UNL     1      10.883  -7.623  -1.724  1.00  0.00     0.074 A 
ATOM     45  C   UNL     1       9.978  -7.138  -2.742  1.00  0.00     0.031 C 
ATOM     46  C   UNL     1       8.399  -4.986   3.619  1.00  0.00     0.029 A 
ATOM     47  C   UNL     1       9.652  -5.725   3.503  1.00  0.00     0.049 A 
ATOM     48  H   UNL     1      10.525  -6.475   1.767  1.00  0.00     0.167 HD
ATOM     49  C   UNL     1      11.981  -8.377  -1.962  1.00  0.00     0.037 A 
ATOM     50  C   UNL     1      10.468  -6.049   4.522  1.00  0.00     0.037 A 
ATOM     51  C   UNL     1      12.894  -8.800  -0.933  1.00  0.00     0.049 A 
ATOM     52  C   UNL     1      11.677  -6.894   4.237  1.00  0.00     0.074 A 
ATOM     53  C   UNL     1      14.034  -9.573  -1.049  1.00  0.00     0.029 A 
ATOM     54  N   UNL     1      12.775  -8.455   0.406  1.00  0.00    -0.354 N 
ATOM     55  N   UNL     1      12.083  -7.393   3.093  1.00  0.00    -0.248 NA
ATOM     56  C   UNL     1      12.527  -7.240   5.382  1.00  0.00     0.031 C 
ATOM     57  C   UNL     1      14.595  -9.713   0.226  1.00  0.00     0.029 A 
ATOM     58  C   UNL     1      13.822  -8.999   1.129  1.00  0.00     0.049 A 
ATOM     59  H   UNL     1      12.052  -7.905   0.786  1.00  0.00     0.167 HD
ATOM     60  C   UNL     1      13.239  -8.106   3.378  1.00  0.00     0.074 A 
ATOM     61  C   UNL     1      13.479  -7.957   4.800  1.00  0.00     0.031 C 
ATOM     62  C   UNL     1      14.029  -8.825   2.544  1.00  0.00     0.037 A 
BRANCH  49  63
ATOM     63  C   UNL     1      12.220  -8.825  -3.373  1.00  0.00     0.057 A 
ATOM     64  C   UNL     1      12.668  -7.951  -4.370  1.00  0.00     0.134 A 
ATOM     65  C   UNL     1      12.006 -10.162  -3.734  1.00  0.00     0.134 A 
ATOM     66  F   UNL     1      12.872  -6.654  -4.095  1.00  0.00    -0.206 F 
ATOM     67  C   UNL     1      12.877  -8.386  -5.681  1.00  0.00     0.040 A 
ATOM     68  C   UNL     1      12.234 -10.614  -5.035  1.00  0.00     0.040 A 
ATOM     69  F   UNL     1      11.575 -11.052  -2.828  1.00  0.00    -0.206 F 
ATOM     70  C   UNL     1      12.666  -9.722  -6.015  1.00  0.00     0.006 A 
ENDBRANCH  49  63
BRANCH  50  71
ATOM     71  C   UNL     1      10.136  -5.612   5.900  1.00  0.00     0.057 A 
ATOM     72  C   UNL     1      10.892  -4.630   6.549  1.00  0.00     0.134 A 
ATOM     73  C   UNL     1       9.039  -6.144   6.590  1.00  0.00     0.134 A 
ATOM     74  F   UNL     1      11.967  -4.100   5.948  1.00  0.00    -0.206 F 
ATOM     75  C   UNL     1      10.571  -4.193   7.835  1.00  0.00     0.040 A 
ATOM     76  C   UNL     1       8.692  -5.699   7.866  1.00  0.00     0.040 A 
ATOM     77  F   UNL     1       8.273  -7.086   6.022  1.00  0.00    -0.206 F 
ATOM     78  C   UNL     1       9.462  -4.722   8.494  1.00  0.00     0.006 A 
ENDBRANCH  50  71
BRANCH  62  79
ATOM     79  C   UNL     1      15.232  -9.475   3.153  1.00  0.00     0.057 A 
ATOM     80  C   UNL     1      15.127 -10.640   3.920  1.00  0.00     0.134 A 
ATOM     81  C   UNL     1      16.509  -8.941   2.945  1.00  0.00     0.134 A 
ATOM     82  F   UNL     1      13.927 -11.189   4.163  1.00  0.00    -0.206 F 
ATOM     83  C   UNL     1      16.253 -11.244   4.479  1.00  0.00     0.040 A 
ATOM     84  C   UNL     1      17.644  -9.546   3.482  1.00  0.00     0.040 A 
ATOM     85  F   UNL     1      16.672  -7.829   2.213  1.00  0.00    -0.206 F 
ATOM     86  C   UNL     1      17.517 -10.699   4.256  1.00  0.00     0.006 A 
ENDBRANCH  62  79
ENDBRANCH  36  37
ENDBRANCH  29  31
ENDBRANCH  28  29
ENDBRANCH  27  28
ENDBRANCH   1  27
TORSDOF 14
