REMARK SMILES COc1cc(-c2ccc(NC(=O)CCC(=O)OCCOC(=O)c3ccc(-c4c5nc(c(-c6c(F)cccc6F)c6ccc([nH]6)c(-c6c(F)cccc6F)c6nc(c(-c7c(F)cccc7F)c7ccc4[nH]7)C=C6)C=C5)cc3)c(OC)c2)ccc1N
REMARK SMILES IDX 17 1 15 2 16 3 14 4 13 5 11 6 10 7 12 9 9 10 6 11 7 12 80 13
REMARK SMILES IDX 8 14 77 15 5 16 3 17 4 18 83 19 82 20 81 21 2 22 1 23 84 24
REMARK SMILES IDX 78 27 79 28 18 29 19 30 20 31 21 32 22 33 23 34 24 35 76 36
REMARK SMILES IDX 25 37 75 38 26 39 27 40 28 41 69 42 29 43 74 44 68 45 70 46
REMARK SMILES IDX 30 47 73 48 67 49 66 50 31 52 57 53 40 54 56 55 41 56 44 57
REMARK SMILES IDX 55 58 71 59 42 60 43 61 54 63 72 64 45 65 32 66 33 67 38 68
REMARK SMILES IDX 34 69 35 70 37 71 39 72 36 73 58 74 59 75 64 76 60 77 61 78
REMARK SMILES IDX 63 79 65 80 62 81 46 82 47 83 52 84 48 85 49 86 51 87 53 88
REMARK SMILES IDX 50 89
REMARK H PARENT 10 8 84 25 84 26 70 51 44 62
REMARK Flexibility Score: inf
ROOT
ATOM      1  O   UNL     1      -5.279   2.966  -5.544  1.00  0.00    -0.462 OA
ENDROOT
BRANCH   1   2
ATOM      2  C   UNL     1      -5.775   3.909  -4.703  1.00  0.00     0.306 C 
ATOM      3  O   UNL     1      -6.227   3.648  -3.592  1.00  0.00    -0.252 OA
BRANCH   2   4
ATOM      4  C   UNL     1      -5.815   5.312  -5.324  1.00  0.00     0.132 C 
BRANCH   4   5
ATOM      5  C   UNL     1      -4.531   6.175  -5.390  1.00  0.00     0.112 C 
BRANCH   5   6
ATOM      6  C   UNL     1      -4.158   6.720  -6.787  1.00  0.00     0.225 C 
ATOM      7  N   UNL     1      -2.874   6.655  -7.316  1.00  0.00    -0.323 N 
ATOM      8  H   UNL     1      -2.675   7.315  -8.019  1.00  0.00     0.170 HD
ATOM      9  O   UNL     1      -5.002   7.362  -7.425  1.00  0.00    -0.275 OA
BRANCH   7  10
ATOM     10  C   UNL     1      -1.813   5.779  -6.992  1.00  0.00     0.083 A 
ATOM     11  C   UNL     1       0.253   4.223  -5.759  1.00  0.00    -0.014 A 
ATOM     12  C   UNL     1       0.558   5.227  -6.691  1.00  0.00     0.011 A 
ATOM     13  C   UNL     1      -1.096   3.914  -5.686  1.00  0.00     0.057 A 
ATOM     14  C   UNL     1      -0.470   6.028  -7.280  1.00  0.00     0.031 A 
ATOM     15  C   UNL     1      -2.069   4.560  -6.427  1.00  0.00     0.142 A 
BRANCH  11  16
ATOM     16  C   UNL     1       1.184   3.496  -4.845  1.00  0.00    -0.014 A 
ATOM     17  C   UNL     1       1.507   1.697  -3.163  1.00  0.00     0.142 A 
ATOM     18  C   UNL     1       0.794   2.282  -4.218  1.00  0.00     0.057 A 
ATOM     19  C   UNL     1       2.744   2.223  -2.791  1.00  0.00     0.074 A 
ATOM     20  C   UNL     1       3.163   3.405  -3.415  1.00  0.00     0.030 A 
ATOM     21  C   UNL     1       2.404   4.031  -4.425  1.00  0.00     0.011 A 
BRANCH  17  22
ATOM     22  O   UNL     1       0.927   0.581  -2.610  1.00  0.00    -0.495 OA
ATOM     23  C   UNL     1       0.767   0.628  -1.190  1.00  0.00     0.278 C 
ENDBRANCH  17  22
BRANCH  19  24
ATOM     24  N   UNL     1       3.503   1.678  -1.761  1.00  0.00    -0.396 N 
ATOM     25  H   UNL     1       3.212   0.848  -1.320  1.00  0.00     0.156 HD
ATOM     26  H   UNL     1       4.333   2.123  -1.473  1.00  0.00     0.156 HD
ENDBRANCH  19  24
ENDBRANCH  11  16
BRANCH  15  27
ATOM     27  O   UNL     1      -3.253   3.915  -6.562  1.00  0.00    -0.495 OA
ATOM     28  C   UNL     1      -3.690   3.757  -7.910  1.00  0.00     0.278 C 
ENDBRANCH  15  27
ENDBRANCH   7  10
ENDBRANCH   5   6
ENDBRANCH   4   5
ENDBRANCH   2   4
ENDBRANCH   1   2
BRANCH   1  29
ATOM     29  C   UNL     1      -5.058   1.613  -5.070  1.00  0.00     0.274 C 
BRANCH  29  30
ATOM     30  C   UNL     1      -3.617   1.339  -4.606  1.00  0.00     0.275 C 
BRANCH  30  31
ATOM     31  O   UNL     1      -3.379   1.700  -3.231  1.00  0.00    -0.458 OA
BRANCH  31  32
ATOM     32  C   UNL     1      -3.229   3.009  -3.005  1.00  0.00     0.338 C 
ATOM     33  O   UNL     1      -3.253   3.933  -3.811  1.00  0.00    -0.246 OA
BRANCH  32  34
ATOM     34  C   UNL     1      -3.067   3.356  -1.625  1.00  0.00     0.060 A 
ATOM     35  C   UNL     1      -4.215   3.765  -0.949  1.00  0.00     0.016 A 
ATOM     36  C   UNL     1      -1.781   3.510  -1.100  1.00  0.00     0.016 A 
ATOM     37  C   UNL     1      -4.085   4.266   0.324  1.00  0.00     0.010 A 
ATOM     38  C   UNL     1      -1.652   3.968   0.200  1.00  0.00     0.010 A 
ATOM     39  C   UNL     1      -2.812   4.291   0.917  1.00  0.00    -0.014 A 
BRANCH  39  40
ATOM     40  C   UNL     1      -2.783   4.341   2.379  1.00  0.00     0.031 A 
ATOM     41  C   UNL     1      -2.538   5.613   3.098  1.00  0.00     0.074 A 
ATOM     42  C   UNL     1      -3.112   3.184   2.982  1.00  0.00     0.049 A 
ATOM     43  N   UNL     1      -2.639   5.849   4.375  1.00  0.00    -0.248 NA
ATOM     44  C   UNL     1      -2.126   6.769   2.289  1.00  0.00     0.031 C 
ATOM     45  C   UNL     1      -3.377   1.921   2.275  1.00  0.00     0.029 A 
ATOM     46  N   UNL     1      -3.342   2.884   4.290  1.00  0.00    -0.354 N 
ATOM     47  C   UNL     1      -2.303   7.183   4.533  1.00  0.00     0.074 A 
ATOM     48  C   UNL     1      -1.978   7.702   3.221  1.00  0.00     0.031 C 
ATOM     49  C   UNL     1      -3.803   1.005   3.150  1.00  0.00     0.029 A 
ATOM     50  C   UNL     1      -3.791   1.599   4.476  1.00  0.00     0.049 A 
ATOM     51  H   UNL     1      -3.201   3.521   5.027  1.00  0.00     0.167 HD
ATOM     52  C   UNL     1      -2.271   7.884   5.689  1.00  0.00     0.037 A 
ATOM     53  C   UNL     1      -4.162   0.978   5.606  1.00  0.00     0.037 A 
ATOM     54  C   UNL     1      -2.585   7.296   6.967  1.00  0.00     0.049 A 
ATOM     55  C   UNL     1      -4.119   1.786   6.864  1.00  0.00     0.074 A 
ATOM     56  C   UNL     1      -2.554   7.874   8.222  1.00  0.00     0.029 A 
ATOM     57  N   UNL     1      -2.988   5.974   7.143  1.00  0.00    -0.354 N 
ATOM     58  N   UNL     1      -3.793   3.050   7.013  1.00  0.00    -0.248 NA
ATOM     59  C   UNL     1      -4.481   1.097   8.103  1.00  0.00     0.031 C 
ATOM     60  C   UNL     1      -2.905   6.893   9.158  1.00  0.00     0.029 A 
ATOM     61  C   UNL     1      -3.194   5.713   8.486  1.00  0.00     0.049 A 
ATOM     62  H   UNL     1      -3.108   5.321   6.417  1.00  0.00     0.167 HD
ATOM     63  C   UNL     1      -3.901   3.312   8.366  1.00  0.00     0.074 A 
ATOM     64  C   UNL     1      -4.359   2.079   8.986  1.00  0.00     0.031 C 
ATOM     65  C   UNL     1      -3.634   4.456   9.043  1.00  0.00     0.037 A 
BRANCH  52  66
ATOM     66  C   UNL     1      -1.840   9.318   5.611  1.00  0.00     0.057 A 
ATOM     67  C   UNL     1      -2.659  10.309   5.055  1.00  0.00     0.134 A 
ATOM     68  C   UNL     1      -0.582   9.712   6.082  1.00  0.00     0.134 A 
ATOM     69  F   UNL     1      -3.868   9.997   4.564  1.00  0.00    -0.206 F 
ATOM     70  C   UNL     1      -2.234  11.637   4.952  1.00  0.00     0.040 A 
ATOM     71  C   UNL     1      -0.153  11.039   6.003  1.00  0.00     0.040 A 
ATOM     72  F   UNL     1       0.256   8.813   6.619  1.00  0.00    -0.206 F 
ATOM     73  C   UNL     1      -0.978  12.005   5.431  1.00  0.00     0.006 A 
ENDBRANCH  52  66
BRANCH  53  74
ATOM     74  C   UNL     1      -4.600  -0.437   5.560  1.00  0.00     0.057 A 
ATOM     75  C   UNL     1      -5.931  -0.796   5.793  1.00  0.00     0.134 A 
ATOM     76  C   UNL     1      -3.711  -1.460   5.200  1.00  0.00     0.134 A 
ATOM     77  F   UNL     1      -6.832   0.135   6.139  1.00  0.00    -0.206 F 
ATOM     78  C   UNL     1      -6.361  -2.120   5.676  1.00  0.00     0.040 A 
ATOM     79  C   UNL     1      -4.132  -2.782   5.054  1.00  0.00     0.040 A 
ATOM     80  F   UNL     1      -2.425  -1.179   4.940  1.00  0.00    -0.206 F 
ATOM     81  C   UNL     1      -5.462  -3.116   5.296  1.00  0.00     0.006 A 
ENDBRANCH  53  74
BRANCH  65  82
ATOM     82  C   UNL     1      -3.830   4.391  10.524  1.00  0.00     0.057 A 
ATOM     83  C   UNL     1      -2.911   3.734  11.351  1.00  0.00     0.134 A 
ATOM     84  C   UNL     1      -4.939   4.997  11.122  1.00  0.00     0.134 A 
ATOM     85  F   UNL     1      -1.841   3.119  10.825  1.00  0.00    -0.206 F 
ATOM     86  C   UNL     1      -3.103   3.663  12.729  1.00  0.00     0.040 A 
ATOM     87  C   UNL     1      -5.129   4.952  12.502  1.00  0.00     0.040 A 
ATOM     88  F   UNL     1      -5.850   5.641  10.377  1.00  0.00    -0.206 F 
ATOM     89  C   UNL     1      -4.212   4.278  13.308  1.00  0.00     0.006 A 
ENDBRANCH  65  82
ENDBRANCH  39  40
ENDBRANCH  32  34
ENDBRANCH  31  32
ENDBRANCH  30  31
ENDBRANCH  29  30
ENDBRANCH   1  29
TORSDOF 18
