REMARK SMILES O=C(OCCOC(=O)c1ccc([C@H]2CCCN(C(=O)c3ccc4[nH]ccc4c3)C2)cc1)c1ccc(-c2c3nc(c(-c4c(F)cccc4F)c4ccc([nH]4)c(-c4c(F)cccc4F)c4nc(c(-c5c(F)cccc5F)c5ccc2[nH]5)C=C4)C=C3)cc1
REMARK SMILES IDX 5 1 4 2 3 3 2 4 1 5 32 6 33 7 85 8 34 9 84 10 35 11 36 12
REMARK SMILES IDX 37 13 78 14 38 15 83 16 77 17 79 18 39 19 82 20 76 21 75 22
REMARK SMILES IDX 40 24 66 25 49 26 65 27 50 28 53 29 64 30 80 31 51 32 52 33
REMARK SMILES IDX 63 35 81 36 54 37 41 38 42 39 47 40 43 41 44 42 46 43 48 44
REMARK SMILES IDX 45 45 67 46 68 47 73 48 69 49 70 50 72 51 74 52 71 53 55 54
REMARK SMILES IDX 56 55 61 56 57 57 58 58 60 59 62 60 59 61 6 62 7 63 8 64
REMARK SMILES IDX 9 65 10 66 31 67 11 68 30 69 12 70 13 71 14 72 29 73 15 74
REMARK SMILES IDX 17 75 16 76 18 77 19 78 20 79 21 80 28 81 22 82 27 83 23 84
REMARK SMILES IDX 26 85 24 86 25 87
REMARK H PARENT 79 23 53 34 24 88
REMARK Flexibility Score: inf
ROOT
ATOM      1  C   UNL     1      -4.652   3.442  -5.662  1.00  0.00     0.275 C 
ENDROOT
BRANCH   1   2
ATOM      2  C   UNL     1      -5.988   2.703  -5.793  1.00  0.00     0.275 C 
BRANCH   2   3
ATOM      3  O   UNL     1      -6.025   1.395  -5.194  1.00  0.00    -0.458 OA
BRANCH   3   4
ATOM      4  C   UNL     1      -5.711   0.188  -5.718  1.00  0.00     0.338 C 
ATOM      5  O   UNL     1      -6.045  -0.829  -5.112  1.00  0.00    -0.246 OA
BRANCH   4   6
ATOM      6  C   UNL     1      -4.854   0.011  -6.932  1.00  0.00     0.060 A 
ATOM      7  C   UNL     1      -4.798   0.872  -8.030  1.00  0.00     0.016 A 
ATOM      8  C   UNL     1      -4.051  -1.145  -6.961  1.00  0.00     0.016 A 
ATOM      9  C   UNL     1      -3.916   0.636  -9.086  1.00  0.00     0.010 A 
ATOM     10  C   UNL     1      -3.165  -1.388  -8.014  1.00  0.00     0.010 A 
ATOM     11  C   UNL     1      -3.098  -0.493  -9.085  1.00  0.00    -0.014 A 
BRANCH  11  12
ATOM     12  C   UNL     1      -2.292  -0.805 -10.283  1.00  0.00     0.031 A 
ATOM     13  C   UNL     1      -2.827  -1.808 -11.256  1.00  0.00     0.074 A 
ATOM     14  C   UNL     1      -1.141  -0.156 -10.526  1.00  0.00     0.049 A 
ATOM     15  N   UNL     1      -2.321  -2.204 -12.392  1.00  0.00    -0.248 NA
ATOM     16  C   UNL     1      -4.123  -2.421 -10.920  1.00  0.00     0.031 C 
ATOM     17  C   UNL     1      -0.590   0.912  -9.699  1.00  0.00     0.029 A 
ATOM     18  N   UNL     1      -0.223  -0.301 -11.533  1.00  0.00    -0.354 N 
ATOM     19  C   UNL     1      -3.258  -3.073 -12.930  1.00  0.00     0.074 A 
ATOM     20  C   UNL     1      -4.326  -3.207 -11.965  1.00  0.00     0.031 C 
ATOM     21  C   UNL     1       0.608   1.279 -10.184  1.00  0.00     0.029 A 
ATOM     22  C   UNL     1       0.894   0.484 -11.373  1.00  0.00     0.049 A 
ATOM     23  H   UNL     1      -0.351  -0.909 -12.296  1.00  0.00     0.167 HD
ATOM     24  C   UNL     1      -3.244  -3.674 -14.141  1.00  0.00     0.037 A 
ATOM     25  C   UNL     1       2.019   0.547 -12.107  1.00  0.00     0.037 A 
ATOM     26  C   UNL     1      -2.155  -3.561 -15.073  1.00  0.00     0.049 A 
ATOM     27  C   UNL     1       2.092  -0.263 -13.370  1.00  0.00     0.074 A 
ATOM     28  C   UNL     1      -2.015  -4.150 -16.315  1.00  0.00     0.029 A 
ATOM     29  N   UNL     1      -1.006  -2.813 -14.848  1.00  0.00    -0.354 N 
ATOM     30  N   UNL     1       1.188  -1.060 -13.888  1.00  0.00    -0.248 NA
ATOM     31  C   UNL     1       3.317  -0.141 -14.169  1.00  0.00     0.031 C 
ATOM     32  C   UNL     1      -0.758  -3.798 -16.820  1.00  0.00     0.029 A 
ATOM     33  C   UNL     1      -0.137  -2.950 -15.915  1.00  0.00     0.049 A 
ATOM     34  H   UNL     1      -0.836  -2.267 -14.046  1.00  0.00     0.167 HD
ATOM     35  C   UNL     1       1.710  -1.495 -15.097  1.00  0.00     0.074 A 
ATOM     36  C   UNL     1       3.015  -0.877 -15.230  1.00  0.00     0.031 C 
ATOM     37  C   UNL     1       1.154  -2.316 -16.021  1.00  0.00     0.037 A 
BRANCH  24  38
ATOM     38  C   UNL     1      -4.435  -4.513 -14.490  1.00  0.00     0.057 A 
ATOM     39  C   UNL     1      -5.683  -3.936 -14.768  1.00  0.00     0.134 A 
ATOM     40  C   UNL     1      -4.349  -5.909 -14.508  1.00  0.00     0.134 A 
ATOM     41  F   UNL     1      -5.837  -2.603 -14.739  1.00  0.00    -0.206 F 
ATOM     42  C   UNL     1      -6.809  -4.720 -15.021  1.00  0.00     0.040 A 
ATOM     43  C   UNL     1      -5.464  -6.703 -14.784  1.00  0.00     0.040 A 
ATOM     44  F   UNL     1      -3.187  -6.523 -14.244  1.00  0.00    -0.206 F 
ATOM     45  C   UNL     1      -6.700  -6.109 -15.032  1.00  0.00     0.006 A 
ENDBRANCH  24  38
BRANCH  25  46
ATOM     46  C   UNL     1       3.147   1.409 -11.673  1.00  0.00     0.057 A 
ATOM     47  C   UNL     1       3.499   2.568 -12.372  1.00  0.00     0.134 A 
ATOM     48  C   UNL     1       3.908   1.081 -10.543  1.00  0.00     0.134 A 
ATOM     49  F   UNL     1       2.817   2.927 -13.469  1.00  0.00    -0.206 F 
ATOM     50  C   UNL     1       4.579   3.361 -11.976  1.00  0.00     0.040 A 
ATOM     51  C   UNL     1       4.977   1.875 -10.123  1.00  0.00     0.040 A 
ATOM     52  F   UNL     1       3.616  -0.016  -9.830  1.00  0.00    -0.206 F 
ATOM     53  C   UNL     1       5.319   3.016 -10.847  1.00  0.00     0.006 A 
ENDBRANCH  25  46
BRANCH  37  54
ATOM     54  C   UNL     1       1.940  -2.558 -17.274  1.00  0.00     0.057 A 
ATOM     55  C   UNL     1       3.080  -3.370 -17.287  1.00  0.00     0.134 A 
ATOM     56  C   UNL     1       1.519  -2.008 -18.491  1.00  0.00     0.134 A 
ATOM     57  F   UNL     1       3.541  -3.913 -16.150  1.00  0.00    -0.206 F 
ATOM     58  C   UNL     1       3.786  -3.612 -18.465  1.00  0.00     0.040 A 
ATOM     59  C   UNL     1       2.200  -2.265 -19.680  1.00  0.00     0.040 A 
ATOM     60  F   UNL     1       0.429  -1.227 -18.545  1.00  0.00    -0.206 F 
ATOM     61  C   UNL     1       3.340  -3.065 -19.668  1.00  0.00     0.006 A 
ENDBRANCH  37  54
ENDBRANCH  11  12
ENDBRANCH   4   6
ENDBRANCH   3   4
ENDBRANCH   2   3
ENDBRANCH   1   2
BRANCH   1  62
ATOM     62  O   UNL     1      -3.504   2.615  -5.909  1.00  0.00    -0.458 OA
BRANCH  62  63
ATOM     63  C   UNL     1      -2.962   2.052  -4.796  1.00  0.00     0.338 C 
ATOM     64  O   UNL     1      -3.335   2.212  -3.646  1.00  0.00    -0.246 OA
BRANCH  63  65
ATOM     65  C   UNL     1      -1.911   1.088  -5.177  1.00  0.00     0.060 A 
ATOM     66  C   UNL     1      -1.931  -0.178  -4.592  1.00  0.00     0.016 A 
ATOM     67  C   UNL     1      -0.900   1.415  -6.078  1.00  0.00     0.016 A 
ATOM     68  C   UNL     1      -0.967  -1.128  -4.943  1.00  0.00     0.005 A 
ATOM     69  C   UNL     1       0.077   0.462  -6.408  1.00  0.00     0.005 A 
ATOM     70  C   UNL     1       0.050  -0.835  -5.870  1.00  0.00    -0.043 A 
BRANCH  70  71
ATOM     71  C   UNL     1       1.136  -1.874  -6.146  1.00  0.00     0.039 C 
ATOM     72  C   UNL     1       0.584  -3.271  -6.530  1.00  0.00     0.012 C 
ATOM     73  C   UNL     1       2.206  -1.503  -7.201  1.00  0.00     0.128 C 
ATOM     74  C   UNL     1       1.717  -4.308  -6.592  1.00  0.00     0.022 C 
ATOM     75  N   UNL     1       3.277  -2.502  -7.182  1.00  0.00    -0.338 N 
ATOM     76  C   UNL     1       2.858  -3.865  -7.508  1.00  0.00     0.120 C 
BRANCH  75  77
ATOM     77  C   UNL     1       4.534  -2.113  -6.733  1.00  0.00     0.253 C 
ATOM     78  O   UNL     1       4.836  -0.957  -6.445  1.00  0.00    -0.269 OA
BRANCH  77  79
ATOM     79  C   UNL     1       5.566  -3.140  -6.510  1.00  0.00     0.040 A 
ATOM     80  C   UNL     1       5.809  -3.550  -5.197  1.00  0.00     0.016 A 
ATOM     81  C   UNL     1       6.341  -3.601  -7.582  1.00  0.00     0.024 A 
ATOM     82  C   UNL     1       6.825  -4.466  -4.916  1.00  0.00     0.027 A 
ATOM     83  C   UNL     1       7.383  -4.510  -7.310  1.00  0.00     0.000 A 
ATOM     84  C   UNL     1       7.594  -4.924  -5.992  1.00  0.00     0.045 A 
ATOM     85  C   UNL     1       8.371  -5.149  -8.110  1.00  0.00     0.028 A 
ATOM     86  N   UNL     1       8.659  -5.799  -6.008  1.00  0.00    -0.361 N 
ATOM     87  C   UNL     1       9.145  -5.929  -7.281  1.00  0.00     0.083 A 
ATOM     88  H   UNL     1       9.018  -6.263  -5.217  1.00  0.00     0.166 HD
ENDBRANCH  77  79
ENDBRANCH  75  77
ENDBRANCH  70  71
ENDBRANCH  63  65
ENDBRANCH  62  63
ENDBRANCH   1  62
TORSDOF 14
