REMARK SMILES CS(=O)(=O)c1ccc(/C=C(/C(=O)OCCOC(=O)c2ccc(-c3c4nc(c(-c5c(F)cccc5F)c5ccc([nH]5)c(-c5c(F)cccc5F)c5nc(c(-c6c(F)cccc6F)c6ccc3[nH]6)C=C5)C=C4)cc2)c2cccc(Br)c2)cc1
REMARK SMILES IDX 14 1 13 2 11 3 12 4 10 5 9 6 8 7 5 8 6 9 81 10 7 11 80 12
REMARK SMILES IDX 2 13 1 14 3 15 4 16 73 17 74 18 79 19 75 20 77 21 76 22
REMARK SMILES IDX 78 23 15 24 16 25 17 26 18 27 19 28 20 29 72 30 21 31 71 32
REMARK SMILES IDX 22 33 23 34 24 35 65 36 25 37 70 38 64 39 66 40 26 41 69 42
REMARK SMILES IDX 63 43 62 44 27 46 53 47 36 48 52 49 37 50 40 51 51 52 67 53
REMARK SMILES IDX 38 54 39 55 50 57 68 58 41 59 28 60 29 61 34 62 30 63 31 64
REMARK SMILES IDX 33 65 35 66 32 67 54 68 55 69 60 70 56 71 57 72 59 73 61 74
REMARK SMILES IDX 58 75 42 76 43 77 48 78 44 79 45 80 47 81 49 82 46 83
REMARK H PARENT 66 45 40 56
REMARK Flexibility Score: inf
ROOT
ATOM      1  C   UNL     1       2.811   6.508  -8.221  1.00  0.00     0.275 C 
ENDROOT
BRANCH   1   2
ATOM      2  O   UNL     1       2.784   5.548  -7.143  1.00  0.00    -0.458 OA
BRANCH   2   3
ATOM      3  C   UNL     1       2.558   4.262  -7.516  1.00  0.00     0.338 C 
ATOM      4  O   UNL     1       2.341   3.879  -8.658  1.00  0.00    -0.246 OA
BRANCH   3   5
ATOM      5  C   UNL     1       2.644   3.320  -6.360  1.00  0.00     0.067 C 
ATOM      6  C   UNL     1       2.004   3.649  -5.214  1.00  0.00     0.024 C 
BRANCH   6   7
ATOM      7  C   UNL     1       1.677   2.756  -4.078  1.00  0.00    -0.025 A 
ATOM      8  C   UNL     1       0.750   0.892  -2.195  1.00  0.00     0.067 A 
ATOM      9  C   UNL     1       2.030   0.759  -2.724  1.00  0.00     0.021 A 
ATOM     10  C   UNL     1      -0.047   1.983  -2.537  1.00  0.00     0.021 A 
ATOM     11  C   UNL     1       2.501   1.717  -3.623  1.00  0.00     0.009 A 
ATOM     12  C   UNL     1       0.419   2.910  -3.475  1.00  0.00     0.009 A 
BRANCH   8  13
ATOM     13  S   UNL     1       0.120  -0.393  -1.148  1.00  0.00     0.175 S 
ATOM     14  C   UNL     1       0.916  -0.083   0.403  1.00  0.00     0.163 C 
ATOM     15  O   UNL     1       0.608  -1.651  -1.667  1.00  0.00    -0.224 OA
ATOM     16  O   UNL     1      -1.305  -0.159  -0.973  1.00  0.00    -0.224 OA
ENDBRANCH   8  13
ENDBRANCH   6   7
BRANCH   5  17
ATOM     17  C   UNL     1       3.262   1.998  -6.585  1.00  0.00    -0.010 A 
ATOM     18  C   UNL     1       4.615   1.808  -6.251  1.00  0.00     0.009 A 
ATOM     19  C   UNL     1       2.508   0.910  -7.037  1.00  0.00     0.024 A 
ATOM     20  C   UNL     1       5.193   0.539  -6.329  1.00  0.00     0.002 A 
ATOM     21  C   UNL     1       3.097  -0.352  -7.121  1.00  0.00     0.018 A 
ATOM     22  C   UNL     1       4.432  -0.544  -6.764  1.00  0.00     0.016 A 
ATOM     23  Br  UNL     1       2.066  -1.828  -7.699  1.00  0.00    -0.051 Br
ENDBRANCH   5  17
ENDBRANCH   3   5
ENDBRANCH   2   3
ENDBRANCH   1   2
BRANCH   1  24
ATOM     24  C   UNL     1       4.249   6.876  -8.579  1.00  0.00     0.275 C 
BRANCH  24  25
ATOM     25  O   UNL     1       4.937   5.718  -9.084  1.00  0.00    -0.458 OA
BRANCH  25  26
ATOM     26  C   UNL     1       5.990   5.288  -8.352  1.00  0.00     0.338 C 
ATOM     27  O   UNL     1       6.464   5.811  -7.356  1.00  0.00    -0.246 OA
BRANCH  26  28
ATOM     28  C   UNL     1       6.508   4.020  -8.898  1.00  0.00     0.060 A 
ATOM     29  C   UNL     1       5.639   2.958  -9.117  1.00  0.00     0.016 A 
ATOM     30  C   UNL     1       7.883   3.825  -9.026  1.00  0.00     0.016 A 
ATOM     31  C   UNL     1       6.149   1.678  -9.322  1.00  0.00     0.010 A 
ATOM     32  C   UNL     1       8.382   2.558  -9.359  1.00  0.00     0.010 A 
ATOM     33  C   UNL     1       7.527   1.446  -9.454  1.00  0.00    -0.014 A 
BRANCH  33  34
ATOM     34  C   UNL     1       8.056   0.056  -9.637  1.00  0.00     0.031 A 
ATOM     35  C   UNL     1       9.172  -0.473  -8.763  1.00  0.00     0.074 A 
ATOM     36  C   UNL     1       7.525  -0.772 -10.563  1.00  0.00     0.049 A 
ATOM     37  N   UNL     1       9.902  -1.552  -8.913  1.00  0.00    -0.248 NA
ATOM     38  C   UNL     1       9.525   0.318  -7.573  1.00  0.00     0.031 C 
ATOM     39  C   UNL     1       6.412  -0.451 -11.457  1.00  0.00     0.029 A 
ATOM     40  N   UNL     1       7.843  -2.069 -10.895  1.00  0.00    -0.354 N 
ATOM     41  C   UNL     1      10.850  -1.521  -7.895  1.00  0.00     0.074 A 
ATOM     42  C   UNL     1      10.592  -0.326  -7.121  1.00  0.00     0.031 C 
ATOM     43  C   UNL     1       6.088  -1.536 -12.172  1.00  0.00     0.029 A 
ATOM     44  C   UNL     1       7.054  -2.590 -11.893  1.00  0.00     0.049 A 
ATOM     45  H   UNL     1       8.565  -2.576 -10.459  1.00  0.00     0.167 HD
ATOM     46  C   UNL     1      11.847  -2.403  -7.636  1.00  0.00     0.037 A 
ATOM     47  C   UNL     1       7.125  -3.754 -12.566  1.00  0.00     0.037 A 
ATOM     48  C   UNL     1      12.051  -3.640  -8.348  1.00  0.00     0.049 A 
ATOM     49  C   UNL     1       8.245  -4.706 -12.277  1.00  0.00     0.074 A 
ATOM     50  C   UNL     1      13.018  -4.609  -8.134  1.00  0.00     0.029 A 
ATOM     51  N   UNL     1      11.260  -4.093  -9.392  1.00  0.00    -0.354 N 
ATOM     52  N   UNL     1       9.198  -4.611 -11.384  1.00  0.00    -0.248 NA
ATOM     53  C   UNL     1       8.323  -5.908 -13.119  1.00  0.00     0.031 C 
ATOM     54  C   UNL     1      12.831  -5.632  -9.070  1.00  0.00     0.029 A 
ATOM     55  C   UNL     1      11.724  -5.320  -9.840  1.00  0.00     0.049 A 
ATOM     56  H   UNL     1      10.483  -3.614  -9.761  1.00  0.00     0.167 HD
ATOM     57  C   UNL     1       9.995  -5.733 -11.562  1.00  0.00     0.074 A 
ATOM     58  C   UNL     1       9.395  -6.512 -12.625  1.00  0.00     0.031 C 
ATOM     59  C   UNL     1      11.131  -6.079 -10.910  1.00  0.00     0.037 A 
BRANCH  46  60
ATOM     60  C   UNL     1      12.832  -2.053  -6.556  1.00  0.00     0.057 A 
ATOM     61  C   UNL     1      12.515  -2.129  -5.195  1.00  0.00     0.134 A 
ATOM     62  C   UNL     1      14.146  -1.696  -6.894  1.00  0.00     0.134 A 
ATOM     63  F   UNL     1      11.274  -2.453  -4.803  1.00  0.00    -0.206 F 
ATOM     64  C   UNL     1      13.464  -1.847  -4.209  1.00  0.00     0.040 A 
ATOM     65  C   UNL     1      15.109  -1.436  -5.918  1.00  0.00     0.040 A 
ATOM     66  F   UNL     1      14.519  -1.614  -8.180  1.00  0.00    -0.206 F 
ATOM     67  C   UNL     1      14.768  -1.508  -4.569  1.00  0.00     0.006 A 
ENDBRANCH  46  60
BRANCH  47  68
ATOM     68  C   UNL     1       6.138  -4.042 -13.638  1.00  0.00     0.057 A 
ATOM     69  C   UNL     1       5.175  -5.044 -13.486  1.00  0.00     0.134 A 
ATOM     70  C   UNL     1       6.118  -3.301 -14.828  1.00  0.00     0.134 A 
ATOM     71  F   UNL     1       5.163  -5.807 -12.383  1.00  0.00    -0.206 F 
ATOM     72  C   UNL     1       4.223  -5.297 -14.475  1.00  0.00     0.040 A 
ATOM     73  C   UNL     1       5.154  -3.521 -15.810  1.00  0.00     0.040 A 
ATOM     74  F   UNL     1       7.017  -2.328 -15.034  1.00  0.00    -0.206 F 
ATOM     75  C   UNL     1       4.204  -4.525 -15.636  1.00  0.00     0.006 A 
ENDBRANCH  47  68
BRANCH  59  76
ATOM     76  C   UNL     1      11.791  -7.357 -11.329  1.00  0.00     0.057 A 
ATOM     77  C   UNL     1      12.505  -7.453 -12.530  1.00  0.00     0.134 A 
ATOM     78  C   UNL     1      11.719  -8.500 -10.523  1.00  0.00     0.134 A 
ATOM     79  F   UNL     1      12.597  -6.397 -13.352  1.00  0.00    -0.206 F 
ATOM     80  C   UNL     1      13.106  -8.649 -12.926  1.00  0.00     0.040 A 
ATOM     81  C   UNL     1      12.333  -9.695 -10.899  1.00  0.00     0.040 A 
ATOM     82  F   UNL     1      11.053  -8.471  -9.359  1.00  0.00    -0.206 F 
ATOM     83  C   UNL     1      13.024  -9.774 -12.107  1.00  0.00     0.006 A 
ENDBRANCH  59  76
ENDBRANCH  33  34
ENDBRANCH  26  28
ENDBRANCH  25  26
ENDBRANCH  24  25
ENDBRANCH   1  24
TORSDOF 14
