REMARK SMILES CC(C)[C@H](NC(=O)OCc1ccccc1)C(=O)NCC(=O)OCCOC(=O)c1ccc(-c2c3nc(c(-c4c(F)cccc4F)c4ccc([nH]4)c(-c4c(F)cccc4F)c4nc(c(-c5c(F)cccc5F)c5ccc2[nH]5)C=C4)C=C3)cc1
REMARK SMILES IDX 20 1 21 2 19 3 18 4 16 5 17 6 4 8 2 9 1 10 3 11 5 12 6 13
REMARK SMILES IDX 7 15 8 16 9 17 10 18 11 19 15 20 12 21 14 22 13 23 22 24
REMARK SMILES IDX 23 25 24 26 25 27 26 28 27 29 28 30 29 31 81 32 30 33 80 34
REMARK SMILES IDX 31 35 32 36 33 37 74 38 34 39 79 40 73 41 75 42 35 43 78 44
REMARK SMILES IDX 72 45 71 46 36 48 62 49 45 50 61 51 46 52 49 53 60 54 76 55
REMARK SMILES IDX 47 56 48 57 59 59 77 60 50 61 37 62 38 63 43 64 39 65 40 66
REMARK SMILES IDX 42 67 44 68 41 69 63 70 64 71 69 72 65 73 66 74 68 75 70 76
REMARK SMILES IDX 67 77 51 78 52 79 57 80 53 81 54 82 56 83 58 84 55 85
REMARK H PARENT 18 7 5 14 75 47 49 58
REMARK Flexibility Score: inf
ROOT
ATOM      1  C   UNL     1       0.859   1.831   4.103  1.00  0.00     0.325 C 
ATOM      2  O   UNL     1       1.365   1.013   4.867  1.00  0.00    -0.250 OA
ENDROOT
BRANCH   1   3
ATOM      3  C   UNL     1      -0.586   1.690   3.639  1.00  0.00     0.238 C 
BRANCH   3   4
ATOM      4  N   UNL     1      -1.050   2.482   2.528  1.00  0.00    -0.343 N 
ATOM      5  C   UNL     1      -1.277   2.107   1.243  1.00  0.00     0.243 C 
ATOM      6  O   UNL     1      -1.890   2.903   0.524  1.00  0.00    -0.273 OA
ATOM      7  H   UNL     1      -1.226   3.429   2.729  1.00  0.00     0.164 HD
BRANCH   5   8
ATOM      8  C   UNL     1      -0.811   0.741   0.675  1.00  0.00     0.177 C 
BRANCH   8   9
ATOM      9  C   UNL     1      -1.624  -0.501   1.108  1.00  0.00     0.015 C 
ATOM     10  C   UNL     1      -3.134  -0.234   1.127  1.00  0.00     0.010 C 
ATOM     11  C   UNL     1      -1.342  -1.676   0.160  1.00  0.00     0.010 C 
ENDBRANCH   8   9
BRANCH   8  12
ATOM     12  N   UNL     1       0.657   0.684   0.763  1.00  0.00    -0.309 N 
ATOM     13  C   UNL     1       1.520   0.027   1.582  1.00  0.00     0.408 C 
ATOM     14  H   UNL     1       1.108   1.238   0.086  1.00  0.00     0.167 HD
ATOM     15  O   UNL     1       2.695   0.368   1.627  1.00  0.00    -0.225 OA
BRANCH  13  16
ATOM     16  O   UNL     1       0.958  -0.946   2.330  1.00  0.00    -0.445 OA
BRANCH  16  17
ATOM     17  C   UNL     1       1.796  -1.522   3.343  1.00  0.00     0.270 C 
BRANCH  17  18
ATOM     18  C   UNL     1       2.598  -2.697   2.850  1.00  0.00    -0.011 A 
ATOM     19  C   UNL     1       2.044  -3.981   2.791  1.00  0.00     0.007 A 
ATOM     20  C   UNL     1       3.937  -2.513   2.478  1.00  0.00     0.007 A 
ATOM     21  C   UNL     1       2.828  -5.064   2.391  1.00  0.00     0.000 A 
ATOM     22  C   UNL     1       4.718  -3.595   2.076  1.00  0.00     0.000 A 
ATOM     23  C   UNL     1       4.164  -4.872   2.038  1.00  0.00     0.000 A 
ENDBRANCH  17  18
ENDBRANCH  16  17
ENDBRANCH  13  16
ENDBRANCH   8  12
ENDBRANCH   5   8
ENDBRANCH   3   4
ENDBRANCH   1   3
BRANCH   1  24
ATOM     24  O   UNL     1       1.442   2.999   3.738  1.00  0.00    -0.461 OA
BRANCH  24  25
ATOM     25  C   UNL     1       2.716   3.250   4.365  1.00  0.00     0.274 C 
BRANCH  25  26
ATOM     26  C   UNL     1       2.565   4.003   5.697  1.00  0.00     0.275 C 
BRANCH  26  27
ATOM     27  O   UNL     1       1.958   3.202   6.736  1.00  0.00    -0.458 OA
BRANCH  27  28
ATOM     28  C   UNL     1       0.609   3.277   6.801  1.00  0.00     0.338 C 
ATOM     29  O   UNL     1      -0.127   3.947   6.092  1.00  0.00    -0.246 OA
BRANCH  28  30
ATOM     30  C   UNL     1       0.064   2.318   7.776  1.00  0.00     0.060 A 
ATOM     31  C   UNL     1      -0.626   1.204   7.290  1.00  0.00     0.016 A 
ATOM     32  C   UNL     1       0.043   2.617   9.136  1.00  0.00     0.016 A 
ATOM     33  C   UNL     1      -1.402   0.427   8.137  1.00  0.00     0.010 A 
ATOM     34  C   UNL     1      -0.711   1.812   9.999  1.00  0.00     0.010 A 
ATOM     35  C   UNL     1      -1.471   0.740   9.495  1.00  0.00    -0.014 A 
BRANCH  35  36
ATOM     36  C   UNL     1      -2.439   0.008  10.344  1.00  0.00     0.031 A 
ATOM     37  C   UNL     1      -3.664   0.719  10.842  1.00  0.00     0.074 A 
ATOM     38  C   UNL     1      -2.263  -1.302  10.597  1.00  0.00     0.049 A 
ATOM     39  N   UNL     1      -4.584   0.302  11.673  1.00  0.00    -0.248 NA
ATOM     40  C   UNL     1      -3.884   2.084  10.336  1.00  0.00     0.031 C 
ATOM     41  C   UNL     1      -1.159  -2.120  10.093  1.00  0.00     0.029 A 
ATOM     42  N   UNL     1      -3.019  -2.176  11.334  1.00  0.00    -0.354 N 
ATOM     43  C   UNL     1      -5.465   1.366  11.824  1.00  0.00     0.074 A 
ATOM     44  C   UNL     1      -4.970   2.449  11.002  1.00  0.00     0.031 C 
ATOM     45  C   UNL     1      -1.314  -3.380  10.530  1.00  0.00     0.029 A 
ATOM     46  C   UNL     1      -2.490  -3.441  11.391  1.00  0.00     0.049 A 
ATOM     47  H   UNL     1      -3.859  -1.920  11.779  1.00  0.00     0.167 HD
ATOM     48  C   UNL     1      -6.585   1.430  12.583  1.00  0.00     0.037 A 
ATOM     49  C   UNL     1      -2.893  -4.519  12.090  1.00  0.00     0.037 A 
ATOM     50  C   UNL     1      -7.088   0.335  13.369  1.00  0.00     0.049 A 
ATOM     51  C   UNL     1      -4.112  -4.409  12.961  1.00  0.00     0.074 A 
ATOM     52  C   UNL     1      -8.207   0.296  14.183  1.00  0.00     0.029 A 
ATOM     53  N   UNL     1      -6.508  -0.924  13.425  1.00  0.00    -0.354 N 
ATOM     54  N   UNL     1      -4.908  -3.383  13.143  1.00  0.00    -0.248 NA
ATOM     55  C   UNL     1      -4.485  -5.604  13.729  1.00  0.00     0.031 C 
ATOM     56  C   UNL     1      -8.286  -0.978  14.756  1.00  0.00     0.029 A 
ATOM     57  C   UNL     1      -7.240  -1.745  14.266  1.00  0.00     0.049 A 
ATOM     58  H   UNL     1      -5.696  -1.194  12.939  1.00  0.00     0.167 HD
ATOM     59  C   UNL     1      -5.887  -3.813  14.029  1.00  0.00     0.074 A 
ATOM     60  C   UNL     1      -5.592  -5.198  14.335  1.00  0.00     0.031 C 
ATOM     61  C   UNL     1      -6.934  -3.124  14.545  1.00  0.00     0.037 A 
BRANCH  48  62
ATOM     62  C   UNL     1      -7.311   2.741  12.630  1.00  0.00     0.057 A 
ATOM     63  C   UNL     1      -8.070   3.213  11.553  1.00  0.00     0.134 A 
ATOM     64  C   UNL     1      -7.257   3.538  13.781  1.00  0.00     0.134 A 
ATOM     65  F   UNL     1      -8.146   2.508  10.414  1.00  0.00    -0.206 F 
ATOM     66  C   UNL     1      -8.732   4.442  11.610  1.00  0.00     0.040 A 
ATOM     67  C   UNL     1      -7.934   4.756  13.860  1.00  0.00     0.040 A 
ATOM     68  F   UNL     1      -6.548   3.144  14.850  1.00  0.00    -0.206 F 
ATOM     69  C   UNL     1      -8.669   5.214  12.769  1.00  0.00     0.006 A 
ENDBRANCH  48  62
BRANCH  49  70
ATOM     70  C   UNL     1      -2.115  -5.781  12.019  1.00  0.00     0.057 A 
ATOM     71  C   UNL     1      -2.635  -6.920  11.396  1.00  0.00     0.134 A 
ATOM     72  C   UNL     1      -0.835  -5.878  12.578  1.00  0.00     0.134 A 
ATOM     73  F   UNL     1      -3.865  -6.895  10.861  1.00  0.00    -0.206 F 
ATOM     74  C   UNL     1      -1.916  -8.115  11.341  1.00  0.00     0.040 A 
ATOM     75  C   UNL     1      -0.094  -7.058  12.509  1.00  0.00     0.040 A 
ATOM     76  F   UNL     1      -0.280  -4.820  13.188  1.00  0.00    -0.206 F 
ATOM     77  C   UNL     1      -0.638  -8.184  11.894  1.00  0.00     0.006 A 
ENDBRANCH  49  70
BRANCH  61  78
ATOM     78  C   UNL     1      -7.857  -3.875  15.457  1.00  0.00     0.057 A 
ATOM     79  C   UNL     1      -7.493  -4.209  16.767  1.00  0.00     0.134 A 
ATOM     80  C   UNL     1      -9.137  -4.243  15.024  1.00  0.00     0.134 A 
ATOM     81  F   UNL     1      -6.275  -3.895  17.235  1.00  0.00    -0.206 F 
ATOM     82  C   UNL     1      -8.362  -4.905  17.608  1.00  0.00     0.040 A 
ATOM     83  C   UNL     1     -10.023  -4.918  15.864  1.00  0.00     0.040 A 
ATOM     84  F   UNL     1      -9.549  -3.945  13.783  1.00  0.00    -0.206 F 
ATOM     85  C   UNL     1      -9.633  -5.256  17.158  1.00  0.00     0.006 A 
ENDBRANCH  61  78
ENDBRANCH  35  36
ENDBRANCH  28  30
ENDBRANCH  27  28
ENDBRANCH  26  27
ENDBRANCH  25  26
ENDBRANCH  24  25
ENDBRANCH   1  24
TORSDOF 18
