REMARK SMILES CC(=O)Nc1cnc(N2CC=C(c3ccccc3C)CC2)c(C(=O)OCCOC(=O)c2ccc(-c3c4nc(c(-c5c(F)cccc5F)c5ccc([nH]5)c(-c5c(F)cccc5F)c5nc(c(-c6c(F)cccc6F)c6ccc3[nH]6)C=C5)C=C4)cc2)c1
REMARK SMILES IDX 26 1 25 2 23 3 24 4 22 5 5 6 6 7 85 8 7 9 8 10 4 11 1 12
REMARK SMILES IDX 2 13 3 14 9 16 10 17 21 18 11 19 20 20 12 21 13 22 14 23
REMARK SMILES IDX 18 24 15 25 17 26 19 27 16 28 27 29 28 30 29 31 30 32 31 33
REMARK SMILES IDX 32 34 84 35 33 36 83 37 34 38 35 39 36 40 77 41 37 42 82 43
REMARK SMILES IDX 76 44 78 45 38 46 81 47 75 48 74 49 39 51 65 52 48 53 64 54
REMARK SMILES IDX 49 55 52 56 63 57 79 58 50 59 51 60 62 62 80 63 53 64 40 65
REMARK SMILES IDX 41 66 46 67 42 68 43 69 45 70 47 71 44 72 66 73 67 74 72 75
REMARK SMILES IDX 68 76 69 77 71 78 73 79 70 80 54 81 55 82 60 83 56 84 57 85
REMARK SMILES IDX 59 86 61 87 58 88
REMARK H PARENT 4 15 78 50 52 61
REMARK Flexibility Score: inf
ROOT
ATOM      1  C   UNL     1       6.320   0.949  -0.860  1.00  0.00     0.275 C 
ENDROOT
BRANCH   1   2
ATOM      2  O   UNL     1       5.647   2.218  -1.055  1.00  0.00    -0.458 OA
BRANCH   2   3
ATOM      3  C   UNL     1       4.438   2.257  -0.427  1.00  0.00     0.342 C 
ATOM      4  O   UNL     1       3.995   1.346   0.272  1.00  0.00    -0.246 OA
BRANCH   3   5
ATOM      5  C   UNL     1       3.463   3.245  -0.914  1.00  0.00     0.104 A 
ATOM      6  C   UNL     1       1.162   2.995  -1.661  1.00  0.00     0.060 A 
ATOM      7  C   UNL     1       0.963   4.289  -1.242  1.00  0.00     0.139 A 
ATOM      8  C   UNL     1       2.453   2.522  -1.589  1.00  0.00     0.047 A 
ATOM      9  N   UNL     1       1.930   5.039  -0.657  1.00  0.00    -0.236 NA
ATOM     10  C   UNL     1       3.174   4.529  -0.417  1.00  0.00     0.143 A 
BRANCH   6  11
ATOM     11  N   UNL     1       0.101   2.193  -2.101  1.00  0.00    -0.325 N 
ATOM     12  C   UNL     1       0.619   0.196  -0.699  1.00  0.00     0.114 C 
ATOM     13  C   UNL     1      -0.104   0.857  -1.855  1.00  0.00     0.221 C 
ATOM     14  O   UNL     1      -0.940   0.241  -2.516  1.00  0.00    -0.275 OA
ATOM     15  H   UNL     1      -0.580   2.641  -2.653  1.00  0.00     0.169 HD
ENDBRANCH   6  11
BRANCH  10  16
ATOM     16  N   UNL     1       3.983   5.360   0.351  1.00  0.00    -0.352 N 
ATOM     17  C   UNL     1       3.270   6.188   1.347  1.00  0.00     0.146 C 
ATOM     18  C   UNL     1       5.334   5.737  -0.080  1.00  0.00     0.123 C 
ATOM     19  C   UNL     1       4.082   7.319   1.919  1.00  0.00    -0.002 C 
ATOM     20  C   UNL     1       5.630   7.240   0.025  1.00  0.00     0.057 C 
ATOM     21  C   UNL     1       5.168   7.841   1.328  1.00  0.00    -0.041 C 
BRANCH  21  22
ATOM     22  C   UNL     1       5.862   9.039   1.870  1.00  0.00    -0.020 A 
ATOM     23  C   UNL     1       6.457   8.999   3.145  1.00  0.00     0.008 A 
ATOM     24  C   UNL     1       5.951  10.241   1.138  1.00  0.00    -0.044 A 
ATOM     25  C   UNL     1       7.179  10.087   3.653  1.00  0.00     0.001 A 
ATOM     26  C   UNL     1       6.689  11.325   1.655  1.00  0.00     0.004 A 
ATOM     27  C   UNL     1       5.285  10.414  -0.198  1.00  0.00     0.045 C 
ATOM     28  C   UNL     1       7.305  11.246   2.901  1.00  0.00     0.000 A 
ENDBRANCH  21  22
ENDBRANCH  10  16
ENDBRANCH   3   5
ENDBRANCH   2   3
ENDBRANCH   1   2
BRANCH   1  29
ATOM     29  C   UNL     1       7.850   1.022  -0.755  1.00  0.00     0.275 C 
BRANCH  29  30
ATOM     30  O   UNL     1       8.458   2.194  -0.153  1.00  0.00    -0.458 OA
BRANCH  30  31
ATOM     31  C   UNL     1       7.913   2.986   0.796  1.00  0.00     0.338 C 
ATOM     32  O   UNL     1       8.158   4.185   0.874  1.00  0.00    -0.246 OA
BRANCH  31  33
ATOM     33  C   UNL     1       7.012   2.337   1.752  1.00  0.00     0.060 A 
ATOM     34  C   UNL     1       5.822   2.983   2.120  1.00  0.00     0.016 A 
ATOM     35  C   UNL     1       7.307   1.055   2.202  1.00  0.00     0.016 A 
ATOM     36  C   UNL     1       4.865   2.344   2.869  1.00  0.00     0.010 A 
ATOM     37  C   UNL     1       6.338   0.376   2.888  1.00  0.00     0.010 A 
ATOM     38  C   UNL     1       5.161   1.053   3.253  1.00  0.00    -0.014 A 
BRANCH  38  39
ATOM     39  C   UNL     1       4.472   0.459   4.365  1.00  0.00     0.031 A 
ATOM     40  C   UNL     1       3.240  -0.288   4.111  1.00  0.00     0.074 A 
ATOM     41  C   UNL     1       5.232   0.597   5.472  1.00  0.00     0.049 A 
ATOM     42  N   UNL     1       2.336  -0.525   4.992  1.00  0.00    -0.248 NA
ATOM     43  C   UNL     1       2.837  -0.734   2.772  1.00  0.00     0.031 C 
ATOM     44  C   UNL     1       5.306  -0.147   6.707  1.00  0.00     0.029 A 
ATOM     45  N   UNL     1       6.142   1.637   5.679  1.00  0.00    -0.354 N 
ATOM     46  C   UNL     1       1.570  -1.548   4.470  1.00  0.00     0.074 A 
ATOM     47  C   UNL     1       1.727  -1.429   3.047  1.00  0.00     0.031 C 
ATOM     48  C   UNL     1       5.980   0.590   7.617  1.00  0.00     0.029 A 
ATOM     49  C   UNL     1       6.245   1.903   7.034  1.00  0.00     0.049 A 
ATOM     50  H   UNL     1       6.634   2.110   4.970  1.00  0.00     0.167 HD
ATOM     51  C   UNL     1       1.179  -2.542   5.323  1.00  0.00     0.037 A 
ATOM     52  C   UNL     1       5.707   3.081   7.479  1.00  0.00     0.037 A 
ATOM     53  C   UNL     1       1.595  -2.176   6.686  1.00  0.00     0.049 A 
ATOM     54  C   UNL     1       4.388   2.811   8.170  1.00  0.00     0.074 A 
ATOM     55  C   UNL     1       2.705  -2.543   7.431  1.00  0.00     0.029 A 
ATOM     56  N   UNL     1       1.103  -1.007   7.266  1.00  0.00    -0.354 N 
ATOM     57  N   UNL     1       3.585   1.819   7.880  1.00  0.00    -0.248 NA
ATOM     58  C   UNL     1       3.948   3.582   9.325  1.00  0.00     0.031 C 
ATOM     59  C   UNL     1       2.941  -1.517   8.389  1.00  0.00     0.029 A 
ATOM     60  C   UNL     1       1.988  -0.525   8.217  1.00  0.00     0.049 A 
ATOM     61  H   UNL     1       0.246  -0.584   7.032  1.00  0.00     0.167 HD
ATOM     62  C   UNL     1       2.619   1.730   8.845  1.00  0.00     0.074 A 
ATOM     63  C   UNL     1       2.875   2.873   9.711  1.00  0.00     0.031 C 
ATOM     64  C   UNL     1       1.706   0.716   8.925  1.00  0.00     0.037 A 
BRANCH  51  65
ATOM     65  C   UNL     1       0.788  -3.963   4.934  1.00  0.00     0.057 A 
ATOM     66  C   UNL     1       0.730  -4.968   5.926  1.00  0.00     0.134 A 
ATOM     67  C   UNL     1       0.518  -4.441   3.636  1.00  0.00     0.134 A 
ATOM     68  F   UNL     1       0.898  -4.682   7.225  1.00  0.00    -0.206 F 
ATOM     69  C   UNL     1       0.495  -6.323   5.644  1.00  0.00     0.040 A 
ATOM     70  C   UNL     1       0.285  -5.795   3.340  1.00  0.00     0.040 A 
ATOM     71  F   UNL     1       0.439  -3.637   2.575  1.00  0.00    -0.206 F 
ATOM     72  C   UNL     1       0.283  -6.746   4.344  1.00  0.00     0.006 A 
ENDBRANCH  51  65
BRANCH  52  73
ATOM     73  C   UNL     1       5.991   4.228   6.557  1.00  0.00     0.057 A 
ATOM     74  C   UNL     1       7.340   4.563   6.308  1.00  0.00     0.134 A 
ATOM     75  C   UNL     1       5.053   4.699   5.641  1.00  0.00     0.134 A 
ATOM     76  F   UNL     1       8.296   4.180   7.169  1.00  0.00    -0.206 F 
ATOM     77  C   UNL     1       7.755   5.172   5.119  1.00  0.00     0.040 A 
ATOM     78  C   UNL     1       5.461   5.323   4.457  1.00  0.00     0.040 A 
ATOM     79  F   UNL     1       3.744   4.459   5.797  1.00  0.00    -0.206 F 
ATOM     80  C   UNL     1       6.811   5.507   4.163  1.00  0.00     0.006 A 
ENDBRANCH  52  73
BRANCH  64  81
ATOM     81  C   UNL     1       0.485   0.764   9.801  1.00  0.00     0.057 A 
ATOM     82  C   UNL     1      -0.177   1.952  10.136  1.00  0.00     0.134 A 
ATOM     83  C   UNL     1      -0.158  -0.426  10.208  1.00  0.00     0.134 A 
ATOM     84  F   UNL     1       0.242   3.143   9.687  1.00  0.00    -0.206 F 
ATOM     85  C   UNL     1      -1.339   1.963  10.910  1.00  0.00     0.040 A 
ATOM     86  C   UNL     1      -1.360  -0.428  10.911  1.00  0.00     0.040 A 
ATOM     87  F   UNL     1       0.337  -1.638   9.916  1.00  0.00    -0.206 F 
ATOM     88  C   UNL     1      -1.941   0.771  11.291  1.00  0.00     0.006 A 
ENDBRANCH  64  81
ENDBRANCH  38  39
ENDBRANCH  31  33
ENDBRANCH  30  31
ENDBRANCH  29  30
ENDBRANCH   1  29
TORSDOF 14
