REMARK SMILES NS(=O)(=O)c1ccc(-n2nc(C(F)(F)F)cc2-c2ccc(CC(=O)OCCOC(=O)c3ccc(-c4c5nc(c(-c6c(F)cccc6F)c6ccc([nH]6)c(-c6c(F)cccc6F)c6nc(c(-c7c(F)cccc7F)c7ccc4[nH]7)C=C6)C=C5)cc3)cc2)cc1
REMARK SMILES IDX 25 1 23 2 24 3 22 4 21 5 18 6 19 7 86 8 20 9 85 10 17 11
REMARK SMILES IDX 9 12 10 13 11 14 16 15 8 16 5 17 6 18 88 19 7 20 87 21 2 22
REMARK SMILES IDX 3 23 4 24 1 25 12 28 13 29 14 30 15 31 26 32 27 33 28 34
REMARK SMILES IDX 29 35 30 36 31 37 32 38 84 39 33 40 83 41 34 42 35 43 36 44
REMARK SMILES IDX 77 45 37 46 82 47 76 48 78 49 38 50 81 51 75 52 74 53 39 55
REMARK SMILES IDX 65 56 48 57 64 58 49 59 52 60 63 61 79 62 50 63 51 64 62 66
REMARK SMILES IDX 80 67 53 68 40 69 41 70 46 71 42 72 43 73 45 74 47 75 44 76
REMARK SMILES IDX 66 77 67 78 72 79 68 80 69 81 71 82 73 83 70 84 54 85 55 86
REMARK SMILES IDX 60 87 56 88 57 89 59 90 61 91 58 92
REMARK H PARENT 1 26 1 27 78 54 52 65
REMARK Flexibility Score: inf
ROOT
ATOM      1  O   UNL     1       5.904   0.111   3.476  1.00  0.00    -0.462 OA
ENDROOT
BRANCH   1   2
ATOM      2  C   UNL     1       7.141   0.655   3.642  1.00  0.00     0.310 C 
ATOM      3  O   UNL     1       8.152   0.248   3.074  1.00  0.00    -0.252 OA
BRANCH   2   4
ATOM      4  C   UNL     1       7.202   1.753   4.683  1.00  0.00     0.158 C 
BRANCH   4   5
ATOM      5  C   UNL     1       6.021   2.689   4.800  1.00  0.00    -0.037 A 
ATOM      6  C   UNL     1       3.809   4.434   4.967  1.00  0.00     0.000 A 
ATOM      7  C   UNL     1       4.758   4.593   3.956  1.00  0.00     0.010 A 
ATOM      8  C   UNL     1       3.997   3.430   5.922  1.00  0.00     0.010 A 
ATOM      9  C   UNL     1       5.864   3.745   3.896  1.00  0.00     0.005 A 
ATOM     10  C   UNL     1       5.082   2.550   5.826  1.00  0.00     0.005 A 
BRANCH   6  11
ATOM     11  C   UNL     1       2.646   5.315   5.019  1.00  0.00     0.075 A 
ATOM     12  N   UNL     1       1.658   5.411   4.044  1.00  0.00    -0.233 N 
ATOM     13  N   UNL     1       0.875   6.508   4.233  1.00  0.00    -0.163 NA
ATOM     14  C   UNL     1       1.227   6.987   5.442  1.00  0.00     0.167 A 
ATOM     15  C   UNL     1       2.352   6.293   5.947  1.00  0.00     0.064 A 
BRANCH  12  16
ATOM     16  C   UNL     1       1.368   4.516   2.977  1.00  0.00     0.065 A 
ATOM     17  C   UNL     1       0.799   2.769   0.874  1.00  0.00     0.082 A 
ATOM     18  C   UNL     1       1.288   2.263   2.079  1.00  0.00     0.024 A 
ATOM     19  C   UNL     1       0.575   4.142   0.717  1.00  0.00     0.024 A 
ATOM     20  C   UNL     1       1.583   3.139   3.125  1.00  0.00     0.030 A 
ATOM     21  C   UNL     1       0.833   5.014   1.780  1.00  0.00     0.030 A 
BRANCH  17  22
ATOM     22  S   UNL     1       0.464   1.699  -0.491  1.00  0.00     0.238 S 
ATOM     23  O   UNL     1       1.204   2.181  -1.646  1.00  0.00    -0.207 OA
ATOM     24  O   UNL     1      -0.942   1.422  -0.527  1.00  0.00    -0.207 OA
BRANCH  22  25
ATOM     25  N   UNL     1       1.207   0.241  -0.090  1.00  0.00    -0.225 NA
ATOM     26  H   UNL     1       1.056  -0.435  -0.839  1.00  0.00     0.137 HD
ATOM     27  H   UNL     1       0.808  -0.117   0.777  1.00  0.00     0.137 HD
ENDBRANCH  22  25
ENDBRANCH  17  22
ENDBRANCH  12  16
BRANCH  14  28
ATOM     28  C   UNL     1       0.502   8.116   6.123  1.00  0.00     0.435 C 
ATOM     29  F   UNL     1       0.293   9.186   5.312  1.00  0.00    -0.164 F 
ATOM     30  F   UNL     1      -0.713   7.729   6.596  1.00  0.00    -0.164 F 
ATOM     31  F   UNL     1       1.196   8.580   7.201  1.00  0.00    -0.164 F 
ENDBRANCH  14  28
ENDBRANCH   6  11
ENDBRANCH   4   5
ENDBRANCH   2   4
ENDBRANCH   1   2
BRANCH   1  32
ATOM     32  C   UNL     1       5.814  -0.975   2.528  1.00  0.00     0.274 C 
BRANCH  32  33
ATOM     33  C   UNL     1       5.487  -0.521   1.107  1.00  0.00     0.275 C 
BRANCH  33  34
ATOM     34  O   UNL     1       6.525   0.272   0.532  1.00  0.00    -0.458 OA
BRANCH  34  35
ATOM     35  C   UNL     1       6.366   1.591   0.767  1.00  0.00     0.338 C 
ATOM     36  O   UNL     1       5.572   2.104   1.538  1.00  0.00    -0.246 OA
BRANCH  35  37
ATOM     37  C   UNL     1       7.112   2.395  -0.197  1.00  0.00     0.060 A 
ATOM     38  C   UNL     1       7.291   3.749   0.106  1.00  0.00     0.016 A 
ATOM     39  C   UNL     1       7.271   1.898  -1.493  1.00  0.00     0.016 A 
ATOM     40  C   UNL     1       7.439   4.645  -0.926  1.00  0.00     0.010 A 
ATOM     41  C   UNL     1       7.414   2.795  -2.526  1.00  0.00     0.010 A 
ATOM     42  C   UNL     1       7.413   4.159  -2.234  1.00  0.00    -0.014 A 
BRANCH  42  43
ATOM     43  C   UNL     1       7.465   5.124  -3.309  1.00  0.00     0.031 A 
ATOM     44  C   UNL     1       8.786   5.778  -3.453  1.00  0.00     0.074 A 
ATOM     45  C   UNL     1       6.446   5.289  -4.170  1.00  0.00     0.049 A 
ATOM     46  N   UNL     1       9.070   7.032  -3.346  1.00  0.00    -0.248 NA
ATOM     47  C   UNL     1       9.961   4.902  -3.591  1.00  0.00     0.031 C 
ATOM     48  C   UNL     1       5.212   4.508  -4.287  1.00  0.00     0.029 A 
ATOM     49  N   UNL     1       6.366   6.144  -5.221  1.00  0.00    -0.354 N 
ATOM     50  C   UNL     1      10.435   7.129  -3.593  1.00  0.00     0.074 A 
ATOM     51  C   UNL     1      10.955   5.788  -3.568  1.00  0.00     0.031 C 
ATOM     52  C   UNL     1       4.639   4.767  -5.485  1.00  0.00     0.029 A 
ATOM     53  C   UNL     1       5.396   5.811  -6.155  1.00  0.00     0.049 A 
ATOM     54  H   UNL     1       6.946   6.933  -5.312  1.00  0.00     0.167 HD
ATOM     55  C   UNL     1      10.995   8.285  -4.037  1.00  0.00     0.037 A 
ATOM     56  C   UNL     1       5.307   6.309  -7.414  1.00  0.00     0.037 A 
ATOM     57  C   UNL     1      10.146   9.418  -3.779  1.00  0.00     0.049 A 
ATOM     58  C   UNL     1       6.110   7.561  -7.454  1.00  0.00     0.074 A 
ATOM     59  C   UNL     1       9.603   9.977  -2.637  1.00  0.00     0.029 A 
ATOM     60  N   UNL     1       9.427   9.943  -4.825  1.00  0.00    -0.354 N 
ATOM     61  N   UNL     1       5.768   8.662  -6.845  1.00  0.00    -0.248 NA
ATOM     62  C   UNL     1       7.525   7.449  -7.787  1.00  0.00     0.031 C 
ATOM     63  C   UNL     1       8.293  10.393  -3.018  1.00  0.00     0.029 A 
ATOM     64  C   UNL     1       8.142  10.115  -4.376  1.00  0.00     0.049 A 
ATOM     65  H   UNL     1       9.767  10.154  -5.724  1.00  0.00     0.167 HD
ATOM     66  C   UNL     1       6.955   9.172  -6.339  1.00  0.00     0.074 A 
ATOM     67  C   UNL     1       8.013   8.431  -7.023  1.00  0.00     0.031 C 
ATOM     68  C   UNL     1       6.975   9.932  -5.204  1.00  0.00     0.037 A 
BRANCH  55  69
ATOM     69  C   UNL     1      12.132   8.329  -5.024  1.00  0.00     0.057 A 
ATOM     70  C   UNL     1      12.758   9.556  -5.297  1.00  0.00     0.134 A 
ATOM     71  C   UNL     1      12.439   7.284  -5.921  1.00  0.00     0.134 A 
ATOM     72  F   UNL     1      12.530  10.631  -4.527  1.00  0.00    -0.206 F 
ATOM     73  C   UNL     1      13.573   9.747  -6.418  1.00  0.00     0.040 A 
ATOM     74  C   UNL     1      13.295   7.449  -7.012  1.00  0.00     0.040 A 
ATOM     75  F   UNL     1      11.852   6.083  -5.857  1.00  0.00    -0.206 F 
ATOM     76  C   UNL     1      13.839   8.692  -7.284  1.00  0.00     0.006 A 
ENDBRANCH  55  69
BRANCH  56  77
ATOM     77  C   UNL     1       4.838   5.635  -8.647  1.00  0.00     0.057 A 
ATOM     78  C   UNL     1       4.582   6.367  -9.816  1.00  0.00     0.134 A 
ATOM     79  C   UNL     1       4.883   4.237  -8.797  1.00  0.00     0.134 A 
ATOM     80  F   UNL     1       4.557   7.708  -9.788  1.00  0.00    -0.206 F 
ATOM     81  C   UNL     1       4.411   5.750 -11.062  1.00  0.00     0.040 A 
ATOM     82  C   UNL     1       4.703   3.608 -10.034  1.00  0.00     0.040 A 
ATOM     83  F   UNL     1       5.194   3.435  -7.770  1.00  0.00    -0.206 F 
ATOM     84  C   UNL     1       4.482   4.366 -11.176  1.00  0.00     0.006 A 
ENDBRANCH  56  77
BRANCH  68  85
ATOM     85  C   UNL     1       5.658  10.383  -4.634  1.00  0.00     0.057 A 
ATOM     86  C   UNL     1       4.666   9.507  -4.168  1.00  0.00     0.134 A 
ATOM     87  C   UNL     1       5.451  11.747  -4.405  1.00  0.00     0.134 A 
ATOM     88  F   UNL     1       4.823   8.180  -4.239  1.00  0.00    -0.206 F 
ATOM     89  C   UNL     1       3.499   9.969  -3.552  1.00  0.00     0.040 A 
ATOM     90  C   UNL     1       4.307  12.221  -3.758  1.00  0.00     0.040 A 
ATOM     91  F   UNL     1       6.384  12.643  -4.764  1.00  0.00    -0.206 F 
ATOM     92  C   UNL     1       3.320  11.332  -3.340  1.00  0.00     0.006 A 
ENDBRANCH  68  85
ENDBRANCH  42  43
ENDBRANCH  35  37
ENDBRANCH  34  35
ENDBRANCH  33  34
ENDBRANCH  32  33
ENDBRANCH   1  32
TORSDOF 17
