REMARK SMILES COc1cccc(C(=O)Nc2cccc(C(=O)OCCOC(=O)c3ccc(-c4c5nc(c(-c6c(F)cccc6F)c6ccc([nH]6)c(-c6c(F)cccc6F)c6nc(c(-c7c(F)cccc7F)c7ccc4[nH]7)C=C6)C=C5)cc3)c2C)c1
REMARK SMILES IDX 19 1 18 2 16 3 17 4 15 5 11 6 12 7 78 8 13 9 79 10 14 11
REMARK SMILES IDX 10 12 8 13 9 14 7 16 3 17 4 18 80 19 5 20 6 21 2 22 1 23
REMARK SMILES IDX 20 24 21 25 22 26 23 27 24 28 25 29 77 30 26 31 76 32 27 33
REMARK SMILES IDX 28 34 29 35 70 36 30 37 75 38 69 39 71 40 31 41 74 42 68 43
REMARK SMILES IDX 67 44 32 46 58 47 41 48 57 49 42 50 45 51 56 52 72 53 43 54
REMARK SMILES IDX 44 55 55 57 73 58 46 59 33 60 34 61 39 62 35 63 36 64 38 65
REMARK SMILES IDX 40 66 37 67 59 68 60 69 65 70 61 71 62 72 64 73 66 74 63 75
REMARK SMILES IDX 47 76 48 77 53 78 49 79 50 80 52 81 54 82 51 83
REMARK H PARENT 10 15 71 45 45 56
REMARK Flexibility Score: inf
ROOT
ATOM      1  C   UNL     1       1.332  -4.418  -0.648  1.00  0.00     0.275 C 
ENDROOT
BRANCH   1   2
ATOM      2  O   UNL     1       2.374  -3.480  -0.985  1.00  0.00    -0.458 OA
BRANCH   2   3
ATOM      3  C   UNL     1       2.376  -2.312  -0.308  1.00  0.00     0.338 C 
ATOM      4  O   UNL     1       1.589  -2.001   0.577  1.00  0.00    -0.246 OA
BRANCH   3   5
ATOM      5  C   UNL     1       3.506  -1.415  -0.695  1.00  0.00     0.065 A 
ATOM      6  C   UNL     1       4.744  -0.108  -2.285  1.00  0.00     0.045 A 
ATOM      7  C   UNL     1       5.375   0.599  -1.254  1.00  0.00     0.026 A 
ATOM      8  C   UNL     1       3.948  -1.241  -2.017  1.00  0.00    -0.013 A 
ATOM      9  C   UNL     1       5.006   0.366   0.058  1.00  0.00     0.003 A 
ATOM     10  C   UNL     1       3.603  -2.219  -3.108  1.00  0.00     0.047 C 
ATOM     11  C   UNL     1       4.011  -0.569   0.316  1.00  0.00     0.016 A 
BRANCH   6  12
ATOM     12  N   UNL     1       4.809   0.513  -3.542  1.00  0.00    -0.322 N 
ATOM     13  C   UNL     1       3.780   0.804  -4.421  1.00  0.00     0.255 C 
ATOM     14  O   UNL     1       4.053   1.339  -5.496  1.00  0.00    -0.269 OA
ATOM     15  H   UNL     1       5.710   0.777  -3.839  1.00  0.00     0.170 HD
BRANCH  13  16
ATOM     16  C   UNL     1       2.346   0.531  -4.106  1.00  0.00     0.043 A 
ATOM     17  C   UNL     1       0.461   0.305  -2.590  1.00  0.00     0.119 A 
ATOM     18  C   UNL     1      -0.284  -0.254  -3.633  1.00  0.00     0.046 A 
ATOM     19  C   UNL     1       1.763   0.747  -2.842  1.00  0.00     0.060 A 
ATOM     20  C   UNL     1       0.252  -0.374  -4.914  1.00  0.00     0.005 A 
ATOM     21  C   UNL     1       1.568   0.013  -5.149  1.00  0.00     0.014 A 
BRANCH  17  22
ATOM     22  O   UNL     1      -0.200   0.312  -1.395  1.00  0.00    -0.497 OA
ATOM     23  C   UNL     1       0.429   0.874  -0.253  1.00  0.00     0.278 C 
ENDBRANCH  17  22
ENDBRANCH  13  16
ENDBRANCH   6  12
ENDBRANCH   3   5
ENDBRANCH   2   3
ENDBRANCH   1   2
BRANCH   1  24
ATOM     24  C   UNL     1       1.901  -5.586   0.157  1.00  0.00     0.275 C 
BRANCH  24  25
ATOM     25  O   UNL     1       2.277  -5.154   1.479  1.00  0.00    -0.458 OA
BRANCH  25  26
ATOM     26  C   UNL     1       3.593  -4.897   1.642  1.00  0.00     0.338 C 
ATOM     27  O   UNL     1       4.489  -5.043   0.829  1.00  0.00    -0.246 OA
BRANCH  26  28
ATOM     28  C   UNL     1       3.824  -4.260   2.946  1.00  0.00     0.060 A 
ATOM     29  C   UNL     1       3.712  -2.878   3.004  1.00  0.00     0.016 A 
ATOM     30  C   UNL     1       4.343  -4.960   4.028  1.00  0.00     0.016 A 
ATOM     31  C   UNL     1       4.239  -2.161   4.069  1.00  0.00     0.010 A 
ATOM     32  C   UNL     1       4.772  -4.246   5.157  1.00  0.00     0.010 A 
ATOM     33  C   UNL     1       4.779  -2.836   5.166  1.00  0.00    -0.014 A 
BRANCH  33  34
ATOM     34  C   UNL     1       5.426  -2.063   6.265  1.00  0.00     0.031 A 
ATOM     35  C   UNL     1       6.875  -2.312   6.599  1.00  0.00     0.074 A 
ATOM     36  C   UNL     1       4.750  -1.105   6.931  1.00  0.00     0.049 A 
ATOM     37  N   UNL     1       7.580  -1.882   7.615  1.00  0.00    -0.248 NA
ATOM     38  C   UNL     1       7.628  -3.172   5.671  1.00  0.00     0.031 C 
ATOM     39  C   UNL     1       3.367  -0.699   6.670  1.00  0.00     0.029 A 
ATOM     40  N   UNL     1       5.141  -0.288   7.965  1.00  0.00    -0.354 N 
ATOM     41  C   UNL     1       8.832  -2.471   7.484  1.00  0.00     0.074 A 
ATOM     42  C   UNL     1       8.789  -3.295   6.296  1.00  0.00     0.031 C 
ATOM     43  C   UNL     1       3.039   0.308   7.493  1.00  0.00     0.029 A 
ATOM     44  C   UNL     1       4.150   0.557   8.403  1.00  0.00     0.049 A 
ATOM     45  H   UNL     1       6.045  -0.307   8.354  1.00  0.00     0.167 HD
ATOM     46  C   UNL     1       9.919  -2.335   8.282  1.00  0.00     0.037 A 
ATOM     47  C   UNL     1       4.120   1.406   9.448  1.00  0.00     0.037 A 
ATOM     48  C   UNL     1       9.976  -1.468   9.431  1.00  0.00     0.049 A 
ATOM     49  C   UNL     1       5.323   1.509  10.342  1.00  0.00     0.074 A 
ATOM     50  C   UNL     1      11.030  -1.259  10.304  1.00  0.00     0.029 A 
ATOM     51  N   UNL     1       8.939  -0.651   9.854  1.00  0.00    -0.354 N 
ATOM     52  N   UNL     1       6.478   0.896  10.249  1.00  0.00    -0.248 NA
ATOM     53  C   UNL     1       5.213   2.414  11.495  1.00  0.00     0.031 C 
ATOM     54  C   UNL     1      10.617  -0.343  11.277  1.00  0.00     0.029 A 
ATOM     55  C   UNL     1       9.325   0.059  10.980  1.00  0.00     0.049 A 
ATOM     56  H   UNL     1       8.058  -0.585   9.419  1.00  0.00     0.167 HD
ATOM     57  C   UNL     1       7.241   1.360  11.313  1.00  0.00     0.074 A 
ATOM     58  C   UNL     1       6.422   2.318  12.027  1.00  0.00     0.031 C 
ATOM     59  C   UNL     1       8.504   1.021  11.670  1.00  0.00     0.037 A 
BRANCH  46  60
ATOM     60  C   UNL     1      11.123  -3.175   7.961  1.00  0.00     0.057 A 
ATOM     61  C   UNL     1      11.929  -2.936   6.840  1.00  0.00     0.134 A 
ATOM     62  C   UNL     1      11.490  -4.234   8.803  1.00  0.00     0.134 A 
ATOM     63  F   UNL     1      11.626  -1.949   5.983  1.00  0.00    -0.206 F 
ATOM     64  C   UNL     1      13.037  -3.737   6.553  1.00  0.00     0.040 A 
ATOM     65  C   UNL     1      12.612  -5.023   8.542  1.00  0.00     0.040 A 
ATOM     66  F   UNL     1      10.767  -4.517   9.897  1.00  0.00    -0.206 F 
ATOM     67  C   UNL     1      13.384  -4.780   7.409  1.00  0.00     0.006 A 
ENDBRANCH  46  60
BRANCH  47  68
ATOM     68  C   UNL     1       2.893   2.196   9.733  1.00  0.00     0.057 A 
ATOM     69  C   UNL     1       2.882   3.589   9.607  1.00  0.00     0.134 A 
ATOM     70  C   UNL     1       1.708   1.579  10.155  1.00  0.00     0.134 A 
ATOM     71  F   UNL     1       3.992   4.242   9.231  1.00  0.00    -0.206 F 
ATOM     72  C   UNL     1       1.744   4.342   9.905  1.00  0.00     0.040 A 
ATOM     73  C   UNL     1       0.555   2.316  10.426  1.00  0.00     0.040 A 
ATOM     74  F   UNL     1       1.651   0.246  10.295  1.00  0.00    -0.206 F 
ATOM     75  C   UNL     1       0.574   3.703  10.310  1.00  0.00     0.006 A 
ENDBRANCH  47  68
BRANCH  59  76
ATOM     76  C   UNL     1       9.095   1.737  12.849  1.00  0.00     0.057 A 
ATOM     77  C   UNL     1       8.667   1.494  14.160  1.00  0.00     0.134 A 
ATOM     78  C   UNL     1      10.118   2.677  12.666  1.00  0.00     0.134 A 
ATOM     79  F   UNL     1       7.681   0.617  14.402  1.00  0.00    -0.206 F 
ATOM     80  C   UNL     1       9.212   2.185  15.244  1.00  0.00     0.040 A 
ATOM     81  C   UNL     1      10.691   3.352  13.744  1.00  0.00     0.040 A 
ATOM     82  F   UNL     1      10.581   2.950  11.436  1.00  0.00    -0.206 F 
ATOM     83  C   UNL     1      10.231   3.114  15.037  1.00  0.00     0.006 A 
ENDBRANCH  59  76
ENDBRANCH  33  34
ENDBRANCH  26  28
ENDBRANCH  25  26
ENDBRANCH  24  25
ENDBRANCH   1  24
TORSDOF 14
