REMARK SMILES C[C@@H](C(=O)OCCOC(=O)c1ccc(-c2c3nc(c(-c4c(F)cccc4F)c4ccc([nH]4)c(-c4c(F)cccc4F)c4nc(c(-c5c(F)cccc5F)c5ccc2[nH]5)C=C4)C=C3)cc1)[C@@H](C)C(=O)c1cc(Cl)c2c(c1)OCCCO2
REMARK SMILES IDX 3 1 4 2 2 3 1 4 65 5 66 6 67 7 68 8 69 9 70 10 75 11 71 12
REMARK SMILES IDX 74 13 72 14 73 15 76 16 77 17 78 18 80 20 79 21 5 23 6 24
REMARK SMILES IDX 7 25 8 26 9 27 10 28 11 29 12 30 64 31 13 32 63 33 14 34
REMARK SMILES IDX 15 35 16 36 57 37 17 38 62 39 56 40 58 41 18 42 61 43 55 44
REMARK SMILES IDX 54 45 19 47 45 48 28 49 44 50 29 51 32 52 43 53 59 54 30 55
REMARK SMILES IDX 31 56 42 58 60 59 33 60 20 61 21 62 26 63 22 64 23 65 25 66
REMARK SMILES IDX 27 67 24 68 46 69 47 70 52 71 48 72 49 73 51 74 53 75 50 76
REMARK SMILES IDX 34 77 35 78 40 79 36 80 37 81 39 82 41 83 38 84
REMARK H PARENT 58 46 32 57
REMARK Flexibility Score: 80.00
ROOT
ATOM      1  C   UNL     1       1.020  -0.762   2.493  1.00  0.00     0.309 C 
ATOM      2  O   UNL     1       0.433  -1.126   3.502  1.00  0.00    -0.252 OA
ENDROOT
BRANCH   1   3
ATOM      3  C   UNL     1       0.586  -1.153   1.076  1.00  0.00     0.106 C 
ATOM      4  C   UNL     1       0.987  -0.070   0.064  1.00  0.00     0.021 C 
BRANCH   3   5
ATOM      5  C   UNL     1      -0.934  -1.490   0.987  1.00  0.00     0.072 C 
ATOM      6  C   UNL     1      -1.338  -2.029  -0.394  1.00  0.00     0.017 C 
BRANCH   5   7
ATOM      7  C   UNL     1      -1.522  -2.421   2.085  1.00  0.00     0.166 C 
ATOM      8  O   UNL     1      -2.514  -2.126   2.744  1.00  0.00    -0.294 OA
BRANCH   7   9
ATOM      9  C   UNL     1      -1.028  -3.812   2.156  1.00  0.00     0.023 A 
ATOM     10  C   UNL     1      -1.820  -4.782   1.532  1.00  0.00     0.036 A 
ATOM     11  C   UNL     1       0.288  -4.074   2.526  1.00  0.00     0.062 A 
ATOM     12  C   UNL     1      -1.204  -5.917   1.025  1.00  0.00     0.087 A 
ATOM     13  C   UNL     1       0.907  -5.173   1.967  1.00  0.00     0.163 A 
ATOM     14  Cl  UNL     1      -2.127  -7.019   0.080  1.00  0.00    -0.080 Cl
ATOM     15  C   UNL     1       0.185  -6.024   1.129  1.00  0.00     0.179 A 
BRANCH  13  16
ATOM     16  O   UNL     1       2.262  -5.328   2.085  1.00  0.00    -0.489 OA
BRANCH  16  17
ATOM     17  C   UNL     1       2.938  -4.625   1.040  1.00  0.00     0.233 C 
BRANCH  17  18
ATOM     18  C   UNL     1       2.809  -5.259  -0.348  1.00  0.00     0.083 CG0
ATOM     19  G   UNL     1       1.415  -5.745  -0.746  1.00  0.00     0.000 G0
ENDBRANCH  17  18
ENDBRANCH  16  17
ENDBRANCH  13  16
BRANCH  15  20
ATOM     20  O   UNL     1       0.893  -6.725   0.177  1.00  0.00    -0.488 OA
BRANCH  20  21
ATOM     21  C   UNL     1       1.415  -5.745  -0.746  1.00  0.00     0.233 CG0
ATOM     22  G   UNL     1       2.809  -5.259  -0.348  1.00  0.00     0.000 G0
ENDBRANCH  20  21
ENDBRANCH  15  20
ENDBRANCH   7   9
ENDBRANCH   5   7
ENDBRANCH   3   5
ENDBRANCH   1   3
BRANCH   1  23
ATOM     23  O   UNL     1       2.180  -0.053   2.514  1.00  0.00    -0.462 OA
BRANCH  23  24
ATOM     24  C   UNL     1       2.671   0.291   3.829  1.00  0.00     0.274 C 
BRANCH  24  25
ATOM     25  C   UNL     1       2.150   1.658   4.278  1.00  0.00     0.275 C 
BRANCH  25  26
ATOM     26  O   UNL     1       0.719   1.616   4.423  1.00  0.00    -0.458 OA
BRANCH  26  27
ATOM     27  C   UNL     1       0.023   2.634   3.864  1.00  0.00     0.338 C 
ATOM     28  O   UNL     1       0.470   3.627   3.319  1.00  0.00    -0.246 OA
BRANCH  27  29
ATOM     29  C   UNL     1      -1.419   2.326   3.922  1.00  0.00     0.060 A 
ATOM     30  C   UNL     1      -1.880   1.224   3.214  1.00  0.00     0.016 A 
ATOM     31  C   UNL     1      -2.332   3.170   4.548  1.00  0.00     0.016 A 
ATOM     32  C   UNL     1      -3.240   0.962   3.088  1.00  0.00     0.010 A 
ATOM     33  C   UNL     1      -3.704   2.877   4.473  1.00  0.00     0.010 A 
ATOM     34  C   UNL     1      -4.171   1.778   3.726  1.00  0.00    -0.014 A 
BRANCH  34  35
ATOM     35  C   UNL     1      -5.621   1.532   3.511  1.00  0.00     0.031 A 
ATOM     36  C   UNL     1      -6.425   2.530   2.728  1.00  0.00     0.074 A 
ATOM     37  C   UNL     1      -6.211   0.392   3.924  1.00  0.00     0.049 A 
ATOM     38  N   UNL     1      -7.721   2.618   2.575  1.00  0.00    -0.248 NA
ATOM     39  C   UNL     1      -5.660   3.561   2.009  1.00  0.00     0.031 C 
ATOM     40  C   UNL     1      -5.531  -0.739   4.556  1.00  0.00     0.029 A 
ATOM     41  N   UNL     1      -7.525  -0.005   3.857  1.00  0.00    -0.354 N 
ATOM     42  C   UNL     1      -7.930   3.739   1.783  1.00  0.00     0.074 A 
ATOM     43  C   UNL     1      -6.628   4.293   1.478  1.00  0.00     0.031 C 
ATOM     44  C   UNL     1      -6.431  -1.701   4.817  1.00  0.00     0.029 A 
ATOM     45  C   UNL     1      -7.759  -1.227   4.441  1.00  0.00     0.049 A 
ATOM     46  H   UNL     1      -8.231   0.533   3.433  1.00  0.00     0.167 HD
ATOM     47  C   UNL     1      -9.104   4.263   1.359  1.00  0.00     0.037 A 
ATOM     48  C   UNL     1      -8.917  -1.870   4.689  1.00  0.00     0.037 A 
ATOM     49  C   UNL     1     -10.394   3.692   1.635  1.00  0.00     0.049 A 
ATOM     50  C   UNL     1     -10.217  -1.219   4.304  1.00  0.00     0.074 A 
ATOM     51  C   UNL     1     -11.646   4.178   1.301  1.00  0.00     0.029 A 
ATOM     52  N   UNL     1     -10.595   2.491   2.300  1.00  0.00    -0.354 N 
ATOM     53  N   UNL     1     -10.421  -0.093   3.664  1.00  0.00    -0.248 NA
ATOM     54  C   UNL     1     -11.451  -1.915   4.701  1.00  0.00     0.031 C 
ATOM     55  C   UNL     1     -12.607   3.285   1.789  1.00  0.00     0.029 A 
ATOM     56  C   UNL     1     -11.951   2.226   2.395  1.00  0.00     0.049 A 
ATOM     57  H   UNL     1      -9.880   1.914   2.652  1.00  0.00     0.167 HD
ATOM     58  C   UNL     1     -11.799   0.049   3.572  1.00  0.00     0.074 A 
ATOM     59  C   UNL     1     -12.384  -1.114   4.205  1.00  0.00     0.031 C 
ATOM     60  C   UNL     1     -12.516   1.058   3.021  1.00  0.00     0.037 A 
BRANCH  47  61
ATOM     61  C   UNL     1      -9.038   5.555   0.605  1.00  0.00     0.057 A 
ATOM     62  C   UNL     1      -8.629   5.620  -0.732  1.00  0.00     0.134 A 
ATOM     63  C   UNL     1      -9.392   6.755   1.235  1.00  0.00     0.134 A 
ATOM     64  F   UNL     1      -8.256   4.509  -1.384  1.00  0.00    -0.206 F 
ATOM     65  C   UNL     1      -8.555   6.838  -1.411  1.00  0.00     0.040 A 
ATOM     66  C   UNL     1      -9.341   7.976   0.562  1.00  0.00     0.040 A 
ATOM     67  F   UNL     1      -9.791   6.760   2.516  1.00  0.00    -0.206 F 
ATOM     68  C   UNL     1      -8.916   8.020  -0.764  1.00  0.00     0.006 A 
ENDBRANCH  47  61
BRANCH  48  69
ATOM     69  C   UNL     1      -8.911  -3.171   5.407  1.00  0.00     0.057 A 
ATOM     70  C   UNL     1      -9.304  -4.355   4.774  1.00  0.00     0.134 A 
ATOM     71  C   UNL     1      -8.542  -3.253   6.756  1.00  0.00     0.134 A 
ATOM     72  F   UNL     1      -9.700  -4.337   3.493  1.00  0.00    -0.206 F 
ATOM     73  C   UNL     1      -9.340  -5.572   5.458  1.00  0.00     0.040 A 
ATOM     74  C   UNL     1      -8.549  -4.467   7.445  1.00  0.00     0.040 A 
ATOM     75  F   UNL     1      -8.168  -2.153   7.425  1.00  0.00    -0.206 F 
ATOM     76  C   UNL     1      -8.955  -5.631   6.797  1.00  0.00     0.006 A 
ENDBRANCH  48  69
BRANCH  60  77
ATOM     77  C   UNL     1     -14.009   0.935   3.053  1.00  0.00     0.057 A 
ATOM     78  C   UNL     1     -14.739   1.157   4.227  1.00  0.00     0.134 A 
ATOM     79  C   UNL     1     -14.725   0.631   1.889  1.00  0.00     0.134 A 
ATOM     80  F   UNL     1     -14.109   1.438   5.377  1.00  0.00    -0.206 F 
ATOM     81  C   UNL     1     -16.132   1.065   4.245  1.00  0.00     0.040 A 
ATOM     82  C   UNL     1     -16.118   0.557   1.890  1.00  0.00     0.040 A 
ATOM     83  F   UNL     1     -14.083   0.414   0.731  1.00  0.00    -0.206 F 
ATOM     84  C   UNL     1     -16.825   0.771   3.072  1.00  0.00     0.006 A 
ENDBRANCH  60  77
ENDBRANCH  34  35
ENDBRANCH  27  29
ENDBRANCH  26  27
ENDBRANCH  25  26
ENDBRANCH  24  25
ENDBRANCH  23  24
ENDBRANCH   1  23
TORSDOF 14
