REMARK SMILES O=C(OCCOC(=O)C1(CC(=O)N2CCOCC2)CCCCCCCCCCC1)c1ccc(-c2c3nc(c(-c4c(F)cccc4F)c4ccc([nH]4)c(-c4c(F)cccc4F)c4nc(c(-c5c(F)cccc5F)c5ccc2[nH]5)C=C4)C=C3)cc1
REMARK SMILES IDX 7 1 8 2 6 3 5 4 4 5 3 6 2 7 1 8 30 9 31 10 83 11 32 12 82 13
REMARK SMILES IDX 33 14 34 15 35 16 76 17 36 18 81 19 75 20 77 21 37 22 80 23
REMARK SMILES IDX 74 24 73 25 38 27 64 28 47 29 63 30 48 31 51 32 62 33 78 34
REMARK SMILES IDX 49 35 50 36 61 38 79 39 52 40 39 41 40 42 45 43 41 44 42 45
REMARK SMILES IDX 44 46 46 47 43 48 65 49 66 50 71 51 67 52 68 53 70 54 72 55
REMARK SMILES IDX 69 56 53 57 54 58 59 59 55 60 56 61 58 62 60 63 57 64 9 65
REMARK SMILES IDX 10 66 11 67 12 68 13 69 14 70 18 71 15 72 17 73 16 74 19 75
REMARK SMILES IDX 20 76 21 77 22 78 23 79 24 80 25 81 29 83 28 84 27 85 26 86
REMARK H PARENT 77 26 51 37
REMARK Flexibility Score: 80.00
ROOT
ATOM      1  C   UNL     1       1.914   1.442   0.548  1.00  0.00     0.312 C 
ATOM      2  O   UNL     1       0.833   1.199   0.040  1.00  0.00    -0.252 OA
ENDROOT
BRANCH   1   3
ATOM      3  O   UNL     1       3.005   1.772  -0.197  1.00  0.00    -0.462 OA
BRANCH   3   4
ATOM      4  C   UNL     1       3.047   1.540  -1.624  1.00  0.00     0.274 C 
BRANCH   4   5
ATOM      5  C   UNL     1       3.553   0.134  -1.957  1.00  0.00     0.275 C 
BRANCH   5   6
ATOM      6  O   UNL     1       2.561  -0.854  -1.690  1.00  0.00    -0.458 OA
BRANCH   6   7
ATOM      7  C   UNL     1       2.215  -1.339  -0.489  1.00  0.00     0.338 C 
ATOM      8  O   UNL     1       1.181  -1.995  -0.382  1.00  0.00    -0.246 OA
BRANCH   7   9
ATOM      9  C   UNL     1       3.028  -1.192   0.750  1.00  0.00     0.060 A 
ATOM     10  C   UNL     1       4.254   0.066   1.261  1.00  0.00     0.016 A 
ATOM     11  C   UNL     1       2.510  -2.405   1.959  1.00  0.00     0.016 A 
ATOM     12  C   UNL     1       4.922   0.045   2.975  1.00  0.00     0.010 A 
ATOM     13  C   UNL     1       3.167  -2.376   3.606  1.00  0.00     0.010 A 
ATOM     14  C   UNL     1       4.370  -1.200   4.141  1.00  0.00    -0.014 A 
BRANCH  14  15
ATOM     15  C   UNL     1       5.144  -1.398   5.399  1.00  0.00     0.031 A 
ATOM     16  C   UNL     1       5.862  -2.708   5.644  1.00  0.00     0.074 A 
ATOM     17  C   UNL     1       5.333  -0.347   6.220  1.00  0.00     0.049 A 
ATOM     18  N   UNL     1       6.692  -3.030   6.606  1.00  0.00    -0.248 NA
ATOM     19  C   UNL     1       5.654  -3.796   4.675  1.00  0.00     0.031 C 
ATOM     20  C   UNL     1       4.720   0.969   6.049  1.00  0.00     0.029 A 
ATOM     21  N   UNL     1       6.110  -0.196   7.341  1.00  0.00    -0.354 N 
ATOM     22  C   UNL     1       7.107  -4.333   6.334  1.00  0.00     0.074 A 
ATOM     23  C   UNL     1       6.429  -4.759   5.140  1.00  0.00     0.031 C 
ATOM     24  C   UNL     1       5.193   1.812   6.978  1.00  0.00     0.029 A 
ATOM     25  C   UNL     1       6.069   1.072   7.877  1.00  0.00     0.049 A 
ATOM     26  H   UNL     1       6.646  -0.926   7.726  1.00  0.00     0.167 HD
ATOM     27  C   UNL     1       7.967  -5.120   7.021  1.00  0.00     0.037 A 
ATOM     28  C   UNL     1       6.642   1.568   8.991  1.00  0.00     0.037 A 
ATOM     29  C   UNL     1       8.566  -4.720   8.262  1.00  0.00     0.049 A 
ATOM     30  C   UNL     1       7.485   0.631   9.814  1.00  0.00     0.074 A 
ATOM     31  C   UNL     1       9.339  -5.461   9.133  1.00  0.00     0.029 A 
ATOM     32  N   UNL     1       8.423  -3.455   8.816  1.00  0.00    -0.354 N 
ATOM     33  N   UNL     1       7.819  -0.613   9.561  1.00  0.00    -0.248 NA
ATOM     34  C   UNL     1       8.009   1.150  11.082  1.00  0.00     0.031 C 
ATOM     35  C   UNL     1       9.613  -4.660  10.247  1.00  0.00     0.029 A 
ATOM     36  C   UNL     1       9.073  -3.400  10.034  1.00  0.00     0.049 A 
ATOM     37  H   UNL     1       7.932  -2.709   8.403  1.00  0.00     0.167 HD
ATOM     38  C   UNL     1       8.595  -1.026  10.635  1.00  0.00     0.074 A 
ATOM     39  C   UNL     1       8.708   0.115  11.524  1.00  0.00     0.031 C 
ATOM     40  C   UNL     1       9.156  -2.236  10.879  1.00  0.00     0.037 A 
BRANCH  27  41
ATOM     41  C   UNL     1       8.208  -6.503   6.481  1.00  0.00     0.057 A 
ATOM     42  C   UNL     1       8.939  -6.727   5.304  1.00  0.00     0.134 A 
ATOM     43  C   UNL     1       7.639  -7.621   7.104  1.00  0.00     0.134 A 
ATOM     44  F   UNL     1       9.481  -5.699   4.634  1.00  0.00    -0.206 F 
ATOM     45  C   UNL     1       9.067  -8.006   4.753  1.00  0.00     0.040 A 
ATOM     46  C   UNL     1       7.780  -8.906   6.576  1.00  0.00     0.040 A 
ATOM     47  F   UNL     1       6.915  -7.480   8.224  1.00  0.00    -0.206 F 
ATOM     48  C   UNL     1       8.487  -9.100   5.391  1.00  0.00     0.006 A 
ENDBRANCH  27  41
BRANCH  28  49
ATOM     49  C   UNL     1       6.377   2.970   9.428  1.00  0.00     0.057 A 
ATOM     50  C   UNL     1       7.402   3.915   9.561  1.00  0.00     0.134 A 
ATOM     51  C   UNL     1       5.079   3.398   9.748  1.00  0.00     0.134 A 
ATOM     52  F   UNL     1       8.673   3.577   9.295  1.00  0.00    -0.206 F 
ATOM     53  C   UNL     1       7.152   5.218  10.007  1.00  0.00     0.040 A 
ATOM     54  C   UNL     1       4.809   4.705  10.158  1.00  0.00     0.040 A 
ATOM     55  F   UNL     1       4.043   2.552   9.647  1.00  0.00    -0.206 F 
ATOM     56  C   UNL     1       5.849   5.618  10.299  1.00  0.00     0.006 A 
ENDBRANCH  28  49
BRANCH  40  57
ATOM     57  C   UNL     1       9.961  -2.363  12.135  1.00  0.00     0.057 A 
ATOM     58  C   UNL     1       9.361  -2.400  13.399  1.00  0.00     0.134 A 
ATOM     59  C   UNL     1      11.354  -2.493  12.067  1.00  0.00     0.134 A 
ATOM     60  F   UNL     1       8.032  -2.271  13.526  1.00  0.00    -0.206 F 
ATOM     61  C   UNL     1      10.124  -2.532  14.558  1.00  0.00     0.040 A 
ATOM     62  C   UNL     1      12.123  -2.657  13.216  1.00  0.00     0.040 A 
ATOM     63  F   UNL     1      11.983  -2.478  10.882  1.00  0.00    -0.206 F 
ATOM     64  C   UNL     1      11.509  -2.668  14.467  1.00  0.00     0.006 A 
ENDBRANCH  40  57
ENDBRANCH  14  15
ENDBRANCH   7   9
ENDBRANCH   6   7
ENDBRANCH   5   6
ENDBRANCH   4   5
ENDBRANCH   3   4
ENDBRANCH   1   3
BRANCH   1  65
ATOM     65  C   UNL     1       2.280   1.276   2.081  1.00  0.00     0.077 C 
BRANCH  65  66
ATOM     66  C   UNL     1       0.907   1.360   2.869  1.00  0.00     0.119 C 
BRANCH  66  67
ATOM     67  C   UNL     1      -0.084   2.517   2.713  1.00  0.00     0.223 C 
ATOM     68  O   UNL     1      -0.908   2.514   1.798  1.00  0.00    -0.275 OA
ATOM     69  N   UNL     1      -0.164   3.465   3.724  1.00  0.00    -0.338 N 
ATOM     70  C   UNL     1       0.950   3.919   4.547  1.00  0.00     0.148 C 
ATOM     71  C   UNL     1      -1.335   4.346   3.760  1.00  0.00     0.148 C 
ATOM     72  C   UNL     1       0.535   4.436   5.923  1.00  0.00     0.181 C 
ATOM     73  C   UNL     1      -1.678   4.737   5.201  1.00  0.00     0.181 C 
ATOM     74  O   UNL     1      -0.552   5.361   5.838  1.00  0.00    -0.378 OA
ENDBRANCH  66  67
ENDBRANCH  65  66
BRANCH  65  75
ATOM     75  C   UNL     1       2.933  -0.401   2.666  1.00  0.00     0.019 C 
BRANCH  75  76
ATOM     76  C   UNL     1       4.567  -1.717   2.042  1.00  0.00     0.001 C 
BRANCH  76  77
ATOM     77  C   UNL     1       5.873  -1.500   0.787  1.00  0.00     0.000 C 
BRANCH  77  78
ATOM     78  C   UNL     1       7.129  -0.524   0.830  1.00  0.00     0.000 C 
BRANCH  78  79
ATOM     79  C   UNL     1       7.242   1.025   1.063  1.00  0.00     0.000 C 
BRANCH  79  80
ATOM     80  C   UNL     1       6.786   2.059   0.007  1.00  0.00     0.000 C 
BRANCH  80  81
ATOM     81  C   UNL     1       6.804   3.536   0.511  1.00  0.00     0.000 CG0
ATOM     82  G   UNL     1       5.776   3.964   1.585  1.00  0.00     0.000 G0
ENDBRANCH  80  81
ENDBRANCH  79  80
ENDBRANCH  78  79
ENDBRANCH  77  78
ENDBRANCH  76  77
ENDBRANCH  75  76
ENDBRANCH  65  75
BRANCH  65  83
ATOM     83  C   UNL     1       3.241   2.411   2.596  1.00  0.00     0.019 C 
BRANCH  83  84
ATOM     84  C   UNL     1       3.198   3.840   2.047  1.00  0.00     0.001 C 
BRANCH  84  85
ATOM     85  C   UNL     1       4.339   4.165   1.052  1.00  0.00     0.000 C 
BRANCH  85  86
ATOM     86  C   UNL     1       5.776   3.964   1.585  1.00  0.00     0.000 CG0
ATOM     87  G   UNL     1       6.804   3.536   0.511  1.00  0.00     0.000 G0
ENDBRANCH  85  86
ENDBRANCH  84  85
ENDBRANCH  83  84
ENDBRANCH  65  83
ENDBRANCH   1  65
TORSDOF 13
