REMARK SMILES N#CCSc1nnnn1-c1ccc(C(=O)OCCOC(=O)c2ccc(-c3c4nc(c(-c5c(F)cccc5F)c5ccc([nH]5)c(-c5c(F)cccc5F)c5nc(c(-c6c(F)cccc6F)c6ccc3[nH]6)C=C5)C=C4)cc2)cc1
REMARK SMILES IDX 17 1 16 2 14 3 15 4 13 5 10 6 11 7 77 8 12 9 76 10 9 11 5 12
REMARK SMILES IDX 6 13 7 14 8 15 4 16 3 17 2 18 1 19 18 20 19 21 20 22 21 23
REMARK SMILES IDX 22 24 23 25 75 26 24 27 74 28 25 29 26 30 27 31 68 32 28 33
REMARK SMILES IDX 73 34 67 35 69 36 29 37 72 38 66 39 65 40 30 42 56 43 39 44
REMARK SMILES IDX 55 45 40 46 43 47 54 48 70 49 41 50 42 51 53 53 71 54 44 55
REMARK SMILES IDX 31 56 32 57 37 58 33 59 34 60 36 61 38 62 35 63 57 64 58 65
REMARK SMILES IDX 63 66 59 67 60 68 62 69 64 70 61 71 45 72 46 73 51 74 47 75
REMARK SMILES IDX 48 76 50 77 52 78 49 79
REMARK H PARENT 69 41 43 52
REMARK Flexibility Score: inf
ROOT
ATOM      1  C   UNL     1      -2.182   2.704  -4.639  1.00  0.00     0.275 C 
ENDROOT
BRANCH   1   2
ATOM      2  O   UNL     1      -1.138   1.768  -4.324  1.00  0.00    -0.458 OA
BRANCH   2   3
ATOM      3  C   UNL     1      -1.293   1.071  -3.168  1.00  0.00     0.338 C 
ATOM      4  O   UNL     1      -2.142   1.271  -2.310  1.00  0.00    -0.246 OA
BRANCH   3   5
ATOM      5  C   UNL     1      -0.346  -0.070  -3.135  1.00  0.00     0.060 A 
ATOM      6  C   UNL     1       1.576  -2.019  -2.664  1.00  0.00     0.069 A 
ATOM      7  C   UNL     1       0.278  -2.210  -2.170  1.00  0.00     0.029 A 
ATOM      8  C   UNL     1       1.853  -0.966  -3.545  1.00  0.00     0.029 A 
ATOM      9  C   UNL     1      -0.674  -1.209  -2.381  1.00  0.00     0.018 A 
ATOM     10  C   UNL     1       0.887   0.005  -3.787  1.00  0.00     0.018 A 
BRANCH   6  11
ATOM     11  N   UNL     1       2.634  -2.766  -2.101  1.00  0.00    -0.187 N 
ATOM     12  C   UNL     1       3.885  -2.340  -1.663  1.00  0.00     0.215 A 
ATOM     13  N   UNL     1       4.522  -3.362  -1.140  1.00  0.00    -0.101 NA
ATOM     14  N   UNL     1       3.648  -4.418  -1.192  1.00  0.00    -0.022 NA
ATOM     15  N   UNL     1       2.479  -4.050  -1.700  1.00  0.00    -0.039 NA
BRANCH  12  16
ATOM     16  S   UNL     1       4.463  -0.697  -1.605  1.00  0.00    -0.069 SA
BRANCH  16  17
ATOM     17  C   UNL     1       3.764  -0.097  -0.018  1.00  0.00     0.198 C 
BRANCH  17  18
ATOM     18  C   UNL     1       2.244  -0.097  -0.018  1.00  0.00     0.074 C 
ATOM     19  N   UNL     1       0.984  -0.097  -0.018  1.00  0.00    -0.197 NA
ENDBRANCH  17  18
ENDBRANCH  16  17
ENDBRANCH  12  16
ENDBRANCH   6  11
ENDBRANCH   3   5
ENDBRANCH   2   3
ENDBRANCH   1   2
BRANCH   1  20
ATOM     20  C   UNL     1      -3.318   2.027  -5.396  1.00  0.00     0.275 C 
BRANCH  20  21
ATOM     21  O   UNL     1      -4.057   1.173  -4.527  1.00  0.00    -0.458 OA
BRANCH  21  22
ATOM     22  C   UNL     1      -3.635  -0.111  -4.485  1.00  0.00     0.338 C 
ATOM     23  O   UNL     1      -2.656  -0.584  -5.040  1.00  0.00    -0.246 OA
BRANCH  22  24
ATOM     24  C   UNL     1      -4.663  -0.933  -3.841  1.00  0.00     0.060 A 
ATOM     25  C   UNL     1      -4.427  -2.311  -3.839  1.00  0.00     0.016 A 
ATOM     26  C   UNL     1      -5.944  -0.392  -3.668  1.00  0.00     0.016 A 
ATOM     27  C   UNL     1      -5.510  -3.146  -3.966  1.00  0.00     0.010 A 
ATOM     28  C   UNL     1      -7.022  -1.224  -3.812  1.00  0.00     0.010 A 
ATOM     29  C   UNL     1      -6.779  -2.570  -4.072  1.00  0.00    -0.014 A 
BRANCH  29  30
ATOM     30  C   UNL     1      -7.877  -3.431  -4.443  1.00  0.00     0.031 A 
ATOM     31  C   UNL     1      -8.288  -4.347  -3.359  1.00  0.00     0.074 A 
ATOM     32  C   UNL     1      -8.511  -3.290  -5.622  1.00  0.00     0.049 A 
ATOM     33  N   UNL     1      -8.275  -5.638  -3.353  1.00  0.00    -0.248 NA
ATOM     34  C   UNL     1      -8.604  -3.735  -2.057  1.00  0.00     0.031 C 
ATOM     35  C   UNL     1      -8.357  -2.228  -6.623  1.00  0.00     0.029 A 
ATOM     36  N   UNL     1      -9.531  -4.031  -6.122  1.00  0.00    -0.354 N 
ATOM     37  C   UNL     1      -8.769  -6.002  -2.105  1.00  0.00     0.074 A 
ATOM     38  C   UNL     1      -8.781  -4.812  -1.296  1.00  0.00     0.031 C 
ATOM     39  C   UNL     1      -9.407  -2.267  -7.476  1.00  0.00     0.029 A 
ATOM     40  C   UNL     1     -10.226  -3.423  -7.156  1.00  0.00     0.049 A 
ATOM     41  H   UNL     1      -9.759  -4.925  -5.779  1.00  0.00     0.167 HD
ATOM     42  C   UNL     1      -9.374  -7.201  -1.906  1.00  0.00     0.037 A 
ATOM     43  C   UNL     1     -11.442  -3.808  -7.616  1.00  0.00     0.037 A 
ATOM     44  C   UNL     1      -9.008  -8.156  -2.917  1.00  0.00     0.049 A 
ATOM     45  C   UNL     1     -11.668  -5.204  -7.154  1.00  0.00     0.074 A 
ATOM     46  C   UNL     1      -7.814  -8.719  -3.326  1.00  0.00     0.029 A 
ATOM     47  N   UNL     1      -9.898  -8.394  -3.935  1.00  0.00    -0.354 N 
ATOM     48  N   UNL     1     -10.985  -6.231  -7.582  1.00  0.00    -0.248 NA
ATOM     49  C   UNL     1     -12.328  -5.389  -5.868  1.00  0.00     0.031 C 
ATOM     50  C   UNL     1      -7.921  -8.825  -4.743  1.00  0.00     0.029 A 
ATOM     51  C   UNL     1      -9.187  -8.366  -5.108  1.00  0.00     0.049 A 
ATOM     52  H   UNL     1     -10.865  -8.556  -3.841  1.00  0.00     0.167 HD
ATOM     53  C   UNL     1     -10.789  -7.026  -6.460  1.00  0.00     0.074 A 
ATOM     54  C   UNL     1     -11.700  -6.492  -5.450  1.00  0.00     0.031 C 
ATOM     55  C   UNL     1      -9.708  -7.854  -6.355  1.00  0.00     0.037 A 
BRANCH  42  56
ATOM     56  C   UNL     1     -10.574  -7.368  -1.014  1.00  0.00     0.057 A 
ATOM     57  C   UNL     1     -11.030  -8.659  -0.708  1.00  0.00     0.134 A 
ATOM     58  C   UNL     1     -11.460  -6.321  -0.679  1.00  0.00     0.134 A 
ATOM     59  F   UNL     1     -10.288  -9.737  -1.002  1.00  0.00    -0.206 F 
ATOM     60  C   UNL     1     -12.298  -8.893  -0.166  1.00  0.00     0.040 A 
ATOM     61  C   UNL     1     -12.704  -6.540  -0.087  1.00  0.00     0.040 A 
ATOM     62  F   UNL     1     -11.220  -5.043  -0.999  1.00  0.00    -0.206 F 
ATOM     63  C   UNL     1     -13.142  -7.832   0.143  1.00  0.00     0.006 A 
ENDBRANCH  42  56
BRANCH  43  64
ATOM     64  C   UNL     1     -12.543  -2.930  -8.076  1.00  0.00     0.057 A 
ATOM     65  C   UNL     1     -13.625  -3.442  -8.805  1.00  0.00     0.134 A 
ATOM     66  C   UNL     1     -12.694  -1.617  -7.593  1.00  0.00     0.134 A 
ATOM     67  F   UNL     1     -13.598  -4.701  -9.266  1.00  0.00    -0.206 F 
ATOM     68  C   UNL     1     -14.791  -2.697  -9.031  1.00  0.00     0.040 A 
ATOM     69  C   UNL     1     -13.847  -0.859  -7.818  1.00  0.00     0.040 A 
ATOM     70  F   UNL     1     -11.763  -1.053  -6.809  1.00  0.00    -0.206 F 
ATOM     71  C   UNL     1     -14.907  -1.403  -8.530  1.00  0.00     0.006 A 
ENDBRANCH  43  64
BRANCH  55  72
ATOM     72  C   UNL     1      -8.840  -8.034  -7.570  1.00  0.00     0.057 A 
ATOM     73  C   UNL     1      -8.078  -7.001  -8.139  1.00  0.00     0.134 A 
ATOM     74  C   UNL     1      -8.631  -9.321  -8.073  1.00  0.00     0.134 A 
ATOM     75  F   UNL     1      -8.133  -5.755  -7.656  1.00  0.00    -0.206 F 
ATOM     76  C   UNL     1      -7.180  -7.234  -9.186  1.00  0.00     0.040 A 
ATOM     77  C   UNL     1      -7.713  -9.573  -9.096  1.00  0.00     0.040 A 
ATOM     78  F   UNL     1      -9.277 -10.369  -7.537  1.00  0.00    -0.206 F 
ATOM     79  C   UNL     1      -6.990  -8.526  -9.662  1.00  0.00     0.006 A 
ENDBRANCH  55  72
ENDBRANCH  29  30
ENDBRANCH  22  24
ENDBRANCH  21  22
ENDBRANCH  20  21
ENDBRANCH   1  20
TORSDOF 15
