REMARK SMILES CCc1cccc(NC(=O)NCC(=O)OCCOC(=O)c2ccc(-c3c4nc(c(-c5c(F)cccc5F)c5ccc([nH]5)c(-c5c(F)cccc5F)c5nc(c(-c6c(F)cccc6F)c6ccc3[nH]6)C=C5)C=C4)cc2)c1
REMARK SMILES IDX 16 1 15 2 13 3 14 4 12 5 11 6 8 7 9 8 10 10 7 12 3 13 4 14
REMARK SMILES IDX 75 15 5 16 6 17 2 18 1 19 17 20 18 21 19 22 20 23 21 24
REMARK SMILES IDX 22 25 74 26 23 27 73 28 24 29 25 30 26 31 67 32 27 33 72 34
REMARK SMILES IDX 66 35 68 36 28 37 71 38 65 39 64 40 29 42 55 43 38 44 54 45
REMARK SMILES IDX 39 46 42 47 53 48 69 49 40 50 41 51 52 53 70 54 43 55 30 56
REMARK SMILES IDX 31 57 36 58 32 59 33 60 35 61 37 62 34 63 56 64 57 65 62 66
REMARK SMILES IDX 58 67 59 68 61 69 63 70 60 71 44 72 45 73 50 74 46 75 47 76
REMARK SMILES IDX 49 77 51 78 48 79
REMARK H PARENT 8 9 11 11 68 41 42 52
REMARK Flexibility Score: inf
ROOT
ATOM      1  C   UNL     1       0.897   6.122  -5.325  1.00  0.00     0.274 C 
ENDROOT
BRANCH   1   2
ATOM      2  O   UNL     1       0.866   6.581  -3.961  1.00  0.00    -0.461 OA
BRANCH   2   3
ATOM      3  C   UNL     1       1.879   6.145  -3.160  1.00  0.00     0.325 C 
ATOM      4  O   UNL     1       2.793   5.420  -3.536  1.00  0.00    -0.250 OA
BRANCH   3   5
ATOM      5  C   UNL     1       1.805   6.737  -1.750  1.00  0.00     0.240 C 
BRANCH   5   6
ATOM      6  N   UNL     1       0.489   7.204  -1.349  1.00  0.00    -0.327 N 
ATOM      7  N   UNL     1      -0.318   5.551   0.164  1.00  0.00    -0.308 N 
ATOM      8  C   UNL     1      -0.375   6.766  -0.421  1.00  0.00     0.319 C 
ATOM      9  H   UNL     1      -0.725   5.541   1.060  1.00  0.00     0.171 HD
ATOM     10  O   UNL     1      -1.228   7.564  -0.022  1.00  0.00    -0.248 OA
ATOM     11  H   UNL     1       0.171   7.988  -1.853  1.00  0.00     0.166 HD
BRANCH   7  12
ATOM     12  C   UNL     1       0.191   4.299  -0.215  1.00  0.00     0.043 A 
ATOM     13  C   UNL     1       0.808   2.024   0.433  1.00  0.00    -0.046 A 
ATOM     14  C   UNL     1       1.381   1.837  -0.829  1.00  0.00     0.004 A 
ATOM     15  C   UNL     1       0.274   3.289   0.749  1.00  0.00     0.029 A 
ATOM     16  C   UNL     1       1.217   2.801  -1.814  1.00  0.00     0.002 A 
ATOM     17  C   UNL     1       0.535   3.978  -1.518  1.00  0.00     0.026 A 
BRANCH  13  18
ATOM     18  C   UNL     1       0.705   0.907   1.447  1.00  0.00     0.032 C 
ATOM     19  C   UNL     1       0.868  -0.500   0.878  1.00  0.00     0.009 C 
ENDBRANCH  13  18
ENDBRANCH   7  12
ENDBRANCH   5   6
ENDBRANCH   3   5
ENDBRANCH   2   3
ENDBRANCH   1   2
BRANCH   1  20
ATOM     20  C   UNL     1       1.605   7.117  -6.251  1.00  0.00     0.275 C 
BRANCH  20  21
ATOM     21  O   UNL     1       3.023   7.181  -6.006  1.00  0.00    -0.458 OA
BRANCH  21  22
ATOM     22  C   UNL     1       3.407   8.065  -5.061  1.00  0.00     0.338 C 
ATOM     23  O   UNL     1       2.690   8.837  -4.430  1.00  0.00    -0.246 OA
BRANCH  22  24
ATOM     24  C   UNL     1       4.825   7.875  -4.739  1.00  0.00     0.060 A 
ATOM     25  C   UNL     1       5.153   7.400  -3.465  1.00  0.00     0.016 A 
ATOM     26  C   UNL     1       5.825   8.249  -5.635  1.00  0.00     0.016 A 
ATOM     27  C   UNL     1       6.476   7.298  -3.071  1.00  0.00     0.010 A 
ATOM     28  C   UNL     1       7.161   8.155  -5.236  1.00  0.00     0.010 A 
ATOM     29  C   UNL     1       7.487   7.692  -3.949  1.00  0.00    -0.014 A 
BRANCH  29  30
ATOM     30  C   UNL     1       8.879   7.709  -3.461  1.00  0.00     0.031 A 
ATOM     31  C   UNL     1       9.503   9.018  -3.088  1.00  0.00     0.074 A 
ATOM     32  C   UNL     1       9.542   6.552  -3.295  1.00  0.00     0.049 A 
ATOM     33  N   UNL     1      10.737   9.278  -2.750  1.00  0.00    -0.248 NA
ATOM     34  C   UNL     1       8.615  10.192  -3.094  1.00  0.00     0.031 C 
ATOM     35  C   UNL     1       8.989   5.219  -3.538  1.00  0.00     0.029 A 
ATOM     36  N   UNL     1      10.825   6.315  -2.880  1.00  0.00    -0.354 N 
ATOM     37  C   UNL     1      10.784  10.648  -2.534  1.00  0.00     0.074 A 
ATOM     38  C   UNL     1       9.456  11.166  -2.780  1.00  0.00     0.031 C 
ATOM     39  C   UNL     1       9.934   4.301  -3.275  1.00  0.00     0.029 A 
ATOM     40  C   UNL     1      11.167   4.986  -2.900  1.00  0.00     0.049 A 
ATOM     41  H   UNL     1      11.442   7.028  -2.595  1.00  0.00     0.167 HD
ATOM     42  C   UNL     1      11.848  11.401  -2.170  1.00  0.00     0.037 A 
ATOM     43  C   UNL     1      12.357   4.397  -2.680  1.00  0.00     0.037 A 
ATOM     44  C   UNL     1      13.158  10.864  -1.915  1.00  0.00     0.049 A 
ATOM     45  C   UNL     1      13.539   5.261  -2.341  1.00  0.00     0.074 A 
ATOM     46  C   UNL     1      14.314  11.534  -1.561  1.00  0.00     0.029 A 
ATOM     47  N   UNL     1      13.479   9.515  -1.981  1.00  0.00    -0.354 N 
ATOM     48  N   UNL     1      13.595   6.564  -2.195  1.00  0.00    -0.248 NA
ATOM     49  C   UNL     1      14.824   4.578  -2.148  1.00  0.00     0.031 C 
ATOM     50  C   UNL     1      15.344  10.593  -1.443  1.00  0.00     0.029 A 
ATOM     51  C   UNL     1      14.819   9.333  -1.686  1.00  0.00     0.049 A 
ATOM     52  H   UNL     1      12.847   8.794  -2.204  1.00  0.00     0.167 HD
ATOM     53  C   UNL     1      14.914   6.856  -1.882  1.00  0.00     0.074 A 
ATOM     54  C   UNL     1      15.622   5.591  -1.842  1.00  0.00     0.031 C 
ATOM     55  C   UNL     1      15.493   8.060  -1.652  1.00  0.00     0.037 A 
BRANCH  42  56
ATOM     56  C   UNL     1      11.643  12.882  -2.077  1.00  0.00     0.057 A 
ATOM     57  C   UNL     1      10.935  13.470  -1.022  1.00  0.00     0.134 A 
ATOM     58  C   UNL     1      12.167  13.732  -3.059  1.00  0.00     0.134 A 
ATOM     59  F   UNL     1      10.389  12.709  -0.062  1.00  0.00    -0.206 F 
ATOM     60  C   UNL     1      10.742  14.852  -0.955  1.00  0.00     0.040 A 
ATOM     61  C   UNL     1      11.999  15.116  -2.992  1.00  0.00     0.040 A 
ATOM     62  F   UNL     1      12.852  13.232  -4.098  1.00  0.00    -0.206 F 
ATOM     63  C   UNL     1      11.279  15.679  -1.940  1.00  0.00     0.006 A 
ENDBRANCH  42  56
BRANCH  43  64
ATOM     64  C   UNL     1      12.492   2.927  -2.821  1.00  0.00     0.057 A 
ATOM     65  C   UNL     1      12.714   2.107  -1.710  1.00  0.00     0.134 A 
ATOM     66  C   UNL     1      12.394   2.306  -4.073  1.00  0.00     0.134 A 
ATOM     67  F   UNL     1      12.838   2.645  -0.488  1.00  0.00    -0.206 F 
ATOM     68  C   UNL     1      12.843   0.723  -1.839  1.00  0.00     0.040 A 
ATOM     69  C   UNL     1      12.497   0.922  -4.213  1.00  0.00     0.040 A 
ATOM     70  F   UNL     1      12.180   3.037  -5.177  1.00  0.00    -0.206 F 
ATOM     71  C   UNL     1      12.727   0.126  -3.093  1.00  0.00     0.006 A 
ENDBRANCH  43  64
BRANCH  55  72
ATOM     72  C   UNL     1      16.952   8.057  -1.314  1.00  0.00     0.057 A 
ATOM     73  C   UNL     1      17.932   7.846  -2.292  1.00  0.00     0.134 A 
ATOM     74  C   UNL     1      17.380   8.304  -0.004  1.00  0.00     0.134 A 
ATOM     75  F   UNL     1      17.582   7.590  -3.561  1.00  0.00    -0.206 F 
ATOM     76  C   UNL     1      19.290   7.864  -1.973  1.00  0.00     0.040 A 
ATOM     77  C   UNL     1      18.735   8.346   0.322  1.00  0.00     0.040 A 
ATOM     78  F   UNL     1      16.488   8.521   0.974  1.00  0.00    -0.206 F 
ATOM     79  C   UNL     1      19.694   8.121  -0.664  1.00  0.00     0.006 A 
ENDBRANCH  55  72
ENDBRANCH  29  30
ENDBRANCH  22  24
ENDBRANCH  21  22
ENDBRANCH  20  21
ENDBRANCH   1  20
TORSDOF 14
