REMARK SMILES C[C@H](Cc1cccs1)N(C)C(=O)N1CCC[C@]1(C)C(=O)OCCOC(=O)c1ccc(-c2c3nc(c(-c4c(F)cccc4F)c4ccc([nH]4)c(-c4c(F)cccc4F)c4nc(c(-c5c(F)cccc5F)c5ccc2[nH]5)C=C4)C=C3)cc1
REMARK SMILES IDX 21 1 19 2 20 3 17 4 13 5 14 6 15 7 16 8 18 9 11 10 12 11
REMARK SMILES IDX 9 12 10 13 2 14 1 15 3 16 4 17 5 18 8 19 6 20 7 21 22 22
REMARK SMILES IDX 23 23 24 24 25 25 26 26 27 27 28 28 80 29 29 30 79 31 30 32
REMARK SMILES IDX 31 33 32 34 73 35 33 36 78 37 72 38 74 39 34 40 77 41 71 42
REMARK SMILES IDX 70 43 35 45 61 46 44 47 60 48 45 49 48 50 59 51 75 52 46 53
REMARK SMILES IDX 47 54 58 56 76 57 49 58 36 59 37 60 42 61 38 62 39 63 41 64
REMARK SMILES IDX 43 65 40 66 62 67 63 68 68 69 64 70 65 71 67 72 69 73 66 74
REMARK SMILES IDX 50 75 51 76 56 77 52 78 53 79 55 80 57 81 54 82
REMARK H PARENT 74 44 48 55
REMARK Flexibility Score: inf
ROOT
ATOM      1  O   UNL     1      -2.413   0.808  -3.493  1.00  0.00    -0.460 OA
ENDROOT
BRANCH   1   2
ATOM      2  C   UNL     1      -3.695   1.045  -3.124  1.00  0.00     0.331 C 
ATOM      3  O   UNL     1      -4.551   1.493  -3.884  1.00  0.00    -0.249 OA
BRANCH   2   4
ATOM      4  C   UNL     1      -3.964   0.832  -1.607  1.00  0.00     0.139 C 
ATOM      5  N   UNL     1      -2.990   0.075  -0.750  1.00  0.00    -0.308 N 
ATOM      6  C   UNL     1      -3.686  -1.000  -0.055  1.00  0.00     0.123 C 
ATOM      7  C   UNL     1      -4.790  -1.393  -1.006  1.00  0.00     0.025 C 
ATOM      8  C   UNL     1      -5.268  -0.030  -1.477  1.00  0.00     0.042 C 
ATOM      9  C   UNL     1      -4.299   2.219  -1.031  1.00  0.00     0.048 C 
BRANCH   5  10
ATOM     10  C   UNL     1      -1.667  -0.173  -1.066  1.00  0.00     0.320 C 
ATOM     11  O   UNL     1      -1.319  -1.328  -1.309  1.00  0.00    -0.248 OA
BRANCH  10  12
ATOM     12  N   UNL     1      -0.765   0.871  -1.023  1.00  0.00    -0.325 N 
ATOM     13  C   UNL     1      -1.096   2.206  -0.564  1.00  0.00     0.149 C 
BRANCH  12  14
ATOM     14  C   UNL     1       0.672   0.629  -1.321  1.00  0.00     0.088 C 
ATOM     15  C   UNL     1       0.936   0.016  -2.698  1.00  0.00     0.031 C 
BRANCH  14  16
ATOM     16  C   UNL     1       1.447  -0.018  -0.142  1.00  0.00     0.071 C 
BRANCH  16  17
ATOM     17  C   UNL     1       1.564  -1.518  -0.122  1.00  0.00     0.007 A 
ATOM     18  C   UNL     1       0.768  -2.435   0.538  1.00  0.00     0.015 A 
ATOM     19  S   UNL     1       2.873  -2.299  -0.916  1.00  0.00    -0.149 S 
ATOM     20  C   UNL     1       1.187  -3.780   0.324  1.00  0.00     0.012 A 
ATOM     21  C   UNL     1       2.312  -3.848  -0.465  1.00  0.00     0.065 A 
ENDBRANCH  16  17
ENDBRANCH  14  16
ENDBRANCH  12  14
ENDBRANCH  10  12
ENDBRANCH   5  10
ENDBRANCH   2   4
ENDBRANCH   1   2
BRANCH   1  22
ATOM     22  C   UNL     1      -2.047   1.095  -4.859  1.00  0.00     0.274 C 
BRANCH  22  23
ATOM     23  C   UNL     1      -1.826  -0.209  -5.615  1.00  0.00     0.275 C 
BRANCH  23  24
ATOM     24  O   UNL     1      -3.094  -0.874  -5.703  1.00  0.00    -0.458 OA
BRANCH  24  25
ATOM     25  C   UNL     1      -3.083  -2.207  -5.505  1.00  0.00     0.338 C 
ATOM     26  O   UNL     1      -2.107  -2.940  -5.414  1.00  0.00    -0.246 OA
BRANCH  25  27
ATOM     27  C   UNL     1      -4.476  -2.685  -5.439  1.00  0.00     0.060 A 
ATOM     28  C   UNL     1      -5.450  -1.948  -4.761  1.00  0.00     0.016 A 
ATOM     29  C   UNL     1      -4.803  -3.913  -6.010  1.00  0.00     0.016 A 
ATOM     30  C   UNL     1      -6.731  -2.468  -4.588  1.00  0.00     0.010 A 
ATOM     31  C   UNL     1      -6.112  -4.391  -5.915  1.00  0.00     0.010 A 
ATOM     32  C   UNL     1      -7.084  -3.691  -5.175  1.00  0.00    -0.014 A 
BRANCH  32  33
ATOM     33  C   UNL     1      -8.437  -4.280  -4.976  1.00  0.00     0.031 A 
ATOM     34  C   UNL     1      -8.571  -5.648  -4.362  1.00  0.00     0.074 A 
ATOM     35  C   UNL     1      -9.549  -3.610  -5.339  1.00  0.00     0.049 A 
ATOM     36  N   UNL     1      -9.610  -6.443  -4.324  1.00  0.00    -0.248 NA
ATOM     37  C   UNL     1      -7.367  -6.203  -3.722  1.00  0.00     0.031 C 
ATOM     38  C   UNL     1      -9.588  -2.256  -5.891  1.00  0.00     0.029 A 
ATOM     39  N   UNL     1     -10.870  -3.984  -5.287  1.00  0.00    -0.354 N 
ATOM     40  C   UNL     1      -9.165  -7.618  -3.731  1.00  0.00     0.074 A 
ATOM     41  C   UNL     1      -7.767  -7.428  -3.411  1.00  0.00     0.031 C 
ATOM     42  C   UNL     1     -10.867  -1.894  -6.078  1.00  0.00     0.029 A 
ATOM     43  C   UNL     1     -11.733  -3.021  -5.750  1.00  0.00     0.049 A 
ATOM     44  H   UNL     1     -11.169  -4.859  -4.950  1.00  0.00     0.167 HD
ATOM     45  C   UNL     1      -9.859  -8.755  -3.484  1.00  0.00     0.037 A 
ATOM     46  C   UNL     1     -13.066  -3.053  -5.930  1.00  0.00     0.037 A 
ATOM     47  C   UNL     1     -11.267  -8.917  -3.735  1.00  0.00     0.049 A 
ATOM     48  C   UNL     1     -13.817  -4.324  -5.656  1.00  0.00     0.074 A 
ATOM     49  C   UNL     1     -12.063 -10.029  -3.518  1.00  0.00     0.029 A 
ATOM     50  N   UNL     1     -12.096  -7.923  -4.233  1.00  0.00    -0.354 N 
ATOM     51  N   UNL     1     -13.367  -5.466  -5.197  1.00  0.00    -0.248 NA
ATOM     52  C   UNL     1     -15.255  -4.321  -5.961  1.00  0.00     0.031 C 
ATOM     53  C   UNL     1     -13.372  -9.712  -3.899  1.00  0.00     0.029 A 
ATOM     54  C   UNL     1     -13.395  -8.395  -4.327  1.00  0.00     0.049 A 
ATOM     55  H   UNL     1     -11.804  -7.017  -4.483  1.00  0.00     0.167 HD
ATOM     56  C   UNL     1     -14.463  -6.318  -5.160  1.00  0.00     0.074 A 
ATOM     57  C   UNL     1     -15.604  -5.554  -5.620  1.00  0.00     0.031 C 
ATOM     58  C   UNL     1     -14.516  -7.620  -4.789  1.00  0.00     0.037 A 
BRANCH  45  59
ATOM     59  C   UNL     1      -9.093  -9.926  -2.948  1.00  0.00     0.057 A 
ATOM     60  C   UNL     1      -8.658  -9.989  -1.619  1.00  0.00     0.134 A 
ATOM     61  C   UNL     1      -8.802 -11.018  -3.777  1.00  0.00     0.134 A 
ATOM     62  F   UNL     1      -8.889  -8.968  -0.780  1.00  0.00    -0.206 F 
ATOM     63  C   UNL     1      -7.942 -11.088  -1.138  1.00  0.00     0.040 A 
ATOM     64  C   UNL     1      -8.107 -12.131  -3.302  1.00  0.00     0.040 A 
ATOM     65  F   UNL     1      -9.193 -11.022  -5.060  1.00  0.00    -0.206 F 
ATOM     66  C   UNL     1      -7.670 -12.165  -1.980  1.00  0.00     0.006 A 
ENDBRANCH  45  59
BRANCH  46  67
ATOM     67  C   UNL     1     -13.772  -1.849  -6.431  1.00  0.00     0.057 A 
ATOM     68  C   UNL     1     -14.604  -1.104  -5.588  1.00  0.00     0.134 A 
ATOM     69  C   UNL     1     -13.621  -1.404  -7.749  1.00  0.00     0.134 A 
ATOM     70  F   UNL     1     -14.808  -1.497  -4.322  1.00  0.00    -0.206 F 
ATOM     71  C   UNL     1     -15.259   0.043  -6.037  1.00  0.00     0.040 A 
ATOM     72  C   UNL     1     -14.251  -0.246  -8.205  1.00  0.00     0.040 A 
ATOM     73  F   UNL     1     -12.838  -2.076  -8.605  1.00  0.00    -0.206 F 
ATOM     74  C   UNL     1     -15.075   0.480  -7.348  1.00  0.00     0.006 A 
ENDBRANCH  46  67
BRANCH  58  75
ATOM     75  C   UNL     1     -15.855  -8.287  -4.853  1.00  0.00     0.057 A 
ATOM     76  C   UNL     1     -16.403  -8.712  -6.069  1.00  0.00     0.134 A 
ATOM     77  C   UNL     1     -16.593  -8.522  -3.687  1.00  0.00     0.134 A 
ATOM     78  F   UNL     1     -15.749  -8.501  -7.221  1.00  0.00    -0.206 F 
ATOM     79  C   UNL     1     -17.651  -9.334  -6.125  1.00  0.00     0.040 A 
ATOM     80  C   UNL     1     -17.834  -9.157  -3.729  1.00  0.00     0.040 A 
ATOM     81  F   UNL     1     -16.118  -8.140  -2.492  1.00  0.00    -0.206 F 
ATOM     82  C   UNL     1     -18.368  -9.561  -4.951  1.00  0.00     0.006 A 
ENDBRANCH  58  75
ENDBRANCH  32  33
ENDBRANCH  25  27
ENDBRANCH  24  25
ENDBRANCH  23  24
ENDBRANCH  22  23
ENDBRANCH   1  22
TORSDOF 16
