REMARK SMILES C[C@@H](CCC(=O)OCCOC(=O)c1ccc(-c2c3nc(c(-c4c(F)cccc4F)c4ccc([nH]4)c(-c4c(F)cccc4F)c4nc(c(-c5c(F)cccc5F)c5ccc2[nH]5)C=C4)C=C3)cc1)NC(=O)Nc1ccc(Cl)c(Br)c1
REMARK SMILES IDX 8 1 7 2 5 3 6 4 4 5 3 6 2 7 1 8 67 9 68 10 69 12 70 13 71 15
REMARK SMILES IDX 72 16 78 17 73 18 76 19 74 20 77 21 75 22 9 23 10 24 11 25
REMARK SMILES IDX 12 26 13 27 14 28 66 29 15 30 65 31 16 32 17 33 18 34 59 35
REMARK SMILES IDX 19 36 64 37 58 38 60 39 20 40 63 41 57 42 56 43 21 45 47 46
REMARK SMILES IDX 30 47 46 48 31 49 34 50 45 51 61 52 32 53 33 54 44 56 62 57
REMARK SMILES IDX 35 58 22 59 23 60 28 61 24 62 25 63 27 64 29 65 26 66 48 67
REMARK SMILES IDX 49 68 54 69 50 70 51 71 53 72 55 73 52 74 36 75 37 76 42 77
REMARK SMILES IDX 38 78 39 79 41 80 43 81 40 82
REMARK H PARENT 67 11 70 14 60 44 34 55
REMARK Flexibility Score: inf
ROOT
ATOM      1  C   UNL     1      -3.284   1.911  -0.889  1.00  0.00     0.274 C 
ENDROOT
BRANCH   1   2
ATOM      2  O   UNL     1      -1.879   1.581  -0.828  1.00  0.00    -0.462 OA
BRANCH   2   3
ATOM      3  C   UNL     1      -1.026   2.362  -1.536  1.00  0.00     0.305 C 
ATOM      4  O   UNL     1      -1.369   3.279  -2.272  1.00  0.00    -0.252 OA
BRANCH   3   5
ATOM      5  C   UNL     1       0.417   1.926  -1.394  1.00  0.00     0.125 C 
BRANCH   5   6
ATOM      6  C   UNL     1       0.952   1.700   0.024  1.00  0.00     0.036 C 
BRANCH   6   7
ATOM      7  C   UNL     1       0.560   0.389   0.736  1.00  0.00     0.081 C 
ATOM      8  C   UNL     1       0.638  -0.840  -0.166  1.00  0.00     0.031 C 
BRANCH   7   9
ATOM      9  N   UNL     1      -0.764   0.511   1.339  1.00  0.00    -0.335 N 
ATOM     10  C   UNL     1      -1.295   0.244   2.545  1.00  0.00     0.319 C 
ATOM     11  H   UNL     1      -1.428   0.877   0.711  1.00  0.00     0.165 HD
ATOM     12  O   UNL     1      -2.523   0.165   2.629  1.00  0.00    -0.248 OA
ATOM     13  N   UNL     1      -0.544  -0.061   3.623  1.00  0.00    -0.308 N 
ATOM     14  H   UNL     1      -1.002  -0.619   4.292  1.00  0.00     0.171 HD
BRANCH  13  15
ATOM     15  C   UNL     1       0.770   0.275   3.956  1.00  0.00     0.044 A 
ATOM     16  C   UNL     1       1.513  -0.669   4.663  1.00  0.00     0.028 A 
ATOM     17  C   UNL     1       1.351   1.494   3.595  1.00  0.00     0.043 A 
ATOM     18  C   UNL     1       2.874  -0.458   4.883  1.00  0.00     0.024 A 
ATOM     19  C   UNL     1       2.713   1.714   3.826  1.00  0.00     0.038 A 
ATOM     20  C   UNL     1       3.483   0.723   4.446  1.00  0.00     0.055 A 
ATOM     21  Br  UNL     1       3.450   3.356   3.221  1.00  0.00    -0.049 Br
ATOM     22  Cl  UNL     1       5.187   0.871   4.682  1.00  0.00    -0.083 Cl
ENDBRANCH  13  15
ENDBRANCH   7   9
ENDBRANCH   6   7
ENDBRANCH   5   6
ENDBRANCH   3   5
ENDBRANCH   2   3
ENDBRANCH   1   2
BRANCH   1  23
ATOM     23  C   UNL     1      -3.713   2.794   0.287  1.00  0.00     0.275 C 
BRANCH  23  24
ATOM     24  O   UNL     1      -3.251   4.146   0.115  1.00  0.00    -0.458 OA
BRANCH  24  25
ATOM     25  C   UNL     1      -2.067   4.436   0.703  1.00  0.00     0.338 C 
ATOM     26  O   UNL     1      -1.388   3.712   1.410  1.00  0.00    -0.246 OA
BRANCH  25  27
ATOM     27  C   UNL     1      -1.612   5.753   0.236  1.00  0.00     0.060 A 
ATOM     28  C   UNL     1      -0.357   5.838  -0.378  1.00  0.00     0.016 A 
ATOM     29  C   UNL     1      -2.390   6.894   0.433  1.00  0.00     0.016 A 
ATOM     30  C   UNL     1       0.124   7.072  -0.806  1.00  0.00     0.010 A 
ATOM     31  C   UNL     1      -1.903   8.132   0.011  1.00  0.00     0.010 A 
ATOM     32  C   UNL     1      -0.642   8.226  -0.603  1.00  0.00    -0.014 A 
BRANCH  32  33
ATOM     33  C   UNL     1      -0.102   9.552  -0.975  1.00  0.00     0.031 A 
ATOM     34  C   UNL     1       0.438  10.451   0.096  1.00  0.00     0.074 A 
ATOM     35  C   UNL     1      -0.114   9.947  -2.259  1.00  0.00     0.049 A 
ATOM     36  N   UNL     1       0.843  11.691   0.009  1.00  0.00    -0.248 NA
ATOM     37  C   UNL     1       0.529   9.877   1.447  1.00  0.00     0.031 C 
ATOM     38  C   UNL     1      -0.578   9.140  -3.387  1.00  0.00     0.029 A 
ATOM     39  N   UNL     1       0.264  11.137  -2.827  1.00  0.00    -0.354 N 
ATOM     40  C   UNL     1       1.218  12.054   1.295  1.00  0.00     0.074 A 
ATOM     41  C   UNL     1       0.980  10.908   2.147  1.00  0.00     0.031 C 
ATOM     42  C   UNL     1      -0.470   9.864  -4.513  1.00  0.00     0.029 A 
ATOM     43  C   UNL     1       0.032  11.195  -4.178  1.00  0.00     0.049 A 
ATOM     44  H   UNL     1       0.663  11.877  -2.315  1.00  0.00     0.167 HD
ATOM     45  C   UNL     1       1.715  13.238   1.724  1.00  0.00     0.037 A 
ATOM     46  C   UNL     1       0.178  12.219  -5.039  1.00  0.00     0.037 A 
ATOM     47  C   UNL     1       1.953  14.371   0.870  1.00  0.00     0.049 A 
ATOM     48  C   UNL     1       0.683  13.540  -4.531  1.00  0.00     0.074 A 
ATOM     49  C   UNL     1       2.460  15.615   1.204  1.00  0.00     0.029 A 
ATOM     50  N   UNL     1       1.697  14.396  -0.493  1.00  0.00    -0.354 N 
ATOM     51  N   UNL     1       1.031  13.879  -3.312  1.00  0.00    -0.248 NA
ATOM     52  C   UNL     1       0.811  14.624  -5.515  1.00  0.00     0.031 C 
ATOM     53  C   UNL     1       2.480  16.403   0.049  1.00  0.00     0.029 A 
ATOM     54  C   UNL     1       2.022  15.638  -1.012  1.00  0.00     0.049 A 
ATOM     55  H   UNL     1       1.338  13.642  -1.015  1.00  0.00     0.167 HD
ATOM     56  C   UNL     1       1.439  15.204  -3.386  1.00  0.00     0.074 A 
ATOM     57  C   UNL     1       1.303  15.606  -4.771  1.00  0.00     0.031 C 
ATOM     58  C   UNL     1       1.886  16.015  -2.396  1.00  0.00     0.037 A 
BRANCH  45  59
ATOM     59  C   UNL     1       2.000  13.370   3.189  1.00  0.00     0.057 A 
ATOM     60  C   UNL     1       3.096  12.739   3.790  1.00  0.00     0.134 A 
ATOM     61  C   UNL     1       1.171  14.148   4.008  1.00  0.00     0.134 A 
ATOM     62  F   UNL     1       3.917  11.966   3.063  1.00  0.00    -0.206 F 
ATOM     63  C   UNL     1       3.344  12.856   5.159  1.00  0.00     0.040 A 
ATOM     64  C   UNL     1       1.422  14.291   5.373  1.00  0.00     0.040 A 
ATOM     65  F   UNL     1       0.105  14.780   3.494  1.00  0.00    -0.206 F 
ATOM     66  C   UNL     1       2.508  13.639   5.954  1.00  0.00     0.006 A 
ENDBRANCH  45  59
BRANCH  46  67
ATOM     67  C   UNL     1      -0.175  12.037  -6.468  1.00  0.00     0.057 A 
ATOM     68  C   UNL     1       0.814  11.980  -7.456  1.00  0.00     0.134 A 
ATOM     69  C   UNL     1      -1.508  11.912  -6.878  1.00  0.00     0.134 A 
ATOM     70  F   UNL     1       2.106  12.116  -7.125  1.00  0.00    -0.206 F 
ATOM     71  C   UNL     1       0.490  11.812  -8.803  1.00  0.00     0.040 A 
ATOM     72  C   UNL     1      -1.845  11.723  -8.219  1.00  0.00     0.040 A 
ATOM     73  F   UNL     1      -2.501  11.959  -5.978  1.00  0.00    -0.206 F 
ATOM     74  C   UNL     1      -0.843  11.677  -9.187  1.00  0.00     0.006 A 
ENDBRANCH  46  67
BRANCH  58  75
ATOM     75  C   UNL     1       2.295  17.404  -2.783  1.00  0.00     0.057 A 
ATOM     76  C   UNL     1       1.351  18.398  -3.066  1.00  0.00     0.134 A 
ATOM     77  C   UNL     1       3.648  17.760  -2.830  1.00  0.00     0.134 A 
ATOM     78  F   UNL     1       0.039  18.115  -3.050  1.00  0.00    -0.206 F 
ATOM     79  C   UNL     1       1.740  19.697  -3.397  1.00  0.00     0.040 A 
ATOM     80  C   UNL     1       4.049  19.060  -3.140  1.00  0.00     0.040 A 
ATOM     81  F   UNL     1       4.601  16.853  -2.563  1.00  0.00    -0.206 F 
ATOM     82  C   UNL     1       3.093  20.032  -3.428  1.00  0.00     0.006 A 
ENDBRANCH  58  75
ENDBRANCH  32  33
ENDBRANCH  25  27
ENDBRANCH  24  25
ENDBRANCH  23  24
ENDBRANCH   1  23
TORSDOF 15
