REMARK SMILES CCCC(=O)N(c1cc2sc(=O)oc2c2ccccc12)S(=O)(=O)c1ccc(C(=O)OCCOC(=O)c2ccc(-c3c4nc(c(-c5c(F)cccc5F)c5ccc([nH]5)c(-c5c(F)cccc5F)c5nc(c(-c6c(F)cccc6F)c6ccc3[nH]6)C=C5)C=C4)cc2)cc1
REMARK SMILES IDX 30 1 28 2 29 3 27 4 24 5 25 6 91 7 26 8 90 9 21 10 22 11
REMARK SMILES IDX 23 12 6 13 4 14 5 15 3 16 2 17 1 18 7 19 8 20 20 21 9 22
REMARK SMILES IDX 15 23 19 24 10 25 14 26 16 27 18 28 11 29 13 30 17 31 12 32
REMARK SMILES IDX 31 33 32 34 33 35 34 36 35 37 36 38 37 39 89 40 38 41 88 42
REMARK SMILES IDX 39 43 40 44 41 45 82 46 42 47 87 48 81 49 83 50 43 51 86 52
REMARK SMILES IDX 80 53 79 54 44 56 70 57 53 58 69 59 54 60 57 61 68 62 84 63
REMARK SMILES IDX 55 64 56 65 67 67 85 68 58 69 45 70 46 71 51 72 47 73 48 74
REMARK SMILES IDX 50 75 52 76 49 77 71 78 72 79 77 80 73 81 74 82 76 83 78 84
REMARK SMILES IDX 75 85 59 86 60 87 65 88 61 89 62 90 64 91 66 92 63 93
REMARK H PARENT 83 55 57 66
REMARK Flexibility Score: inf
ROOT
ATOM      1  O   UNL     1       1.566  -9.105  -0.954  1.00  0.00    -0.458 OA
ENDROOT
BRANCH   1   2
ATOM      2  C   UNL     1       1.287  -8.076  -0.122  1.00  0.00     0.338 C 
ATOM      3  O   UNL     1       1.440  -8.068   1.090  1.00  0.00    -0.246 OA
BRANCH   2   4
ATOM      4  C   UNL     1       0.875  -6.863  -0.867  1.00  0.00     0.060 A 
ATOM      5  C   UNL     1       0.171  -4.404  -2.106  1.00  0.00     0.088 A 
ATOM      6  C   UNL     1       0.906  -4.439  -0.928  1.00  0.00     0.023 A 
ATOM      7  C   UNL     1      -0.268  -5.636  -2.630  1.00  0.00     0.023 A 
ATOM      8  C   UNL     1       1.285  -5.644  -0.335  1.00  0.00     0.017 A 
ATOM      9  C   UNL     1       0.074  -6.861  -2.011  1.00  0.00     0.017 A 
BRANCH   5  10
ATOM     10  S   UNL     1      -0.170  -2.914  -3.097  1.00  0.00     0.270 S 
ATOM     11  O   UNL     1      -1.606  -2.941  -3.291  1.00  0.00    -0.201 OA
ATOM     12  O   UNL     1       0.742  -3.030  -4.220  1.00  0.00    -0.201 OA
BRANCH  10  13
ATOM     13  N   UNL     1       0.219  -1.436  -2.314  1.00  0.00    -0.202 N 
BRANCH  13  14
ATOM     14  C   UNL     1       0.031  -0.195  -3.031  1.00  0.00     0.241 C 
ATOM     15  O   UNL     1      -0.871  -0.070  -3.855  1.00  0.00    -0.273 OA
BRANCH  14  16
ATOM     16  C   UNL     1       1.005   0.987  -2.822  1.00  0.00     0.101 C 
BRANCH  16  17
ATOM     17  C   UNL     1       0.762   1.891  -1.607  1.00  0.00     0.006 C 
ATOM     18  C   UNL     1       1.980   2.024  -0.694  1.00  0.00     0.004 C 
ENDBRANCH  16  17
ENDBRANCH  14  16
ENDBRANCH  13  14
BRANCH  13  19
ATOM     19  C   UNL     1       1.233  -1.426  -1.325  1.00  0.00     0.070 A 
ATOM     20  C   UNL     1       2.540  -1.789  -1.667  1.00  0.00     0.051 A 
ATOM     21  C   UNL     1       0.857  -1.051   0.004  1.00  0.00     0.010 A 
ATOM     22  C   UNL     1       3.431  -1.979  -0.636  1.00  0.00     0.080 A 
ATOM     23  C   UNL     1       1.831  -1.128   1.018  1.00  0.00     0.028 A 
ATOM     24  C   UNL     1      -0.442  -0.591   0.347  1.00  0.00     0.011 A 
ATOM     25  S   UNL     1       5.019  -2.692  -0.754  1.00  0.00    -0.052 S 
ATOM     26  C   UNL     1       3.071  -1.715   0.683  1.00  0.00     0.157 A 
ATOM     27  C   UNL     1       1.515  -0.592   2.284  1.00  0.00     0.013 A 
ATOM     28  C   UNL     1      -0.722  -0.051   1.600  1.00  0.00     0.001 A 
ATOM     29  C   UNL     1       5.062  -2.746   1.008  1.00  0.00     0.396 A 
ATOM     30  O   UNL     1       3.979  -2.152   1.656  1.00  0.00    -0.413 OA
ATOM     31  C   UNL     1       0.270  -0.024   2.563  1.00  0.00     0.001 A 
ATOM     32  O   UNL     1       5.998  -3.274   1.587  1.00  0.00    -0.233 OA
ENDBRANCH  13  19
ENDBRANCH  10  13
ENDBRANCH   5  10
ENDBRANCH   2   4
ENDBRANCH   1   2
BRANCH   1  33
ATOM     33  C   UNL     1       2.202 -10.242  -0.331  1.00  0.00     0.275 C 
BRANCH  33  34
ATOM     34  C   UNL     1       3.708 -10.238  -0.602  1.00  0.00     0.275 C 
BRANCH  34  35
ATOM     35  O   UNL     1       4.402  -9.427   0.362  1.00  0.00    -0.458 OA
BRANCH  35  36
ATOM     36  C   UNL     1       4.662  -8.151   0.013  1.00  0.00     0.338 C 
ATOM     37  O   UNL     1       4.415  -7.589  -1.045  1.00  0.00    -0.246 OA
BRANCH  36  38
ATOM     38  C   UNL     1       5.253  -7.498   1.184  1.00  0.00     0.060 A 
ATOM     39  C   UNL     1       6.622  -7.604   1.432  1.00  0.00     0.016 A 
ATOM     40  C   UNL     1       4.415  -6.804   2.059  1.00  0.00     0.016 A 
ATOM     41  C   UNL     1       7.149  -7.015   2.582  1.00  0.00     0.010 A 
ATOM     42  C   UNL     1       4.944  -6.209   3.198  1.00  0.00     0.010 A 
ATOM     43  C   UNL     1       6.313  -6.311   3.466  1.00  0.00    -0.014 A 
BRANCH  43  44
ATOM     44  C   UNL     1       6.926  -5.658   4.640  1.00  0.00     0.031 A 
ATOM     45  C   UNL     1       6.739  -4.167   4.689  1.00  0.00     0.074 A 
ATOM     46  C   UNL     1       7.046  -6.330   5.808  1.00  0.00     0.049 A 
ATOM     47  N   UNL     1       5.604  -3.605   4.997  1.00  0.00    -0.248 NA
ATOM     48  C   UNL     1       7.733  -3.222   4.180  1.00  0.00     0.031 C 
ATOM     49  C   UNL     1       6.129  -7.396   6.237  1.00  0.00     0.029 A 
ATOM     50  N   UNL     1       7.830  -6.101   6.918  1.00  0.00    -0.354 N 
ATOM     51  C   UNL     1       5.703  -2.257   4.690  1.00  0.00     0.074 A 
ATOM     52  C   UNL     1       7.049  -2.064   4.199  1.00  0.00     0.031 C 
ATOM     53  C   UNL     1       6.277  -7.588   7.562  1.00  0.00     0.029 A 
ATOM     54  C   UNL     1       7.381  -6.767   8.059  1.00  0.00     0.049 A 
ATOM     55  H   UNL     1       8.629  -5.524   6.907  1.00  0.00     0.167 HD
ATOM     56  C   UNL     1       4.665  -1.392   4.861  1.00  0.00     0.037 A 
ATOM     57  C   UNL     1       7.413  -6.245   9.319  1.00  0.00     0.037 A 
ATOM     58  C   UNL     1       3.474  -1.991   5.419  1.00  0.00     0.049 A 
ATOM     59  C   UNL     1       6.364  -5.169   9.221  1.00  0.00     0.074 A 
ATOM     60  C   UNL     1       2.313  -2.584   4.965  1.00  0.00     0.029 A 
ATOM     61  N   UNL     1       3.427  -2.160   6.785  1.00  0.00    -0.354 N 
ATOM     62  N   UNL     1       5.073  -5.351   9.258  1.00  0.00    -0.248 NA
ATOM     63  C   UNL     1       6.787  -3.865   8.708  1.00  0.00     0.031 C 
ATOM     64  C   UNL     1       1.838  -3.409   6.030  1.00  0.00     0.029 A 
ATOM     65  C   UNL     1       2.815  -3.367   7.016  1.00  0.00     0.049 A 
ATOM     66  H   UNL     1       3.767  -1.534   7.465  1.00  0.00     0.167 HD
ATOM     67  C   UNL     1       4.530  -4.292   8.531  1.00  0.00     0.074 A 
ATOM     68  C   UNL     1       5.635  -3.398   8.248  1.00  0.00     0.031 C 
ATOM     69  C   UNL     1       3.262  -4.291   8.030  1.00  0.00     0.037 A 
BRANCH  56  70
ATOM     70  C   UNL     1       4.712   0.087   4.697  1.00  0.00     0.057 A 
ATOM     71  C   UNL     1       4.585   0.753   3.475  1.00  0.00     0.134 A 
ATOM     72  C   UNL     1       4.600   0.871   5.854  1.00  0.00     0.134 A 
ATOM     73  F   UNL     1       4.756   0.111   2.314  1.00  0.00    -0.206 F 
ATOM     74  C   UNL     1       4.208   2.100   3.409  1.00  0.00     0.040 A 
ATOM     75  C   UNL     1       4.252   2.221   5.805  1.00  0.00     0.040 A 
ATOM     76  F   UNL     1       4.775   0.312   7.063  1.00  0.00    -0.206 F 
ATOM     77  C   UNL     1       4.015   2.830   4.578  1.00  0.00     0.006 A 
ENDBRANCH  56  70
BRANCH  57  78
ATOM     78  C   UNL     1       8.751  -6.012   9.942  1.00  0.00     0.057 A 
ATOM     79  C   UNL     1       9.134  -4.857  10.639  1.00  0.00     0.134 A 
ATOM     80  C   UNL     1       9.717  -7.032   9.879  1.00  0.00     0.134 A 
ATOM     81  F   UNL     1       8.261  -3.874  10.895  1.00  0.00    -0.206 F 
ATOM     82  C   UNL     1      10.441  -4.663  11.100  1.00  0.00     0.040 A 
ATOM     83  C   UNL     1      11.019  -6.866  10.360  1.00  0.00     0.040 A 
ATOM     84  F   UNL     1       9.411  -8.227   9.349  1.00  0.00    -0.206 F 
ATOM     85  C   UNL     1      11.395  -5.663  10.944  1.00  0.00     0.006 A 
ENDBRANCH  57  78
BRANCH  69  86
ATOM     86  C   UNL     1       2.440  -5.491   8.366  1.00  0.00     0.057 A 
ATOM     87  C   UNL     1       2.079  -6.436   7.392  1.00  0.00     0.134 A 
ATOM     88  C   UNL     1       2.002  -5.716   9.673  1.00  0.00     0.134 A 
ATOM     89  F   UNL     1       2.480  -6.306   6.117  1.00  0.00    -0.206 F 
ATOM     90  C   UNL     1       1.281  -7.539   7.702  1.00  0.00     0.040 A 
ATOM     91  C   UNL     1       1.231  -6.833  10.001  1.00  0.00     0.040 A 
ATOM     92  F   UNL     1       2.301  -4.846  10.651  1.00  0.00    -0.206 F 
ATOM     93  C   UNL     1       0.859  -7.743   9.013  1.00  0.00     0.006 A 
ENDBRANCH  69  86
ENDBRANCH  43  44
ENDBRANCH  36  38
ENDBRANCH  35  36
ENDBRANCH  34  35
ENDBRANCH  33  34
ENDBRANCH   1  33
TORSDOF 17
