REMARK SMILES Cc1cc(NC(=O)c2ccc(Br)cc2N)ccc1C(=O)OCCOC(=O)c1ccc(-c2c3nc(c(-c4c(F)cccc4F)c4ccc([nH]4)c(-c4c(F)cccc4F)c4nc(c(-c5c(F)cccc5F)c5ccc2[nH]5)C=C4)C=C3)cc1
REMARK SMILES IDX 22 1 21 2 19 3 20 4 18 5 1 6 2 7 3 8 4 9 17 10 16 11 5 12
REMARK SMILES IDX 6 13 7 15 8 16 9 17 14 18 10 19 13 20 11 21 12 22 15 23
REMARK SMILES IDX 23 26 24 27 25 28 26 29 27 30 28 31 80 32 29 33 79 34 30 35
REMARK SMILES IDX 31 36 32 37 73 38 33 39 78 40 72 41 74 42 34 43 77 44 71 45
REMARK SMILES IDX 70 46 35 48 61 49 44 50 60 51 45 52 48 53 59 54 75 55 46 56
REMARK SMILES IDX 47 57 58 59 76 60 49 61 36 62 37 63 42 64 38 65 39 66 41 67
REMARK SMILES IDX 43 68 40 69 62 70 63 71 68 72 64 73 65 74 67 75 69 76 66 77
REMARK SMILES IDX 50 78 51 79 56 80 52 81 53 82 55 83 57 84 54 85
REMARK H PARENT 5 14 15 24 15 25 74 47 48 58
REMARK Flexibility Score: inf
ROOT
ATOM      1  C   UNL     1       3.209   2.884  -2.156  1.00  0.00     0.275 C 
ENDROOT
BRANCH   1   2
ATOM      2  O   UNL     1       2.103   1.971  -2.208  1.00  0.00    -0.458 OA
BRANCH   2   3
ATOM      3  C   UNL     1       2.005   1.229  -1.079  1.00  0.00     0.338 C 
ATOM      4  O   UNL     1       2.693   1.349  -0.076  1.00  0.00    -0.246 OA
BRANCH   3   5
ATOM      5  C   UNL     1       1.062   0.110  -1.191  1.00  0.00     0.063 A 
ATOM      6  C   UNL     1       3.024  -1.494  -0.794  1.00  0.00     0.045 C 
ATOM      7  C   UNL     1       1.564  -1.177  -0.965  1.00  0.00    -0.035 A 
ATOM      8  C   UNL     1       0.657  -2.225  -0.808  1.00  0.00     0.030 A 
ATOM      9  C   UNL     1      -0.717  -1.998  -0.755  1.00  0.00     0.041 A 
ATOM     10  C   UNL     1      -0.319   0.325  -1.309  1.00  0.00     0.018 A 
ATOM     11  C   UNL     1      -1.211  -0.733  -1.081  1.00  0.00     0.027 A 
BRANCH   9  12
ATOM     12  N   UNL     1      -1.613  -3.003  -0.346  1.00  0.00    -0.322 N 
ATOM     13  C   UNL     1      -1.363  -4.127   0.427  1.00  0.00     0.257 C 
ATOM     14  H   UNL     1      -2.543  -2.893  -0.650  1.00  0.00     0.170 HD
ATOM     15  O   UNL     1      -2.158  -5.065   0.423  1.00  0.00    -0.269 OA
BRANCH  13  16
ATOM     16  C   UNL     1      -0.164  -4.202   1.312  1.00  0.00     0.063 A 
ATOM     17  C   UNL     1       0.650  -5.341   1.175  1.00  0.00     0.017 A 
ATOM     18  C   UNL     1       0.183  -3.181   2.225  1.00  0.00     0.045 A 
ATOM     19  C   UNL     1       1.826  -5.459   1.917  1.00  0.00     0.016 A 
ATOM     20  C   UNL     1       1.353  -3.337   2.984  1.00  0.00     0.042 A 
ATOM     21  C   UNL     1       2.173  -4.454   2.816  1.00  0.00     0.020 A 
ATOM     22  Br  UNL     1       3.765  -4.604   3.826  1.00  0.00    -0.051 Br
BRANCH  18  23
ATOM     23  N   UNL     1      -0.635  -2.088   2.500  1.00  0.00    -0.398 N 
ATOM     24  H   UNL     1      -1.463  -1.951   1.985  1.00  0.00     0.156 HD
ATOM     25  H   UNL     1      -0.385  -1.452   3.209  1.00  0.00     0.156 HD
ENDBRANCH  18  23
ENDBRANCH  13  16
ENDBRANCH   9  12
ENDBRANCH   3   5
ENDBRANCH   2   3
ENDBRANCH   1   2
BRANCH   1  26
ATOM     26  C   UNL     1       2.942   4.216  -2.862  1.00  0.00     0.275 C 
BRANCH  26  27
ATOM     27  O   UNL     1       1.579   4.730  -2.934  1.00  0.00    -0.458 OA
BRANCH  27  28
ATOM     28  C   UNL     1       0.556   4.592  -2.061  1.00  0.00     0.338 C 
ATOM     29  O   UNL     1      -0.619   4.652  -2.416  1.00  0.00    -0.246 OA
BRANCH  28  30
ATOM     30  C   UNL     1       0.876   4.348  -0.651  1.00  0.00     0.060 A 
ATOM     31  C   UNL     1       0.022   3.532   0.115  1.00  0.00     0.016 A 
ATOM     32  C   UNL     1       2.052   4.864  -0.119  1.00  0.00     0.016 A 
ATOM     33  C   UNL     1       0.395   3.149   1.393  1.00  0.00     0.010 A 
ATOM     34  C   UNL     1       2.502   4.363   1.071  1.00  0.00     0.010 A 
ATOM     35  C   UNL     1       1.643   3.566   1.845  1.00  0.00    -0.014 A 
BRANCH  35  36
ATOM     36  C   UNL     1       2.006   3.574   3.248  1.00  0.00     0.031 A 
ATOM     37  C   UNL     1       2.604   2.393   3.880  1.00  0.00     0.074 A 
ATOM     38  C   UNL     1       1.861   4.823   3.746  1.00  0.00     0.049 A 
ATOM     39  N   UNL     1       2.537   2.129   5.136  1.00  0.00    -0.248 NA
ATOM     40  C   UNL     1       3.279   1.336   3.131  1.00  0.00     0.031 C 
ATOM     41  C   UNL     1       2.355   5.473   4.939  1.00  0.00     0.029 A 
ATOM     42  N   UNL     1       1.020   5.794   3.167  1.00  0.00    -0.354 N 
ATOM     43  C   UNL     1       3.476   1.144   5.390  1.00  0.00     0.074 A 
ATOM     44  C   UNL     1       3.738   0.546   4.109  1.00  0.00     0.031 C 
ATOM     45  C   UNL     1       1.585   6.558   5.177  1.00  0.00     0.029 A 
ATOM     46  C   UNL     1       0.493   6.552   4.205  1.00  0.00     0.049 A 
ATOM     47  H   UNL     1       0.839   5.914   2.207  1.00  0.00     0.167 HD
ATOM     48  C   UNL     1       4.089   1.136   6.612  1.00  0.00     0.037 A 
ATOM     49  C   UNL     1      -0.833   6.370   4.480  1.00  0.00     0.037 A 
ATOM     50  C   UNL     1       3.539   2.234   7.409  1.00  0.00     0.049 A 
ATOM     51  C   UNL     1      -0.962   5.668   5.809  1.00  0.00     0.074 A 
ATOM     52  C   UNL     1       3.981   3.535   7.587  1.00  0.00     0.029 A 
ATOM     53  N   UNL     1       2.198   2.214   7.772  1.00  0.00    -0.354 N 
ATOM     54  N   UNL     1      -0.141   4.746   6.244  1.00  0.00    -0.248 NA
ATOM     55  C   UNL     1      -1.944   6.083   6.802  1.00  0.00     0.031 C 
ATOM     56  C   UNL     1       2.859   4.322   7.962  1.00  0.00     0.029 A 
ATOM     57  C   UNL     1       1.743   3.500   8.004  1.00  0.00     0.049 A 
ATOM     58  H   UNL     1       1.649   1.401   7.854  1.00  0.00     0.167 HD
ATOM     59  C   UNL     1      -0.398   4.525   7.572  1.00  0.00     0.074 A 
ATOM     60  C   UNL     1      -1.551   5.362   7.864  1.00  0.00     0.031 C 
ATOM     61  C   UNL     1       0.362   3.733   8.385  1.00  0.00     0.037 A 
BRANCH  48  62
ATOM     62  C   UNL     1       5.379   0.425   6.991  1.00  0.00     0.057 A 
ATOM     63  C   UNL     1       6.103   0.841   8.133  1.00  0.00     0.134 A 
ATOM     64  C   UNL     1       5.988  -0.633   6.293  1.00  0.00     0.134 A 
ATOM     65  F   UNL     1       5.631   1.783   8.961  1.00  0.00    -0.206 F 
ATOM     66  C   UNL     1       7.350   0.311   8.497  1.00  0.00     0.040 A 
ATOM     67  C   UNL     1       7.245  -1.162   6.636  1.00  0.00     0.040 A 
ATOM     68  F   UNL     1       5.389  -1.247   5.269  1.00  0.00    -0.206 F 
ATOM     69  C   UNL     1       7.938  -0.684   7.737  1.00  0.00     0.006 A 
ENDBRANCH  48  62
BRANCH  49  70
ATOM     70  C   UNL     1      -1.697   6.152   3.265  1.00  0.00     0.057 A 
ATOM     71  C   UNL     1      -1.622   7.085   2.204  1.00  0.00     0.134 A 
ATOM     72  C   UNL     1      -2.389   4.970   2.986  1.00  0.00     0.134 A 
ATOM     73  F   UNL     1      -0.993   8.259   2.384  1.00  0.00    -0.206 F 
ATOM     74  C   UNL     1      -2.101   6.814   0.916  1.00  0.00     0.040 A 
ATOM     75  C   UNL     1      -2.901   4.697   1.702  1.00  0.00     0.040 A 
ATOM     76  F   UNL     1      -2.528   4.019   3.919  1.00  0.00    -0.206 F 
ATOM     77  C   UNL     1      -2.728   5.604   0.656  1.00  0.00     0.006 A 
ENDBRANCH  49  70
BRANCH  61  78
ATOM     78  C   UNL     1      -0.117   3.175   9.698  1.00  0.00     0.057 A 
ATOM     79  C   UNL     1      -1.469   2.936   9.981  1.00  0.00     0.134 A 
ATOM     80  C   UNL     1       0.797   2.677  10.653  1.00  0.00     0.134 A 
ATOM     81  F   UNL     1      -2.437   3.228   9.101  1.00  0.00    -0.206 F 
ATOM     82  C   UNL     1      -1.888   2.325  11.165  1.00  0.00     0.040 A 
ATOM     83  C   UNL     1       0.392   1.996  11.800  1.00  0.00     0.040 A 
ATOM     84  F   UNL     1       2.124   2.794  10.499  1.00  0.00    -0.206 F 
ATOM     85  C   UNL     1      -0.957   1.839  12.072  1.00  0.00     0.006 A 
ENDBRANCH  61  78
ENDBRANCH  35  36
ENDBRANCH  28  30
ENDBRANCH  27  28
ENDBRANCH  26  27
ENDBRANCH   1  26
TORSDOF 14
