REMARK SMILES Cc1ccc([C@@H](CC(=O)OCCOC(=O)c2ccc(-c3c4nc(c(-c5c(F)cccc5F)c5ccc([nH]5)c(-c5c(F)cccc5F)c5nc(c(-c6c(F)cccc6F)c6ccc3[nH]6)C=C5)C=C4)cc2)NC(=O)c2ccc(OC(F)F)cc2)cc1
REMARK SMILES IDX 10 1 8 2 9 3 7 4 6 5 5 6 1 7 2 8 3 9 84 10 4 11 83 12 70 13
REMARK SMILES IDX 71 14 72 16 73 17 74 18 82 19 75 20 81 21 76 22 77 23 78 24
REMARK SMILES IDX 79 25 80 26 11 27 12 28 13 29 14 30 15 31 16 32 17 33 69 34
REMARK SMILES IDX 18 35 68 36 19 37 20 38 21 39 62 40 22 41 67 42 61 43 63 44
REMARK SMILES IDX 23 45 66 46 60 47 59 48 24 50 50 51 33 52 49 53 34 54 37 55
REMARK SMILES IDX 48 56 64 57 35 58 36 59 47 61 65 62 38 63 25 64 26 65 31 66
REMARK SMILES IDX 27 67 28 68 30 69 32 70 29 71 51 72 52 73 57 74 53 75 54 76
REMARK SMILES IDX 56 77 58 78 55 79 39 80 40 81 45 82 41 83 42 84 44 85 46 86
REMARK SMILES IDX 43 87
REMARK H PARENT 70 15 63 49 37 60
REMARK Flexibility Score: inf
ROOT
ATOM      1  O   UNL     1      -2.024  -2.000   0.249  1.00  0.00    -0.462 OA
ENDROOT
BRANCH   1   2
ATOM      2  C   UNL     1      -1.676  -1.084  -0.689  1.00  0.00     0.308 C 
ATOM      3  O   UNL     1      -0.722  -1.194  -1.443  1.00  0.00    -0.252 OA
BRANCH   2   4
ATOM      4  C   UNL     1      -2.625   0.095  -0.645  1.00  0.00     0.152 C 
BRANCH   4   5
ATOM      5  C   UNL     1      -2.699   0.727   0.766  1.00  0.00     0.123 C 
BRANCH   5   6
ATOM      6  C   UNL     1      -1.233   0.924   1.210  1.00  0.00    -0.025 A 
ATOM      7  C   UNL     1       2.865   0.248   0.185  1.00  0.00     0.044 C 
ATOM      8  C   UNL     1       1.519   0.606   0.744  1.00  0.00    -0.051 A 
ATOM      9  C   UNL     1       0.843  -0.281   1.585  1.00  0.00     0.004 A 
ATOM     10  C   UNL     1       0.857   1.753   0.298  1.00  0.00     0.004 A 
ATOM     11  C   UNL     1      -0.516  -0.097   1.861  1.00  0.00     0.006 A 
ATOM     12  C   UNL     1      -0.506   1.924   0.543  1.00  0.00     0.006 A 
ENDBRANCH   5   6
BRANCH   5  13
ATOM     13  N   UNL     1      -3.501  -0.066   1.696  1.00  0.00    -0.345 N 
ATOM     14  C   UNL     1      -4.746   0.147   2.229  1.00  0.00     0.251 C 
ATOM     15  H   UNL     1      -3.071  -0.900   1.992  1.00  0.00     0.164 HD
ATOM     16  O   UNL     1      -5.049  -0.433   3.270  1.00  0.00    -0.269 OA
BRANCH  14  17
ATOM     17  C   UNL     1      -5.749   1.031   1.589  1.00  0.00     0.040 A 
ATOM     18  C   UNL     1      -6.574   1.808   2.407  1.00  0.00     0.017 A 
ATOM     19  C   UNL     1      -6.021   0.971   0.221  1.00  0.00     0.017 A 
ATOM     20  C   UNL     1      -7.629   2.542   1.852  1.00  0.00     0.047 A 
ATOM     21  C   UNL     1      -7.073   1.712  -0.335  1.00  0.00     0.047 A 
ATOM     22  C   UNL     1      -7.886   2.500   0.478  1.00  0.00     0.126 A 
BRANCH  22  23
ATOM     23  O   UNL     1      -8.958   3.243   0.073  1.00  0.00    -0.435 OA
BRANCH  23  24
ATOM     24  C   UNL     1      -9.312   3.228  -1.304  1.00  0.00     0.542 C 
ATOM     25  F   UNL     1      -8.279   3.690  -2.051  1.00  0.00    -0.167 F 
ATOM     26  F   UNL     1      -9.590   1.963  -1.702  1.00  0.00    -0.167 F 
ENDBRANCH  23  24
ENDBRANCH  22  23
ENDBRANCH  14  17
ENDBRANCH   5  13
ENDBRANCH   4   5
ENDBRANCH   2   4
ENDBRANCH   1   2
BRANCH   1  27
ATOM     27  C   UNL     1      -1.184  -3.145   0.357  1.00  0.00     0.274 C 
BRANCH  27  28
ATOM     28  C   UNL     1      -1.899  -4.208   1.199  1.00  0.00     0.275 C 
BRANCH  28  29
ATOM     29  O   UNL     1      -3.351  -4.081   1.409  1.00  0.00    -0.458 OA
BRANCH  29  30
ATOM     30  C   UNL     1      -4.376  -3.726   0.573  1.00  0.00     0.338 C 
ATOM     31  O   UNL     1      -5.481  -3.442   0.966  1.00  0.00    -0.246 OA
BRANCH  30  32
ATOM     32  C   UNL     1      -4.078  -3.652  -0.867  1.00  0.00     0.060 A 
ATOM     33  C   UNL     1      -4.595  -2.612  -1.665  1.00  0.00     0.016 A 
ATOM     34  C   UNL     1      -3.153  -4.540  -1.368  1.00  0.00     0.016 A 
ATOM     35  C   UNL     1      -4.072  -2.396  -2.941  1.00  0.00     0.010 A 
ATOM     36  C   UNL     1      -2.462  -4.159  -2.480  1.00  0.00     0.010 A 
ATOM     37  C   UNL     1      -2.976  -3.162  -3.322  1.00  0.00    -0.014 A 
BRANCH  37  38
ATOM     38  C   UNL     1      -2.430  -3.262  -4.667  1.00  0.00     0.031 A 
ATOM     39  C   UNL     1      -1.648  -2.201  -5.309  1.00  0.00     0.074 A 
ATOM     40  C   UNL     1      -2.567  -4.517  -5.161  1.00  0.00     0.049 A 
ATOM     41  N   UNL     1      -1.511  -2.102  -6.583  1.00  0.00    -0.248 NA
ATOM     42  C   UNL     1      -0.937  -1.149  -4.593  1.00  0.00     0.031 C 
ATOM     43  C   UNL     1      -1.943  -5.217  -6.263  1.00  0.00     0.029 A 
ATOM     44  N   UNL     1      -3.498  -5.455  -4.676  1.00  0.00    -0.354 N 
ATOM     45  C   UNL     1      -0.422  -1.284  -6.807  1.00  0.00     0.074 A 
ATOM     46  C   UNL     1      -0.197  -0.597  -5.562  1.00  0.00     0.031 C 
ATOM     47  C   UNL     1      -2.719  -6.279  -6.577  1.00  0.00     0.029 A 
ATOM     48  C   UNL     1      -3.935  -6.193  -5.770  1.00  0.00     0.049 A 
ATOM     49  H   UNL     1      -3.785  -5.567  -3.741  1.00  0.00     0.167 HD
ATOM     50  C   UNL     1       0.293  -1.449  -7.955  1.00  0.00     0.037 A 
ATOM     51  C   UNL     1      -5.208  -5.925  -6.188  1.00  0.00     0.037 A 
ATOM     52  C   UNL     1      -0.288  -2.531  -8.751  1.00  0.00     0.049 A 
ATOM     53  C   UNL     1      -5.201  -5.220  -7.529  1.00  0.00     0.074 A 
ATOM     54  C   UNL     1       0.025  -3.870  -8.917  1.00  0.00     0.029 A 
ATOM     55  N   UNL     1      -1.595  -2.399  -9.180  1.00  0.00    -0.354 N 
ATOM     56  N   UNL     1      -4.138  -4.690  -8.071  1.00  0.00    -0.248 NA
ATOM     57  C   UNL     1      -6.391  -5.023  -8.346  1.00  0.00     0.031 C 
ATOM     58  C   UNL     1      -1.117  -4.532  -9.460  1.00  0.00     0.029 A 
ATOM     59  C   UNL     1      -2.121  -3.595  -9.620  1.00  0.00     0.049 A 
ATOM     60  H   UNL     1      -2.093  -1.550  -9.171  1.00  0.00     0.167 HD
ATOM     61  C   UNL     1      -4.446  -4.147  -9.283  1.00  0.00     0.074 A 
ATOM     62  C   UNL     1      -5.886  -4.330  -9.383  1.00  0.00     0.031 C 
ATOM     63  C   UNL     1      -3.494  -3.601 -10.101  1.00  0.00     0.037 A 
BRANCH  50  64
ATOM     64  C   UNL     1       1.655  -0.850  -8.212  1.00  0.00     0.057 A 
ATOM     65  C   UNL     1       2.610  -1.538  -8.988  1.00  0.00     0.134 A 
ATOM     66  C   UNL     1       2.086   0.401  -7.734  1.00  0.00     0.134 A 
ATOM     67  F   UNL     1       2.334  -2.710  -9.571  1.00  0.00    -0.206 F 
ATOM     68  C   UNL     1       3.908  -1.062  -9.208  1.00  0.00     0.040 A 
ATOM     69  C   UNL     1       3.397   0.876  -7.921  1.00  0.00     0.040 A 
ATOM     70  F   UNL     1       1.248   1.234  -7.101  1.00  0.00    -0.206 F 
ATOM     71  C   UNL     1       4.316   0.139  -8.655  1.00  0.00     0.006 A 
ENDBRANCH  50  64
BRANCH  51  72
ATOM     72  C   UNL     1      -6.149  -5.630  -5.038  1.00  0.00     0.057 A 
ATOM     73  C   UNL     1      -6.219  -6.539  -3.954  1.00  0.00     0.134 A 
ATOM     74  C   UNL     1      -6.699  -4.364  -4.806  1.00  0.00     0.134 A 
ATOM     75  F   UNL     1      -5.704  -7.774  -4.075  1.00  0.00    -0.206 F 
ATOM     76  C   UNL     1      -6.699  -6.175  -2.688  1.00  0.00     0.040 A 
ATOM     77  C   UNL     1      -7.214  -3.999  -3.549  1.00  0.00     0.040 A 
ATOM     78  F   UNL     1      -6.675  -3.421  -5.758  1.00  0.00    -0.206 F 
ATOM     79  C   UNL     1      -7.180  -4.890  -2.477  1.00  0.00     0.006 A 
ENDBRANCH  51  72
BRANCH  63  80
ATOM     80  C   UNL     1      -3.779  -2.982 -11.444  1.00  0.00     0.057 A 
ATOM     81  C   UNL     1      -4.746  -3.481 -12.321  1.00  0.00     0.134 A 
ATOM     82  C   UNL     1      -3.017  -1.901 -11.947  1.00  0.00     0.134 A 
ATOM     83  F   UNL     1      -5.421  -4.606 -12.048  1.00  0.00    -0.206 F 
ATOM     84  C   UNL     1      -5.031  -2.864 -13.545  1.00  0.00     0.040 A 
ATOM     85  C   UNL     1      -3.252  -1.315 -13.188  1.00  0.00     0.040 A 
ATOM     86  F   UNL     1      -2.009  -1.343 -11.265  1.00  0.00    -0.206 F 
ATOM     87  C   UNL     1      -4.288  -1.773 -13.978  1.00  0.00     0.006 A 
ENDBRANCH  63  80
ENDBRANCH  37  38
ENDBRANCH  30  32
ENDBRANCH  29  30
ENDBRANCH  28  29
ENDBRANCH  27  28
ENDBRANCH   1  27
TORSDOF 17
