REMARK SMILES Cc1ccc(NC(=O)CN2C(=O)S/C(=C\c3cc(Cl)c(OCC(=O)OCCOC(=O)c4ccc(-c5c6nc(c(-c7c(F)cccc7F)c7ccc([nH]7)c(-c7c(F)cccc7F)c7nc(c(-c8c(F)cccc8F)c8ccc5[nH]8)C=C7)C=C6)cc4)c(Cl)c3)C2=O)cc1
REMARK SMILES IDX 23 1 24 2 22 3 21 4 20 5 16 6 17 7 87 8 18 9 85 10 19 11
REMARK SMILES IDX 86 12 15 13 10 14 11 15 88 16 12 17 13 18 14 19 89 20 9 21
REMARK SMILES IDX 7 22 6 23 8 25 5 26 1 27 2 28 3 29 91 30 4 31 90 32 25 33
REMARK SMILES IDX 26 34 27 35 28 36 29 37 30 38 31 39 32 40 84 41 33 42 83 43
REMARK SMILES IDX 34 44 35 45 36 46 77 47 37 48 82 49 76 50 78 51 38 52 81 53
REMARK SMILES IDX 75 54 74 55 39 57 65 58 48 59 64 60 49 61 52 62 63 63 79 64
REMARK SMILES IDX 50 65 51 66 62 68 80 69 53 70 40 71 41 72 46 73 42 74 43 75
REMARK SMILES IDX 45 76 47 77 44 78 66 79 67 80 72 81 68 82 69 83 71 84 73 85
REMARK SMILES IDX 70 86 54 87 55 88 60 89 56 90 57 91 59 92 61 93 58 94
REMARK H PARENT 6 24 78 56 52 67
REMARK Flexibility Score: inf
ROOT
ATOM      1  C   UNL     1      -7.907  -4.147 -10.313  1.00  0.00     0.344 C 
ATOM      2  O   UNL     1      -8.700  -4.004  -9.350  1.00  0.00    -0.248 OA
ENDROOT
BRANCH   1   3
ATOM      3  C   UNL     1      -6.479  -2.749 -11.236  1.00  0.00     0.352 C 
BRANCH   3   4
ATOM      4  O   UNL     1      -5.380  -1.673 -10.831  1.00  0.00    -0.479 OA
BRANCH   4   5
ATOM      5  C   UNL     1      -4.401  -1.792  -9.864  1.00  0.00     0.157 A 
ATOM      6  C   UNL     1      -2.828  -2.273  -7.463  1.00  0.00    -0.021 A 
ATOM      7  C   UNL     1      -2.467  -2.829  -8.706  1.00  0.00     0.032 A 
ATOM      8  C   UNL     1      -3.889  -1.362  -7.530  1.00  0.00     0.032 A 
ATOM      9  C   UNL     1      -3.254  -2.601  -9.889  1.00  0.00     0.085 A 
ATOM     10  C   UNL     1      -4.572  -1.035  -8.709  1.00  0.00     0.085 A 
ATOM     11  Cl  UNL     1      -2.726  -3.330 -11.364  1.00  0.00    -0.080 Cl
ATOM     12  Cl  UNL     1      -5.672   0.300  -8.635  1.00  0.00    -0.080 Cl
BRANCH   6  13
ATOM     13  C   UNL     1      -2.264  -2.736  -6.128  1.00  0.00     0.029 C 
ATOM     14  N   UNL     1      -3.025  -2.172  -2.603  1.00  0.00    -0.259 N 
ATOM     15  C   UNL     1      -3.847  -1.234  -3.151  1.00  0.00     0.294 C 
ATOM     16  C   UNL     1      -2.226  -2.829  -3.535  1.00  0.00     0.268 C 
ATOM     17  O   UNL     1      -4.960  -0.896  -2.794  1.00  0.00    -0.261 OA
ATOM     18  S   UNL     1      -3.070  -0.604  -4.568  1.00  0.00    -0.022 SA
ATOM     19  C   UNL     1      -2.401  -2.164  -4.904  1.00  0.00     0.083 C 
ATOM     20  O   UNL     1      -1.566  -3.838  -3.337  1.00  0.00    -0.268 OA
BRANCH  14  21
ATOM     21  C   UNL     1      -3.353  -2.674  -1.269  1.00  0.00     0.230 C 
BRANCH  21  22
ATOM     22  C   UNL     1      -3.788  -1.541  -0.302  1.00  0.00     0.244 C 
ATOM     23  N   UNL     1      -3.003  -0.444  -0.066  1.00  0.00    -0.325 N 
ATOM     24  H   UNL     1      -3.503   0.377   0.147  1.00  0.00     0.169 HD
ATOM     25  O   UNL     1      -4.899  -1.577   0.238  1.00  0.00    -0.273 OA
BRANCH  23  26
ATOM     26  C   UNL     1      -1.611  -0.292  -0.075  1.00  0.00     0.041 A 
ATOM     27  C   UNL     1       2.662   0.282  -0.017  1.00  0.00     0.044 C 
ATOM     28  C   UNL     1       1.173   0.113  -0.006  1.00  0.00    -0.051 A 
ATOM     29  C   UNL     1       0.636  -1.174   0.079  1.00  0.00     0.005 A 
ATOM     30  C   UNL     1       0.304   1.205  -0.083  1.00  0.00     0.005 A 
ATOM     31  C   UNL     1      -0.744  -1.371   0.059  1.00  0.00     0.026 A 
ATOM     32  C   UNL     1      -1.082   1.004  -0.104  1.00  0.00     0.026 A 
ENDBRANCH  23  26
ENDBRANCH  21  22
ENDBRANCH  14  21
ENDBRANCH   6  13
ENDBRANCH   4   5
ENDBRANCH   3   4
ENDBRANCH   1   3
BRANCH   1  33
ATOM     33  O   UNL     1      -7.990  -5.543 -10.662  1.00  0.00    -0.460 OA
BRANCH  33  34
ATOM     34  C   UNL     1      -8.231  -6.473  -9.598  1.00  0.00     0.274 C 
BRANCH  34  35
ATOM     35  C   UNL     1      -6.957  -6.620  -8.760  1.00  0.00     0.275 C 
BRANCH  35  36
ATOM     36  O   UNL     1      -6.640  -5.537  -7.839  1.00  0.00    -0.458 OA
BRANCH  36  37
ATOM     37  C   UNL     1      -6.067  -4.325  -8.042  1.00  0.00     0.338 C 
ATOM     38  O   UNL     1      -5.705  -3.627  -7.105  1.00  0.00    -0.246 OA
BRANCH  37  39
ATOM     39  C   UNL     1      -6.159  -3.707  -9.386  1.00  0.00     0.060 A 
ATOM     40  C   UNL     1      -7.358  -2.330  -9.402  1.00  0.00     0.016 A 
ATOM     41  C   UNL     1      -5.939  -4.713 -10.865  1.00  0.00     0.016 A 
ATOM     42  C   UNL     1      -8.511  -2.162 -10.774  1.00  0.00     0.010 A 
ATOM     43  C   UNL     1      -7.086  -4.495 -12.267  1.00  0.00     0.010 A 
ATOM     44  C   UNL     1      -8.430  -3.308 -12.142  1.00  0.00    -0.014 A 
BRANCH  44  45
ATOM     45  C   UNL     1      -9.687  -3.843 -12.724  1.00  0.00     0.031 A 
ATOM     46  C   UNL     1      -9.790  -3.803 -14.188  1.00  0.00     0.074 A 
ATOM     47  C   UNL     1     -10.638  -4.490 -11.989  1.00  0.00     0.049 A 
ATOM     48  N   UNL     1     -10.899  -3.763 -14.833  1.00  0.00    -0.248 NA
ATOM     49  C   UNL     1      -8.623  -3.680 -15.051  1.00  0.00     0.031 C 
ATOM     50  C   UNL     1     -11.672  -5.419 -12.469  1.00  0.00     0.029 A 
ATOM     51  N   UNL     1     -10.911  -4.474 -10.630  1.00  0.00    -0.354 N 
ATOM     52  C   UNL     1     -10.602  -3.950 -16.165  1.00  0.00     0.074 A 
ATOM     53  C   UNL     1      -9.190  -3.694 -16.259  1.00  0.00     0.031 C 
ATOM     54  C   UNL     1     -12.566  -5.662 -11.490  1.00  0.00     0.029 A 
ATOM     55  C   UNL     1     -12.233  -4.817 -10.363  1.00  0.00     0.049 A 
ATOM     56  H   UNL     1     -10.250  -4.246  -9.937  1.00  0.00     0.167 HD
ATOM     57  C   UNL     1     -11.565  -4.472 -16.977  1.00  0.00     0.037 A 
ATOM     58  C   UNL     1     -13.100  -3.984  -9.712  1.00  0.00     0.037 A 
ATOM     59  C   UNL     1     -12.793  -4.681 -16.201  1.00  0.00     0.049 A 
ATOM     60  C   UNL     1     -14.124  -3.422 -10.678  1.00  0.00     0.074 A 
ATOM     61  C   UNL     1     -13.335  -5.802 -15.596  1.00  0.00     0.029 A 
ATOM     62  N   UNL     1     -13.436  -3.584 -15.640  1.00  0.00    -0.354 N 
ATOM     63  N   UNL     1     -13.999  -3.548 -11.972  1.00  0.00    -0.248 NA
ATOM     64  C   UNL     1     -15.354  -2.720 -10.317  1.00  0.00     0.031 C 
ATOM     65  C   UNL     1     -14.279  -5.361 -14.627  1.00  0.00     0.029 A 
ATOM     66  C   UNL     1     -14.332  -3.977 -14.665  1.00  0.00     0.049 A 
ATOM     67  H   UNL     1     -13.274  -2.649 -15.904  1.00  0.00     0.167 HD
ATOM     68  C   UNL     1     -15.063  -2.988 -12.611  1.00  0.00     0.074 A 
ATOM     69  C   UNL     1     -15.893  -2.487 -11.530  1.00  0.00     0.031 C 
ATOM     70  C   UNL     1     -15.150  -2.985 -13.974  1.00  0.00     0.037 A 
BRANCH  57  71
ATOM     71  C   UNL     1     -11.358  -5.051 -18.365  1.00  0.00     0.057 A 
ATOM     72  C   UNL     1     -12.366  -5.847 -18.953  1.00  0.00     0.134 A 
ATOM     73  C   UNL     1     -10.214  -4.909 -19.173  1.00  0.00     0.134 A 
ATOM     74  F   UNL     1     -13.546  -6.048 -18.351  1.00  0.00    -0.206 F 
ATOM     75  C   UNL     1     -12.222  -6.481 -20.196  1.00  0.00     0.040 A 
ATOM     76  C   UNL     1     -10.050  -5.550 -20.411  1.00  0.00     0.040 A 
ATOM     77  F   UNL     1      -9.193  -4.117 -18.847  1.00  0.00    -0.206 F 
ATOM     78  C   UNL     1     -11.056  -6.345 -20.927  1.00  0.00     0.006 A 
ENDBRANCH  57  71
BRANCH  58  79
ATOM     79  C   UNL     1     -12.463  -3.298  -8.556  1.00  0.00     0.057 A 
ATOM     80  C   UNL     1     -12.084  -4.126  -7.479  1.00  0.00     0.134 A 
ATOM     81  C   UNL     1     -11.769  -2.096  -8.712  1.00  0.00     0.134 A 
ATOM     82  F   UNL     1     -12.742  -5.273  -7.249  1.00  0.00    -0.206 F 
ATOM     83  C   UNL     1     -10.927  -3.882  -6.737  1.00  0.00     0.040 A 
ATOM     84  C   UNL     1     -10.625  -1.827  -7.951  1.00  0.00     0.040 A 
ATOM     85  F   UNL     1     -12.074  -1.256  -9.711  1.00  0.00    -0.206 F 
ATOM     86  C   UNL     1     -10.167  -2.750  -7.008  1.00  0.00     0.006 A 
ENDBRANCH  58  79
BRANCH  70  87
ATOM     87  C   UNL     1     -16.068  -2.106 -14.787  1.00  0.00     0.057 A 
ATOM     88  C   UNL     1     -16.631  -0.912 -14.318  1.00  0.00     0.134 A 
ATOM     89  C   UNL     1     -16.298  -2.372 -16.159  1.00  0.00     0.134 A 
ATOM     90  F   UNL     1     -16.368  -0.439 -13.093  1.00  0.00    -0.206 F 
ATOM     91  C   UNL     1     -17.450  -0.104 -15.114  1.00  0.00     0.040 A 
ATOM     92  C   UNL     1     -17.036  -1.525 -16.985  1.00  0.00     0.040 A 
ATOM     93  F   UNL     1     -15.794  -3.451 -16.774  1.00  0.00    -0.206 F 
ATOM     94  C   UNL     1     -17.647  -0.403 -16.455  1.00  0.00     0.006 A 
ENDBRANCH  70  87
ENDBRANCH  44  45
ENDBRANCH  37  39
ENDBRANCH  36  37
ENDBRANCH  35  36
ENDBRANCH  34  35
ENDBRANCH  33  34
ENDBRANCH   1  33
TORSDOF 17
