REMARK SMILES C[C@H](CC(=O)OCCOC(=O)c1ccc(-c2c3nc(c(-c4c(F)cccc4F)c4ccc([nH]4)c(-c4c(F)cccc4F)c4nc(c(-c5c(F)cccc5F)c5ccc2[nH]5)C=C4)C=C3)cc1)[NH2+][C@H](C)c1ccccc1
REMARK SMILES IDX 7 1 6 2 4 3 5 4 3 5 2 6 1 7 66 8 67 11 68 12 69 13 70 14
REMARK SMILES IDX 74 15 71 16 73 17 72 18 8 19 9 20 10 21 11 22 12 23 13 24
REMARK SMILES IDX 65 25 14 26 64 27 15 28 16 29 17 30 58 31 18 32 63 33 57 34
REMARK SMILES IDX 59 35 19 36 62 37 56 38 55 39 20 41 46 42 29 43 45 44 30 45
REMARK SMILES IDX 33 46 44 47 60 48 31 49 32 50 43 52 61 53 34 54 21 55 22 56
REMARK SMILES IDX 27 57 23 58 24 59 26 60 28 61 25 62 47 63 48 64 53 65 49 66
REMARK SMILES IDX 50 67 52 68 54 69 51 70 35 71 36 72 41 73 37 74 38 75 40 76
REMARK SMILES IDX 42 77 39 78
REMARK H PARENT 66 9 66 10 59 40 33 51
REMARK Flexibility Score: inf
ROOT
ATOM      1  C   UNL     1      -4.375  -6.043   3.922  1.00  0.00     0.274 C 
ENDROOT
BRANCH   1   2
ATOM      2  O   UNL     1      -3.316  -5.277   3.321  1.00  0.00    -0.462 OA
BRANCH   2   3
ATOM      3  C   UNL     1      -2.357  -5.940   2.628  1.00  0.00     0.311 C 
ATOM      4  O   UNL     1      -2.234  -7.158   2.603  1.00  0.00    -0.252 OA
BRANCH   3   5
ATOM      5  C   UNL     1      -1.406  -4.981   1.940  1.00  0.00     0.187 C 
BRANCH   5   6
ATOM      6  C   UNL     1      -2.101  -3.973   1.001  1.00  0.00     0.190 C 
ATOM      7  C   UNL     1      -3.012  -3.020   1.792  1.00  0.00     0.076 C 
BRANCH   6   8
ATOM      8  N   UNL     1      -1.069  -3.197   0.292  1.00  0.00    -0.338 N 
ATOM      9  H   UNL     1      -0.291  -3.830   0.105  1.00  0.00     0.347 HD
ATOM     10  H   UNL     1      -0.868  -2.416   0.916  1.00  0.00     0.347 HD
BRANCH   8  11
ATOM     11  C   UNL     1      -1.433  -2.554  -0.997  1.00  0.00     0.210 C 
ATOM     12  C   UNL     1      -0.639  -1.238  -1.086  1.00  0.00     0.081 C 
BRANCH  11  13
ATOM     13  C   UNL     1      -2.919  -2.370  -1.302  1.00  0.00     0.009 A 
ATOM     14  C   UNL     1      -3.634  -1.204  -0.983  1.00  0.00     0.010 A 
ATOM     15  C   UNL     1      -3.633  -3.437  -1.879  1.00  0.00     0.010 A 
ATOM     16  C   UNL     1      -5.019  -1.135  -1.165  1.00  0.00     0.001 A 
ATOM     17  C   UNL     1      -5.017  -3.370  -2.058  1.00  0.00     0.001 A 
ATOM     18  C   UNL     1      -5.712  -2.223  -1.689  1.00  0.00     0.000 A 
ENDBRANCH  11  13
ENDBRANCH   8  11
ENDBRANCH   6   8
ENDBRANCH   5   6
ENDBRANCH   3   5
ENDBRANCH   2   3
ENDBRANCH   1   2
BRANCH   1  19
ATOM     19  C   UNL     1      -5.550  -6.194   2.953  1.00  0.00     0.275 C 
BRANCH  19  20
ATOM     20  O   UNL     1      -5.337  -7.313   2.075  1.00  0.00    -0.458 OA
BRANCH  20  21
ATOM     21  C   UNL     1      -4.881  -7.019   0.838  1.00  0.00     0.338 C 
ATOM     22  O   UNL     1      -4.701  -5.912   0.353  1.00  0.00    -0.246 OA
BRANCH  21  23
ATOM     23  C   UNL     1      -4.531  -8.267   0.153  1.00  0.00     0.060 A 
ATOM     24  C   UNL     1      -3.194  -8.506  -0.178  1.00  0.00     0.016 A 
ATOM     25  C   UNL     1      -5.529  -9.182  -0.183  1.00  0.00     0.016 A 
ATOM     26  C   UNL     1      -2.844  -9.684  -0.834  1.00  0.00     0.010 A 
ATOM     27  C   UNL     1      -5.179 -10.358  -0.845  1.00  0.00     0.010 A 
ATOM     28  C   UNL     1      -3.836 -10.615  -1.172  1.00  0.00    -0.014 A 
BRANCH  28  29
ATOM     29  C   UNL     1      -3.491 -11.859  -1.892  1.00  0.00     0.031 A 
ATOM     30  C   UNL     1      -3.776 -11.969  -3.359  1.00  0.00     0.074 A 
ATOM     31  C   UNL     1      -2.966 -12.895  -1.214  1.00  0.00     0.049 A 
ATOM     32  N   UNL     1      -3.694 -13.013  -4.141  1.00  0.00    -0.248 NA
ATOM     33  C   UNL     1      -4.219 -10.739  -4.034  1.00  0.00     0.031 C 
ATOM     34  C   UNL     1      -2.617 -12.885   0.207  1.00  0.00     0.029 A 
ATOM     35  N   UNL     1      -2.654 -14.164  -1.629  1.00  0.00    -0.354 N 
ATOM     36  C   UNL     1      -4.085 -12.572  -5.398  1.00  0.00     0.074 A 
ATOM     37  C   UNL     1      -4.421 -11.170  -5.271  1.00  0.00     0.031 C 
ATOM     38  C   UNL     1      -2.152 -14.098   0.550  1.00  0.00     0.029 A 
ATOM     39  C   UNL     1      -2.210 -14.977  -0.615  1.00  0.00     0.049 A 
ATOM     40  H   UNL     1      -2.739 -14.464  -2.563  1.00  0.00     0.167 HD
ATOM     41  C   UNL     1      -4.156 -13.278  -6.551  1.00  0.00     0.037 A 
ATOM     42  C   UNL     1      -1.916 -16.290  -0.622  1.00  0.00     0.037 A 
ATOM     43  C   UNL     1      -3.824 -14.674  -6.665  1.00  0.00     0.049 A 
ATOM     44  C   UNL     1      -2.057 -17.064  -1.903  1.00  0.00     0.074 A 
ATOM     45  C   UNL     1      -3.875 -15.487  -7.784  1.00  0.00     0.029 A 
ATOM     46  N   UNL     1      -3.376 -15.464  -5.617  1.00  0.00    -0.354 N 
ATOM     47  N   UNL     1      -2.441 -16.644  -3.084  1.00  0.00    -0.248 NA
ATOM     48  C   UNL     1      -1.729 -18.496  -1.852  1.00  0.00     0.031 C 
ATOM     49  C   UNL     1      -3.483 -16.776  -7.406  1.00  0.00     0.029 A 
ATOM     50  C   UNL     1      -3.153 -16.756  -6.060  1.00  0.00     0.049 A 
ATOM     51  H   UNL     1      -3.236 -15.151  -4.694  1.00  0.00     0.167 HD
ATOM     52  C   UNL     1      -2.374 -17.748  -3.922  1.00  0.00     0.074 A 
ATOM     53  C   UNL     1      -1.907 -18.858  -3.115  1.00  0.00     0.031 C 
ATOM     54  C   UNL     1      -2.672 -17.838  -5.241  1.00  0.00     0.037 A 
BRANCH  41  55
ATOM     55  C   UNL     1      -4.630 -12.554  -7.775  1.00  0.00     0.057 A 
ATOM     56  C   UNL     1      -3.815 -11.635  -8.448  1.00  0.00     0.134 A 
ATOM     57  C   UNL     1      -5.901 -12.803  -8.306  1.00  0.00     0.134 A 
ATOM     58  F   UNL     1      -2.592 -11.342  -7.982  1.00  0.00    -0.206 F 
ATOM     59  C   UNL     1      -4.255 -10.977  -9.598  1.00  0.00     0.040 A 
ATOM     60  C   UNL     1      -6.345 -12.166  -9.466  1.00  0.00     0.040 A 
ATOM     61  F   UNL     1      -6.730 -13.674  -7.710  1.00  0.00    -0.206 F 
ATOM     62  C   UNL     1      -5.521 -11.247 -10.114  1.00  0.00     0.006 A 
ENDBRANCH  41  55
BRANCH  42  63
ATOM     63  C   UNL     1      -1.473 -16.959   0.626  1.00  0.00     0.057 A 
ATOM     64  C   UNL     1      -0.153 -17.395   0.782  1.00  0.00     0.134 A 
ATOM     65  C   UNL     1      -2.358 -17.184   1.687  1.00  0.00     0.134 A 
ATOM     66  F   UNL     1       0.734 -17.228  -0.209  1.00  0.00    -0.206 F 
ATOM     67  C   UNL     1       0.270 -18.042   1.944  1.00  0.00     0.040 A 
ATOM     68  C   UNL     1      -1.943 -17.809   2.864  1.00  0.00     0.040 A 
ATOM     69  F   UNL     1      -3.637 -16.789   1.599  1.00  0.00    -0.206 F 
ATOM     70  C   UNL     1      -0.626 -18.246   2.992  1.00  0.00     0.006 A 
ENDBRANCH  42  63
BRANCH  54  71
ATOM     71  C   UNL     1      -2.456 -19.167  -5.899  1.00  0.00     0.057 A 
ATOM     72  C   UNL     1      -3.338 -20.236  -5.711  1.00  0.00     0.134 A 
ATOM     73  C   UNL     1      -1.369 -19.363  -6.761  1.00  0.00     0.134 A 
ATOM     74  F   UNL     1      -4.390 -20.113  -4.886  1.00  0.00    -0.206 F 
ATOM     75  C   UNL     1      -3.138 -21.463  -6.344  1.00  0.00     0.040 A 
ATOM     76  C   UNL     1      -1.170 -20.578  -7.415  1.00  0.00     0.040 A 
ATOM     77  F   UNL     1      -0.492 -18.373  -6.987  1.00  0.00    -0.206 F 
ATOM     78  C   UNL     1      -2.054 -21.634  -7.204  1.00  0.00     0.006 A 
ENDBRANCH  54  71
ENDBRANCH  28  29
ENDBRANCH  21  23
ENDBRANCH  20  21
ENDBRANCH  19  20
ENDBRANCH   1  19
TORSDOF 15
