REMARK SMILES CN(Cc1ncc(C(=O)OCCOC(=O)c2ccc(-c3c4nc(c(-c5c(F)cccc5F)c5ccc([nH]5)c(-c5c(F)cccc5F)c5nc(c(-c6c(F)cccc6F)c6ccc3[nH]6)C=C5)C=C4)cc2)cn1)S(=O)(=O)c1ccc(Cl)cc1
REMARK SMILES IDX 11 1 10 2 8 3 9 4 7 5 4 6 5 7 71 8 6 9 70 10 3 11 2 12 1 13
REMARK SMILES IDX 72 14 73 15 74 16 75 17 76 18 81 19 77 20 80 21 78 22 79 23
REMARK SMILES IDX 12 24 13 25 14 26 15 27 16 28 17 29 69 30 18 31 68 32 19 33
REMARK SMILES IDX 20 34 21 35 62 36 22 37 67 38 61 39 63 40 23 41 66 42 60 43
REMARK SMILES IDX 59 44 24 46 50 47 33 48 49 49 34 50 37 51 48 52 64 53 35 54
REMARK SMILES IDX 36 55 47 57 65 58 38 59 25 60 26 61 31 62 27 63 28 64 30 65
REMARK SMILES IDX 32 66 29 67 51 68 52 69 57 70 53 71 54 72 56 73 58 74 55 75
REMARK SMILES IDX 39 76 40 77 45 78 41 79 42 80 44 81 46 82 43 83
REMARK H PARENT 63 45 37 56
REMARK Flexibility Score: inf
ROOT
ATOM      1  C   UNL     1      -2.604  -5.677  -4.617  1.00  0.00     0.275 C 
ENDROOT
BRANCH   1   2
ATOM      2  O   UNL     1      -2.325  -5.021  -3.364  1.00  0.00    -0.458 OA
BRANCH   2   3
ATOM      3  C   UNL     1      -1.707  -3.822  -3.475  1.00  0.00     0.341 C 
ATOM      4  O   UNL     1      -1.333  -3.292  -4.505  1.00  0.00    -0.246 OA
BRANCH   3   5
ATOM      5  C   UNL     1      -1.619  -3.142  -2.179  1.00  0.00     0.096 A 
ATOM      6  C   UNL     1      -1.371  -1.734   0.118  1.00  0.00     0.143 A 
ATOM      7  N   UNL     1      -1.739  -3.031   0.216  1.00  0.00    -0.239 NA
ATOM      8  N   UNL     1      -1.200  -1.069  -1.042  1.00  0.00    -0.239 NA
ATOM      9  C   UNL     1      -1.862  -3.709  -0.950  1.00  0.00     0.130 A 
ATOM     10  C   UNL     1      -1.290  -1.804  -2.163  1.00  0.00     0.130 A 
BRANCH   6  11
ATOM     11  C   UNL     1      -0.903  -1.017   1.368  1.00  0.00     0.179 C 
BRANCH  11  12
ATOM     12  N   UNL     1       0.584  -0.801   1.482  1.00  0.00    -0.193 NA
ATOM     13  C   UNL     1       1.085   0.180   0.482  1.00  0.00     0.125 C 
BRANCH  12  14
ATOM     14  S   UNL     1       1.554  -2.210   1.529  1.00  0.00     0.243 S 
ATOM     15  O   UNL     1       1.297  -2.992   0.337  1.00  0.00    -0.207 OA
ATOM     16  O   UNL     1       2.901  -1.802   1.861  1.00  0.00    -0.207 OA
BRANCH  14  17
ATOM     17  C   UNL     1       0.938  -3.102   2.934  1.00  0.00     0.082 A 
ATOM     18  C   UNL     1       0.700  -2.413   4.128  1.00  0.00     0.023 A 
ATOM     19  C   UNL     1       0.694  -4.475   2.836  1.00  0.00     0.023 A 
ATOM     20  C   UNL     1       0.203  -3.105   5.233  1.00  0.00     0.022 A 
ATOM     21  C   UNL     1       0.214  -5.165   3.951  1.00  0.00     0.022 A 
ATOM     22  C   UNL     1      -0.033  -4.478   5.141  1.00  0.00     0.041 A 
ATOM     23  Cl  UNL     1      -0.629  -5.330   6.511  1.00  0.00    -0.084 Cl
ENDBRANCH  14  17
ENDBRANCH  12  14
ENDBRANCH  11  12
ENDBRANCH   6  11
ENDBRANCH   3   5
ENDBRANCH   2   3
ENDBRANCH   1   2
BRANCH   1  24
ATOM     24  C   UNL     1      -4.066  -5.481  -5.021  1.00  0.00     0.275 C 
BRANCH  24  25
ATOM     25  O   UNL     1      -4.358  -4.094  -5.285  1.00  0.00    -0.458 OA
BRANCH  25  26
ATOM     26  C   UNL     1      -5.066  -3.453  -4.327  1.00  0.00     0.338 C 
ATOM     27  O   UNL     1      -5.481  -3.914  -3.276  1.00  0.00    -0.246 OA
BRANCH  26  28
ATOM     28  C   UNL     1      -5.205  -2.030  -4.672  1.00  0.00     0.060 A 
ATOM     29  C   UNL     1      -4.199  -1.157  -4.270  1.00  0.00     0.016 A 
ATOM     30  C   UNL     1      -6.373  -1.533  -5.247  1.00  0.00     0.016 A 
ATOM     31  C   UNL     1      -4.365   0.219  -4.392  1.00  0.00     0.010 A 
ATOM     32  C   UNL     1      -6.513  -0.149  -5.431  1.00  0.00     0.010 A 
ATOM     33  C   UNL     1      -5.519   0.744  -4.986  1.00  0.00    -0.014 A 
BRANCH  33  34
ATOM     34  C   UNL     1      -5.689   2.220  -5.104  1.00  0.00     0.031 A 
ATOM     35  C   UNL     1      -6.826   2.916  -4.404  1.00  0.00     0.074 A 
ATOM     36  C   UNL     1      -4.807   2.951  -5.816  1.00  0.00     0.049 A 
ATOM     37  N   UNL     1      -7.223   4.160  -4.504  1.00  0.00    -0.248 NA
ATOM     38  C   UNL     1      -7.626   2.104  -3.475  1.00  0.00     0.031 C 
ATOM     39  C   UNL     1      -3.629   2.423  -6.506  1.00  0.00     0.029 A 
ATOM     40  N   UNL     1      -4.761   4.300  -6.071  1.00  0.00    -0.354 N 
ATOM     41  C   UNL     1      -8.347   4.267  -3.693  1.00  0.00     0.074 A 
ATOM     42  C   UNL     1      -8.569   2.961  -3.108  1.00  0.00     0.031 C 
ATOM     43  C   UNL     1      -2.960   3.437  -7.075  1.00  0.00     0.029 A 
ATOM     44  C   UNL     1      -3.703   4.675  -6.863  1.00  0.00     0.049 A 
ATOM     45  H   UNL     1      -5.424   4.938  -5.720  1.00  0.00     0.167 HD
ATOM     46  C   UNL     1      -9.123   5.353  -3.460  1.00  0.00     0.037 A 
ATOM     47  C   UNL     1      -3.382   5.869  -7.395  1.00  0.00     0.037 A 
ATOM     48  C   UNL     1      -8.873   6.665  -3.999  1.00  0.00     0.049 A 
ATOM     49  C   UNL     1      -4.277   7.050  -7.152  1.00  0.00     0.074 A 
ATOM     50  C   UNL     1      -9.595   7.831  -3.803  1.00  0.00     0.029 A 
ATOM     51  N   UNL     1      -7.811   6.990  -4.829  1.00  0.00    -0.354 N 
ATOM     52  N   UNL     1      -5.367   7.125  -6.428  1.00  0.00    -0.248 NA
ATOM     53  C   UNL     1      -3.911   8.308  -7.819  1.00  0.00     0.031 C 
ATOM     54  C   UNL     1      -8.988   8.853  -4.541  1.00  0.00     0.029 A 
ATOM     55  C   UNL     1      -7.867   8.333  -5.166  1.00  0.00     0.049 A 
ATOM     56  H   UNL     1      -7.119   6.360  -5.135  1.00  0.00     0.167 HD
ATOM     57  C   UNL     1      -5.814   8.434  -6.548  1.00  0.00     0.074 A 
ATOM     58  C   UNL     1      -4.864   9.126  -7.394  1.00  0.00     0.031 C 
ATOM     59  C   UNL     1      -6.917   9.008  -6.012  1.00  0.00     0.037 A 
BRANCH  46  60
ATOM     60  C   UNL     1     -10.343   5.163  -2.608  1.00  0.00     0.057 A 
ATOM     61  C   UNL     1     -10.265   4.999  -1.220  1.00  0.00     0.134 A 
ATOM     62  C   UNL     1     -11.619   5.186  -3.186  1.00  0.00     0.134 A 
ATOM     63  F   UNL     1      -9.073   4.955  -0.606  1.00  0.00    -0.206 F 
ATOM     64  C   UNL     1     -11.413   4.844  -0.439  1.00  0.00     0.040 A 
ATOM     65  C   UNL     1     -12.774   5.055  -2.414  1.00  0.00     0.040 A 
ATOM     66  F   UNL     1     -11.764   5.346  -4.510  1.00  0.00    -0.206 F 
ATOM     67  C   UNL     1     -12.673   4.879  -1.036  1.00  0.00     0.006 A 
ENDBRANCH  46  60
BRANCH  47  68
ATOM     68  C   UNL     1      -2.178   5.997  -8.255  1.00  0.00     0.057 A 
ATOM     69  C   UNL     1      -1.058   6.719  -7.829  1.00  0.00     0.134 A 
ATOM     70  C   UNL     1      -2.120   5.399  -9.520  1.00  0.00     0.134 A 
ATOM     71  F   UNL     1      -1.065   7.336  -6.639  1.00  0.00    -0.206 F 
ATOM     72  C   UNL     1       0.076   6.847  -8.633  1.00  0.00     0.040 A 
ATOM     73  C   UNL     1      -0.983   5.497 -10.323  1.00  0.00     0.040 A 
ATOM     74  F   UNL     1      -3.162   4.695  -9.985  1.00  0.00    -0.206 F 
ATOM     75  C   UNL     1       0.118   6.227  -9.881  1.00  0.00     0.006 A 
ENDBRANCH  47  68
BRANCH  59  76
ATOM     76  C   UNL     1      -7.143  10.460  -6.311  1.00  0.00     0.057 A 
ATOM     77  C   UNL     1      -7.595  10.889  -7.566  1.00  0.00     0.134 A 
ATOM     78  C   UNL     1      -6.929  11.435  -5.330  1.00  0.00     0.134 A 
ATOM     79  F   UNL     1      -7.803  10.004  -8.552  1.00  0.00    -0.206 F 
ATOM     80  C   UNL     1      -7.806  12.241  -7.840  1.00  0.00     0.040 A 
ATOM     81  C   UNL     1      -7.158  12.788  -5.585  1.00  0.00     0.040 A 
ATOM     82  F   UNL     1      -6.503  11.088  -4.106  1.00  0.00    -0.206 F 
ATOM     83  C   UNL     1      -7.592  13.194  -6.845  1.00  0.00     0.006 A 
ENDBRANCH  59  76
ENDBRANCH  33  34
ENDBRANCH  26  28
ENDBRANCH  25  26
ENDBRANCH  24  25
ENDBRANCH   1  24
TORSDOF 15
