REMARK SMILES O=C(OCCOC(=O)[C@@H]1CS[C@H](c2ncc(-c3ccccc3)s2)[NH2+]1)c1ccc(-c2c3nc(c(-c4c(F)cccc4F)c4ccc([nH]4)c(-c4c(F)cccc4F)c4nc(c(-c5c(F)cccc5F)c5ccc2[nH]5)C=C4)C=C3)cc1
REMARK SMILES IDX 4 1 3 2 2 3 1 4 25 5 26 6 78 7 27 8 77 9 28 10 29 11 30 12
REMARK SMILES IDX 71 13 31 14 76 15 70 16 72 17 32 18 75 19 69 20 68 21 33 23
REMARK SMILES IDX 59 24 42 25 58 26 43 27 46 28 57 29 73 30 44 31 45 32 56 34
REMARK SMILES IDX 74 35 47 36 34 37 35 38 40 39 36 40 37 41 39 42 41 43 38 44
REMARK SMILES IDX 60 45 61 46 66 47 62 48 63 49 65 50 67 51 64 52 48 53 49 54
REMARK SMILES IDX 54 55 50 56 51 57 53 58 55 59 52 60 5 61 6 62 7 63 8 64 9 65
REMARK SMILES IDX 10 66 24 67 11 68 12 69 13 72 14 73 23 74 15 75 16 76 17 77
REMARK SMILES IDX 18 78 22 79 19 80 21 81 20 82
REMARK H PARENT 72 22 46 33 24 70 24 71
REMARK Flexibility Score: inf
ROOT
ATOM      1  C   UNL     1       5.475   0.627  -6.012  1.00  0.00     0.275 C 
ENDROOT
BRANCH   1   2
ATOM      2  O   UNL     1       5.793   0.143  -4.686  1.00  0.00    -0.458 OA
BRANCH   2   3
ATOM      3  C   UNL     1       5.844   0.773  -3.484  1.00  0.00     0.338 C 
ATOM      4  O   UNL     1       6.558   0.287  -2.606  1.00  0.00    -0.246 OA
BRANCH   3   5
ATOM      5  C   UNL     1       4.934   1.896  -3.065  1.00  0.00     0.060 A 
ATOM      6  C   UNL     1       4.520   2.965  -3.849  1.00  0.00     0.016 A 
ATOM      7  C   UNL     1       4.485   1.895  -1.728  1.00  0.00     0.016 A 
ATOM      8  C   UNL     1       3.555   3.893  -3.371  1.00  0.00     0.010 A 
ATOM      9  C   UNL     1       3.497   2.800  -1.267  1.00  0.00     0.010 A 
ATOM     10  C   UNL     1       2.942   3.767  -2.119  1.00  0.00    -0.014 A 
BRANCH  10  11
ATOM     11  C   UNL     1       1.954   4.772  -1.586  1.00  0.00     0.031 A 
ATOM     12  C   UNL     1       2.485   6.096  -1.171  1.00  0.00     0.074 A 
ATOM     13  C   UNL     1       0.610   4.633  -1.489  1.00  0.00     0.049 A 
ATOM     14  N   UNL     1       1.822   7.113  -0.697  1.00  0.00    -0.248 NA
ATOM     15  C   UNL     1       3.905   6.351  -1.441  1.00  0.00     0.031 C 
ATOM     16  C   UNL     1      -0.211   3.749  -2.273  1.00  0.00     0.029 A 
ATOM     17  N   UNL     1      -0.340   5.237  -0.691  1.00  0.00    -0.354 N 
ATOM     18  C   UNL     1       2.722   8.155  -0.684  1.00  0.00     0.074 A 
ATOM     19  C   UNL     1       3.990   7.638  -1.154  1.00  0.00     0.031 C 
ATOM     20  C   UNL     1      -1.424   3.578  -1.732  1.00  0.00     0.029 A 
ATOM     21  C   UNL     1      -1.550   4.561  -0.674  1.00  0.00     0.049 A 
ATOM     22  H   UNL     1      -0.174   6.065  -0.185  1.00  0.00     0.167 HD
ATOM     23  C   UNL     1       2.496   9.435  -0.322  1.00  0.00     0.037 A 
ATOM     24  C   UNL     1      -2.693   4.756   0.012  1.00  0.00     0.037 A 
ATOM     25  C   UNL     1       1.264   9.904   0.245  1.00  0.00     0.049 A 
ATOM     26  C   UNL     1      -2.846   6.086   0.669  1.00  0.00     0.074 A 
ATOM     27  C   UNL     1       0.988  11.151   0.770  1.00  0.00     0.029 A 
ATOM     28  N   UNL     1       0.116   9.134   0.408  1.00  0.00    -0.354 N 
ATOM     29  N   UNL     1      -1.976   7.065   0.695  1.00  0.00    -0.248 NA
ATOM     30  C   UNL     1      -4.141   6.403   1.280  1.00  0.00     0.031 C 
ATOM     31  C   UNL     1      -0.294  11.113   1.326  1.00  0.00     0.029 A 
ATOM     32  C   UNL     1      -0.849   9.865   1.084  1.00  0.00     0.049 A 
ATOM     33  H   UNL     1       0.006   8.209   0.091  1.00  0.00     0.167 HD
ATOM     34  C   UNL     1      -2.636   8.141   1.254  1.00  0.00     0.074 A 
ATOM     35  C   UNL     1      -3.974   7.685   1.582  1.00  0.00     0.031 C 
ATOM     36  C   UNL     1      -2.170   9.398   1.435  1.00  0.00     0.037 A 
BRANCH  23  37
ATOM     37  C   UNL     1       3.689  10.326  -0.417  1.00  0.00     0.057 A 
ATOM     38  C   UNL     1       4.221  10.725  -1.652  1.00  0.00     0.134 A 
ATOM     39  C   UNL     1       4.417  10.627   0.739  1.00  0.00     0.134 A 
ATOM     40  F   UNL     1       3.595  10.411  -2.797  1.00  0.00    -0.206 F 
ATOM     41  C   UNL     1       5.466  11.348  -1.734  1.00  0.00     0.040 A 
ATOM     42  C   UNL     1       5.648  11.273   0.670  1.00  0.00     0.040 A 
ATOM     43  F   UNL     1       3.969  10.243   1.944  1.00  0.00    -0.206 F 
ATOM     44  C   UNL     1       6.185  11.617  -0.570  1.00  0.00     0.006 A 
ENDBRANCH  23  37
BRANCH  24  45
ATOM     45  C   UNL     1      -3.793   3.752  -0.025  1.00  0.00     0.057 A 
ATOM     46  C   UNL     1      -4.979   3.954  -0.741  1.00  0.00     0.134 A 
ATOM     47  C   UNL     1      -3.667   2.536   0.662  1.00  0.00     0.134 A 
ATOM     48  F   UNL     1      -5.170   5.096  -1.418  1.00  0.00    -0.206 F 
ATOM     49  C   UNL     1      -6.000   2.998  -0.762  1.00  0.00     0.040 A 
ATOM     50  C   UNL     1      -4.675   1.565   0.642  1.00  0.00     0.040 A 
ATOM     51  F   UNL     1      -2.559   2.272   1.371  1.00  0.00    -0.206 F 
ATOM     52  C   UNL     1      -5.848   1.797  -0.070  1.00  0.00     0.006 A 
ENDBRANCH  24  45
BRANCH  36  53
ATOM     53  C   UNL     1      -3.112  10.387   2.042  1.00  0.00     0.057 A 
ATOM     54  C   UNL     1      -3.465  10.328   3.395  1.00  0.00     0.134 A 
ATOM     55  C   UNL     1      -3.593  11.462   1.286  1.00  0.00     0.134 A 
ATOM     56  F   UNL     1      -3.049   9.310   4.164  1.00  0.00    -0.206 F 
ATOM     57  C   UNL     1      -4.267  11.308   3.977  1.00  0.00     0.040 A 
ATOM     58  C   UNL     1      -4.372  12.463   1.863  1.00  0.00     0.040 A 
ATOM     59  F   UNL     1      -3.289  11.571  -0.017  1.00  0.00    -0.206 F 
ATOM     60  C   UNL     1      -4.709  12.388   3.213  1.00  0.00     0.006 A 
ENDBRANCH  36  53
ENDBRANCH  10  11
ENDBRANCH   3   5
ENDBRANCH   2   3
ENDBRANCH   1   2
BRANCH   1  61
ATOM     61  C   UNL     1       4.228  -0.032  -6.602  1.00  0.00     0.274 C 
BRANCH  61  62
ATOM     62  O   UNL     1       3.167   0.008  -5.654  1.00  0.00    -0.458 OA
BRANCH  62  63
ATOM     63  C   UNL     1       2.895  -1.149  -4.982  1.00  0.00     0.365 C 
ATOM     64  O   UNL     1       3.273  -2.260  -5.305  1.00  0.00    -0.245 OA
BRANCH  63  65
ATOM     65  C   UNL     1       2.076  -0.870  -3.723  1.00  0.00     0.304 C 
ATOM     66  C   UNL     1       0.672  -1.453  -3.827  1.00  0.00     0.153 C 
ATOM     67  N   UNL     1       2.064   0.573  -3.431  1.00  0.00    -0.317 N 
ATOM     68  S   UNL     1      -0.461  -0.142  -3.358  1.00  0.00    -0.085 SA
ATOM     69  C   UNL     1       0.746   1.124  -3.727  1.00  0.00     0.303 C 
ATOM     70  H   UNL     1       2.764   1.041  -4.006  1.00  0.00     0.348 HD
ATOM     71  H   UNL     1       2.277   0.720  -2.444  1.00  0.00     0.348 HD
BRANCH  69  72
ATOM     72  C   UNL     1       0.554   1.838  -5.070  1.00  0.00     0.162 A 
ATOM     73  N   UNL     1      -0.529   1.832  -5.833  1.00  0.00    -0.242 NA
ATOM     74  S   UNL     1       1.749   2.931  -5.642  1.00  0.00    -0.112 S 
ATOM     75  C   UNL     1      -0.327   2.601  -6.983  1.00  0.00     0.132 A 
ATOM     76  C   UNL     1       0.911   3.198  -7.086  1.00  0.00     0.055 A 
BRANCH  76  77
ATOM     77  C   UNL     1       1.675   3.709  -8.217  1.00  0.00    -0.007 A 
ATOM     78  C   UNL     1       2.203   2.732  -9.075  1.00  0.00     0.009 A 
ATOM     79  C   UNL     1       2.071   5.043  -8.379  1.00  0.00     0.009 A 
ATOM     80  C   UNL     1       3.127   3.061 -10.059  1.00  0.00     0.001 A 
ATOM     81  C   UNL     1       2.987   5.377  -9.388  1.00  0.00     0.001 A 
ATOM     82  C   UNL     1       3.519   4.386 -10.217  1.00  0.00     0.000 A 
ENDBRANCH  76  77
ENDBRANCH  69  72
ENDBRANCH  63  65
ENDBRANCH  62  63
ENDBRANCH  61  62
ENDBRANCH   1  61
TORSDOF 13
