REMARK SMILES O=C(OCCOC(=O)[C@@H]1CC=CC[C@H]1C(=O)N1CC[NH+](Cc2ccc3c(c2)OCO3)CC1)c1ccc(-c2c3nc(c(-c4c(F)cccc4F)c4ccc([nH]4)c(-c4c(F)cccc4F)c4nc(c(-c5c(F)cccc5F)c5ccc2[nH]5)C=C4)C=C3)cc1
REMARK SMILES IDX 5 1 4 2 3 3 2 4 1 5 33 6 34 7 86 8 35 9 85 10 36 11 37 12
REMARK SMILES IDX 38 13 79 14 39 15 84 16 78 17 80 18 40 19 83 20 77 21 76 22
REMARK SMILES IDX 41 24 67 25 50 26 66 27 51 28 54 29 65 30 81 31 52 32 53 33
REMARK SMILES IDX 64 35 82 36 55 37 42 38 43 39 48 40 44 41 45 42 47 43 49 44
REMARK SMILES IDX 46 45 68 46 69 47 74 48 70 49 71 50 73 51 75 52 72 53 56 54
REMARK SMILES IDX 57 55 62 56 58 57 59 58 61 59 63 60 60 61 6 62 7 63 8 64
REMARK SMILES IDX 9 65 10 66 14 67 11 68 13 69 12 70 15 71 16 72 17 73 18 74
REMARK SMILES IDX 32 75 19 76 31 77 20 78 21 80 22 81 23 82 27 83 24 84 26 85
REMARK SMILES IDX 25 86 28 87 30 88 29 89
REMARK H PARENT 80 23 54 34 20 79
REMARK Flexibility Score: inf
ROOT
ATOM      1  C   UNL     1       1.464  -3.870   3.659  1.00  0.00     0.274 C 
ENDROOT
BRANCH   1   2
ATOM      2  C   UNL     1       0.122  -3.731   2.928  1.00  0.00     0.275 C 
BRANCH   2   3
ATOM      3  O   UNL     1       0.187  -3.097   1.624  1.00  0.00    -0.458 OA
BRANCH   3   4
ATOM      4  C   UNL     1       0.816  -1.970   1.240  1.00  0.00     0.338 C 
ATOM      5  O   UNL     1       1.075  -1.767   0.059  1.00  0.00    -0.246 OA
BRANCH   4   6
ATOM      6  C   UNL     1       1.336  -1.008   2.228  1.00  0.00     0.060 A 
ATOM      7  C   UNL     1       0.636  -0.793   3.783  1.00  0.00     0.016 A 
ATOM      8  C   UNL     1       2.760  -0.189   1.736  1.00  0.00     0.016 A 
ATOM      9  C   UNL     1       1.377   0.049   5.077  1.00  0.00     0.010 A 
ATOM     10  C   UNL     1       3.579   0.798   2.932  1.00  0.00     0.010 A 
ATOM     11  C   UNL     1       2.854   0.935   4.761  1.00  0.00    -0.014 A 
BRANCH  11  12
ATOM     12  C   UNL     1       3.229   1.575   6.201  1.00  0.00     0.031 A 
ATOM     13  C   UNL     1       2.691   2.908   6.710  1.00  0.00     0.074 A 
ATOM     14  C   UNL     1       3.833   0.893   7.210  1.00  0.00     0.049 A 
ATOM     15  N   UNL     1       3.172   3.696   7.649  1.00  0.00    -0.248 NA
ATOM     16  C   UNL     1       1.398   3.354   6.183  1.00  0.00     0.031 C 
ATOM     17  C   UNL     1       4.050  -0.538   7.298  1.00  0.00     0.029 A 
ATOM     18  N   UNL     1       4.523   1.369   8.315  1.00  0.00    -0.354 N 
ATOM     19  C   UNL     1       2.254   4.727   7.811  1.00  0.00     0.074 A 
ATOM     20  C   UNL     1       1.206   4.493   6.838  1.00  0.00     0.031 C 
ATOM     21  C   UNL     1       5.056  -0.795   8.144  1.00  0.00     0.029 A 
ATOM     22  C   UNL     1       5.460   0.457   8.760  1.00  0.00     0.049 A 
ATOM     23  H   UNL     1       4.365   2.248   8.730  1.00  0.00     0.167 HD
ATOM     24  C   UNL     1       2.235   5.741   8.715  1.00  0.00     0.037 A 
ATOM     25  C   UNL     1       6.555   0.600   9.529  1.00  0.00     0.037 A 
ATOM     26  C   UNL     1       3.170   5.934   9.797  1.00  0.00     0.049 A 
ATOM     27  C   UNL     1       6.734   1.830  10.350  1.00  0.00     0.074 A 
ATOM     28  C   UNL     1       3.221   6.968  10.723  1.00  0.00     0.029 A 
ATOM     29  N   UNL     1       4.172   5.048  10.148  1.00  0.00    -0.354 N 
ATOM     30  N   UNL     1       6.008   2.914  10.351  1.00  0.00    -0.248 NA
ATOM     31  C   UNL     1       7.804   1.812  11.359  1.00  0.00     0.031 C 
ATOM     32  C   UNL     1       4.250   6.703  11.637  1.00  0.00     0.029 A 
ATOM     33  C   UNL     1       4.835   5.502  11.281  1.00  0.00     0.049 A 
ATOM     34  H   UNL     1       4.385   4.217   9.665  1.00  0.00     0.167 HD
ATOM     35  C   UNL     1       6.454   3.659  11.430  1.00  0.00     0.074 A 
ATOM     36  C   UNL     1       7.567   2.942  12.014  1.00  0.00     0.031 C 
ATOM     37  C   UNL     1       5.921   4.803  11.914  1.00  0.00     0.037 A 
BRANCH  24  38
ATOM     38  C   UNL     1       1.133   6.751   8.589  1.00  0.00     0.057 A 
ATOM     39  C   UNL     1      -0.144   6.522   9.113  1.00  0.00     0.134 A 
ATOM     40  C   UNL     1       1.382   7.997   8.001  1.00  0.00     0.134 A 
ATOM     41  F   UNL     1      -0.444   5.346   9.684  1.00  0.00    -0.206 F 
ATOM     42  C   UNL     1      -1.142   7.497   9.045  1.00  0.00     0.040 A 
ATOM     43  C   UNL     1       0.398   8.984   7.940  1.00  0.00     0.040 A 
ATOM     44  F   UNL     1       2.592   8.281   7.495  1.00  0.00    -0.206 F 
ATOM     45  C   UNL     1      -0.870   8.734   8.462  1.00  0.00     0.006 A 
ENDBRANCH  24  38
BRANCH  25  46
ATOM     46  C   UNL     1       7.589  -0.458   9.530  1.00  0.00     0.057 A 
ATOM     47  C   UNL     1       7.641  -1.461  10.498  1.00  0.00     0.134 A 
ATOM     48  C   UNL     1       8.570  -0.462   8.529  1.00  0.00     0.134 A 
ATOM     49  F   UNL     1       6.737  -1.490  11.487  1.00  0.00    -0.206 F 
ATOM     50  C   UNL     1       8.638  -2.437  10.475  1.00  0.00     0.040 A 
ATOM     51  C   UNL     1       9.570  -1.433   8.492  1.00  0.00     0.040 A 
ATOM     52  F   UNL     1       8.574   0.487   7.581  1.00  0.00    -0.206 F 
ATOM     53  C   UNL     1       9.605  -2.425   9.469  1.00  0.00     0.006 A 
ENDBRANCH  25  46
BRANCH  37  54
ATOM     54  C   UNL     1       6.463   5.305  13.214  1.00  0.00     0.057 A 
ATOM     55  C   UNL     1       7.659   6.025  13.292  1.00  0.00     0.134 A 
ATOM     56  C   UNL     1       5.786   5.034  14.410  1.00  0.00     0.134 A 
ATOM     57  F   UNL     1       8.364   6.293  12.184  1.00  0.00    -0.206 F 
ATOM     58  C   UNL     1       8.173   6.447  14.521  1.00  0.00     0.040 A 
ATOM     59  C   UNL     1       6.285   5.459  15.643  1.00  0.00     0.040 A 
ATOM     60  F   UNL     1       4.639   4.338  14.402  1.00  0.00    -0.206 F 
ATOM     61  C   UNL     1       7.485   6.164  15.700  1.00  0.00     0.006 A 
ENDBRANCH  37  54
ENDBRANCH  11  12
ENDBRANCH   4   6
ENDBRANCH   3   4
ENDBRANCH   2   3
ENDBRANCH   1   2
BRANCH   1  62
ATOM     62  O   UNL     1       1.596  -2.786   4.600  1.00  0.00    -0.462 OA
BRANCH  62  63
ATOM     63  C   UNL     1       2.797  -2.159   4.621  1.00  0.00     0.310 C 
ATOM     64  O   UNL     1       3.788  -2.778   5.009  1.00  0.00    -0.252 OA
BRANCH  63  65
ATOM     65  C   UNL     1       2.938  -0.729   3.795  1.00  0.00     0.115 C 
ATOM     66  C   UNL     1       4.778  -0.196   4.339  1.00  0.00     0.043 C 
ATOM     67  C   UNL     1       1.751   1.038   3.163  1.00  0.00     0.097 C 
ATOM     68  C   UNL     1       5.230   1.590   4.404  1.00  0.00    -0.030 C 
ATOM     69  C   UNL     1       2.773   2.719   3.264  1.00  0.00     0.041 C 
ATOM     70  C   UNL     1       4.441   2.716   3.994  1.00  0.00    -0.030 C 
BRANCH  67  71
ATOM     71  C   UNL     1       0.625   1.392   1.910  1.00  0.00     0.227 C 
ATOM     72  O   UNL     1      -0.566   1.098   2.121  1.00  0.00    -0.275 OA
ATOM     73  N   UNL     1       0.933   2.146   0.766  1.00  0.00    -0.331 N 
ATOM     74  C   UNL     1      -0.165   3.030   0.339  1.00  0.00     0.181 C 
ATOM     75  C   UNL     1       1.520   1.476  -0.401  1.00  0.00     0.181 C 
ATOM     76  C   UNL     1       0.139   3.914  -0.891  1.00  0.00     0.284 C 
ATOM     77  C   UNL     1       1.904   2.416  -1.553  1.00  0.00     0.284 C 
ATOM     78  N   UNL     1       0.827   3.282  -2.020  1.00  0.00    -0.328 N 
ATOM     79  H   UNL     1       1.258   4.053  -2.529  1.00  0.00     0.348 HD
BRANCH  78  80
ATOM     80  C   UNL     1       0.005   2.753  -3.114  1.00  0.00     0.299 C 
BRANCH  80  81
ATOM     81  C   UNL     1      -0.605   1.377  -2.945  1.00  0.00     0.010 A 
ATOM     82  C   UNL     1      -1.889   1.224  -2.377  1.00  0.00     0.013 A 
ATOM     83  C   UNL     1       0.116   0.229  -3.330  1.00  0.00     0.060 A 
ATOM     84  C   UNL     1      -2.426  -0.047  -2.138  1.00  0.00     0.051 A 
ATOM     85  C   UNL     1      -0.424  -1.009  -3.052  1.00  0.00     0.166 A 
ATOM     86  C   UNL     1      -1.657  -1.143  -2.462  1.00  0.00     0.165 A 
ATOM     87  O   UNL     1       0.175  -2.209  -3.280  1.00  0.00    -0.454 OA
ATOM     88  O   UNL     1      -1.987  -2.444  -2.240  1.00  0.00    -0.454 OA
ATOM     89  C   UNL     1      -0.750  -3.092  -2.611  1.00  0.00     0.468 C 
ENDBRANCH  80  81
ENDBRANCH  78  80
ENDBRANCH  67  71
ENDBRANCH  63  65
ENDBRANCH  62  63
ENDBRANCH   1  62
TORSDOF 14
