REMARK SMILES C[C@]1(C(=O)N2CCC(CC(=O)OCCOC(=O)c3ccc(-c4c5nc(c(-c6c(F)cccc6F)c6ccc([nH]6)c(-c6c(F)cccc6F)c6nc(c(-c7c(F)cccc7F)c7ccc4[nH]7)C=C6)C=C5)cc3)CC2)CCC[NH2+]1
REMARK SMILES IDX 13 1 12 2 10 3 11 4 9 5 8 6 3 7 4 8 5 9 6 10 73 11 7 12
REMARK SMILES IDX 72 13 2 14 1 15 74 16 77 17 75 18 76 19 14 22 15 23 16 24
REMARK SMILES IDX 17 25 18 26 19 27 71 28 20 29 70 30 21 31 22 32 23 33 64 34
REMARK SMILES IDX 24 35 69 36 63 37 65 38 25 39 68 40 62 41 61 42 26 44 52 45
REMARK SMILES IDX 35 46 51 47 36 48 39 49 50 50 66 51 37 52 38 53 49 55 67 56
REMARK SMILES IDX 40 57 27 58 28 59 33 60 29 61 30 62 32 63 34 64 31 65 53 66
REMARK SMILES IDX 54 67 59 68 55 69 56 70 58 71 60 72 57 73 41 74 42 75 47 76
REMARK SMILES IDX 43 77 44 78 46 79 48 80 45 81
REMARK H PARENT 77 20 77 21 65 43 39 54
REMARK Flexibility Score: inf
ROOT
ATOM      1  C   UNL     1       3.305   5.996  -3.918  1.00  0.00     0.274 C 
ENDROOT
BRANCH   1   2
ATOM      2  O   UNL     1       2.801   5.201  -2.828  1.00  0.00    -0.462 OA
BRANCH   2   3
ATOM      3  C   UNL     1       2.111   5.844  -1.855  1.00  0.00     0.306 C 
ATOM      4  O   UNL     1       1.907   7.051  -1.825  1.00  0.00    -0.252 OA
BRANCH   3   5
ATOM      5  C   UNL     1       1.666   4.908  -0.748  1.00  0.00     0.126 C 
BRANCH   5   6
ATOM      6  C   UNL     1       0.898   3.651  -1.196  1.00  0.00     0.003 C 
ATOM      7  C   UNL     1       0.976  -0.149  -0.169  1.00  0.00     0.283 C 
ATOM      8  O   UNL     1       2.140   0.017   0.203  1.00  0.00    -0.268 OA
ATOM      9  N   UNL     1       0.345   0.797  -0.967  1.00  0.00    -0.337 N 
ATOM     10  C   UNL     1       1.075   1.303  -2.114  1.00  0.00     0.120 C 
ATOM     11  C   UNL     1      -0.585   1.737  -0.360  1.00  0.00     0.120 C 
ATOM     12  C   UNL     1       1.835   2.579  -1.778  1.00  0.00     0.026 C 
ATOM     13  C   UNL     1       0.109   3.058  -0.006  1.00  0.00     0.026 C 
BRANCH   7  14
ATOM     14  C   UNL     1       0.200  -1.488   0.043  1.00  0.00     0.173 C 
ATOM     15  C   UNL     1      -1.252  -1.482  -0.458  1.00  0.00     0.090 C 
ATOM     16  C   UNL     1       1.006  -2.606  -0.628  1.00  0.00     0.084 C 
ATOM     17  N   UNL     1       0.239  -1.868   1.475  1.00  0.00    -0.334 N 
ATOM     18  C   UNL     1       0.659  -3.845   0.172  1.00  0.00     0.068 C 
ATOM     19  C   UNL     1       0.363  -3.323   1.569  1.00  0.00     0.261 C 
ATOM     20  H   UNL     1      -0.621  -1.566   1.934  1.00  0.00     0.347 HD
ATOM     21  H   UNL     1       1.033  -1.420   1.933  1.00  0.00     0.347 HD
ENDBRANCH   7  14
ENDBRANCH   5   6
ENDBRANCH   3   5
ENDBRANCH   2   3
ENDBRANCH   1   2
BRANCH   1  22
ATOM     22  C   UNL     1       2.363   5.966  -5.125  1.00  0.00     0.275 C 
BRANCH  22  23
ATOM     23  O   UNL     1       1.194   6.772  -4.891  1.00  0.00    -0.458 OA
BRANCH  23  24
ATOM     24  C   UNL     1       0.123   6.102  -4.407  1.00  0.00     0.338 C 
ATOM     25  O   UNL     1       0.020   4.900  -4.235  1.00  0.00    -0.246 OA
BRANCH  24  26
ATOM     26  C   UNL     1      -0.912   7.059  -3.985  1.00  0.00     0.060 A 
ATOM     27  C   UNL     1      -1.351   7.009  -2.658  1.00  0.00     0.016 A 
ATOM     28  C   UNL     1      -1.508   7.930  -4.899  1.00  0.00     0.016 A 
ATOM     29  C   UNL     1      -2.410   7.813  -2.245  1.00  0.00     0.010 A 
ATOM     30  C   UNL     1      -2.572   8.736  -4.483  1.00  0.00     0.010 A 
ATOM     31  C   UNL     1      -3.045   8.662  -3.161  1.00  0.00    -0.014 A 
BRANCH  31  32
ATOM     32  C   UNL     1      -4.270   9.389  -2.750  1.00  0.00     0.031 A 
ATOM     33  C   UNL     1      -5.614   8.874  -3.181  1.00  0.00     0.074 A 
ATOM     34  C   UNL     1      -4.183  10.476  -1.964  1.00  0.00     0.049 A 
ATOM     35  N   UNL     1      -6.805   9.359  -2.939  1.00  0.00    -0.248 NA
ATOM     36  C   UNL     1      -5.617   7.648  -3.996  1.00  0.00     0.031 C 
ATOM     37  C   UNL     1      -2.940  11.055  -1.457  1.00  0.00     0.029 A 
ATOM     38  N   UNL     1      -5.166  11.284  -1.451  1.00  0.00    -0.354 N 
ATOM     39  C   UNL     1      -7.697   8.508  -3.578  1.00  0.00     0.074 A 
ATOM     40  C   UNL     1      -6.910   7.489  -4.240  1.00  0.00     0.031 C 
ATOM     41  C   UNL     1      -3.236  12.127  -0.701  1.00  0.00     0.029 A 
ATOM     42  C   UNL     1      -4.684  12.321  -0.693  1.00  0.00     0.049 A 
ATOM     43  H   UNL     1      -6.126  11.134  -1.612  1.00  0.00     0.167 HD
ATOM     44  C   UNL     1      -9.050   8.565  -3.606  1.00  0.00     0.037 A 
ATOM     45  C   UNL     1      -5.338  13.319  -0.070  1.00  0.00     0.037 A 
ATOM     46  C   UNL     1      -9.835   9.572  -2.941  1.00  0.00     0.049 A 
ATOM     47  C   UNL     1      -6.840  13.374  -0.135  1.00  0.00     0.074 A 
ATOM     48  C   UNL     1     -11.212   9.715  -2.911  1.00  0.00     0.029 A 
ATOM     49  N   UNL     1      -9.309  10.610  -2.186  1.00  0.00    -0.354 N 
ATOM     50  N   UNL     1      -7.673  12.559  -0.735  1.00  0.00    -0.248 NA
ATOM     51  C   UNL     1      -7.492  14.484   0.574  1.00  0.00     0.031 C 
ATOM     52  C   UNL     1     -11.518  10.856  -2.160  1.00  0.00     0.029 A 
ATOM     53  C   UNL     1     -10.333  11.400  -1.691  1.00  0.00     0.049 A 
ATOM     54  H   UNL     1      -8.350  10.762  -2.026  1.00  0.00     0.167 HD
ATOM     55  C   UNL     1      -8.945  13.040  -0.454  1.00  0.00     0.074 A 
ATOM     56  C   UNL     1      -8.775  14.212   0.380  1.00  0.00     0.031 C 
ATOM     57  C   UNL     1     -10.147  12.554  -0.850  1.00  0.00     0.037 A 
BRANCH  44  58
ATOM     58  C   UNL     1      -9.764   7.514  -4.401  1.00  0.00     0.057 A 
ATOM     59  C   UNL     1      -9.870   6.192  -3.951  1.00  0.00     0.134 A 
ATOM     60  C   UNL     1     -10.369   7.832  -5.623  1.00  0.00     0.134 A 
ATOM     61  F   UNL     1      -9.297   5.819  -2.796  1.00  0.00    -0.206 F 
ATOM     62  C   UNL     1     -10.534   5.218  -4.699  1.00  0.00     0.040 A 
ATOM     63  C   UNL     1     -11.055   6.873  -6.369  1.00  0.00     0.040 A 
ATOM     64  F   UNL     1     -10.306   9.081  -6.109  1.00  0.00    -0.206 F 
ATOM     65  C   UNL     1     -11.134   5.559  -5.909  1.00  0.00     0.006 A 
ENDBRANCH  44  58
BRANCH  45  66
ATOM     66  C   UNL     1      -4.578  14.349   0.680  1.00  0.00     0.057 A 
ATOM     67  C   UNL     1      -4.616  14.403   2.078  1.00  0.00     0.134 A 
ATOM     68  C   UNL     1      -3.810  15.312   0.015  1.00  0.00     0.134 A 
ATOM     69  F   UNL     1      -5.353  13.521   2.768  1.00  0.00    -0.206 F 
ATOM     70  C   UNL     1      -3.930  15.390   2.788  1.00  0.00     0.040 A 
ATOM     71  C   UNL     1      -3.102  16.290   0.714  1.00  0.00     0.040 A 
ATOM     72  F   UNL     1      -3.734  15.312  -1.324  1.00  0.00    -0.206 F 
ATOM     73  C   UNL     1      -3.167  16.335   2.106  1.00  0.00     0.006 A 
ENDBRANCH  45  66
BRANCH  57  74
ATOM     74  C   UNL     1     -11.369  13.263  -0.347  1.00  0.00     0.057 A 
ATOM     75  C   UNL     1     -11.760  14.512  -0.845  1.00  0.00     0.134 A 
ATOM     76  C   UNL     1     -12.176  12.676   0.636  1.00  0.00     0.134 A 
ATOM     77  F   UNL     1     -11.022  15.132  -1.778  1.00  0.00    -0.206 F 
ATOM     78  C   UNL     1     -12.896  15.165  -0.364  1.00  0.00     0.040 A 
ATOM     79  C   UNL     1     -13.327  13.309   1.108  1.00  0.00     0.040 A 
ATOM     80  F   UNL     1     -11.862  11.477   1.149  1.00  0.00    -0.206 F 
ATOM     81  C   UNL     1     -13.685  14.560   0.613  1.00  0.00     0.006 A 
ENDBRANCH  57  74
ENDBRANCH  31  32
ENDBRANCH  24  26
ENDBRANCH  23  24
ENDBRANCH  22  23
ENDBRANCH   1  22
TORSDOF 13
