REMARK SMILES CC1=C(C(=O)OCCOC(=O)c2ccc(-c3c4nc(c(-c5c(F)cccc5F)c5ccc([nH]5)c(-c5c(F)cccc5F)c5nc(c(-c6c(F)cccc6F)c6ccc3[nH]6)C=C5)C=C4)cc2)[C@H](c2ccc(Cl)cc2)n2ncnc2N1
REMARK SMILES IDX 8 1 7 2 6 3 4 4 5 5 3 6 1 7 2 8 79 9 66 10 78 11 74 13 77 14
REMARK SMILES IDX 75 15 76 16 67 17 68 18 73 19 69 20 72 21 70 22 71 23 9 24
REMARK SMILES IDX 10 25 11 26 12 27 13 28 65 29 14 30 64 31 15 32 16 33 17 34
REMARK SMILES IDX 58 35 18 36 63 37 57 38 59 39 19 40 62 41 56 42 55 43 20 45
REMARK SMILES IDX 46 46 29 47 45 48 30 49 33 50 44 51 60 52 31 53 32 54 43 56
REMARK SMILES IDX 61 57 34 58 21 59 22 60 27 61 23 62 24 63 26 64 28 65 25 66
REMARK SMILES IDX 47 67 48 68 53 69 49 70 50 71 52 72 54 73 51 74 35 75 36 76
REMARK SMILES IDX 41 77 37 78 38 79 40 80 42 81 39 82
REMARK H PARENT 79 12 59 44 33 55
REMARK Flexibility Score: inf
ROOT
ATOM      1  C   UNL     1       2.351   3.792  -1.337  1.00  0.00     0.275 C 
ENDROOT
BRANCH   1   2
ATOM      2  C   UNL     1       1.115   3.415  -0.536  1.00  0.00     0.275 C 
BRANCH   2   3
ATOM      3  O   UNL     1       0.861   2.004  -0.640  1.00  0.00    -0.459 OA
BRANCH   3   4
ATOM      4  C   UNL     1       0.014   1.625  -1.629  1.00  0.00     0.338 C 
ATOM      5  O   UNL     1      -0.583   2.420  -2.339  1.00  0.00    -0.246 OA
BRANCH   4   6
ATOM      6  C   UNL     1       0.010   0.150  -1.851  1.00  0.00     0.085 C 
ATOM      7  C   UNL     1       0.741  -0.429   0.524  1.00  0.00     0.065 C 
ATOM      8  C   UNL     1       0.386  -0.756  -0.907  1.00  0.00     0.028 C 
ATOM      9  N   UNL     1       0.516  -2.098  -1.241  1.00  0.00    -0.328 N 
ATOM     10  C   UNL     1      -0.282  -0.294  -3.304  1.00  0.00     0.181 C 
ATOM     11  C   UNL     1       0.465  -2.553  -2.503  1.00  0.00     0.226 A 
ATOM     12  H   UNL     1       0.654  -2.749  -0.515  1.00  0.00     0.169 HD
ATOM     13  N   UNL     1       0.169  -1.683  -3.517  1.00  0.00    -0.219 N 
ATOM     14  N   UNL     1       0.661  -3.751  -2.991  1.00  0.00    -0.200 NA
ATOM     15  N   UNL     1       0.228  -2.303  -4.719  1.00  0.00    -0.157 NA
ATOM     16  C   UNL     1       0.511  -3.555  -4.338  1.00  0.00     0.248 A 
BRANCH  10  17
ATOM     17  C   UNL     1      -1.754  -0.132  -3.739  1.00  0.00    -0.018 A 
ATOM     18  C   UNL     1      -2.689  -1.184  -3.688  1.00  0.00     0.008 A 
ATOM     19  C   UNL     1      -2.212   1.113  -4.211  1.00  0.00     0.008 A 
ATOM     20  C   UNL     1      -4.025  -0.984  -4.055  1.00  0.00     0.021 A 
ATOM     21  C   UNL     1      -3.559   1.332  -4.516  1.00  0.00     0.021 A 
ATOM     22  C   UNL     1      -4.461   0.281  -4.436  1.00  0.00     0.041 A 
ATOM     23  Cl  UNL     1      -6.119   0.545  -4.810  1.00  0.00    -0.084 Cl
ENDBRANCH  10  17
ENDBRANCH   4   6
ENDBRANCH   3   4
ENDBRANCH   2   3
ENDBRANCH   1   2
BRANCH   1  24
ATOM     24  O   UNL     1       2.115   3.737  -2.745  1.00  0.00    -0.458 OA
BRANCH  24  25
ATOM     25  C   UNL     1       2.484   2.586  -3.349  1.00  0.00     0.338 C 
ATOM     26  O   UNL     1       2.569   1.478  -2.848  1.00  0.00    -0.246 OA
BRANCH  25  27
ATOM     27  C   UNL     1       3.007   2.899  -4.684  1.00  0.00     0.060 A 
ATOM     28  C   UNL     1       3.403   1.831  -5.494  1.00  0.00     0.016 A 
ATOM     29  C   UNL     1       3.319   4.226  -5.015  1.00  0.00     0.016 A 
ATOM     30  C   UNL     1       4.225   2.090  -6.573  1.00  0.00     0.010 A 
ATOM     31  C   UNL     1       4.145   4.481  -6.086  1.00  0.00     0.010 A 
ATOM     32  C   UNL     1       4.638   3.406  -6.819  1.00  0.00    -0.014 A 
BRANCH  32  33
ATOM     33  C   UNL     1       5.495   3.652  -7.962  1.00  0.00     0.031 A 
ATOM     34  C   UNL     1       4.825   3.396  -9.259  1.00  0.00     0.074 A 
ATOM     35  C   UNL     1       6.724   4.193  -7.865  1.00  0.00     0.049 A 
ATOM     36  N   UNL     1       5.133   2.510 -10.146  1.00  0.00    -0.248 NA
ATOM     37  C   UNL     1       3.574   4.122  -9.538  1.00  0.00     0.031 C 
ATOM     38  C   UNL     1       7.376   4.758  -6.681  1.00  0.00     0.029 A 
ATOM     39  N   UNL     1       7.624   4.436  -8.856  1.00  0.00    -0.354 N 
ATOM     40  C   UNL     1       4.234   2.699 -11.190  1.00  0.00     0.074 A 
ATOM     41  C   UNL     1       3.207   3.579 -10.698  1.00  0.00     0.031 C 
ATOM     42  C   UNL     1       8.462   5.466  -7.067  1.00  0.00     0.029 A 
ATOM     43  C   UNL     1       8.656   5.291  -8.497  1.00  0.00     0.049 A 
ATOM     44  H   UNL     1       7.548   4.039  -9.754  1.00  0.00     0.167 HD
ATOM     45  C   UNL     1       4.548   2.323 -12.457  1.00  0.00     0.037 A 
ATOM     46  C   UNL     1       9.565   5.853  -9.333  1.00  0.00     0.037 A 
ATOM     47  C   UNL     1       5.596   1.336 -12.470  1.00  0.00     0.049 A 
ATOM     48  C   UNL     1       9.573   5.060 -10.585  1.00  0.00     0.074 A 
ATOM     49  C   UNL     1       5.747   0.071 -11.933  1.00  0.00     0.029 A 
ATOM     50  N   UNL     1       6.861   1.748 -12.805  1.00  0.00    -0.354 N 
ATOM     51  N   UNL     1      10.033   3.844 -10.676  1.00  0.00    -0.248 NA
ATOM     52  C   UNL     1       8.675   5.468 -11.654  1.00  0.00     0.031 C 
ATOM     53  C   UNL     1       7.114  -0.001 -11.533  1.00  0.00     0.029 A 
ATOM     54  C   UNL     1       7.728   1.197 -11.898  1.00  0.00     0.049 A 
ATOM     55  H   UNL     1       7.102   2.333 -13.560  1.00  0.00     0.167 HD
ATOM     56  C   UNL     1       9.154   3.201 -11.534  1.00  0.00     0.074 A 
ATOM     57  C   UNL     1       8.406   4.273 -12.186  1.00  0.00     0.031 C 
ATOM     58  C   UNL     1       8.921   1.860 -11.422  1.00  0.00     0.037 A 
BRANCH  45  59
ATOM     59  C   UNL     1       4.189   3.147 -13.668  1.00  0.00     0.057 A 
ATOM     60  C   UNL     1       4.426   2.622 -14.950  1.00  0.00     0.134 A 
ATOM     61  C   UNL     1       3.910   4.530 -13.628  1.00  0.00     0.134 A 
ATOM     62  F   UNL     1       4.726   1.326 -15.117  1.00  0.00    -0.206 F 
ATOM     63  C   UNL     1       4.453   3.428 -16.095  1.00  0.00     0.040 A 
ATOM     64  C   UNL     1       3.882   5.332 -14.770  1.00  0.00     0.040 A 
ATOM     65  F   UNL     1       3.755   5.201 -12.480  1.00  0.00    -0.206 F 
ATOM     66  C   UNL     1       4.187   4.789 -16.006  1.00  0.00     0.006 A 
ENDBRANCH  45  59
BRANCH  46  67
ATOM     67  C   UNL     1      10.211   7.183  -9.251  1.00  0.00     0.057 A 
ATOM     68  C   UNL     1      11.338   7.489 -10.029  1.00  0.00     0.134 A 
ATOM     69  C   UNL     1       9.572   8.273  -8.636  1.00  0.00     0.134 A 
ATOM     70  F   UNL     1      11.993   6.522 -10.688  1.00  0.00    -0.206 F 
ATOM     71  C   UNL     1      11.783   8.805 -10.212  1.00  0.00     0.040 A 
ATOM     72  C   UNL     1      10.010   9.590  -8.804  1.00  0.00     0.040 A 
ATOM     73  F   UNL     1       8.445   8.106  -7.928  1.00  0.00    -0.206 F 
ATOM     74  C   UNL     1      11.110   9.862  -9.608  1.00  0.00     0.006 A 
ENDBRANCH  46  67
BRANCH  58  75
ATOM     75  C   UNL     1       9.845   1.063 -10.541  1.00  0.00     0.057 A 
ATOM     76  C   UNL     1       9.991   1.264  -9.160  1.00  0.00     0.134 A 
ATOM     77  C   UNL     1      10.523  -0.029 -11.093  1.00  0.00     0.134 A 
ATOM     78  F   UNL     1       9.305   2.219  -8.519  1.00  0.00    -0.206 F 
ATOM     79  C   UNL     1      10.818   0.451  -8.378  1.00  0.00     0.040 A 
ATOM     80  C   UNL     1      11.323  -0.871 -10.318  1.00  0.00     0.040 A 
ATOM     81  F   UNL     1      10.388  -0.319 -12.397  1.00  0.00    -0.206 F 
ATOM     82  C   UNL     1      11.484  -0.625  -8.957  1.00  0.00     0.006 A 
ENDBRANCH  58  75
ENDBRANCH  32  33
ENDBRANCH  25  27
ENDBRANCH  24  25
ENDBRANCH   1  24
TORSDOF 12
