REMARK SMILES O=C(OCCOC(=O)[C@H]1CCCCC1C(=O)N1CCN(S(=O)(=O)c2ccc(F)cc2)CC1)c1ccc(-c2c3nc(c(-c4c(F)cccc4F)c4ccc([nH]4)c(-c4c(F)cccc4F)c4nc(c(-c5c(F)cccc5F)c5ccc2[nH]5)C=C4)C=C3)cc1
REMARK SMILES IDX 5 1 4 2 3 3 2 4 1 5 33 6 34 7 86 8 35 9 85 10 36 11 37 12
REMARK SMILES IDX 38 13 79 14 39 15 84 16 78 17 80 18 40 19 83 20 77 21 76 22
REMARK SMILES IDX 41 24 67 25 50 26 66 27 51 28 54 29 65 30 81 31 52 32 53 33
REMARK SMILES IDX 64 35 82 36 55 37 42 38 43 39 48 40 44 41 45 42 47 43 49 44
REMARK SMILES IDX 46 45 68 46 69 47 74 48 70 49 71 50 73 51 75 52 72 53 56 54
REMARK SMILES IDX 57 55 62 56 58 57 59 58 61 59 63 60 60 61 6 62 7 63 8 64
REMARK SMILES IDX 9 65 10 66 14 67 11 68 13 69 12 70 15 71 16 72 17 73 18 74
REMARK SMILES IDX 32 75 19 76 31 77 20 78 21 79 22 80 23 81 24 82 25 83 30 84
REMARK SMILES IDX 26 85 29 86 27 87 28 88
REMARK H PARENT 80 23 54 34
REMARK Flexibility Score: inf
ROOT
ATOM      1  C   UNL     1      -1.407   2.985   0.274  1.00  0.00     0.274 C 
ENDROOT
BRANCH   1   2
ATOM      2  C   UNL     1      -2.005   3.166   1.665  1.00  0.00     0.275 C 
BRANCH   2   3
ATOM      3  O   UNL     1      -1.268   4.006   2.541  1.00  0.00    -0.458 OA
BRANCH   3   4
ATOM      4  C   UNL     1      -0.113   3.770   3.175  1.00  0.00     0.338 C 
ATOM      5  O   UNL     1       0.297   4.636   3.947  1.00  0.00    -0.246 OA
BRANCH   4   6
ATOM      6  C   UNL     1       0.771   2.559   3.042  1.00  0.00     0.060 A 
ATOM      7  C   UNL     1       0.954   1.256   1.760  1.00  0.00     0.016 A 
ATOM      8  C   UNL     1       1.945   2.560   4.429  1.00  0.00     0.016 A 
ATOM      9  C   UNL     1       2.135  -0.144   2.022  1.00  0.00     0.010 A 
ATOM     10  C   UNL     1       3.236   1.309   4.559  1.00  0.00     0.010 A 
ATOM     11  C   UNL     1       3.275  -0.130   3.455  1.00  0.00    -0.014 A 
BRANCH  11  12
ATOM     12  C   UNL     1       4.465  -1.055   3.552  1.00  0.00     0.031 A 
ATOM     13  C   UNL     1       5.084  -1.365   4.910  1.00  0.00     0.074 A 
ATOM     14  C   UNL     1       5.073  -1.507   2.427  1.00  0.00     0.049 A 
ATOM     15  N   UNL     1       6.132  -2.095   5.208  1.00  0.00    -0.248 NA
ATOM     16  C   UNL     1       4.513  -0.723   6.106  1.00  0.00     0.031 C 
ATOM     17  C   UNL     1       4.746  -1.140   1.046  1.00  0.00     0.029 A 
ATOM     18  N   UNL     1       6.115  -2.390   2.249  1.00  0.00    -0.354 N 
ATOM     19  C   UNL     1       6.306  -1.960   6.585  1.00  0.00     0.074 A 
ATOM     20  C   UNL     1       5.425  -0.928   7.035  1.00  0.00     0.031 C 
ATOM     21  C   UNL     1       5.458  -1.860   0.178  1.00  0.00     0.029 A 
ATOM     22  C   UNL     1       6.362  -2.700   0.927  1.00  0.00     0.049 A 
ATOM     23  H   UNL     1       6.635  -2.766   2.996  1.00  0.00     0.167 HD
ATOM     24  C   UNL     1       7.027  -2.719   7.440  1.00  0.00     0.037 A 
ATOM     25  C   UNL     1       7.208  -3.578   0.361  1.00  0.00     0.037 A 
ATOM     26  C   UNL     1       7.872  -3.772   6.974  1.00  0.00     0.049 A 
ATOM     27  C   UNL     1       8.017  -4.415   1.295  1.00  0.00     0.074 A 
ATOM     28  C   UNL     1       8.667  -4.636   7.694  1.00  0.00     0.029 A 
ATOM     29  N   UNL     1       8.025  -4.085   5.629  1.00  0.00    -0.354 N 
ATOM     30  N   UNL     1       8.063  -4.360   2.606  1.00  0.00    -0.248 NA
ATOM     31  C   UNL     1       8.862  -5.448   0.695  1.00  0.00     0.031 C 
ATOM     32  C   UNL     1       9.364  -5.425   6.774  1.00  0.00     0.029 A 
ATOM     33  C   UNL     1       8.936  -5.108   5.490  1.00  0.00     0.049 A 
ATOM     34  H   UNL     1       7.554  -3.642   4.887  1.00  0.00     0.167 HD
ATOM     35  C   UNL     1       8.926  -5.366   2.997  1.00  0.00     0.074 A 
ATOM     36  C   UNL     1       9.362  -6.027   1.779  1.00  0.00     0.031 C 
ATOM     37  C   UNL     1       9.328  -5.715   4.243  1.00  0.00     0.037 A 
BRANCH  24  38
ATOM     38  C   UNL     1       6.876  -2.445   8.916  1.00  0.00     0.057 A 
ATOM     39  C   UNL     1       7.933  -1.922   9.668  1.00  0.00     0.134 A 
ATOM     40  C   UNL     1       5.655  -2.646   9.587  1.00  0.00     0.134 A 
ATOM     41  F   UNL     1       9.125  -1.692   9.099  1.00  0.00    -0.206 F 
ATOM     42  C   UNL     1       7.782  -1.600  11.021  1.00  0.00     0.040 A 
ATOM     43  C   UNL     1       5.483  -2.298  10.930  1.00  0.00     0.040 A 
ATOM     44  F   UNL     1       4.583  -3.111   8.927  1.00  0.00    -0.206 F 
ATOM     45  C   UNL     1       6.552  -1.776  11.652  1.00  0.00     0.006 A 
ENDBRANCH  24  38
BRANCH  25  46
ATOM     46  C   UNL     1       7.199  -3.764  -1.119  1.00  0.00     0.057 A 
ATOM     47  C   UNL     1       7.629  -2.756  -1.994  1.00  0.00     0.134 A 
ATOM     48  C   UNL     1       6.628  -4.904  -1.699  1.00  0.00     0.134 A 
ATOM     49  F   UNL     1       8.155  -1.620  -1.513  1.00  0.00    -0.206 F 
ATOM     50  C   UNL     1       7.467  -2.862  -3.380  1.00  0.00     0.040 A 
ATOM     51  C   UNL     1       6.485  -5.035  -3.084  1.00  0.00     0.040 A 
ATOM     52  F   UNL     1       6.186  -5.906  -0.924  1.00  0.00    -0.206 F 
ATOM     53  C   UNL     1       6.893  -4.006  -3.929  1.00  0.00     0.006 A 
ENDBRANCH  25  46
BRANCH  37  54
ATOM     54  C   UNL     1      10.273  -6.862   4.341  1.00  0.00     0.057 A 
ATOM     55  C   UNL     1       9.861  -8.061   4.932  1.00  0.00     0.134 A 
ATOM     56  C   UNL     1      11.609  -6.739   3.948  1.00  0.00     0.134 A 
ATOM     57  F   UNL     1       8.593  -8.221   5.343  1.00  0.00    -0.206 F 
ATOM     58  C   UNL     1      10.760  -9.099   5.153  1.00  0.00     0.040 A 
ATOM     59  C   UNL     1      12.507  -7.786   4.127  1.00  0.00     0.040 A 
ATOM     60  F   UNL     1      12.050  -5.611   3.371  1.00  0.00    -0.206 F 
ATOM     61  C   UNL     1      12.086  -8.963   4.745  1.00  0.00     0.006 A 
ENDBRANCH  37  54
ENDBRANCH  11  12
ENDBRANCH   4   6
ENDBRANCH   3   4
ENDBRANCH   2   3
ENDBRANCH   1   2
BRANCH   1  62
ATOM     62  O   UNL     1       0.030   3.067   0.208  1.00  0.00    -0.462 OA
BRANCH  62  63
ATOM     63  C   UNL     1       0.674   4.233   0.474  1.00  0.00     0.309 C 
ATOM     64  O   UNL     1       0.109   5.315   0.464  1.00  0.00    -0.252 OA
BRANCH  63  65
ATOM     65  C   UNL     1       2.177   3.977   0.751  1.00  0.00     0.111 C 
ATOM     66  C   UNL     1       2.919   5.265   0.340  1.00  0.00     0.016 C 
ATOM     67  C   UNL     1       2.757   3.482   2.158  1.00  0.00     0.093 C 
ATOM     68  C   UNL     1       2.904   6.288   1.473  1.00  0.00     0.001 C 
ATOM     69  C   UNL     1       3.407   4.493   3.162  1.00  0.00     0.014 C 
ATOM     70  C   UNL     1       3.816   5.842   2.597  1.00  0.00     0.001 C 
BRANCH  67  71
ATOM     71  C   UNL     1       2.685   1.749   2.652  1.00  0.00     0.226 C 
ATOM     72  O   UNL     1       3.731   1.370   2.001  1.00  0.00    -0.275 OA
ATOM     73  N   UNL     1       1.357   0.733   3.710  1.00  0.00    -0.340 N 
ATOM     74  C   UNL     1       1.167   0.259   5.352  1.00  0.00     0.136 C 
ATOM     75  C   UNL     1       0.083  -0.244   3.234  1.00  0.00     0.136 C 
ATOM     76  C   UNL     1      -0.341   0.066   5.959  1.00  0.00     0.124 C 
ATOM     77  C   UNL     1      -1.153   0.462   3.749  1.00  0.00     0.124 C 
ATOM     78  N   UNL     1      -1.517  -0.096   5.017  1.00  0.00    -0.194 NA
BRANCH  78  79
ATOM     79  S   UNL     1      -2.451  -1.521   4.917  1.00  0.00     0.243 S 
ATOM     80  O   UNL     1      -1.668  -2.525   4.229  1.00  0.00    -0.207 OA
ATOM     81  O   UNL     1      -3.028  -1.766   6.218  1.00  0.00    -0.207 OA
BRANCH  79  82
ATOM     82  C   UNL     1      -3.799  -1.065   3.776  1.00  0.00     0.082 A 
ATOM     83  C   UNL     1      -3.566  -1.016   2.383  1.00  0.00     0.025 A 
ATOM     84  C   UNL     1      -5.063  -0.735   4.271  1.00  0.00     0.025 A 
ATOM     85  C   UNL     1      -4.529  -0.475   1.524  1.00  0.00     0.040 A 
ATOM     86  C   UNL     1      -6.053  -0.275   3.390  1.00  0.00     0.040 A 
ATOM     87  C   UNL     1      -5.766  -0.112   2.036  1.00  0.00     0.123 A 
ATOM     88  F   UNL     1      -6.694   0.397   1.215  1.00  0.00    -0.207 F 
ENDBRANCH  79  82
ENDBRANCH  78  79
ENDBRANCH  67  71
ENDBRANCH  63  65
ENDBRANCH  62  63
ENDBRANCH   1  62
TORSDOF 14
