REMARK SMILES Cc1nnc(SCC2=C(C(=O)OCCOC(=O)c3ccc(-c4c5nc(c(-c6c(F)cccc6F)c6ccc([nH]6)c(-c6c(F)cccc6F)c6nc(c(-c7c(F)cccc7F)c7ccc4[nH]7)C=C6)C=C5)cc3)N3C(=O)[C@H](NC(=O)c4cn(C)nc4C)[C@@H]3SC2)s1
REMARK SMILES IDX 13 1 12 2 10 3 11 4 9 5 8 6 88 7 72 8 87 9 73 10 86 11 74 12
REMARK SMILES IDX 75 13 7 14 6 15 5 16 1 17 2 18 3 19 89 20 4 21 76 22 77 23
REMARK SMILES IDX 78 25 79 26 80 27 84 28 81 29 83 30 85 31 82 32 14 33 15 34
REMARK SMILES IDX 16 35 17 36 18 37 19 38 71 39 20 40 70 41 21 42 22 43 23 44
REMARK SMILES IDX 64 45 24 46 69 47 63 48 65 49 25 50 68 51 62 52 61 53 26 55
REMARK SMILES IDX 52 56 35 57 51 58 36 59 39 60 50 61 66 62 37 63 38 64 49 66
REMARK SMILES IDX 67 67 40 68 27 69 28 70 33 71 29 72 30 73 32 74 34 75 31 76
REMARK SMILES IDX 53 77 54 78 59 79 55 80 56 81 58 82 60 83 57 84 41 85 42 86
REMARK SMILES IDX 47 87 43 88 44 89 46 90 48 91 45 92
REMARK H PARENT 76 24 65 54 39 65
REMARK Flexibility Score: inf
ROOT
ATOM      1  C   UNL     1       6.050  -3.175  -1.929  1.00  0.00     0.275 C 
ENDROOT
BRANCH   1   2
ATOM      2  O   UNL     1       5.493  -2.622  -0.716  1.00  0.00    -0.457 OA
BRANCH   2   3
ATOM      3  C   UNL     1       4.385  -3.231  -0.202  1.00  0.00     0.355 C 
ATOM      4  O   UNL     1       3.865  -4.237  -0.649  1.00  0.00    -0.244 OA
BRANCH   3   5
ATOM      5  C   UNL     1       3.976  -2.531   1.077  1.00  0.00     0.132 C 
ATOM      6  C   UNL     1       3.872  -1.174   1.173  1.00  0.00    -0.019 C 
ATOM      7  C   UNL     1       3.527  -0.462   2.480  1.00  0.00     0.106 C 
ATOM      8  N   UNL     1       3.728  -3.314   2.168  1.00  0.00    -0.289 N 
ATOM      9  S   UNL     1       2.664  -1.492   3.713  1.00  0.00    -0.129 SA
ATOM     10  C   UNL     1       3.479  -4.606   2.470  1.00  0.00     0.253 C 
ATOM     11  C   UNL     1       3.838  -2.836   3.530  1.00  0.00     0.181 C 
ATOM     12  O   UNL     1       3.361  -5.616   1.822  1.00  0.00    -0.272 OA
ATOM     13  C   UNL     1       3.448  -4.260   3.993  1.00  0.00     0.206 C 
BRANCH   6  14
ATOM     14  C   UNL     1       4.094  -0.273  -0.039  1.00  0.00     0.111 C 
BRANCH  14  15
ATOM     15  S   UNL     1       2.993   1.159  -0.212  1.00  0.00    -0.089 SA
BRANCH  15  16
ATOM     16  C   UNL     1       1.418   0.403  -0.253  1.00  0.00     0.174 A 
ATOM     17  C   UNL     1      -2.345  -0.261  -0.011  1.00  0.00     0.081 C 
ATOM     18  C   UNL     1      -0.868  -0.207  -0.136  1.00  0.00     0.115 A 
ATOM     19  N   UNL     1      -0.083  -1.253  -0.287  1.00  0.00    -0.143 NA
ATOM     20  S   UNL     1      -0.036   1.295  -0.090  1.00  0.00    -0.091 S 
ATOM     21  N   UNL     1       1.248  -0.894  -0.366  1.00  0.00    -0.132 NA
ENDBRANCH  15  16
ENDBRANCH  14  15
ENDBRANCH   6  14
BRANCH  13  22
ATOM     22  N   UNL     1       2.154  -4.484   4.674  1.00  0.00    -0.337 N 
ATOM     23  C   UNL     1       1.924  -5.242   5.801  1.00  0.00     0.255 C 
ATOM     24  H   UNL     1       1.369  -4.043   4.276  1.00  0.00     0.164 HD
ATOM     25  O   UNL     1       0.778  -5.607   6.050  1.00  0.00    -0.269 OA
BRANCH  23  26
ATOM     26  C   UNL     1       3.046  -5.580   6.660  1.00  0.00     0.080 A 
ATOM     27  C   UNL     1       4.037  -4.733   7.130  1.00  0.00     0.122 A 
ATOM     28  C   UNL     1       3.330  -6.825   7.290  1.00  0.00     0.072 A 
ATOM     29  N   UNL     1       4.823  -5.481   7.956  1.00  0.00    -0.275 N 
ATOM     30  N   UNL     1       4.420  -6.752   8.065  1.00  0.00    -0.178 NA
ATOM     31  C   UNL     1       2.607  -8.117   7.184  1.00  0.00     0.069 C 
ATOM     32  C   UNL     1       5.974  -5.043   8.709  1.00  0.00     0.173 C 
ENDBRANCH  23  26
ENDBRANCH  13  22
ENDBRANCH   3   5
ENDBRANCH   2   3
ENDBRANCH   1   2
BRANCH   1  33
ATOM     33  C   UNL     1       7.569  -3.325  -1.801  1.00  0.00     0.275 C 
BRANCH  33  34
ATOM     34  O   UNL     1       7.894  -4.352  -0.845  1.00  0.00    -0.458 OA
BRANCH  34  35
ATOM     35  C   UNL     1       8.068  -3.912   0.421  1.00  0.00     0.338 C 
ATOM     36  O   UNL     1       8.093  -2.757   0.815  1.00  0.00    -0.246 OA
BRANCH  35  37
ATOM     37  C   UNL     1       7.983  -5.054   1.340  1.00  0.00     0.060 A 
ATOM     38  C   UNL     1       6.833  -5.120   2.119  1.00  0.00     0.016 A 
ATOM     39  C   UNL     1       9.003  -5.986   1.509  1.00  0.00     0.016 A 
ATOM     40  C   UNL     1       6.693  -6.100   3.092  1.00  0.00     0.010 A 
ATOM     41  C   UNL     1       8.859  -6.984   2.486  1.00  0.00     0.010 A 
ATOM     42  C   UNL     1       7.710  -7.035   3.298  1.00  0.00    -0.014 A 
BRANCH  42  43
ATOM     43  C   UNL     1       7.576  -7.990   4.429  1.00  0.00     0.031 A 
ATOM     44  C   UNL     1       8.463  -7.843   5.633  1.00  0.00     0.074 A 
ATOM     45  C   UNL     1       6.611  -8.929   4.423  1.00  0.00     0.049 A 
ATOM     46  N   UNL     1       8.566  -8.607   6.690  1.00  0.00    -0.248 NA
ATOM     47  C   UNL     1       9.354  -6.672   5.650  1.00  0.00     0.031 C 
ATOM     48  C   UNL     1       5.617  -9.117   3.365  1.00  0.00     0.029 A 
ATOM     49  N   UNL     1       6.301  -9.897   5.347  1.00  0.00    -0.354 N 
ATOM     50  C   UNL     1       9.550  -8.032   7.481  1.00  0.00     0.074 A 
ATOM     51  C   UNL     1      10.026  -6.860   6.776  1.00  0.00     0.031 C 
ATOM     52  C   UNL     1       4.810 -10.136   3.700  1.00  0.00     0.029 A 
ATOM     53  C   UNL     1       5.265 -10.712   4.962  1.00  0.00     0.049 A 
ATOM     54  H   UNL     1       6.777  -9.997   6.203  1.00  0.00     0.167 HD
ATOM     55  C   UNL     1      10.018  -8.446   8.683  1.00  0.00     0.037 A 
ATOM     56  C   UNL     1       4.764 -11.820   5.541  1.00  0.00     0.037 A 
ATOM     57  C   UNL     1       9.528  -9.601   9.390  1.00  0.00     0.049 A 
ATOM     58  C   UNL     1       5.359 -12.311   6.832  1.00  0.00     0.074 A 
ATOM     59  C   UNL     1       9.945 -10.106  10.609  1.00  0.00     0.029 A 
ATOM     60  N   UNL     1       8.510 -10.431   8.942  1.00  0.00    -0.354 N 
ATOM     61  N   UNL     1       6.321 -11.789   7.553  1.00  0.00    -0.248 NA
ATOM     62  C   UNL     1       4.804 -13.555   7.386  1.00  0.00     0.031 C 
ATOM     63  C   UNL     1       9.224 -11.276  10.869  1.00  0.00     0.029 A 
ATOM     64  C   UNL     1       8.313 -11.466   9.842  1.00  0.00     0.049 A 
ATOM     65  H   UNL     1       8.002 -10.303   8.108  1.00  0.00     0.167 HD
ATOM     66  C   UNL     1       6.468 -12.620   8.656  1.00  0.00     0.074 A 
ATOM     67  C   UNL     1       5.490 -13.678   8.514  1.00  0.00     0.031 C 
ATOM     68  C   UNL     1       7.335 -12.514   9.693  1.00  0.00     0.037 A 
BRANCH  55  69
ATOM     69  C   UNL     1      11.161  -7.677   9.278  1.00  0.00     0.057 A 
ATOM     70  C   UNL     1      11.007  -6.385   9.799  1.00  0.00     0.134 A 
ATOM     71  C   UNL     1      12.438  -8.250   9.338  1.00  0.00     0.134 A 
ATOM     72  F   UNL     1       9.816  -5.769   9.753  1.00  0.00    -0.206 F 
ATOM     73  C   UNL     1      12.090  -5.682  10.332  1.00  0.00     0.040 A 
ATOM     74  C   UNL     1      13.521  -7.568   9.894  1.00  0.00     0.040 A 
ATOM     75  F   UNL     1      12.655  -9.484   8.859  1.00  0.00    -0.206 F 
ATOM     76  C   UNL     1      13.350  -6.276  10.386  1.00  0.00     0.006 A 
ENDBRANCH  55  69
BRANCH  56  77
ATOM     77  C   UNL     1       3.670 -12.573   4.875  1.00  0.00     0.057 A 
ATOM     78  C   UNL     1       2.390 -12.648   5.433  1.00  0.00     0.134 A 
ATOM     79  C   UNL     1       3.888 -13.251   3.668  1.00  0.00     0.134 A 
ATOM     80  F   UNL     1       2.126 -12.043   6.600  1.00  0.00    -0.206 F 
ATOM     81  C   UNL     1       1.370 -13.382   4.825  1.00  0.00     0.040 A 
ATOM     82  C   UNL     1       2.869 -13.963   3.033  1.00  0.00     0.040 A 
ATOM     83  F   UNL     1       5.094 -13.222   3.082  1.00  0.00    -0.206 F 
ATOM     84  C   UNL     1       1.607 -14.036   3.617  1.00  0.00     0.006 A 
ENDBRANCH  56  77
BRANCH  68  85
ATOM     85  C   UNL     1       7.245 -13.550  10.777  1.00  0.00     0.057 A 
ATOM     86  C   UNL     1       7.666 -14.872  10.578  1.00  0.00     0.134 A 
ATOM     87  C   UNL     1       6.771 -13.209  12.050  1.00  0.00     0.134 A 
ATOM     88  F   UNL     1       8.120 -15.268   9.380  1.00  0.00    -0.206 F 
ATOM     89  C   UNL     1       7.596 -15.821  11.600  1.00  0.00     0.040 A 
ATOM     90  C   UNL     1       6.723 -14.141  13.087  1.00  0.00     0.040 A 
ATOM     91  F   UNL     1       6.362 -11.958  12.313  1.00  0.00    -0.206 F 
ATOM     92  C   UNL     1       7.131 -15.454  12.861  1.00  0.00     0.006 A 
ENDBRANCH  68  85
ENDBRANCH  42  43
ENDBRANCH  35  37
ENDBRANCH  34  35
ENDBRANCH  33  34
ENDBRANCH   1  33
TORSDOF 16
