REMARK SMILES CCCOc1cccc([C@H]2CC[NH2+][C@@H]2C(=O)OCCOC(=O)c2ccc(-c3c4nc(c(-c5c(F)cccc5F)c5ccc([nH]5)c(-c5c(F)cccc5F)c5nc(c(-c6c(F)cccc6F)c6ccc3[nH]6)C=C5)C=C4)cc2)c1
REMARK SMILES IDX 18 1 17 2 15 3 16 4 14 5 10 6 11 7 12 8 13 9 9 12 5 13 6 14
REMARK SMILES IDX 77 15 7 16 8 17 4 18 3 19 2 20 1 21 19 22 20 23 21 24 22 25
REMARK SMILES IDX 23 26 24 27 76 28 25 29 75 30 26 31 27 32 28 33 69 34 29 35
REMARK SMILES IDX 74 36 68 37 70 38 30 39 73 40 67 41 66 42 31 44 57 45 40 46
REMARK SMILES IDX 56 47 41 48 44 49 55 50 71 51 42 52 43 53 54 55 72 56 45 57
REMARK SMILES IDX 32 58 33 59 38 60 34 61 35 62 37 63 39 64 36 65 58 66 59 67
REMARK SMILES IDX 64 68 60 69 61 70 63 71 65 72 62 73 46 74 47 75 52 76 48 77
REMARK SMILES IDX 49 78 51 79 53 80 50 81
REMARK H PARENT 13 10 13 11 70 43 44 54
REMARK Flexibility Score: inf
ROOT
ATOM      1  C   UNL     1       4.043   0.087  -0.042  1.00  0.00     0.274 C 
ENDROOT
BRANCH   1   2
ATOM      2  O   UNL     1       3.544  -1.152  -0.589  1.00  0.00    -0.458 OA
BRANCH   2   3
ATOM      3  C   UNL     1       2.235  -1.432  -0.314  1.00  0.00     0.365 C 
ATOM      4  O   UNL     1       1.476  -0.681   0.288  1.00  0.00    -0.245 OA
BRANCH   3   5
ATOM      5  C   UNL     1       1.836  -2.802  -0.901  1.00  0.00     0.301 C 
ATOM      6  C   UNL     1       0.908  -2.613  -2.128  1.00  0.00     0.095 C 
ATOM      7  C   UNL     1      -0.428  -3.219  -1.664  1.00  0.00     0.076 C 
ATOM      8  C   UNL     1      -0.350  -3.211  -0.154  1.00  0.00     0.262 C 
ATOM      9  N   UNL     1       1.046  -3.567   0.111  1.00  0.00    -0.334 N 
ATOM     10  H   UNL     1       1.189  -4.571  -0.006  1.00  0.00     0.347 HD
ATOM     11  H   UNL     1       1.326  -3.343   1.066  1.00  0.00     0.347 HD
BRANCH   6  12
ATOM     12  C   UNL     1       1.325  -3.148  -3.486  1.00  0.00    -0.034 A 
ATOM     13  C   UNL     1       2.919  -4.225  -4.959  1.00  0.00     0.119 A 
ATOM     14  C   UNL     1       1.989  -4.278  -5.989  1.00  0.00     0.046 A 
ATOM     15  C   UNL     1       2.620  -3.593  -3.753  1.00  0.00     0.050 A 
ATOM     16  C   UNL     1       0.723  -3.740  -5.784  1.00  0.00     0.004 A 
ATOM     17  C   UNL     1       0.391  -3.191  -4.541  1.00  0.00     0.004 A 
BRANCH  13  18
ATOM     18  O   UNL     1       4.154  -4.788  -5.135  1.00  0.00    -0.494 OA
BRANCH  18  19
ATOM     19  C   UNL     1       4.218  -6.090  -4.519  1.00  0.00     0.229 C 
BRANCH  19  20
ATOM     20  C   UNL     1       4.788  -6.012  -3.098  1.00  0.00     0.038 C 
ATOM     21  C   UNL     1       3.748  -6.327  -2.026  1.00  0.00     0.007 C 
ENDBRANCH  19  20
ENDBRANCH  18  19
ENDBRANCH  13  18
ENDBRANCH   6  12
ENDBRANCH   3   5
ENDBRANCH   2   3
ENDBRANCH   1   2
BRANCH   1  22
ATOM     22  C   UNL     1       4.098   1.172  -1.113  1.00  0.00     0.275 C 
BRANCH  22  23
ATOM     23  O   UNL     1       2.773   1.420  -1.613  1.00  0.00    -0.458 OA
BRANCH  23  24
ATOM     24  C   UNL     1       2.643   1.434  -2.956  1.00  0.00     0.338 C 
ATOM     25  O   UNL     1       3.545   1.345  -3.781  1.00  0.00    -0.246 OA
BRANCH  24  26
ATOM     26  C   UNL     1       1.221   1.543  -3.344  1.00  0.00     0.060 A 
ATOM     27  C   UNL     1       0.223   0.904  -2.610  1.00  0.00     0.016 A 
ATOM     28  C   UNL     1       0.892   2.178  -4.541  1.00  0.00     0.016 A 
ATOM     29  C   UNL     1      -1.054   0.751  -3.153  1.00  0.00     0.010 A 
ATOM     30  C   UNL     1      -0.425   2.144  -5.011  1.00  0.00     0.010 A 
ATOM     31  C   UNL     1      -1.406   1.379  -4.357  1.00  0.00    -0.014 A 
BRANCH  31  32
ATOM     32  C   UNL     1      -2.761   1.204  -4.965  1.00  0.00     0.031 A 
ATOM     33  C   UNL     1      -2.894   0.779  -6.408  1.00  0.00     0.074 A 
ATOM     34  C   UNL     1      -3.885   1.417  -4.250  1.00  0.00     0.049 A 
ATOM     35  N   UNL     1      -3.935   0.849  -7.200  1.00  0.00    -0.248 NA
ATOM     36  C   UNL     1      -1.692   0.222  -7.053  1.00  0.00     0.031 C 
ATOM     37  C   UNL     1      -3.945   1.782  -2.834  1.00  0.00     0.029 A 
ATOM     38  N   UNL     1      -5.207   1.349  -4.625  1.00  0.00    -0.354 N 
ATOM     39  C   UNL     1      -3.490   0.441  -8.452  1.00  0.00     0.074 A 
ATOM     40  C   UNL     1      -2.091   0.096  -8.311  1.00  0.00     0.031 C 
ATOM     41  C   UNL     1      -5.227   1.845  -2.446  1.00  0.00     0.029 A 
ATOM     42  C   UNL     1      -6.083   1.641  -3.607  1.00  0.00     0.049 A 
ATOM     43  H   UNL     1      -5.497   1.114  -5.536  1.00  0.00     0.167 HD
ATOM     44  C   UNL     1      -4.183   0.372  -9.615  1.00  0.00     0.037 A 
ATOM     45  C   UNL     1      -7.422   1.785  -3.610  1.00  0.00     0.037 A 
ATOM     46  C   UNL     1      -5.595   0.624  -9.738  1.00  0.00     0.049 A 
ATOM     47  C   UNL     1      -8.176   1.675  -4.902  1.00  0.00     0.074 A 
ATOM     48  C   UNL     1      -6.385   0.588 -10.875  1.00  0.00     0.029 A 
ATOM     49  N   UNL     1      -6.437   0.916  -8.677  1.00  0.00    -0.354 N 
ATOM     50  N   UNL     1      -7.720   1.421  -6.103  1.00  0.00    -0.248 NA
ATOM     51  C   UNL     1      -9.626   1.911  -4.843  1.00  0.00     0.031 C 
ATOM     52  C   UNL     1      -7.705   0.865 -10.502  1.00  0.00     0.029 A 
ATOM     53  C   UNL     1      -7.739   1.048  -9.130  1.00  0.00     0.049 A 
ATOM     54  H   UNL     1      -6.152   1.014  -7.739  1.00  0.00     0.167 HD
ATOM     55  C   UNL     1      -8.823   1.474  -6.944  1.00  0.00     0.074 A 
ATOM     56  C   UNL     1      -9.975   1.754  -6.113  1.00  0.00     0.031 C 
ATOM     57  C   UNL     1      -8.873   1.321  -8.289  1.00  0.00     0.037 A 
BRANCH  44  58
ATOM     58  C   UNL     1      -3.420   0.041 -10.863  1.00  0.00     0.057 A 
ATOM     59  C   UNL     1      -3.006  -1.261 -11.163  1.00  0.00     0.134 A 
ATOM     60  C   UNL     1      -3.146   1.041 -11.806  1.00  0.00     0.134 A 
ATOM     61  F   UNL     1      -3.225  -2.260 -10.295  1.00  0.00    -0.206 F 
ATOM     62  C   UNL     1      -2.336  -1.556 -12.352  1.00  0.00     0.040 A 
ATOM     63  C   UNL     1      -2.495   0.756 -13.007  1.00  0.00     0.040 A 
ATOM     64  F   UNL     1      -3.522   2.310 -11.582  1.00  0.00    -0.206 F 
ATOM     65  C   UNL     1      -2.086  -0.547 -13.282  1.00  0.00     0.006 A 
ENDBRANCH  44  58
BRANCH  45  66
ATOM     66  C   UNL     1      -8.130   2.111  -2.347  1.00  0.00     0.057 A 
ATOM     67  C   UNL     1      -8.947   1.168  -1.715  1.00  0.00     0.134 A 
ATOM     68  C   UNL     1      -7.998   3.365  -1.738  1.00  0.00     0.134 A 
ATOM     69  F   UNL     1      -9.133  -0.041  -2.265  1.00  0.00    -0.206 F 
ATOM     70  C   UNL     1      -9.611   1.461  -0.523  1.00  0.00     0.040 A 
ATOM     71  C   UNL     1      -8.635   3.662  -0.533  1.00  0.00     0.040 A 
ATOM     72  F   UNL     1      -7.228   4.311  -2.296  1.00  0.00    -0.206 F 
ATOM     73  C   UNL     1      -9.448   2.709   0.076  1.00  0.00     0.006 A 
ENDBRANCH  45  66
BRANCH  57  74
ATOM     74  C   UNL     1     -10.219   1.436  -8.934  1.00  0.00     0.057 A 
ATOM     75  C   UNL     1     -10.819   2.681  -9.156  1.00  0.00     0.134 A 
ATOM     76  C   UNL     1     -10.912   0.294  -9.350  1.00  0.00     0.134 A 
ATOM     77  F   UNL     1     -10.209   3.810  -8.765  1.00  0.00    -0.206 F 
ATOM     78  C   UNL     1     -12.074   2.785  -9.757  1.00  0.00     0.040 A 
ATOM     79  C   UNL     1     -12.160   0.386  -9.966  1.00  0.00     0.040 A 
ATOM     80  F   UNL     1     -10.386  -0.927  -9.166  1.00  0.00    -0.206 F 
ATOM     81  C   UNL     1     -12.746   1.634 -10.167  1.00  0.00     0.006 A 
ENDBRANCH  57  74
ENDBRANCH  31  32
ENDBRANCH  24  26
ENDBRANCH  23  24
ENDBRANCH  22  23
ENDBRANCH   1  22
TORSDOF 15
