REMARK SMILES O=C(OCCOC(=O)c1cn(C2CN(C(=O)Nc3ccsc3)C2)nn1)c1ccc(-c2c3nc(c(-c4c(F)cccc4F)c4ccc([nH]4)c(-c4c(F)cccc4F)c4nc(c(-c5c(F)cccc5F)c5ccc2[nH]5)C=C4)C=C3)cc1
REMARK SMILES IDX 4 1 3 2 2 3 1 4 26 5 27 6 79 7 28 8 78 9 29 10 30 11 31 12
REMARK SMILES IDX 72 13 32 14 77 15 71 16 73 17 33 18 76 19 70 20 69 21 34 23
REMARK SMILES IDX 60 24 43 25 59 26 44 27 47 28 58 29 74 30 45 31 46 32 57 34
REMARK SMILES IDX 75 35 48 36 35 37 36 38 41 39 37 40 38 41 40 42 42 43 39 44
REMARK SMILES IDX 61 45 62 46 67 47 63 48 64 49 66 50 68 51 65 52 49 53 50 54
REMARK SMILES IDX 55 55 51 56 52 57 54 58 56 59 53 60 5 61 6 62 7 63 8 64 9 65
REMARK SMILES IDX 10 66 25 67 11 68 24 69 12 70 13 71 23 72 14 73 15 74 16 75
REMARK SMILES IDX 17 76 18 78 19 79 22 80 20 81 21 82
REMARK H PARENT 73 22 47 33 17 77
REMARK Flexibility Score: inf
ROOT
ATOM      1  C   UNL     1       4.667   0.188   1.028  1.00  0.00     0.275 C 
ENDROOT
BRANCH   1   2
ATOM      2  O   UNL     1       3.447   0.955   1.139  1.00  0.00    -0.458 OA
BRANCH   2   3
ATOM      3  C   UNL     1       2.390   0.660   0.348  1.00  0.00     0.338 C 
ATOM      4  O   UNL     1       1.595  -0.236   0.566  1.00  0.00    -0.246 OA
BRANCH   3   5
ATOM      5  C   UNL     1       2.218   1.683  -0.712  1.00  0.00     0.060 A 
ATOM      6  C   UNL     1       3.305   2.430  -1.177  1.00  0.00     0.016 A 
ATOM      7  C   UNL     1       0.942   1.893  -1.255  1.00  0.00     0.016 A 
ATOM      8  C   UNL     1       3.106   3.421  -2.125  1.00  0.00     0.010 A 
ATOM      9  C   UNL     1       0.742   2.892  -2.207  1.00  0.00     0.010 A 
ATOM     10  C   UNL     1       1.821   3.673  -2.622  1.00  0.00    -0.014 A 
BRANCH  10  11
ATOM     11  C   UNL     1       1.703   4.714  -3.640  1.00  0.00     0.031 A 
ATOM     12  C   UNL     1       2.439   4.457  -4.909  1.00  0.00     0.074 A 
ATOM     13  C   UNL     1       0.959   5.831  -3.522  1.00  0.00     0.049 A 
ATOM     14  N   UNL     1       3.462   5.095  -5.378  1.00  0.00    -0.248 NA
ATOM     15  C   UNL     1       2.027   3.304  -5.720  1.00  0.00     0.031 C 
ATOM     16  C   UNL     1      -0.052   6.152  -2.516  1.00  0.00     0.029 A 
ATOM     17  N   UNL     1       0.917   6.908  -4.362  1.00  0.00    -0.354 N 
ATOM     18  C   UNL     1       3.728   4.541  -6.628  1.00  0.00     0.074 A 
ATOM     19  C   UNL     1       2.887   3.375  -6.739  1.00  0.00     0.031 C 
ATOM     20  C   UNL     1      -0.745   7.244  -2.916  1.00  0.00     0.029 A 
ATOM     21  C   UNL     1      -0.136   7.778  -4.125  1.00  0.00     0.049 A 
ATOM     22  H   UNL     1       1.580   7.054  -5.075  1.00  0.00     0.167 HD
ATOM     23  C   UNL     1       4.492   5.189  -7.552  1.00  0.00     0.037 A 
ATOM     24  C   UNL     1      -0.504   8.834  -4.891  1.00  0.00     0.037 A 
ATOM     25  C   UNL     1       5.288   6.227  -6.950  1.00  0.00     0.049 A 
ATOM     26  C   UNL     1       0.652   9.223  -5.731  1.00  0.00     0.074 A 
ATOM     27  C   UNL     1       6.249   6.270  -5.957  1.00  0.00     0.029 A 
ATOM     28  N   UNL     1       4.917   7.533  -7.150  1.00  0.00    -0.354 N 
ATOM     29  N   UNL     1       1.724   9.810  -5.281  1.00  0.00    -0.248 NA
ATOM     30  C   UNL     1       0.785   8.605  -7.042  1.00  0.00     0.031 C 
ATOM     31  C   UNL     1       6.018   7.500  -5.274  1.00  0.00     0.029 A 
ATOM     32  C   UNL     1       4.967   8.146  -5.926  1.00  0.00     0.049 A 
ATOM     33  H   UNL     1       4.664   7.948  -8.007  1.00  0.00     0.167 HD
ATOM     34  C   UNL     1       2.759   9.258  -6.017  1.00  0.00     0.074 A 
ATOM     35  C   UNL     1       2.115   8.614  -7.157  1.00  0.00     0.031 C 
ATOM     36  C   UNL     1       4.012   9.134  -5.489  1.00  0.00     0.037 A 
BRANCH  23  37
ATOM     37  C   UNL     1       4.278   5.120  -9.045  1.00  0.00     0.057 A 
ATOM     38  C   UNL     1       5.217   5.720  -9.908  1.00  0.00     0.134 A 
ATOM     39  C   UNL     1       3.054   4.768  -9.647  1.00  0.00     0.134 A 
ATOM     40  F   UNL     1       6.419   6.110  -9.455  1.00  0.00    -0.206 F 
ATOM     41  C   UNL     1       4.924   6.028 -11.242  1.00  0.00     0.040 A 
ATOM     42  C   UNL     1       2.771   5.025 -10.992  1.00  0.00     0.040 A 
ATOM     43  F   UNL     1       2.036   4.253  -8.947  1.00  0.00    -0.206 F 
ATOM     44  C   UNL     1       3.692   5.689 -11.786  1.00  0.00     0.006 A 
ENDBRANCH  23  37
BRANCH  24  45
ATOM     45  C   UNL     1      -1.853   9.392  -5.128  1.00  0.00     0.057 A 
ATOM     46  C   UNL     1      -2.028  10.673  -5.670  1.00  0.00     0.134 A 
ATOM     47  C   UNL     1      -2.994   8.571  -5.099  1.00  0.00     0.134 A 
ATOM     48  F   UNL     1      -0.991  11.517  -5.777  1.00  0.00    -0.206 F 
ATOM     49  C   UNL     1      -3.259  11.103  -6.183  1.00  0.00     0.040 A 
ATOM     50  C   UNL     1      -4.229   8.990  -5.601  1.00  0.00     0.040 A 
ATOM     51  F   UNL     1      -2.923   7.303  -4.669  1.00  0.00    -0.206 F 
ATOM     52  C   UNL     1      -4.362  10.255  -6.161  1.00  0.00     0.006 A 
ENDBRANCH  24  45
BRANCH  36  53
ATOM     53  C   UNL     1       4.322   9.872  -4.218  1.00  0.00     0.057 A 
ATOM     54  C   UNL     1       3.642   9.679  -3.006  1.00  0.00     0.134 A 
ATOM     55  C   UNL     1       5.437  10.718  -4.189  1.00  0.00     0.134 A 
ATOM     56  F   UNL     1       2.632   8.804  -2.905  1.00  0.00    -0.206 F 
ATOM     57  C   UNL     1       4.018  10.347  -1.837  1.00  0.00     0.040 A 
ATOM     58  C   UNL     1       5.847  11.361  -3.018  1.00  0.00     0.040 A 
ATOM     59  F   UNL     1       6.175  10.905  -5.295  1.00  0.00    -0.206 F 
ATOM     60  C   UNL     1       5.127  11.188  -1.840  1.00  0.00     0.006 A 
ENDBRANCH  36  53
ENDBRANCH  10  11
ENDBRANCH   3   5
ENDBRANCH   2   3
ENDBRANCH   1   2
BRANCH   1  61
ATOM     61  C   UNL     1       4.557  -1.270   0.591  1.00  0.00     0.275 C 
BRANCH  61  62
ATOM     62  O   UNL     1       4.212  -1.298  -0.800  1.00  0.00    -0.457 OA
BRANCH  62  63
ATOM     63  C   UNL     1       3.159  -2.091  -1.142  1.00  0.00     0.360 C 
ATOM     64  O   UNL     1       2.648  -2.947  -0.430  1.00  0.00    -0.244 OA
BRANCH  63  65
ATOM     65  C   UNL     1       2.718  -1.780  -2.479  1.00  0.00     0.190 A 
ATOM     66  C   UNL     1       3.373  -2.054  -3.663  1.00  0.00     0.147 A 
ATOM     67  N   UNL     1       1.560  -1.099  -2.751  1.00  0.00    -0.123 NA
ATOM     68  N   UNL     1       2.518  -1.586  -4.617  1.00  0.00    -0.245 N 
ATOM     69  N   UNL     1       1.474  -0.943  -4.063  1.00  0.00    -0.066 NA
BRANCH  68  70
ATOM     70  C   UNL     1       2.481  -1.930  -5.999  1.00  0.00     0.148 C 
ATOM     71  C   UNL     1       3.782  -2.256  -6.739  1.00  0.00     0.150 C 
ATOM     72  C   UNL     1       2.168  -3.440  -6.119  1.00  0.00     0.150 C 
ATOM     73  N   UNL     1       3.047  -3.414  -7.264  1.00  0.00    -0.320 N 
ATOM     74  C   UNL     1       3.470  -4.304  -8.195  1.00  0.00     0.322 C 
ATOM     75  O   UNL     1       4.487  -4.081  -8.858  1.00  0.00    -0.248 OA
ATOM     76  N   UNL     1       2.876  -5.520  -8.320  1.00  0.00    -0.307 N 
ATOM     77  H   UNL     1       3.431  -6.195  -8.773  1.00  0.00     0.171 HD
BRANCH  76  78
ATOM     78  C   UNL     1       1.632  -5.981  -7.927  1.00  0.00     0.053 A 
ATOM     79  C   UNL     1       0.407  -5.257  -7.849  1.00  0.00     0.038 A 
ATOM     80  C   UNL     1       1.430  -7.312  -7.625  1.00  0.00     0.091 A 
ATOM     81  C   UNL     1      -0.615  -6.000  -7.297  1.00  0.00     0.067 A 
ATOM     82  S   UNL     1      -0.144  -7.619  -7.023  1.00  0.00    -0.150 S 
ENDBRANCH  76  78
ENDBRANCH  68  70
ENDBRANCH  63  65
ENDBRANCH  62  63
ENDBRANCH  61  62
ENDBRANCH   1  61
TORSDOF 13
