REMARK SMILES COc1cc(/C=C2/S/C(=[NH+]\C(C)=O)NC2=O)cc(Br)c1OCC(=O)OCCOC(=O)c1ccc(-c2c3nc(c(-c4c(F)cccc4F)c4ccc([nH]4)c(-c4c(F)cccc4F)c4nc(c(-c5c(F)cccc5F)c5ccc2[nH]5)C=C4)C=C3)cc1
REMARK SMILES IDX 26 1 25 2 23 3 24 4 22 5 21 6 20 7 3 8 4 9 5 10 18 11 17 12
REMARK SMILES IDX 19 13 2 14 1 15 6 16 7 17 8 18 15 19 9 20 14 21 16 22 10 23
REMARK SMILES IDX 11 25 12 27 13 28 27 29 28 30 29 31 30 32 31 33 32 34 84 35
REMARK SMILES IDX 33 36 83 37 34 38 35 39 36 40 77 41 37 42 82 43 76 44 78 45
REMARK SMILES IDX 38 46 81 47 75 48 74 49 39 51 65 52 48 53 64 54 49 55 52 56
REMARK SMILES IDX 63 57 79 58 50 59 51 60 62 62 80 63 53 64 40 65 41 66 46 67
REMARK SMILES IDX 42 68 43 69 45 70 47 71 44 72 66 73 67 74 72 75 68 76 69 77
REMARK SMILES IDX 71 78 73 79 70 80 54 81 55 82 60 83 56 84 57 85 59 86 61 87
REMARK SMILES IDX 58 88
REMARK H PARENT 14 24 10 26 78 50 52 61
REMARK Flexibility Score: inf
ROOT
ATOM      1  C   UNL     1      -2.808   4.892   0.260  1.00  0.00     0.274 C 
ENDROOT
BRANCH   1   2
ATOM      2  O   UNL     1      -2.344   3.786  -0.548  1.00  0.00    -0.460 OA
BRANCH   2   3
ATOM      3  C   UNL     1      -2.756   3.793  -1.839  1.00  0.00     0.344 C 
ATOM      4  O   UNL     1      -3.466   4.672  -2.329  1.00  0.00    -0.248 OA
BRANCH   3   5
ATOM      5  C   UNL     1      -2.360   2.549  -2.650  1.00  0.00     0.352 C 
BRANCH   5   6
ATOM      6  O   UNL     1      -1.288   1.657  -2.419  1.00  0.00    -0.477 OA
BRANCH   6   7
ATOM      7  C   UNL     1      -0.033   2.192  -2.305  1.00  0.00     0.176 A 
ATOM      8  C   UNL     1       0.670   1.859  -1.132  1.00  0.00     0.162 A 
ATOM      9  C   UNL     1       1.947   2.385  -0.890  1.00  0.00     0.058 A 
ATOM     10  C   UNL     1       2.567   3.196  -1.841  1.00  0.00    -0.019 A 
ATOM     11  C   UNL     1       0.648   2.891  -3.310  1.00  0.00     0.064 A 
ATOM     12  C   UNL     1       1.931   3.411  -3.068  1.00  0.00     0.028 A 
ATOM     13  Br  UNL     1       0.013   3.041  -5.095  1.00  0.00    -0.047 Br
BRANCH   8  14
ATOM     14  O   UNL     1       0.040   1.011  -0.249  1.00  0.00    -0.493 OA
ATOM     15  C   UNL     1       0.904   0.090   0.410  1.00  0.00     0.278 C 
ENDBRANCH   8  14
BRANCH  10  16
ATOM     16  C   UNL     1       3.901   3.761  -1.605  1.00  0.00     0.032 C 
ATOM     17  C   UNL     1       4.206   4.755  -0.758  1.00  0.00     0.110 C 
ATOM     18  S   UNL     1       5.813   5.408  -0.624  1.00  0.00     0.007 SA
ATOM     19  C   UNL     1       3.313   5.519   0.158  1.00  0.00     0.346 C 
ATOM     20  C   UNL     1       5.313   6.724   0.387  1.00  0.00     0.324 C 
ATOM     21  N   UNL     1       3.981   6.615   0.625  1.00  0.00    -0.199 N 
ATOM     22  O   UNL     1       2.203   5.202   0.542  1.00  0.00    -0.240 OA
ATOM     23  N   UNL     1       5.921   7.700   0.945  1.00  0.00    -0.204 N 
ATOM     24  H   UNL     1       3.503   7.316   1.126  1.00  0.00     0.316 HD
ATOM     25  C   UNL     1       7.246   8.030   1.000  1.00  0.00     0.304 C 
ATOM     26  H   UNL     1       5.328   8.326   1.422  1.00  0.00     0.316 HD
ATOM     27  C   UNL     1       8.288   7.512   0.049  1.00  0.00     0.144 C 
ATOM     28  O   UNL     1       7.620   8.856   1.835  1.00  0.00    -0.247 OA
ENDBRANCH  10  16
ENDBRANCH   6   7
ENDBRANCH   5   6
ENDBRANCH   3   5
ENDBRANCH   2   3
ENDBRANCH   1   2
BRANCH   1  29
ATOM     29  C   UNL     1      -1.788   6.030   0.377  1.00  0.00     0.275 C 
BRANCH  29  30
ATOM     30  O   UNL     1      -1.566   6.705  -0.877  1.00  0.00    -0.458 OA
BRANCH  30  31
ATOM     31  C   UNL     1      -0.567   6.161  -1.601  1.00  0.00     0.338 C 
ATOM     32  O   UNL     1       0.110   5.194  -1.311  1.00  0.00    -0.246 OA
BRANCH  31  33
ATOM     33  C   UNL     1      -0.374   6.829  -2.885  1.00  0.00     0.060 A 
ATOM     34  C   UNL     1      -1.061   6.341  -3.995  1.00  0.00     0.016 A 
ATOM     35  C   UNL     1       0.668   7.745  -3.031  1.00  0.00     0.016 A 
ATOM     36  C   UNL     1      -0.680   6.742  -5.271  1.00  0.00     0.010 A 
ATOM     37  C   UNL     1       1.008   8.191  -4.309  1.00  0.00     0.010 A 
ATOM     38  C   UNL     1       0.348   7.680  -5.440  1.00  0.00    -0.014 A 
BRANCH  38  39
ATOM     39  C   UNL     1       0.719   8.149  -6.796  1.00  0.00     0.031 A 
ATOM     40  C   UNL     1       2.086   7.877  -7.354  1.00  0.00     0.074 A 
ATOM     41  C   UNL     1      -0.175   8.854  -7.514  1.00  0.00     0.049 A 
ATOM     42  N   UNL     1       2.665   8.394  -8.407  1.00  0.00    -0.248 NA
ATOM     43  C   UNL     1       2.913   6.898  -6.631  1.00  0.00     0.031 C 
ATOM     44  C   UNL     1      -1.552   9.136  -7.106  1.00  0.00     0.029 A 
ATOM     45  N   UNL     1      -0.052   9.477  -8.729  1.00  0.00    -0.354 N 
ATOM     46  C   UNL     1       3.936   7.838  -8.453  1.00  0.00     0.074 A 
ATOM     47  C   UNL     1       4.045   6.938  -7.323  1.00  0.00     0.031 C 
ATOM     48  C   UNL     1      -2.147   9.876  -8.052  1.00  0.00     0.029 A 
ATOM     49  C   UNL     1      -1.170  10.188  -9.089  1.00  0.00     0.049 A 
ATOM     50  H   UNL     1       0.757   9.421  -9.287  1.00  0.00     0.167 HD
ATOM     51  C   UNL     1       4.920   8.067  -9.356  1.00  0.00     0.037 A 
ATOM     52  C   UNL     1      -1.372  11.045 -10.106  1.00  0.00     0.037 A 
ATOM     53  C   UNL     1       4.785   8.936 -10.497  1.00  0.00     0.049 A 
ATOM     54  C   UNL     1      -0.248  11.333 -11.055  1.00  0.00     0.074 A 
ATOM     55  C   UNL     1       5.718   9.220 -11.480  1.00  0.00     0.029 A 
ATOM     56  N   UNL     1       3.642   9.655 -10.813  1.00  0.00    -0.354 N 
ATOM     57  N   UNL     1       0.968  10.843 -11.064  1.00  0.00    -0.248 NA
ATOM     58  C   UNL     1      -0.515  12.306 -12.121  1.00  0.00     0.031 C 
ATOM     59  C   UNL     1       5.151  10.137 -12.371  1.00  0.00     0.029 A 
ATOM     60  C   UNL     1       3.852  10.395 -11.965  1.00  0.00     0.049 A 
ATOM     61  H   UNL     1       2.805   9.642 -10.294  1.00  0.00     0.167 HD
ATOM     62  C   UNL     1       1.606  11.432 -12.145  1.00  0.00     0.074 A 
ATOM     63  C   UNL     1       0.641  12.313 -12.772  1.00  0.00     0.031 C 
ATOM     64  C   UNL     1       2.877  11.258 -12.579  1.00  0.00     0.037 A 
BRANCH  51  65
ATOM     65  C   UNL     1       6.243   7.396  -9.137  1.00  0.00     0.057 A 
ATOM     66  C   UNL     1       6.440   6.035  -9.400  1.00  0.00     0.134 A 
ATOM     67  C   UNL     1       7.354   8.142  -8.721  1.00  0.00     0.134 A 
ATOM     68  F   UNL     1       5.415   5.263  -9.790  1.00  0.00    -0.206 F 
ATOM     69  C   UNL     1       7.693   5.438  -9.247  1.00  0.00     0.040 A 
ATOM     70  C   UNL     1       8.615   7.561  -8.584  1.00  0.00     0.040 A 
ATOM     71  F   UNL     1       7.234   9.452  -8.458  1.00  0.00    -0.206 F 
ATOM     72  C   UNL     1       8.787   6.203  -8.846  1.00  0.00     0.006 A 
ENDBRANCH  51  65
BRANCH  52  73
ATOM     73  C   UNL     1      -2.682  11.726 -10.235  1.00  0.00     0.057 A 
ATOM     74  C   UNL     1      -3.572  11.391 -11.258  1.00  0.00     0.134 A 
ATOM     75  C   UNL     1      -3.087  12.702  -9.315  1.00  0.00     0.134 A 
ATOM     76  F   UNL     1      -3.230  10.477 -12.178  1.00  0.00    -0.206 F 
ATOM     77  C   UNL     1      -4.822  12.003 -11.365  1.00  0.00     0.040 A 
ATOM     78  C   UNL     1      -4.342  13.304  -9.395  1.00  0.00     0.040 A 
ATOM     79  F   UNL     1      -2.277  13.061  -8.307  1.00  0.00    -0.206 F 
ATOM     80  C   UNL     1      -5.213  12.956 -10.426  1.00  0.00     0.006 A 
ENDBRANCH  52  73
BRANCH  64  81
ATOM     81  C   UNL     1       3.284  12.005 -13.812  1.00  0.00     0.057 A 
ATOM     82  C   UNL     1       3.591  13.370 -13.777  1.00  0.00     0.134 A 
ATOM     83  C   UNL     1       3.414  11.338 -15.036  1.00  0.00     0.134 A 
ATOM     84  F   UNL     1       3.471  14.066 -12.636  1.00  0.00    -0.206 F 
ATOM     85  C   UNL     1       4.003  14.050 -14.924  1.00  0.00     0.040 A 
ATOM     86  C   UNL     1       3.843  12.003 -16.184  1.00  0.00     0.040 A 
ATOM     87  F   UNL     1       3.139  10.028 -15.130  1.00  0.00    -0.206 F 
ATOM     88  C   UNL     1       4.136  13.364 -16.130  1.00  0.00     0.006 A 
ENDBRANCH  64  81
ENDBRANCH  38  39
ENDBRANCH  31  33
ENDBRANCH  30  31
ENDBRANCH  29  30
ENDBRANCH   1  29
TORSDOF 15
