REMARK SMILES C/C(=N\[NH+]=C1\NC(=O)[C@H](CC(=O)OCCOC(=O)c2ccc(-c3c4nc(c(-c5c(F)cccc5F)c5ccc([nH]5)c(-c5c(F)cccc5F)c5nc(c(-c6c(F)cccc6F)c6ccc3[nH]6)C=C5)C=C4)cc2)S1)c1ccc([N+](=O)[O-])cc1
REMARK SMILES IDX 14 1 13 2 11 3 12 4 10 5 9 6 4 7 5 8 6 10 73 11 7 12 8 14
REMARK SMILES IDX 3 15 1 16 2 17 74 18 75 19 82 20 76 21 81 22 77 23 78 24
REMARK SMILES IDX 79 25 80 26 15 27 16 28 17 29 18 30 19 31 20 32 72 33 21 34
REMARK SMILES IDX 71 35 22 36 23 37 24 38 65 39 25 40 70 41 64 42 66 43 26 44
REMARK SMILES IDX 69 45 63 46 62 47 27 49 53 50 36 51 52 52 37 53 40 54 51 55
REMARK SMILES IDX 67 56 38 57 39 58 50 60 68 61 41 62 28 63 29 64 34 65 30 66
REMARK SMILES IDX 31 67 33 68 35 69 32 70 54 71 55 72 60 73 56 74 57 75 59 76
REMARK SMILES IDX 61 77 58 78 42 79 43 80 48 81 44 82 45 83 47 84 49 85 46 86
REMARK H PARENT 4 9 6 13 66 48 40 59
REMARK Flexibility Score: inf
ROOT
ATOM      1  C   UNL     1      -3.670  -6.478  -1.503  1.00  0.00     0.274 C 
ENDROOT
BRANCH   1   2
ATOM      2  O   UNL     1      -3.492  -5.051  -1.544  1.00  0.00    -0.462 OA
BRANCH   2   3
ATOM      3  C   UNL     1      -3.989  -4.318  -0.522  1.00  0.00     0.307 C 
ATOM      4  O   UNL     1      -4.570  -4.773   0.454  1.00  0.00    -0.252 OA
BRANCH   3   5
ATOM      5  C   UNL     1      -3.785  -2.839  -0.747  1.00  0.00     0.150 C 
BRANCH   5   6
ATOM      6  C   UNL     1      -2.317  -2.485  -0.901  1.00  0.00     0.184 C 
ATOM      7  N   UNL     1      -0.232   0.557  -2.038  1.00  0.00    -0.142 N 
ATOM      8  C   UNL     1      -1.026  -0.426  -1.787  1.00  0.00     0.337 C 
ATOM      9  H   UNL     1       0.274   0.606  -2.881  1.00  0.00     0.343 HD
ATOM     10  N   UNL     1      -1.139  -1.423  -2.688  1.00  0.00    -0.202 N 
ATOM     11  S   UNL     1      -1.993  -0.750  -0.384  1.00  0.00    -0.020 SA
ATOM     12  C   UNL     1      -1.842  -2.536  -2.346  1.00  0.00     0.322 C 
ATOM     13  H   UNL     1      -0.721  -1.347  -3.576  1.00  0.00     0.316 HD
ATOM     14  O   UNL     1      -2.008  -3.459  -3.131  1.00  0.00    -0.246 OA
BRANCH   7  15
ATOM     15  N   UNL     1      -0.122   1.543  -1.067  1.00  0.00    -0.090 NA
ATOM     16  C   UNL     1       1.766   0.179  -0.165  1.00  0.00     0.071 C 
ATOM     17  C   UNL     1       0.881   1.411  -0.244  1.00  0.00     0.088 C 
BRANCH  17  18
ATOM     18  C   UNL     1       1.183   2.544   0.692  1.00  0.00    -0.000 A 
ATOM     19  C   UNL     1       0.216   3.538   0.908  1.00  0.00     0.017 A 
ATOM     20  C   UNL     1       2.445   2.673   1.290  1.00  0.00     0.017 A 
ATOM     21  C   UNL     1       0.507   4.655   1.698  1.00  0.00     0.086 A 
ATOM     22  C   UNL     1       2.747   3.791   2.075  1.00  0.00     0.086 A 
ATOM     23  C   UNL     1       1.779   4.783   2.270  1.00  0.00     0.269 A 
BRANCH  23  24
ATOM     24  N   UNL     1       2.111   5.975   3.061  1.00  0.00     0.062 N 
ATOM     25  O   UNL     1       1.223   6.823   3.226  1.00  0.00    -0.258 OA
ATOM     26  O   UNL     1       3.263   6.064   3.510  1.00  0.00    -0.258 OA
ENDBRANCH  23  24
ENDBRANCH  17  18
ENDBRANCH   7  15
ENDBRANCH   5   6
ENDBRANCH   3   5
ENDBRANCH   2   3
ENDBRANCH   1   2
BRANCH   1  27
ATOM     27  C   UNL     1      -2.428  -7.185  -0.957  1.00  0.00     0.275 C 
BRANCH  27  28
ATOM     28  O   UNL     1      -2.333  -7.036   0.472  1.00  0.00    -0.458 OA
BRANCH  28  29
ATOM     29  C   UNL     1      -1.560  -6.011   0.897  1.00  0.00     0.338 C 
ATOM     30  O   UNL     1      -0.889  -5.257   0.214  1.00  0.00    -0.246 OA
BRANCH  29  31
ATOM     31  C   UNL     1      -1.736  -5.826   2.346  1.00  0.00     0.060 A 
ATOM     32  C   UNL     1      -2.137  -4.567   2.807  1.00  0.00     0.016 A 
ATOM     33  C   UNL     1      -1.450  -6.855   3.245  1.00  0.00     0.016 A 
ATOM     34  C   UNL     1      -2.245  -4.330   4.175  1.00  0.00     0.010 A 
ATOM     35  C   UNL     1      -1.560  -6.615   4.617  1.00  0.00     0.010 A 
ATOM     36  C   UNL     1      -1.947  -5.349   5.090  1.00  0.00    -0.014 A 
BRANCH  36  37
ATOM     37  C   UNL     1      -2.003  -5.077   6.546  1.00  0.00     0.031 A 
ATOM     38  C   UNL     1      -0.733  -4.897   7.324  1.00  0.00     0.074 A 
ATOM     39  C   UNL     1      -3.195  -4.985   7.164  1.00  0.00     0.049 A 
ATOM     40  N   UNL     1      -0.568  -4.713   8.609  1.00  0.00    -0.248 NA
ATOM     41  C   UNL     1       0.520  -4.932   6.554  1.00  0.00     0.031 C 
ATOM     42  C   UNL     1      -4.497  -5.111   6.510  1.00  0.00     0.029 A 
ATOM     43  N   UNL     1      -3.500  -4.770   8.484  1.00  0.00    -0.354 N 
ATOM     44  C   UNL     1       0.803  -4.622   8.805  1.00  0.00     0.074 A 
ATOM     45  C   UNL     1       1.428  -4.792   7.510  1.00  0.00     0.031 C 
ATOM     46  C   UNL     1      -5.463  -4.974   7.432  1.00  0.00     0.029 A 
ATOM     47  C   UNL     1      -4.848  -4.788   8.744  1.00  0.00     0.049 A 
ATOM     48  H   UNL     1      -2.818  -4.617   9.177  1.00  0.00     0.167 HD
ATOM     49  C   UNL     1       1.479  -4.410   9.960  1.00  0.00     0.037 A 
ATOM     50  C   UNL     1      -5.510  -4.690   9.912  1.00  0.00     0.037 A 
ATOM     51  C   UNL     1       0.855  -4.235  11.246  1.00  0.00     0.049 A 
ATOM     52  C   UNL     1      -4.734  -4.511  11.187  1.00  0.00     0.074 A 
ATOM     53  C   UNL     1       1.455  -3.996  12.470  1.00  0.00     0.029 A 
ATOM     54  N   UNL     1      -0.512  -4.285  11.473  1.00  0.00    -0.354 N 
ATOM     55  N   UNL     1      -3.438  -4.412  11.360  1.00  0.00    -0.248 NA
ATOM     56  C   UNL     1      -5.513  -4.434  12.432  1.00  0.00     0.031 C 
ATOM     57  C   UNL     1       0.453  -3.941  13.445  1.00  0.00     0.029 A 
ATOM     58  C   UNL     1      -0.773  -4.103  12.822  1.00  0.00     0.049 A 
ATOM     59  H   UNL     1      -1.195  -4.428  10.779  1.00  0.00     0.167 HD
ATOM     60  C   UNL     1      -3.247  -4.239  12.724  1.00  0.00     0.074 A 
ATOM     61  C   UNL     1      -4.561  -4.234  13.333  1.00  0.00     0.031 C 
ATOM     62  C   UNL     1      -2.088  -4.097  13.411  1.00  0.00     0.037 A 
BRANCH  49  63
ATOM     63  C   UNL     1       2.976  -4.378   9.887  1.00  0.00     0.057 A 
ATOM     64  C   UNL     1       3.667  -3.292   9.333  1.00  0.00     0.134 A 
ATOM     65  C   UNL     1       3.737  -5.432  10.408  1.00  0.00     0.134 A 
ATOM     66  F   UNL     1       2.996  -2.258   8.803  1.00  0.00    -0.206 F 
ATOM     67  C   UNL     1       5.062  -3.264   9.284  1.00  0.00     0.040 A 
ATOM     68  C   UNL     1       5.133  -5.405  10.384  1.00  0.00     0.040 A 
ATOM     69  F   UNL     1       3.138  -6.499  10.956  1.00  0.00    -0.206 F 
ATOM     70  C   UNL     1       5.799  -4.321   9.817  1.00  0.00     0.006 A 
ENDBRANCH  49  63
BRANCH  50  71
ATOM     71  C   UNL     1      -6.991  -4.773   9.932  1.00  0.00     0.057 A 
ATOM     72  C   UNL     1      -7.775  -3.651  10.221  1.00  0.00     0.134 A 
ATOM     73  C   UNL     1      -7.655  -5.977   9.672  1.00  0.00     0.134 A 
ATOM     74  F   UNL     1      -7.193  -2.476  10.502  1.00  0.00    -0.206 F 
ATOM     75  C   UNL     1      -9.168  -3.725  10.262  1.00  0.00     0.040 A 
ATOM     76  C   UNL     1      -9.048  -6.061   9.687  1.00  0.00     0.040 A 
ATOM     77  F   UNL     1      -6.959  -7.088   9.389  1.00  0.00    -0.206 F 
ATOM     78  C   UNL     1      -9.808  -4.933   9.989  1.00  0.00     0.006 A 
ENDBRANCH  50  71
BRANCH  62  79
ATOM     79  C   UNL     1      -2.191  -3.893  14.894  1.00  0.00     0.057 A 
ATOM     80  C   UNL     1      -2.517  -4.943  15.761  1.00  0.00     0.134 A 
ATOM     81  C   UNL     1      -1.928  -2.641  15.462  1.00  0.00     0.134 A 
ATOM     82  F   UNL     1      -2.794  -6.164  15.278  1.00  0.00    -0.206 F 
ATOM     83  C   UNL     1      -2.597  -4.749  17.141  1.00  0.00     0.040 A 
ATOM     84  C   UNL     1      -1.982  -2.440  16.841  1.00  0.00     0.040 A 
ATOM     85  F   UNL     1      -1.603  -1.595  14.686  1.00  0.00    -0.206 F 
ATOM     86  C   UNL     1      -2.323  -3.495  17.685  1.00  0.00     0.006 A 
ENDBRANCH  62  79
ENDBRANCH  36  37
ENDBRANCH  29  31
ENDBRANCH  28  29
ENDBRANCH  27  28
ENDBRANCH   1  27
TORSDOF 15
