REMARK SMILES O=C(OCCOC(=O)[C@@H]1C[N@@H+](C2CCN(C(=O)c3ccccc3)CC2)C[C@H]1C1CC1)c1ccc(-c2c3nc(c(-c4c(F)cccc4F)c4ccc([nH]4)c(-c4c(F)cccc4F)c4nc(c(-c5c(F)cccc5F)c5ccc2[nH]5)C=C4)C=C3)cc1
REMARK SMILES IDX 4 1 3 2 2 3 1 4 31 5 32 6 84 7 33 8 83 9 34 10 35 11 36 12
REMARK SMILES IDX 77 13 37 14 82 15 76 16 78 17 38 18 81 19 75 20 74 21 39 23
REMARK SMILES IDX 65 24 48 25 64 26 49 27 52 28 63 29 79 30 50 31 51 32 62 34
REMARK SMILES IDX 80 35 53 36 40 37 41 38 46 39 42 40 43 41 45 42 47 43 44 44
REMARK SMILES IDX 66 45 67 46 72 47 68 48 69 49 71 50 73 51 70 52 54 53 55 54
REMARK SMILES IDX 60 55 56 56 57 57 59 58 61 59 58 60 5 61 6 62 7 63 8 64 9 65
REMARK SMILES IDX 10 66 27 67 11 68 26 69 28 71 29 72 30 73 12 74 13 75 25 76
REMARK SMILES IDX 14 77 24 78 15 79 16 80 17 81 18 82 19 83 23 84 20 85 22 86
REMARK SMILES IDX 21 87
REMARK H PARENT 78 22 52 33 11 70
REMARK Flexibility Score: inf
ROOT
ATOM      1  C   UNL     1       4.759   0.006   1.995  1.00  0.00     0.275 C 
ENDROOT
BRANCH   1   2
ATOM      2  O   UNL     1       4.307   1.099   1.192  1.00  0.00    -0.458 OA
BRANCH   2   3
ATOM      3  C   UNL     1       4.284   1.194  -0.152  1.00  0.00     0.338 C 
ATOM      4  O   UNL     1       3.494   1.998  -0.648  1.00  0.00    -0.246 OA
BRANCH   3   5
ATOM      5  C   UNL     1       5.118   0.355  -1.090  1.00  0.00     0.060 A 
ATOM      6  C   UNL     1       6.018  -0.673  -0.775  1.00  0.00     0.016 A 
ATOM      7  C   UNL     1       4.828   0.542  -2.444  1.00  0.00     0.016 A 
ATOM      8  C   UNL     1       6.472  -1.590  -1.748  1.00  0.00     0.010 A 
ATOM      9  C   UNL     1       5.213  -0.410  -3.393  1.00  0.00     0.010 A 
ATOM     10  C   UNL     1       6.019  -1.516  -3.062  1.00  0.00    -0.014 A 
BRANCH  10  11
ATOM     11  C   UNL     1       6.355  -2.529  -4.119  1.00  0.00     0.031 A 
ATOM     12  C   UNL     1       6.803  -2.009  -5.465  1.00  0.00     0.074 A 
ATOM     13  C   UNL     1       6.112  -3.857  -3.986  1.00  0.00     0.049 A 
ATOM     14  N   UNL     1       6.912  -2.638  -6.606  1.00  0.00    -0.248 NA
ATOM     15  C   UNL     1       7.082  -0.562  -5.558  1.00  0.00     0.031 C 
ATOM     16  C   UNL     1       5.577  -4.536  -2.800  1.00  0.00     0.029 A 
ATOM     17  N   UNL     1       6.189  -4.876  -4.916  1.00  0.00    -0.354 N 
ATOM     18  C   UNL     1       7.254  -1.655  -7.523  1.00  0.00     0.074 A 
ATOM     19  C   UNL     1       7.100  -0.381  -6.866  1.00  0.00     0.031 C 
ATOM     20  C   UNL     1       5.284  -5.816  -3.103  1.00  0.00     0.029 A 
ATOM     21  C   UNL     1       5.655  -6.077  -4.488  1.00  0.00     0.049 A 
ATOM     22  H   UNL     1       6.589  -4.757  -5.808  1.00  0.00     0.167 HD
ATOM     23  C   UNL     1       7.809  -1.787  -8.747  1.00  0.00     0.037 A 
ATOM     24  C   UNL     1       5.487  -7.248  -5.138  1.00  0.00     0.037 A 
ATOM     25  C   UNL     1       8.097  -3.050  -9.350  1.00  0.00     0.049 A 
ATOM     26  C   UNL     1       6.053  -7.395  -6.530  1.00  0.00     0.074 A 
ATOM     27  C   UNL     1       8.837  -3.317 -10.485  1.00  0.00     0.029 A 
ATOM     28  N   UNL     1       7.658  -4.263  -8.850  1.00  0.00    -0.354 N 
ATOM     29  N   UNL     1       6.611  -6.487  -7.293  1.00  0.00    -0.248 NA
ATOM     30  C   UNL     1       6.029  -8.740  -7.129  1.00  0.00     0.031 C 
ATOM     31  C   UNL     1       8.810  -4.698 -10.697  1.00  0.00     0.029 A 
ATOM     32  C   UNL     1       8.080  -5.286  -9.675  1.00  0.00     0.049 A 
ATOM     33  H   UNL     1       7.125  -4.379  -8.030  1.00  0.00     0.167 HD
ATOM     34  C   UNL     1       7.075  -7.163  -8.415  1.00  0.00     0.074 A 
ATOM     35  C   UNL     1       6.715  -8.553  -8.248  1.00  0.00     0.031 C 
ATOM     36  C   UNL     1       7.760  -6.674  -9.476  1.00  0.00     0.037 A 
BRANCH  23  37
ATOM     37  C   UNL     1       8.256  -0.527  -9.424  1.00  0.00     0.057 A 
ATOM     38  C   UNL     1       9.300   0.249  -8.894  1.00  0.00     0.134 A 
ATOM     39  C   UNL     1       7.629  -0.065 -10.583  1.00  0.00     0.134 A 
ATOM     40  F   UNL     1       9.933  -0.134  -7.773  1.00  0.00    -0.206 F 
ATOM     41  C   UNL     1       9.663   1.470  -9.458  1.00  0.00     0.040 A 
ATOM     42  C   UNL     1       8.010   1.138 -11.179  1.00  0.00     0.040 A 
ATOM     43  F   UNL     1       6.631  -0.763 -11.144  1.00  0.00    -0.206 F 
ATOM     44  C   UNL     1       9.018   1.916 -10.608  1.00  0.00     0.006 A 
ENDBRANCH  23  37
BRANCH  24  45
ATOM     45  C   UNL     1       4.838  -8.425  -4.490  1.00  0.00     0.057 A 
ATOM     46  C   UNL     1       5.596  -9.532  -4.083  1.00  0.00     0.134 A 
ATOM     47  C   UNL     1       3.446  -8.529  -4.375  1.00  0.00     0.134 A 
ATOM     48  F   UNL     1       6.932  -9.509  -4.197  1.00  0.00    -0.206 F 
ATOM     49  C   UNL     1       4.998 -10.712  -3.634  1.00  0.00     0.040 A 
ATOM     50  C   UNL     1       2.834  -9.698  -3.905  1.00  0.00     0.040 A 
ATOM     51  F   UNL     1       2.655  -7.514  -4.750  1.00  0.00    -0.206 F 
ATOM     52  C   UNL     1       3.611 -10.800  -3.548  1.00  0.00     0.006 A 
ENDBRANCH  24  45
BRANCH  36  53
ATOM     53  C   UNL     1       8.235  -7.638 -10.518  1.00  0.00     0.057 A 
ATOM     54  C   UNL     1       7.358  -8.216 -11.442  1.00  0.00     0.134 A 
ATOM     55  C   UNL     1       9.604  -7.895 -10.669  1.00  0.00     0.134 A 
ATOM     56  F   UNL     1       6.035  -8.018 -11.341  1.00  0.00    -0.206 F 
ATOM     57  C   UNL     1       7.828  -9.014 -12.486  1.00  0.00     0.040 A 
ATOM     58  C   UNL     1      10.088  -8.666 -11.724  1.00  0.00     0.040 A 
ATOM     59  F   UNL     1      10.495  -7.362  -9.819  1.00  0.00    -0.206 F 
ATOM     60  C   UNL     1       9.198  -9.226 -12.638  1.00  0.00     0.006 A 
ENDBRANCH  36  53
ENDBRANCH  10  11
ENDBRANCH   3   5
ENDBRANCH   2   3
ENDBRANCH   1   2
BRANCH   1  61
ATOM     61  C   UNL     1       3.958  -1.292   1.833  1.00  0.00     0.274 C 
BRANCH  61  62
ATOM     62  O   UNL     1       3.572  -1.612   0.473  1.00  0.00    -0.462 OA
BRANCH  62  63
ATOM     63  C   UNL     1       2.240  -1.528   0.195  1.00  0.00     0.315 C 
ATOM     64  O   UNL     1       1.408  -1.149   1.015  1.00  0.00    -0.252 OA
BRANCH  63  65
ATOM     65  C   UNL     1       1.811  -2.137  -1.135  1.00  0.00     0.163 C 
ATOM     66  C   UNL     1       2.042  -3.642  -1.038  1.00  0.00     0.278 C 
ATOM     67  C   UNL     1       2.421  -1.780  -2.476  1.00  0.00     0.067 C 
ATOM     68  N   UNL     1       2.003  -4.190  -2.387  1.00  0.00    -0.331 N 
ATOM     69  C   UNL     1       2.495  -3.116  -3.253  1.00  0.00     0.267 C 
ATOM     70  H   UNL     1       2.574  -5.035  -2.350  1.00  0.00     0.348 HD
BRANCH  67  71
ATOM     71  C   UNL     1       1.769  -0.775  -3.407  1.00  0.00    -0.001 C 
ATOM     72  C   UNL     1       0.342  -0.299  -3.275  1.00  0.00     0.004 C 
ATOM     73  C   UNL     1       1.476   0.670  -3.111  1.00  0.00     0.004 C 
ENDBRANCH  67  71
BRANCH  68  74
ATOM     74  C   UNL     1       0.769  -4.785  -2.926  1.00  0.00     0.187 C 
ATOM     75  C   UNL     1      -0.456  -3.881  -3.082  1.00  0.00     0.086 C 
ATOM     76  C   UNL     1       0.335  -6.086  -2.246  1.00  0.00     0.086 C 
ATOM     77  C   UNL     1      -1.187  -3.626  -1.785  1.00  0.00     0.126 C 
ATOM     78  C   UNL     1      -0.484  -5.902  -0.977  1.00  0.00     0.126 C 
ATOM     79  N   UNL     1      -1.466  -4.811  -1.006  1.00  0.00    -0.338 N 
ATOM     80  C   UNL     1      -2.435  -4.628  -0.019  1.00  0.00     0.253 C 
ATOM     81  O   UNL     1      -3.087  -3.593   0.134  1.00  0.00    -0.269 OA
BRANCH  80  82
ATOM     82  C   UNL     1      -2.750  -5.756   0.854  1.00  0.00     0.040 A 
ATOM     83  C   UNL     1      -3.940  -6.436   0.599  1.00  0.00     0.014 A 
ATOM     84  C   UNL     1      -1.893  -6.136   1.888  1.00  0.00     0.014 A 
ATOM     85  C   UNL     1      -4.262  -7.545   1.370  1.00  0.00     0.001 A 
ATOM     86  C   UNL     1      -2.219  -7.253   2.651  1.00  0.00     0.001 A 
ATOM     87  C   UNL     1      -3.398  -7.957   2.387  1.00  0.00     0.000 A 
ENDBRANCH  80  82
ENDBRANCH  68  74
ENDBRANCH  63  65
ENDBRANCH  62  63
ENDBRANCH  61  62
ENDBRANCH   1  61
TORSDOF 14
