REMARK SMILES C[NH2+][C@@]1(C(=O)OCCOC(=O)c2ccc(-c3c4nc(c(-c5c(F)cccc5F)c5ccc([nH]5)c(-c5c(F)cccc5F)c5nc(c(-c6c(F)cccc6F)c6ccc3[nH]6)C=C5)C=C4)cc2)CC[C@H]([NH+]2CC[NH+](C)CC2)C1
REMARK SMILES IDX 8 1 7 2 6 3 4 4 5 5 3 6 66 7 76 8 67 9 68 10 2 11 1 12 69 15
REMARK SMILES IDX 70 16 75 17 71 19 74 20 72 21 73 22 9 24 10 25 11 26 12 27
REMARK SMILES IDX 13 28 65 29 14 30 64 31 15 32 16 33 17 34 58 35 18 36 63 37
REMARK SMILES IDX 57 38 59 39 19 40 62 41 56 42 55 43 20 45 46 46 29 47 45 48
REMARK SMILES IDX 30 49 33 50 44 51 60 52 31 53 32 54 43 56 61 57 34 58 21 59
REMARK SMILES IDX 22 60 27 61 23 62 24 63 26 64 28 65 25 66 47 67 48 68 53 69
REMARK SMILES IDX 49 70 50 71 52 72 54 73 51 74 35 75 36 76 41 77 37 78 38 79
REMARK SMILES IDX 40 80 42 81 39 82
REMARK H PARENT 2 13 2 14 69 18 72 23 59 44 33 55
REMARK Flexibility Score: inf
ROOT
ATOM      1  C   UNL     1      -1.814   0.391   4.253  1.00  0.00     0.275 C 
ENDROOT
BRANCH   1   2
ATOM      2  C   UNL     1      -1.919   1.603   3.327  1.00  0.00     0.274 C 
BRANCH   2   3
ATOM      3  O   UNL     1      -1.748   1.186   1.952  1.00  0.00    -0.457 OA
BRANCH   3   4
ATOM      4  C   UNL     1      -1.146   2.062   1.105  1.00  0.00     0.368 C 
ATOM      5  O   UNL     1      -0.670   3.134   1.468  1.00  0.00    -0.245 OA
BRANCH   4   6
ATOM      6  C   UNL     1      -1.044   1.543  -0.371  1.00  0.00     0.200 C 
ATOM      7  C   UNL     1      -1.605   2.631  -1.302  1.00  0.00     0.087 C 
ATOM      8  C   UNL     1      -1.954   0.334  -0.684  1.00  0.00     0.146 C 
ATOM      9  C   UNL     1      -3.109   2.436  -1.224  1.00  0.00     0.072 C 
ATOM     10  C   UNL     1      -3.300   0.914  -1.183  1.00  0.00     0.191 C 
BRANCH   6  11
ATOM     11  N   UNL     1       0.391   1.414  -0.723  1.00  0.00    -0.334 N 
ATOM     12  C   UNL     1       0.942   0.073  -0.690  1.00  0.00     0.331 C 
ATOM     13  H   UNL     1       0.513   1.776  -1.669  1.00  0.00     0.347 HD
ATOM     14  H   UNL     1       0.895   1.933  -0.005  1.00  0.00     0.347 HD
ENDBRANCH   6  11
BRANCH  10  15
ATOM     15  N   UNL     1      -4.522   0.342  -0.605  1.00  0.00    -0.323 N 
ATOM     16  C   UNL     1      -5.769   0.878  -1.181  1.00  0.00     0.324 C 
ATOM     17  C   UNL     1      -4.662   0.329   0.857  1.00  0.00     0.324 C 
ATOM     18  H   UNL     1      -4.379  -0.629  -0.880  1.00  0.00     0.348 HD
ATOM     19  C   UNL     1      -6.258   2.221  -0.583  1.00  0.00     0.324 C 
ATOM     20  C   UNL     1      -5.065   1.674   1.491  1.00  0.00     0.324 C 
ATOM     21  N   UNL     1      -6.259   2.289   0.890  1.00  0.00    -0.328 N 
ATOM     22  C   UNL     1      -6.393   3.678   1.335  1.00  0.00     0.333 C 
ATOM     23  H   UNL     1      -7.064   1.750   1.210  1.00  0.00     0.348 HD
ENDBRANCH  10  15
ENDBRANCH   4   6
ENDBRANCH   3   4
ENDBRANCH   2   3
ENDBRANCH   1   2
BRANCH   1  24
ATOM     24  O   UNL     1      -0.420   0.080   4.406  1.00  0.00    -0.458 OA
BRANCH  24  25
ATOM     25  C   UNL     1       0.052  -0.881   3.590  1.00  0.00     0.338 C 
ATOM     26  O   UNL     1      -0.576  -1.710   2.945  1.00  0.00    -0.246 OA
BRANCH  25  27
ATOM     27  C   UNL     1       1.481  -0.627   3.412  1.00  0.00     0.060 A 
ATOM     28  C   UNL     1       1.842   0.389   2.528  1.00  0.00     0.016 A 
ATOM     29  C   UNL     1       2.448  -1.419   4.022  1.00  0.00     0.016 A 
ATOM     30  C   UNL     1       3.170   0.559   2.166  1.00  0.00     0.010 A 
ATOM     31  C   UNL     1       3.793  -1.186   3.725  1.00  0.00     0.010 A 
ATOM     32  C   UNL     1       4.163  -0.220   2.768  1.00  0.00    -0.014 A 
BRANCH  32  33
ATOM     33  C   UNL     1       5.580  -0.071   2.351  1.00  0.00     0.031 A 
ATOM     34  C   UNL     1       6.305  -1.251   1.768  1.00  0.00     0.074 A 
ATOM     35  C   UNL     1       6.213   1.111   2.474  1.00  0.00     0.049 A 
ATOM     36  N   UNL     1       7.587  -1.425   1.581  1.00  0.00    -0.248 NA
ATOM     37  C   UNL     1       5.474  -2.394   1.355  1.00  0.00     0.031 C 
ATOM     38  C   UNL     1       5.607   2.357   2.947  1.00  0.00     0.029 A 
ATOM     39  N   UNL     1       7.514   1.456   2.206  1.00  0.00    -0.354 N 
ATOM     40  C   UNL     1       7.724  -2.723   1.104  1.00  0.00     0.074 A 
ATOM     41  C   UNL     1       6.394  -3.284   1.010  1.00  0.00     0.031 C 
ATOM     42  C   UNL     1       6.525   3.335   2.908  1.00  0.00     0.029 A 
ATOM     43  C   UNL     1       7.804   2.765   2.501  1.00  0.00     0.049 A 
ATOM     44  H   UNL     1       8.175   0.826   1.838  1.00  0.00     0.167 HD
ATOM     45  C   UNL     1       8.863  -3.384   0.790  1.00  0.00     0.037 A 
ATOM     46  C   UNL     1       8.979   3.421   2.498  1.00  0.00     0.037 A 
ATOM     47  C   UNL     1      10.173  -2.789   0.825  1.00  0.00     0.049 A 
ATOM     48  C   UNL     1      10.231   2.668   2.154  1.00  0.00     0.074 A 
ATOM     49  C   UNL     1      11.395  -3.369   0.537  1.00  0.00     0.029 A 
ATOM     50  N   UNL     1      10.423  -1.462   1.144  1.00  0.00    -0.354 N 
ATOM     51  N   UNL     1      10.369   1.409   1.815  1.00  0.00    -0.248 NA
ATOM     52  C   UNL     1      11.493   3.416   2.223  1.00  0.00     0.031 C 
ATOM     53  C   UNL     1      12.389  -2.396   0.699  1.00  0.00     0.029 A 
ATOM     54  C   UNL     1      11.780  -1.204   1.058  1.00  0.00     0.049 A 
ATOM     55  H   UNL     1       9.737  -0.802   1.394  1.00  0.00     0.167 HD
ATOM     56  C   UNL     1      11.730   1.212   1.631  1.00  0.00     0.074 A 
ATOM     57  C   UNL     1      12.373   2.489   1.872  1.00  0.00     0.031 C 
ATOM     58  C   UNL     1      12.391   0.076   1.303  1.00  0.00     0.037 A 
BRANCH  45  59
ATOM     59  C   UNL     1       8.742  -4.834   0.431  1.00  0.00     0.057 A 
ATOM     60  C   UNL     1       8.240  -5.261  -0.803  1.00  0.00     0.134 A 
ATOM     61  C   UNL     1       9.152  -5.820   1.339  1.00  0.00     0.134 A 
ATOM     62  F   UNL     1       7.811  -4.369  -1.708  1.00  0.00    -0.206 F 
ATOM     63  C   UNL     1       8.132  -6.618  -1.115  1.00  0.00     0.040 A 
ATOM     64  C   UNL     1       9.070  -7.178   1.030  1.00  0.00     0.040 A 
ATOM     65  F   UNL     1       9.642  -5.478   2.540  1.00  0.00    -0.206 F 
ATOM     66  C   UNL     1       8.553  -7.581  -0.199  1.00  0.00     0.006 A 
ENDBRANCH  45  59
BRANCH  46  67
ATOM     67  C   UNL     1       9.027   4.851   2.889  1.00  0.00     0.057 A 
ATOM     68  C   UNL     1       9.289   5.850   1.945  1.00  0.00     0.134 A 
ATOM     69  C   UNL     1       8.791   5.256   4.209  1.00  0.00     0.134 A 
ATOM     70  F   UNL     1       9.546   5.522   0.670  1.00  0.00    -0.206 F 
ATOM     71  C   UNL     1       9.315   7.200   2.299  1.00  0.00     0.040 A 
ATOM     72  C   UNL     1       8.789   6.603   4.572  1.00  0.00     0.040 A 
ATOM     73  F   UNL     1       8.532   4.346   5.160  1.00  0.00    -0.206 F 
ATOM     74  C   UNL     1       9.055   7.580   3.614  1.00  0.00     0.006 A 
ENDBRANCH  46  67
BRANCH  58  75
ATOM     75  C   UNL     1      13.879   0.176   1.171  1.00  0.00     0.057 A 
ATOM     76  C   UNL     1      14.712   0.227   2.295  1.00  0.00     0.134 A 
ATOM     77  C   UNL     1      14.483   0.195  -0.092  1.00  0.00     0.134 A 
ATOM     78  F   UNL     1      14.188   0.226   3.530  1.00  0.00    -0.206 F 
ATOM     79  C   UNL     1      16.098   0.310   2.167  1.00  0.00     0.040 A 
ATOM     80  C   UNL     1      15.869   0.260  -0.232  1.00  0.00     0.040 A 
ATOM     81  F   UNL     1      13.736   0.144  -1.205  1.00  0.00    -0.206 F 
ATOM     82  C   UNL     1      16.680   0.322   0.900  1.00  0.00     0.006 A 
ENDBRANCH  58  75
ENDBRANCH  32  33
ENDBRANCH  25  27
ENDBRANCH  24  25
ENDBRANCH   1  24
TORSDOF 13
