REMARK SMILES C[C@](Nc1ccc(C(N)=O)nn1)(C(=O)OCCOC(=O)c1ccc(-c2c3nc(c(-c4c(F)cccc4F)c4ccc([nH]4)c(-c4c(F)cccc4F)c4nc(c(-c5c(F)cccc5F)c5ccc2[nH]5)C=C4)C=C3)cc1)c1ccccc1
REMARK SMILES IDX 16 1 15 2 13 3 14 4 2 5 1 6 75 7 76 8 80 9 77 10 79 11 78 12
REMARK SMILES IDX 3 13 4 15 5 16 12 17 6 18 11 19 7 20 8 21 9 22 10 23 17 26
REMARK SMILES IDX 18 27 19 28 20 29 21 30 22 31 74 32 23 33 73 34 24 35 25 36
REMARK SMILES IDX 26 37 67 38 27 39 72 40 66 41 68 42 28 43 71 44 65 45 64 46
REMARK SMILES IDX 29 48 55 49 38 50 54 51 39 52 42 53 53 54 69 55 40 56 41 57
REMARK SMILES IDX 52 59 70 60 43 61 30 62 31 63 36 64 32 65 33 66 35 67 37 68
REMARK SMILES IDX 34 69 56 70 57 71 62 72 58 73 59 74 61 75 63 76 60 77 44 78
REMARK SMILES IDX 45 79 50 80 46 81 47 82 49 83 51 84 48 85
REMARK H PARENT 3 14 9 24 9 25 68 47 42 58
REMARK Flexibility Score: inf
ROOT
ATOM      1  C   UNL     1      -2.363  -0.285   0.890  1.00  0.00     0.274 C 
ENDROOT
BRANCH   1   2
ATOM      2  O   UNL     1      -0.963  -0.487   0.570  1.00  0.00    -0.460 OA
BRANCH   2   3
ATOM      3  C   UNL     1      -0.664  -1.761   0.179  1.00  0.00     0.336 C 
ATOM      4  O   UNL     1      -1.515  -2.643   0.056  1.00  0.00    -0.249 OA
BRANCH   3   5
ATOM      5  C   UNL     1       0.853  -2.055  -0.020  1.00  0.00     0.160 C 
ATOM      6  C   UNL     1       1.155  -3.085   1.102  1.00  0.00     0.053 C 
BRANCH   5   7
ATOM      7  C   UNL     1       1.045  -2.568  -1.464  1.00  0.00    -0.012 A 
ATOM      8  C   UNL     1       1.157  -3.940  -1.759  1.00  0.00     0.007 A 
ATOM      9  C   UNL     1       1.284  -1.643  -2.507  1.00  0.00     0.007 A 
ATOM     10  C   UNL     1       1.629  -4.362  -3.006  1.00  0.00     0.000 A 
ATOM     11  C   UNL     1       1.768  -2.070  -3.745  1.00  0.00     0.000 A 
ATOM     12  C   UNL     1       1.962  -3.428  -3.986  1.00  0.00     0.000 A 
ENDBRANCH   5   7
BRANCH   5  13
ATOM     13  N   UNL     1       1.775  -0.912   0.230  1.00  0.00    -0.350 N 
ATOM     14  H   UNL     1       1.372  -0.067   0.532  1.00  0.00     0.163 HD
BRANCH  13  15
ATOM     15  C   UNL     1       3.155  -0.937   0.073  1.00  0.00     0.149 A 
ATOM     16  C   UNL     1       3.842  -1.944  -0.605  1.00  0.00     0.051 A 
ATOM     17  N   UNL     1       3.892   0.075   0.577  1.00  0.00    -0.132 NA
ATOM     18  C   UNL     1       5.207  -1.885  -0.850  1.00  0.00     0.040 A 
ATOM     19  N   UNL     1       5.289   0.113   0.425  1.00  0.00    -0.143 NA
ATOM     20  C   UNL     1       5.904  -0.841  -0.306  1.00  0.00     0.150 A 
BRANCH  20  21
ATOM     21  C   UNL     1       7.380  -0.841  -0.441  1.00  0.00     0.269 C 
ATOM     22  N   UNL     1       8.091  -0.366   0.623  1.00  0.00    -0.364 N 
ATOM     23  O   UNL     1       7.939  -1.327  -1.417  1.00  0.00    -0.268 OA
ATOM     24  H   UNL     1       7.620   0.020   1.397  1.00  0.00     0.160 HD
ATOM     25  H   UNL     1       9.074  -0.409   0.617  1.00  0.00     0.160 HD
ENDBRANCH  20  21
ENDBRANCH  13  15
ENDBRANCH   5  13
ENDBRANCH   3   5
ENDBRANCH   2   3
ENDBRANCH   1   2
BRANCH   1  26
ATOM     26  C   UNL     1      -3.165   0.282  -0.286  1.00  0.00     0.275 C 
BRANCH  26  27
ATOM     27  O   UNL     1      -2.987  -0.534  -1.455  1.00  0.00    -0.458 OA
BRANCH  27  28
ATOM     28  C   UNL     1      -2.765   0.118  -2.620  1.00  0.00     0.338 C 
ATOM     29  O   UNL     1      -2.802   1.331  -2.791  1.00  0.00    -0.246 OA
BRANCH  28  30
ATOM     30  C   UNL     1      -2.400  -0.838  -3.696  1.00  0.00     0.060 A 
ATOM     31  C   UNL     1      -1.921  -2.106  -3.394  1.00  0.00     0.016 A 
ATOM     32  C   UNL     1      -2.425  -0.431  -5.033  1.00  0.00     0.016 A 
ATOM     33  C   UNL     1      -1.361  -2.898  -4.398  1.00  0.00     0.010 A 
ATOM     34  C   UNL     1      -1.948  -1.280  -6.048  1.00  0.00     0.010 A 
ATOM     35  C   UNL     1      -1.350  -2.515  -5.747  1.00  0.00    -0.014 A 
BRANCH  35  36
ATOM     36  C   UNL     1      -0.673  -3.352  -6.802  1.00  0.00     0.031 A 
ATOM     37  C   UNL     1       0.210  -2.707  -7.854  1.00  0.00     0.074 A 
ATOM     38  C   UNL     1      -0.786  -4.700  -6.843  1.00  0.00     0.049 A 
ATOM     39  N   UNL     1       0.595  -3.177  -9.016  1.00  0.00    -0.248 NA
ATOM     40  C   UNL     1       0.718  -1.354  -7.569  1.00  0.00     0.031 C 
ATOM     41  C   UNL     1      -1.511  -5.535  -5.886  1.00  0.00     0.029 A 
ATOM     42  N   UNL     1      -0.276  -5.615  -7.742  1.00  0.00    -0.354 N 
ATOM     43  C   UNL     1       1.286  -2.144  -9.642  1.00  0.00     0.074 A 
ATOM     44  C   UNL     1       1.313  -1.036  -8.712  1.00  0.00     0.031 C 
ATOM     45  C   UNL     1      -1.343  -6.826  -6.198  1.00  0.00     0.029 A 
ATOM     46  C   UNL     1      -0.647  -6.913  -7.474  1.00  0.00     0.049 A 
ATOM     47  H   UNL     1       0.297  -5.364  -8.502  1.00  0.00     0.167 HD
ATOM     48  C   UNL     1       1.829  -2.117 -10.884  1.00  0.00     0.037 A 
ATOM     49  C   UNL     1      -0.547  -8.044  -8.200  1.00  0.00     0.037 A 
ATOM     50  C   UNL     1       1.916  -3.252 -11.766  1.00  0.00     0.049 A 
ATOM     51  C   UNL     1       0.016  -7.992  -9.589  1.00  0.00     0.074 A 
ATOM     52  C   UNL     1       2.489  -3.323 -13.026  1.00  0.00     0.029 A 
ATOM     53  N   UNL     1       1.451  -4.521 -11.470  1.00  0.00    -0.354 N 
ATOM     54  N   UNL     1       0.529  -6.974 -10.232  1.00  0.00    -0.248 NA
ATOM     55  C   UNL     1      -0.042  -9.235 -10.373  1.00  0.00     0.031 C 
ATOM     56  C   UNL     1       2.342  -4.629 -13.505  1.00  0.00     0.029 A 
ATOM     57  C   UNL     1       1.706  -5.377 -12.529  1.00  0.00     0.049 A 
ATOM     58  H   UNL     1       1.004  -4.778 -10.631  1.00  0.00     0.167 HD
ATOM     59  C   UNL     1       0.835  -7.446 -11.501  1.00  0.00     0.074 A 
ATOM     60  C   UNL     1       0.485  -8.850 -11.527  1.00  0.00     0.031 C 
ATOM     61  C   UNL     1       1.343  -6.767 -12.556  1.00  0.00     0.037 A 
BRANCH  48  62
ATOM     62  C   UNL     1       2.333  -0.805 -11.410  1.00  0.00     0.057 A 
ATOM     63  C   UNL     1       3.569  -0.267 -11.039  1.00  0.00     0.134 A 
ATOM     64  C   UNL     1       1.600  -0.126 -12.395  1.00  0.00     0.134 A 
ATOM     65  F   UNL     1       4.316  -0.865 -10.099  1.00  0.00    -0.206 F 
ATOM     66  C   UNL     1       4.057   0.904 -11.625  1.00  0.00     0.040 A 
ATOM     67  C   UNL     1       2.085   1.033 -13.001  1.00  0.00     0.040 A 
ATOM     68  F   UNL     1       0.412  -0.598 -12.804  1.00  0.00    -0.206 F 
ATOM     69  C   UNL     1       3.319   1.551 -12.616  1.00  0.00     0.006 A 
ENDBRANCH  48  62
BRANCH  49  70
ATOM     70  C   UNL     1      -1.130  -9.307  -7.675  1.00  0.00     0.057 A 
ATOM     71  C   UNL     1      -0.320 -10.386  -7.310  1.00  0.00     0.134 A 
ATOM     72  C   UNL     1      -2.515  -9.455  -7.520  1.00  0.00     0.134 A 
ATOM     73  F   UNL     1       1.009 -10.319  -7.469  1.00  0.00    -0.206 F 
ATOM     74  C   UNL     1      -0.867 -11.567  -6.803  1.00  0.00     0.040 A 
ATOM     75  C   UNL     1      -3.072 -10.615  -6.983  1.00  0.00     0.040 A 
ATOM     76  F   UNL     1      -3.345  -8.458  -7.860  1.00  0.00    -0.206 F 
ATOM     77  C   UNL     1      -2.246 -11.678  -6.626  1.00  0.00     0.006 A 
ENDBRANCH  49  70
BRANCH  61  78
ATOM     78  C   UNL     1       1.549  -7.533 -13.826  1.00  0.00     0.057 A 
ATOM     79  C   UNL     1       0.474  -7.854 -14.664  1.00  0.00     0.134 A 
ATOM     80  C   UNL     1       2.829  -7.933 -14.227  1.00  0.00     0.134 A 
ATOM     81  F   UNL     1      -0.778  -7.512 -14.325  1.00  0.00    -0.206 F 
ATOM     82  C   UNL     1       0.664  -8.561 -15.852  1.00  0.00     0.040 A 
ATOM     83  C   UNL     1       3.034  -8.625 -15.421  1.00  0.00     0.040 A 
ATOM     84  F   UNL     1       3.899  -7.652 -13.468  1.00  0.00    -0.206 F 
ATOM     85  C   UNL     1       1.949  -8.944 -16.235  1.00  0.00     0.006 A 
ENDBRANCH  61  78
ENDBRANCH  35  36
ENDBRANCH  28  30
ENDBRANCH  27  28
ENDBRANCH  26  27
ENDBRANCH   1  26
TORSDOF 15
