REMARK SMILES C/C(=N\Nc1nc(-c2ccc(Cl)cc2)cs1)c1nnn(-c2ccc(C(=O)OCCOC(=O)c3ccc(-c4c5nc(c(-c6c(F)cccc6F)c6ccc([nH]6)c(-c6c(F)cccc6F)c6nc(c(-c7c(F)cccc7F)c7ccc4[nH]7)C=C6)C=C5)cc3)cc2)c1C
REMARK SMILES IDX 27 1 25 2 26 3 24 4 21 5 22 6 88 7 23 8 87 9 20 10 17 11
REMARK SMILES IDX 18 12 89 13 19 14 90 15 2 16 1 17 3 18 4 19 5 21 6 22 16 23
REMARK SMILES IDX 7 24 15 25 8 26 9 27 14 28 10 29 13 30 11 31 12 32 28 33
REMARK SMILES IDX 29 34 30 35 31 36 32 37 33 38 34 39 86 40 35 41 85 42 36 43
REMARK SMILES IDX 37 44 38 45 79 46 39 47 84 48 78 49 80 50 40 51 83 52 77 53
REMARK SMILES IDX 76 54 41 56 67 57 50 58 66 59 51 60 54 61 65 62 81 63 52 64
REMARK SMILES IDX 53 65 64 67 82 68 55 69 42 70 43 71 48 72 44 73 45 74 47 75
REMARK SMILES IDX 49 76 46 77 68 78 69 79 74 80 70 81 71 82 73 83 75 84 72 85
REMARK SMILES IDX 56 86 57 87 62 88 58 89 59 90 61 91 63 92 60 93
REMARK H PARENT 4 20 80 55 54 66
REMARK Flexibility Score: inf
ROOT
ATOM      1  O   UNL     1       8.152  -2.693  -5.717  1.00  0.00    -0.458 OA
ENDROOT
BRANCH   1   2
ATOM      2  C   UNL     1       7.190  -1.857  -6.182  1.00  0.00     0.338 C 
ATOM      3  O   UNL     1       7.334  -0.985  -7.028  1.00  0.00    -0.246 OA
BRANCH   2   4
ATOM      4  C   UNL     1       5.883  -2.189  -5.563  1.00  0.00     0.060 A 
ATOM      5  C   UNL     1       3.447  -2.528  -4.281  1.00  0.00     0.067 A 
ATOM      6  C   UNL     1       3.473  -1.868  -5.512  1.00  0.00     0.029 A 
ATOM      7  C   UNL     1       4.593  -3.145  -3.768  1.00  0.00     0.029 A 
ATOM      8  C   UNL     1       4.706  -1.684  -6.142  1.00  0.00     0.018 A 
ATOM      9  C   UNL     1       5.813  -2.974  -4.408  1.00  0.00     0.018 A 
BRANCH   5  10
ATOM     10  N   UNL     1       2.337  -2.364  -3.430  1.00  0.00    -0.217 N 
ATOM     11  C   UNL     1       1.046  -1.710  -1.802  1.00  0.00     0.132 A 
ATOM     12  N   UNL     1       0.265  -2.193  -2.817  1.00  0.00    -0.128 NA
ATOM     13  C   UNL     1       2.379  -1.800  -2.166  1.00  0.00     0.071 A 
ATOM     14  N   UNL     1       1.059  -2.494  -3.841  1.00  0.00    -0.061 NA
ATOM     15  C   UNL     1       3.604  -1.253  -1.521  1.00  0.00     0.069 C 
BRANCH  11  16
ATOM     16  C   UNL     1       0.541  -1.044  -0.610  1.00  0.00     0.087 C 
ATOM     17  C   UNL     1       1.048   0.361  -0.410  1.00  0.00     0.071 C 
ATOM     18  N   UNL     1      -0.210  -1.767   0.172  1.00  0.00    -0.176 NA
BRANCH  18  19
ATOM     19  N   UNL     1      -0.632  -1.394   1.430  1.00  0.00    -0.252 N 
ATOM     20  H   UNL     1      -1.201  -2.056   1.885  1.00  0.00     0.193 HD
BRANCH  19  21
ATOM     21  C   UNL     1      -0.394  -0.264   2.145  1.00  0.00     0.203 A 
ATOM     22  N   UNL     1      -0.551   0.967   1.720  1.00  0.00    -0.219 NA
ATOM     23  S   UNL     1       0.241  -0.365   3.751  1.00  0.00    -0.103 S 
ATOM     24  C   UNL     1       0.136   1.850   2.526  1.00  0.00     0.084 A 
ATOM     25  C   UNL     1       0.639   1.307   3.688  1.00  0.00     0.097 A 
BRANCH  24  26
ATOM     26  C   UNL     1       0.364   3.209   2.071  1.00  0.00     0.001 A 
ATOM     27  C   UNL     1      -0.714   3.978   1.616  1.00  0.00     0.012 A 
ATOM     28  C   UNL     1       1.666   3.722   1.970  1.00  0.00     0.012 A 
ATOM     29  C   UNL     1      -0.501   5.258   1.097  1.00  0.00     0.021 A 
ATOM     30  C   UNL     1       1.880   4.998   1.439  1.00  0.00     0.021 A 
ATOM     31  C   UNL     1       0.795   5.762   1.013  1.00  0.00     0.041 A 
ATOM     32  Cl  UNL     1       1.061   7.333   0.364  1.00  0.00    -0.084 Cl
ENDBRANCH  24  26
ENDBRANCH  19  21
ENDBRANCH  18  19
ENDBRANCH  11  16
ENDBRANCH   5  10
ENDBRANCH   2   4
ENDBRANCH   1   2
BRANCH   1  33
ATOM     33  C   UNL     1       9.393  -2.690  -6.436  1.00  0.00     0.275 C 
BRANCH  33  34
ATOM     34  C   UNL     1       9.357  -3.692  -7.582  1.00  0.00     0.275 C 
BRANCH  34  35
ATOM     35  O   UNL     1       8.492  -3.269  -8.636  1.00  0.00    -0.458 OA
BRANCH  35  36
ATOM     36  C   UNL     1       7.240  -3.776  -8.580  1.00  0.00     0.338 C 
ATOM     37  O   UNL     1       6.678  -4.269  -7.617  1.00  0.00    -0.246 OA
BRANCH  36  38
ATOM     38  C   UNL     1       6.702  -3.881  -9.937  1.00  0.00     0.060 A 
ATOM     39  C   UNL     1       5.335  -4.131 -10.083  1.00  0.00     0.016 A 
ATOM     40  C   UNL     1       7.597  -4.006 -11.010  1.00  0.00     0.016 A 
ATOM     41  C   UNL     1       4.883  -4.630 -11.288  1.00  0.00     0.010 A 
ATOM     42  C   UNL     1       7.147  -4.518 -12.204  1.00  0.00     0.010 A 
ATOM     43  C   UNL     1       5.806  -4.876 -12.314  1.00  0.00    -0.014 A 
BRANCH  43  44
ATOM     44  C   UNL     1       5.303  -5.356 -13.587  1.00  0.00     0.031 A 
ATOM     45  C   UNL     1       4.494  -4.334 -14.299  1.00  0.00     0.074 A 
ATOM     46  C   UNL     1       5.669  -6.536 -14.124  1.00  0.00     0.049 A 
ATOM     47  N   UNL     1       3.252  -4.408 -14.641  1.00  0.00    -0.248 NA
ATOM     48  C   UNL     1       5.096  -3.005 -14.510  1.00  0.00     0.031 C 
ATOM     49  C   UNL     1       6.688  -7.470 -13.639  1.00  0.00     0.029 A 
ATOM     50  N   UNL     1       5.275  -7.103 -15.297  1.00  0.00    -0.354 N 
ATOM     51  C   UNL     1       2.970  -3.211 -15.294  1.00  0.00     0.074 A 
ATOM     52  C   UNL     1       4.071  -2.328 -15.024  1.00  0.00     0.031 C 
ATOM     53  C   UNL     1       6.989  -8.351 -14.621  1.00  0.00     0.029 A 
ATOM     54  C   UNL     1       6.104  -8.122 -15.751  1.00  0.00     0.049 A 
ATOM     55  H   UNL     1       4.468  -6.816 -15.783  1.00  0.00     0.167 HD
ATOM     56  C   UNL     1       1.979  -3.146 -16.222  1.00  0.00     0.037 A 
ATOM     57  C   UNL     1       6.099  -8.673 -16.992  1.00  0.00     0.037 A 
ATOM     58  C   UNL     1       1.038  -4.224 -16.043  1.00  0.00     0.049 A 
ATOM     59  C   UNL     1       4.808  -8.322 -17.634  1.00  0.00     0.074 A 
ATOM     60  C   UNL     1       0.228  -4.642 -15.004  1.00  0.00     0.029 A 
ATOM     61  N   UNL     1       1.113  -5.288 -16.908  1.00  0.00    -0.354 N 
ATOM     62  N   UNL     1       3.656  -8.812 -17.273  1.00  0.00    -0.248 NA
ATOM     63  C   UNL     1       4.747  -7.075 -18.384  1.00  0.00     0.031 C 
ATOM     64  C   UNL     1       0.264  -6.066 -15.057  1.00  0.00     0.029 A 
ATOM     65  C   UNL     1       1.029  -6.434 -16.163  1.00  0.00     0.049 A 
ATOM     66  H   UNL     1       1.209  -5.236 -17.887  1.00  0.00     0.167 HD
ATOM     67  C   UNL     1       2.784  -7.737 -17.339  1.00  0.00     0.074 A 
ATOM     68  C   UNL     1       3.489  -6.718 -18.113  1.00  0.00     0.031 C 
ATOM     69  C   UNL     1       1.698  -7.663 -16.515  1.00  0.00     0.037 A 
BRANCH  56  70
ATOM     70  C   UNL     1       2.104  -2.388 -17.525  1.00  0.00     0.057 A 
ATOM     71  C   UNL     1       1.012  -2.388 -18.412  1.00  0.00     0.134 A 
ATOM     72  C   UNL     1       3.321  -1.941 -18.083  1.00  0.00     0.134 A 
ATOM     73  F   UNL     1      -0.205  -2.785 -18.008  1.00  0.00    -0.206 F 
ATOM     74  C   UNL     1       1.146  -2.081 -19.771  1.00  0.00     0.040 A 
ATOM     75  C   UNL     1       3.454  -1.584 -19.427  1.00  0.00     0.040 A 
ATOM     76  F   UNL     1       4.470  -1.915 -17.399  1.00  0.00    -0.206 F 
ATOM     77  C   UNL     1       2.375  -1.692 -20.286  1.00  0.00     0.006 A 
ENDBRANCH  56  70
BRANCH  57  78
ATOM     78  C   UNL     1       7.228  -9.220 -17.784  1.00  0.00     0.057 A 
ATOM     79  C   UNL     1       6.998  -9.995 -18.932  1.00  0.00     0.134 A 
ATOM     80  C   UNL     1       8.545  -8.763 -17.607  1.00  0.00     0.134 A 
ATOM     81  F   UNL     1       5.767 -10.447 -19.213  1.00  0.00    -0.206 F 
ATOM     82  C   UNL     1       8.008 -10.270 -19.864  1.00  0.00     0.040 A 
ATOM     83  C   UNL     1       9.565  -9.038 -18.526  1.00  0.00     0.040 A 
ATOM     84  F   UNL     1       8.869  -7.957 -16.587  1.00  0.00    -0.206 F 
ATOM     85  C   UNL     1       9.294  -9.779 -19.669  1.00  0.00     0.006 A 
ENDBRANCH  57  78
BRANCH  69  86
ATOM     86  C   UNL     1       1.310  -8.891 -15.741  1.00  0.00     0.057 A 
ATOM     87  C   UNL     1       2.124  -9.523 -14.789  1.00  0.00     0.134 A 
ATOM     88  C   UNL     1      -0.002  -9.363 -15.865  1.00  0.00     0.134 A 
ATOM     89  F   UNL     1       3.361  -9.080 -14.525  1.00  0.00    -0.206 F 
ATOM     90  C   UNL     1       1.664 -10.604 -14.030  1.00  0.00     0.040 A 
ATOM     91  C   UNL     1      -0.485 -10.416 -15.087  1.00  0.00     0.040 A 
ATOM     92  F   UNL     1      -0.855  -8.773 -16.718  1.00  0.00    -0.206 F 
ATOM     93  C   UNL     1       0.353 -11.048 -14.173  1.00  0.00     0.006 A 
ENDBRANCH  69  86
ENDBRANCH  43  44
ENDBRANCH  36  38
ENDBRANCH  35  36
ENDBRANCH  34  35
ENDBRANCH  33  34
ENDBRANCH   1  33
TORSDOF 16
