REMARK SMILES CC(C)[C@@H](NC(=O)[C@@](C)([NH3+])C(F)(F)F)C(=O)OCCOC(=O)c1ccc(-c2c3nc(c(-c4c(F)cccc4F)c4ccc([nH]4)c(-c4c(F)cccc4F)c4nc(c(-c5c(F)cccc5F)c5ccc2[nH]5)C=C4)C=C3)cc1
REMARK SMILES IDX 18 1 17 2 15 3 16 4 4 5 2 6 1 7 3 8 5 9 6 10 7 12 8 13 9 14
REMARK SMILES IDX 10 15 11 19 12 20 13 21 14 22 19 23 20 24 21 25 22 26 23 27
REMARK SMILES IDX 24 28 76 29 25 30 75 31 26 32 27 33 28 34 69 35 29 36 74 37
REMARK SMILES IDX 68 38 70 39 30 40 73 41 67 42 66 43 31 45 57 46 40 47 56 48
REMARK SMILES IDX 41 49 44 50 55 51 71 52 42 53 43 54 54 56 72 57 45 58 32 59
REMARK SMILES IDX 33 60 38 61 34 62 35 63 37 64 39 65 36 66 58 67 59 68 64 69
REMARK SMILES IDX 60 70 61 71 63 72 65 73 62 74 46 75 47 76 52 77 48 78 49 79
REMARK SMILES IDX 51 80 53 81 50 82
REMARK H PARENT 5 11 10 16 10 17 10 18 70 44 44 55
REMARK Flexibility Score: inf
ROOT
ATOM      1  C   UNL     1      -1.205  -1.927   4.919  1.00  0.00     0.274 C 
ENDROOT
BRANCH   1   2
ATOM      2  O   UNL     1      -0.632  -1.574   3.641  1.00  0.00    -0.461 OA
BRANCH   2   3
ATOM      3  C   UNL     1      -1.446  -0.908   2.783  1.00  0.00     0.329 C 
ATOM      4  O   UNL     1      -2.559  -0.487   3.084  1.00  0.00    -0.250 OA
BRANCH   3   5
ATOM      5  C   UNL     1      -0.932  -0.857   1.333  1.00  0.00     0.195 C 
BRANCH   5   6
ATOM      6  C   UNL     1       0.595  -1.000   1.078  1.00  0.00     0.017 C 
ATOM      7  C   UNL     1       0.947  -0.591  -0.367  1.00  0.00     0.010 C 
ATOM      8  C   UNL     1       1.434  -0.103   2.003  1.00  0.00     0.010 C 
ENDBRANCH   5   6
BRANCH   5   9
ATOM      9  N   UNL     1      -1.772  -1.568   0.329  1.00  0.00    -0.337 N 
ATOM     10  C   UNL     1      -2.385  -2.786   0.203  1.00  0.00     0.291 C 
ATOM     11  H   UNL     1      -1.930  -1.006  -0.464  1.00  0.00     0.164 HD
ATOM     12  O   UNL     1      -2.569  -3.146  -0.964  1.00  0.00    -0.267 OA
BRANCH  10  13
ATOM     13  C   UNL     1      -2.893  -3.617   1.401  1.00  0.00     0.267 C 
ATOM     14  C   UNL     1      -1.721  -4.159   2.230  1.00  0.00     0.100 C 
BRANCH  13  15
ATOM     15  N   UNL     1      -3.821  -2.773   2.220  1.00  0.00    -0.337 N 
ATOM     16  H   UNL     1      -3.314  -1.967   2.586  1.00  0.00     0.345 HD
ATOM     17  H   UNL     1      -4.188  -3.325   2.995  1.00  0.00     0.345 HD
ATOM     18  H   UNL     1      -4.593  -2.453   1.635  1.00  0.00     0.345 HD
ENDBRANCH  13  15
BRANCH  13  19
ATOM     19  C   UNL     1      -3.670  -4.850   0.842  1.00  0.00     0.453 C 
ATOM     20  F   UNL     1      -4.754  -4.516   0.108  1.00  0.00    -0.164 F 
ATOM     21  F   UNL     1      -2.892  -5.673   0.104  1.00  0.00    -0.164 F 
ATOM     22  F   UNL     1      -4.128  -5.601   1.887  1.00  0.00    -0.164 F 
ENDBRANCH  13  19
ENDBRANCH  10  13
ENDBRANCH   5   9
ENDBRANCH   3   5
ENDBRANCH   2   3
ENDBRANCH   1   2
BRANCH   1  23
ATOM     23  C   UNL     1      -0.863  -0.939   6.034  1.00  0.00     0.275 C 
BRANCH  23  24
ATOM     24  O   UNL     1      -1.424   0.356   5.774  1.00  0.00    -0.458 OA
BRANCH  24  25
ATOM     25  C   UNL     1      -0.585   1.218   5.158  1.00  0.00     0.338 C 
ATOM     26  O   UNL     1       0.591   1.049   4.890  1.00  0.00    -0.246 OA
BRANCH  25  27
ATOM     27  C   UNL     1      -1.349   2.372   4.673  1.00  0.00     0.060 A 
ATOM     28  C   UNL     1      -1.422   2.570   3.291  1.00  0.00     0.016 A 
ATOM     29  C   UNL     1      -1.921   3.281   5.561  1.00  0.00     0.016 A 
ATOM     30  C   UNL     1      -2.073   3.680   2.778  1.00  0.00     0.010 A 
ATOM     31  C   UNL     1      -2.556   4.411   5.047  1.00  0.00     0.010 A 
ATOM     32  C   UNL     1      -2.620   4.617   3.657  1.00  0.00    -0.014 A 
BRANCH  32  33
ATOM     33  C   UNL     1      -3.161   5.880   3.126  1.00  0.00     0.031 A 
ATOM     34  C   UNL     1      -2.299   7.103   3.162  1.00  0.00     0.074 A 
ATOM     35  C   UNL     1      -4.404   5.915   2.619  1.00  0.00     0.049 A 
ATOM     36  N   UNL     1      -2.612   8.344   2.909  1.00  0.00    -0.248 NA
ATOM     37  C   UNL     1      -0.890   6.897   3.540  1.00  0.00     0.031 C 
ATOM     38  C   UNL     1      -5.288   4.759   2.470  1.00  0.00     0.029 A 
ATOM     39  N   UNL     1      -5.142   6.970   2.155  1.00  0.00    -0.354 N 
ATOM     40  C   UNL     1      -1.451   9.073   3.122  1.00  0.00     0.074 A 
ATOM     41  C   UNL     1      -0.425   8.137   3.526  1.00  0.00     0.031 C 
ATOM     42  C   UNL     1      -6.465   5.174   1.973  1.00  0.00     0.029 A 
ATOM     43  C   UNL     1      -6.428   6.626   1.820  1.00  0.00     0.049 A 
ATOM     44  H   UNL     1      -4.787   7.884   2.069  1.00  0.00     0.167 HD
ATOM     45  C   UNL     1      -1.268  10.408   2.999  1.00  0.00     0.037 A 
ATOM     46  C   UNL     1      -7.467   7.409   1.477  1.00  0.00     0.037 A 
ATOM     47  C   UNL     1      -2.305  11.320   2.596  1.00  0.00     0.049 A 
ATOM     48  C   UNL     1      -7.260   8.897   1.418  1.00  0.00     0.074 A 
ATOM     49  C   UNL     1      -2.241  12.692   2.443  1.00  0.00     0.029 A 
ATOM     50  N   UNL     1      -3.604  10.940   2.285  1.00  0.00    -0.354 N 
ATOM     51  N   UNL     1      -6.170   9.590   1.650  1.00  0.00    -0.248 NA
ATOM     52  C   UNL     1      -8.428   9.714   1.064  1.00  0.00     0.031 C 
ATOM     53  C   UNL     1      -3.512  13.148   2.075  1.00  0.00     0.029 A 
ATOM     54  C   UNL     1      -4.357  12.054   1.958  1.00  0.00     0.049 A 
ATOM     55  H   UNL     1      -3.940  10.015   2.295  1.00  0.00     0.167 HD
ATOM     56  C   UNL     1      -6.514  10.920   1.454  1.00  0.00     0.074 A 
ATOM     57  C   UNL     1      -7.912  10.935   1.071  1.00  0.00     0.031 C 
ATOM     58  C   UNL     1      -5.747  12.031   1.581  1.00  0.00     0.037 A 
BRANCH  45  59
ATOM     59  C   UNL     1       0.083  10.952   3.350  1.00  0.00     0.057 A 
ATOM     60  C   UNL     1       1.199  10.761   2.525  1.00  0.00     0.134 A 
ATOM     61  C   UNL     1       0.271  11.677   4.534  1.00  0.00     0.134 A 
ATOM     62  F   UNL     1       1.092  10.055   1.389  1.00  0.00    -0.206 F 
ATOM     63  C   UNL     1       2.458  11.254   2.875  1.00  0.00     0.040 A 
ATOM     64  C   UNL     1       1.519  12.194   4.884  1.00  0.00     0.040 A 
ATOM     65  F   UNL     1      -0.755  11.891   5.370  1.00  0.00    -0.206 F 
ATOM     66  C   UNL     1       2.619  11.978   4.056  1.00  0.00     0.006 A 
ENDBRANCH  45  59
BRANCH  46  67
ATOM     67  C   UNL     1      -8.794   6.805   1.209  1.00  0.00     0.057 A 
ATOM     68  C   UNL     1      -9.331   6.778  -0.082  1.00  0.00     0.134 A 
ATOM     69  C   UNL     1      -9.555   6.233   2.237  1.00  0.00     0.134 A 
ATOM     70  F   UNL     1      -8.659   7.329  -1.103  1.00  0.00    -0.206 F 
ATOM     71  C   UNL     1     -10.581   6.212  -0.341  1.00  0.00     0.040 A 
ATOM     72  C   UNL     1     -10.795   5.643   1.989  1.00  0.00     0.040 A 
ATOM     73  F   UNL     1      -9.095   6.226   3.497  1.00  0.00    -0.206 F 
ATOM     74  C   UNL     1     -11.313   5.636   0.696  1.00  0.00     0.006 A 
ENDBRANCH  46  67
BRANCH  58  75
ATOM     75  C   UNL     1      -6.404  13.344   1.278  1.00  0.00     0.057 A 
ATOM     76  C   UNL     1      -7.304  13.939   2.170  1.00  0.00     0.134 A 
ATOM     77  C   UNL     1      -6.102  14.034   0.098  1.00  0.00     0.134 A 
ATOM     78  F   UNL     1      -7.642  13.318   3.310  1.00  0.00    -0.206 F 
ATOM     79  C   UNL     1      -7.897  15.170   1.889  1.00  0.00     0.040 A 
ATOM     80  C   UNL     1      -6.671  15.276  -0.183  1.00  0.00     0.040 A 
ATOM     81  F   UNL     1      -5.241  13.519  -0.792  1.00  0.00    -0.206 F 
ATOM     82  C   UNL     1      -7.576  15.844   0.712  1.00  0.00     0.006 A 
ENDBRANCH  58  75
ENDBRANCH  32  33
ENDBRANCH  25  27
ENDBRANCH  24  25
ENDBRANCH  23  24
ENDBRANCH   1  23
TORSDOF 16
