REMARK SMILES O=C(OCCOC(=O)c1cc(Cl)c2c(c1)[C@H]1C=CC[C@H]1[C@H](c1ccc(S(=O)(=O)N3CCOCC3)cc1)N2)c1ccc(-c2c3nc(c(-c4c(F)cccc4F)c4ccc([nH]4)c(-c4c(F)cccc4F)c4nc(c(-c5c(F)cccc5F)c5ccc2[nH]5)C=C4)C=C3)cc1
REMARK SMILES IDX 5 1 4 2 3 3 2 4 1 5 38 6 39 7 91 8 40 9 90 10 41 11 42 12
REMARK SMILES IDX 43 13 84 14 44 15 89 16 83 17 85 18 45 19 88 20 82 21 81 22
REMARK SMILES IDX 46 24 72 25 55 26 71 27 56 28 59 29 70 30 86 31 57 32 58 33
REMARK SMILES IDX 69 35 87 36 60 37 47 38 48 39 53 40 49 41 50 42 52 43 54 44
REMARK SMILES IDX 51 45 73 46 74 47 79 48 75 49 76 50 78 51 80 52 77 53 61 54
REMARK SMILES IDX 62 55 67 56 63 57 64 58 66 59 68 60 65 61 6 62 7 63 8 64
REMARK SMILES IDX 9 65 10 66 15 67 11 68 14 69 12 70 13 71 16 72 37 73 17 74
REMARK SMILES IDX 20 75 21 76 18 78 19 79 22 80 23 81 36 82 24 83 35 84 25 85
REMARK SMILES IDX 26 86 27 87 28 88 29 89 30 90 34 91 31 92 33 93 32 94
REMARK H PARENT 85 23 59 34 37 77
REMARK Flexibility Score: inf
ROOT
ATOM      1  C   UNL     1       3.806  -2.223  -0.096  1.00  0.00     0.275 C 
ENDROOT
BRANCH   1   2
ATOM      2  C   UNL     1       4.008  -1.154   0.988  1.00  0.00     0.275 C 
BRANCH   2   3
ATOM      3  O   UNL     1       2.981  -0.153   1.058  1.00  0.00    -0.458 OA
BRANCH   3   4
ATOM      4  C   UNL     1       2.930   1.041   0.422  1.00  0.00     0.338 C 
ATOM      5  O   UNL     1       2.164   1.910   0.838  1.00  0.00    -0.246 OA
BRANCH   4   6
ATOM      6  C   UNL     1       3.622   1.289  -0.881  1.00  0.00     0.060 A 
ATOM      7  C   UNL     1       4.835   0.736  -1.294  1.00  0.00     0.016 A 
ATOM      8  C   UNL     1       2.961   2.155  -1.767  1.00  0.00     0.016 A 
ATOM      9  C   UNL     1       5.322   0.947  -2.583  1.00  0.00     0.010 A 
ATOM     10  C   UNL     1       3.442   2.385  -3.058  1.00  0.00     0.010 A 
ATOM     11  C   UNL     1       4.636   1.782  -3.463  1.00  0.00    -0.014 A 
BRANCH  11  12
ATOM     12  C   UNL     1       5.342   2.265  -4.661  1.00  0.00     0.031 A 
ATOM     13  C   UNL     1       6.135   3.523  -4.512  1.00  0.00     0.074 A 
ATOM     14  C   UNL     1       5.364   1.572  -5.809  1.00  0.00     0.049 A 
ATOM     15  N   UNL     1       6.919   4.109  -5.372  1.00  0.00    -0.248 NA
ATOM     16  C   UNL     1       6.078   4.176  -3.192  1.00  0.00     0.031 C 
ATOM     17  C   UNL     1       4.753   0.266  -6.013  1.00  0.00     0.029 A 
ATOM     18  N   UNL     1       5.915   1.876  -7.025  1.00  0.00    -0.354 N 
ATOM     19  C   UNL     1       7.502   5.155  -4.677  1.00  0.00     0.074 A 
ATOM     20  C   UNL     1       6.922   5.178  -3.354  1.00  0.00     0.031 C 
ATOM     21  C   UNL     1       4.878  -0.081  -7.305  1.00  0.00     0.029 A 
ATOM     22  C   UNL     1       5.583   0.979  -8.010  1.00  0.00     0.049 A 
ATOM     23  H   UNL     1       6.491   2.660  -7.178  1.00  0.00     0.167 HD
ATOM     24  C   UNL     1       8.466   6.001  -5.100  1.00  0.00     0.037 A 
ATOM     25  C   UNL     1       5.810   1.027  -9.335  1.00  0.00     0.037 A 
ATOM     26  C   UNL     1       8.961   6.017  -6.446  1.00  0.00     0.049 A 
ATOM     27  C   UNL     1       6.687   2.128  -9.857  1.00  0.00     0.074 A 
ATOM     28  C   UNL     1       9.897   6.858  -7.014  1.00  0.00     0.029 A 
ATOM     29  N   UNL     1       8.516   5.166  -7.451  1.00  0.00    -0.354 N 
ATOM     30  N   UNL     1       7.277   3.091  -9.189  1.00  0.00    -0.248 NA
ATOM     31  C   UNL     1       6.973   2.129 -11.296  1.00  0.00     0.031 C 
ATOM     32  C   UNL     1       9.961   6.565  -8.382  1.00  0.00     0.029 A 
ATOM     33  C   UNL     1       9.117   5.497  -8.652  1.00  0.00     0.049 A 
ATOM     34  H   UNL     1       7.869   4.435  -7.327  1.00  0.00     0.167 HD
ATOM     35  C   UNL     1       8.049   3.781 -10.112  1.00  0.00     0.074 A 
ATOM     36  C   UNL     1       7.836   3.131 -11.392  1.00  0.00     0.031 C 
ATOM     37  C   UNL     1       8.877   4.836  -9.913  1.00  0.00     0.037 A 
BRANCH  24  38
ATOM     38  C   UNL     1       8.950   6.994  -4.090  1.00  0.00     0.057 A 
ATOM     39  C   UNL     1       8.563   8.334  -4.175  1.00  0.00     0.134 A 
ATOM     40  C   UNL     1       9.692   6.600  -2.965  1.00  0.00     0.134 A 
ATOM     41  F   UNL     1       7.838   8.769  -5.216  1.00  0.00    -0.206 F 
ATOM     42  C   UNL     1       8.876   9.246  -3.166  1.00  0.00     0.040 A 
ATOM     43  C   UNL     1       9.986   7.497  -1.937  1.00  0.00     0.040 A 
ATOM     44  F   UNL     1      10.057   5.319  -2.804  1.00  0.00    -0.206 F 
ATOM     45  C   UNL     1       9.575   8.824  -2.036  1.00  0.00     0.006 A 
ENDBRANCH  24  38
BRANCH  25  46
ATOM     46  C   UNL     1       5.192   0.021 -10.235  1.00  0.00     0.057 A 
ATOM     47  C   UNL     1       3.809   0.026 -10.470  1.00  0.00     0.134 A 
ATOM     48  C   UNL     1       5.949  -0.958 -10.884  1.00  0.00     0.134 A 
ATOM     49  F   UNL     1       3.022   0.932  -9.870  1.00  0.00    -0.206 F 
ATOM     50  C   UNL     1       3.205  -0.902 -11.321  1.00  0.00     0.040 A 
ATOM     51  C   UNL     1       5.361  -1.884 -11.750  1.00  0.00     0.040 A 
ATOM     52  F   UNL     1       7.278  -1.010 -10.708  1.00  0.00    -0.206 F 
ATOM     53  C   UNL     1       3.985  -1.858 -11.969  1.00  0.00     0.006 A 
ENDBRANCH  25  46
BRANCH  37  54
ATOM     54  C   UNL     1       9.643   5.330 -11.103  1.00  0.00     0.057 A 
ATOM     55  C   UNL     1      11.030   5.143 -11.175  1.00  0.00     0.134 A 
ATOM     56  C   UNL     1       9.026   6.035 -12.142  1.00  0.00     0.134 A 
ATOM     57  F   UNL     1      11.681   4.482 -10.206  1.00  0.00    -0.206 F 
ATOM     58  C   UNL     1      11.778   5.652 -12.235  1.00  0.00     0.040 A 
ATOM     59  C   UNL     1       9.761   6.522 -13.223  1.00  0.00     0.040 A 
ATOM     60  F   UNL     1       7.699   6.234 -12.136  1.00  0.00    -0.206 F 
ATOM     61  C   UNL     1      11.142   6.340 -13.266  1.00  0.00     0.006 A 
ENDBRANCH  37  54
ENDBRANCH  11  12
ENDBRANCH   4   6
ENDBRANCH   3   4
ENDBRANCH   2   3
ENDBRANCH   1   2
BRANCH   1  62
ATOM     62  O   UNL     1       3.307  -1.731  -1.352  1.00  0.00    -0.458 OA
BRANCH  62  63
ATOM     63  C   UNL     1       1.953  -1.676  -1.461  1.00  0.00     0.338 C 
ATOM     64  O   UNL     1       1.140  -2.006  -0.618  1.00  0.00    -0.246 OA
BRANCH  63  65
ATOM     65  C   UNL     1       1.581  -1.051  -2.748  1.00  0.00     0.062 A 
ATOM     66  C   UNL     1       2.010  -1.597  -3.953  1.00  0.00     0.038 A 
ATOM     67  C   UNL     1       0.709   0.046  -2.752  1.00  0.00     0.022 A 
ATOM     68  C   UNL     1       1.608  -0.997  -5.149  1.00  0.00     0.065 A 
ATOM     69  C   UNL     1       0.349   0.681  -3.959  1.00  0.00    -0.015 A 
ATOM     70  Cl  UNL     1       1.972  -1.823  -6.629  1.00  0.00    -0.082 Cl
ATOM     71  C   UNL     1       0.870   0.208  -5.170  1.00  0.00     0.057 A 
ATOM     72  C   UNL     1      -0.686   1.777  -3.955  1.00  0.00     0.049 C 
ATOM     73  N   UNL     1       0.568   0.837  -6.369  1.00  0.00    -0.376 N 
ATOM     74  C   UNL     1      -0.264   3.135  -3.465  1.00  0.00    -0.023 C 
ATOM     75  C   UNL     1      -1.265   2.122  -5.349  1.00  0.00     0.031 C 
ATOM     76  C   UNL     1      -0.143   2.111  -6.421  1.00  0.00     0.114 C 
ATOM     77  H   UNL     1       0.841   0.410  -7.213  1.00  0.00     0.161 HD
ATOM     78  C   UNL     1      -0.939   4.102  -4.100  1.00  0.00    -0.030 C 
ATOM     79  C   UNL     1      -1.877   3.515  -5.106  1.00  0.00     0.034 C 
BRANCH  76  80
ATOM     80  C   UNL     1      -0.685   2.318  -7.840  1.00  0.00    -0.025 A 
ATOM     81  C   UNL     1      -1.010   1.232  -8.674  1.00  0.00     0.007 A 
ATOM     82  C   UNL     1      -0.880   3.617  -8.344  1.00  0.00     0.007 A 
ATOM     83  C   UNL     1      -1.551   1.434  -9.947  1.00  0.00     0.022 A 
ATOM     84  C   UNL     1      -1.435   3.825  -9.612  1.00  0.00     0.022 A 
ATOM     85  C   UNL     1      -1.793   2.731 -10.398  1.00  0.00     0.082 A 
BRANCH  85  86
ATOM     86  S   UNL     1      -2.593   2.976 -11.970  1.00  0.00     0.243 S 
ATOM     87  O   UNL     1      -1.638   3.620 -12.835  1.00  0.00    -0.207 OA
ATOM     88  O   UNL     1      -3.211   1.710 -12.328  1.00  0.00    -0.207 OA
BRANCH  86  89
ATOM     89  N   UNL     1      -3.836   4.038 -11.624  1.00  0.00    -0.193 NA
ATOM     90  C   UNL     1      -3.764   5.478 -11.939  1.00  0.00     0.131 C 
ATOM     91  C   UNL     1      -5.021   3.627 -10.852  1.00  0.00     0.131 C 
ATOM     92  C   UNL     1      -4.078   6.334 -10.704  1.00  0.00     0.177 C 
ATOM     93  C   UNL     1      -5.186   4.541  -9.636  1.00  0.00     0.177 C 
ATOM     94  O   UNL     1      -5.278   5.916 -10.038  1.00  0.00    -0.379 OA
ENDBRANCH  86  89
ENDBRANCH  85  86
ENDBRANCH  76  80
ENDBRANCH  63  65
ENDBRANCH  62  63
ENDBRANCH   1  62
TORSDOF 14
