REMARK SMILES Cn1ncc(C(=O)OCCOC(=O)c2ccc(-c3c4nc(c(-c5c(F)cccc5F)c5ccc([nH]5)c(-c5c(F)cccc5F)c5nc(c(-c6c(F)cccc6F)c6ccc3[nH]6)C=C5)C=C4)cc2)c1C(=O)NCC1CC[NH+](Cc2ccccc2)CC1
REMARK SMILES IDX 8 1 6 2 7 3 5 4 1 5 2 6 3 7 68 8 4 9 69 10 70 11 71 12 72 14
REMARK SMILES IDX 73 15 74 16 85 17 75 18 84 19 76 20 77 22 78 23 79 24 83 25
REMARK SMILES IDX 80 26 82 27 81 28 9 29 10 30 11 31 12 32 13 33 14 34 15 35
REMARK SMILES IDX 67 36 16 37 66 38 17 39 18 40 19 41 60 42 20 43 65 44 59 45
REMARK SMILES IDX 61 46 21 47 64 48 58 49 57 50 22 52 48 53 31 54 47 55 32 56
REMARK SMILES IDX 35 57 46 58 62 59 33 60 34 61 45 63 63 64 36 65 23 66 24 67
REMARK SMILES IDX 29 68 25 69 26 70 28 71 30 72 27 73 49 74 50 75 55 76 51 77
REMARK SMILES IDX 52 78 54 79 56 80 53 81 37 82 38 83 43 84 39 85 40 86 42 87
REMARK SMILES IDX 44 88 41 89
REMARK H PARENT 71 13 76 21 61 51 35 62
REMARK Flexibility Score: inf
ROOT
ATOM      1  O   UNL     1       2.749  -2.472   0.495  1.00  0.00    -0.458 OA
ENDROOT
BRANCH   1   2
ATOM      2  C   UNL     1       2.449  -1.496   1.400  1.00  0.00     0.342 C 
ATOM      3  O   UNL     1       3.164  -1.213   2.360  1.00  0.00    -0.246 OA
BRANCH   2   4
ATOM      4  C   UNL     1       1.304  -0.661   1.072  1.00  0.00     0.111 A 
ATOM      5  C   UNL     1      -1.908   0.689   0.149  1.00  0.00     0.174 C 
ATOM      6  N   UNL     1      -0.590   0.286   0.546  1.00  0.00    -0.262 N 
ATOM      7  N   UNL     1       0.213   1.316   0.862  1.00  0.00    -0.180 NA
ATOM      8  C   UNL     1      -0.018  -0.965   0.681  1.00  0.00     0.140 A 
ATOM      9  C   UNL     1       1.343   0.738   1.220  1.00  0.00     0.151 A 
BRANCH   8  10
ATOM     10  C   UNL     1      -0.539  -2.316   0.514  1.00  0.00     0.270 C 
ATOM     11  O   UNL     1       0.199  -3.293   0.689  1.00  0.00    -0.268 OA
ATOM     12  N   UNL     1      -1.810  -2.715   0.190  1.00  0.00    -0.350 N 
ATOM     13  H   UNL     1      -1.791  -3.604  -0.233  1.00  0.00     0.163 HD
BRANCH  12  14
ATOM     14  C   UNL     1      -3.178  -2.229   0.279  1.00  0.00     0.120 C 
BRANCH  14  15
ATOM     15  C   UNL     1      -4.059  -2.314  -1.002  1.00  0.00     0.019 C 
ATOM     16  C   UNL     1      -4.153  -3.723  -1.610  1.00  0.00     0.067 C 
ATOM     17  C   UNL     1      -3.740  -1.340  -2.146  1.00  0.00     0.067 C 
ATOM     18  C   UNL     1      -2.955  -4.081  -2.494  1.00  0.00     0.262 C 
ATOM     19  C   UNL     1      -2.478  -1.729  -2.918  1.00  0.00     0.262 C 
ATOM     20  N   UNL     1      -2.667  -3.058  -3.499  1.00  0.00    -0.331 N 
ATOM     21  H   UNL     1      -3.511  -2.996  -4.070  1.00  0.00     0.348 HD
BRANCH  20  22
ATOM     22  C   UNL     1      -1.600  -3.437  -4.442  1.00  0.00     0.299 C 
BRANCH  22  23
ATOM     23  C   UNL     1      -0.196  -3.559  -3.887  1.00  0.00     0.006 A 
ATOM     24  C   UNL     1       0.774  -2.593  -4.193  1.00  0.00     0.009 A 
ATOM     25  C   UNL     1       0.174  -4.649  -3.083  1.00  0.00     0.009 A 
ATOM     26  C   UNL     1       2.070  -2.710  -3.693  1.00  0.00     0.001 A 
ATOM     27  C   UNL     1       1.458  -4.744  -2.551  1.00  0.00     0.001 A 
ATOM     28  C   UNL     1       2.406  -3.780  -2.869  1.00  0.00     0.000 A 
ENDBRANCH  22  23
ENDBRANCH  20  22
ENDBRANCH  14  15
ENDBRANCH  12  14
ENDBRANCH   8  10
ENDBRANCH   2   4
ENDBRANCH   1   2
BRANCH   1  29
ATOM     29  C   UNL     1       3.923  -3.249   0.811  1.00  0.00     0.275 C 
BRANCH  29  30
ATOM     30  C   UNL     1       5.107  -2.902  -0.092  1.00  0.00     0.275 C 
BRANCH  30  31
ATOM     31  O   UNL     1       5.234  -1.479  -0.231  1.00  0.00    -0.458 OA
BRANCH  31  32
ATOM     32  C   UNL     1       5.163  -1.013  -1.503  1.00  0.00     0.338 C 
ATOM     33  O   UNL     1       5.099  -1.660  -2.531  1.00  0.00    -0.246 OA
BRANCH  32  34
ATOM     34  C   UNL     1       5.212   0.459  -1.495  1.00  0.00     0.060 A 
ATOM     35  C   UNL     1       4.412   1.187  -0.619  1.00  0.00     0.016 A 
ATOM     36  C   UNL     1       6.017   1.118  -2.424  1.00  0.00     0.016 A 
ATOM     37  C   UNL     1       4.385   2.577  -0.691  1.00  0.00     0.010 A 
ATOM     38  C   UNL     1       6.066   2.514  -2.429  1.00  0.00     0.010 A 
ATOM     39  C   UNL     1       5.251   3.258  -1.560  1.00  0.00    -0.014 A 
BRANCH  39  40
ATOM     40  C   UNL     1       5.371   4.739  -1.496  1.00  0.00     0.031 A 
ATOM     41  C   UNL     1       5.093   5.595  -2.699  1.00  0.00     0.074 A 
ATOM     42  C   UNL     1       5.779   5.305  -0.342  1.00  0.00     0.049 A 
ATOM     43  N   UNL     1       5.310   6.875  -2.869  1.00  0.00    -0.248 NA
ATOM     44  C   UNL     1       4.510   4.925  -3.871  1.00  0.00     0.031 C 
ATOM     45  C   UNL     1       6.080   4.577   0.894  1.00  0.00     0.029 A 
ATOM     46  N   UNL     1       6.008   6.617  -0.013  1.00  0.00    -0.354 N 
ATOM     47  C   UNL     1       4.935   7.155  -4.177  1.00  0.00     0.074 A 
ATOM     48  C   UNL     1       4.477   5.911  -4.759  1.00  0.00     0.031 C 
ATOM     49  C   UNL     1       6.402   5.451   1.857  1.00  0.00     0.029 A 
ATOM     50  C   UNL     1       6.428   6.790   1.284  1.00  0.00     0.049 A 
ATOM     51  H   UNL     1       5.884   7.361  -0.644  1.00  0.00     0.167 HD
ATOM     52  C   UNL     1       4.978   8.344  -4.827  1.00  0.00     0.037 A 
ATOM     53  C   UNL     1       6.834   7.895   1.935  1.00  0.00     0.037 A 
ATOM     54  C   UNL     1       5.406   9.580  -4.222  1.00  0.00     0.049 A 
ATOM     55  C   UNL     1       6.882   9.193   1.188  1.00  0.00     0.074 A 
ATOM     56  C   UNL     1       5.471  10.842  -4.787  1.00  0.00     0.029 A 
ATOM     57  N   UNL     1       5.835   9.709  -2.909  1.00  0.00    -0.354 N 
ATOM     58  N   UNL     1       6.556   9.437  -0.058  1.00  0.00    -0.248 NA
ATOM     59  C   UNL     1       7.377  10.361   1.925  1.00  0.00     0.031 C 
ATOM     60  C   UNL     1       5.972  11.728  -3.826  1.00  0.00     0.029 A 
ATOM     61  C   UNL     1       6.180  11.026  -2.649  1.00  0.00     0.049 A 
ATOM     62  H   UNL     1       5.887   8.973  -2.257  1.00  0.00     0.167 HD
ATOM     63  C   UNL     1       6.804  10.787  -0.256  1.00  0.00     0.074 A 
ATOM     64  C   UNL     1       7.282  11.313   1.008  1.00  0.00     0.031 C 
ATOM     65  C   UNL     1       6.660  11.523  -1.385  1.00  0.00     0.037 A 
BRANCH  52  66
ATOM     66  C   UNL     1       4.581   8.362  -6.276  1.00  0.00     0.057 A 
ATOM     67  C   UNL     1       3.248   8.235  -6.687  1.00  0.00     0.134 A 
ATOM     68  C   UNL     1       5.547   8.552  -7.275  1.00  0.00     0.134 A 
ATOM     69  F   UNL     1       2.275   8.041  -5.785  1.00  0.00    -0.206 F 
ATOM     70  C   UNL     1       2.893   8.277  -8.038  1.00  0.00     0.040 A 
ATOM     71  C   UNL     1       5.201   8.618  -8.626  1.00  0.00     0.040 A 
ATOM     72  F   UNL     1       6.842   8.688  -6.952  1.00  0.00    -0.206 F 
ATOM     73  C   UNL     1       3.870   8.475  -9.011  1.00  0.00     0.006 A 
ENDBRANCH  52  66
BRANCH  53  74
ATOM     74  C   UNL     1       7.258   7.801   3.354  1.00  0.00     0.057 A 
ATOM     75  C   UNL     1       6.492   8.369   4.377  1.00  0.00     0.134 A 
ATOM     76  C   UNL     1       8.420   7.111   3.725  1.00  0.00     0.134 A 
ATOM     77  F   UNL     1       5.381   9.060   4.085  1.00  0.00    -0.206 F 
ATOM     78  C   UNL     1       6.865   8.256   5.718  1.00  0.00     0.040 A 
ATOM     79  C   UNL     1       8.789   6.965   5.063  1.00  0.00     0.040 A 
ATOM     80  F   UNL     1       9.194   6.537   2.792  1.00  0.00    -0.206 F 
ATOM     81  C   UNL     1       8.012   7.543   6.064  1.00  0.00     0.006 A 
ENDBRANCH  53  74
BRANCH  65  82
ATOM     82  C   UNL     1       7.011  12.975  -1.285  1.00  0.00     0.057 A 
ATOM     83  C   UNL     1       8.342  13.406  -1.224  1.00  0.00     0.134 A 
ATOM     84  C   UNL     1       6.009  13.952  -1.259  1.00  0.00     0.134 A 
ATOM     85  F   UNL     1       9.346  12.515  -1.226  1.00  0.00    -0.206 F 
ATOM     86  C   UNL     1       8.664  14.759  -1.118  1.00  0.00     0.040 A 
ATOM     87  C   UNL     1       6.319  15.309  -1.176  1.00  0.00     0.040 A 
ATOM     88  F   UNL     1       4.715  13.602  -1.318  1.00  0.00    -0.206 F 
ATOM     89  C   UNL     1       7.650  15.715  -1.099  1.00  0.00     0.006 A 
ENDBRANCH  65  82
ENDBRANCH  39  40
ENDBRANCH  32  34
ENDBRANCH  31  32
ENDBRANCH  30  31
ENDBRANCH  29  30
ENDBRANCH   1  29
TORSDOF 16
