REMARK SMILES [NH3+][C@H](CCC(=O)OCCOC(=O)c1ccc(-c2c3nc(c(-c4c(F)cccc4F)c4ccc([nH]4)c(-c4c(F)cccc4F)c4nc(c(-c5c(F)cccc5F)c5ccc2[nH]5)C=C4)C=C3)cc1)c1nccc2[nH]ccc12
REMARK SMILES IDX 8 1 7 2 5 3 6 4 4 5 3 6 2 7 1 8 67 12 68 13 75 14 69 15
REMARK SMILES IDX 71 16 74 17 70 18 72 19 73 20 9 22 10 23 11 24 12 25 13 26
REMARK SMILES IDX 14 27 66 28 15 29 65 30 16 31 17 32 18 33 59 34 19 35 64 36
REMARK SMILES IDX 58 37 60 38 20 39 63 40 57 41 56 42 21 44 47 45 30 46 46 47
REMARK SMILES IDX 31 48 34 49 45 50 61 51 32 52 33 53 44 55 62 56 35 57 22 58
REMARK SMILES IDX 23 59 28 60 24 61 25 62 27 63 29 64 26 65 48 66 49 67 54 68
REMARK SMILES IDX 50 69 51 70 53 71 55 72 52 73 36 74 37 75 42 76 38 77 39 78
REMARK SMILES IDX 41 79 43 80 40 81
REMARK H PARENT 1 9 1 10 1 11 72 21 60 43 34 54
REMARK Flexibility Score: inf
ROOT
ATOM      1  C   UNL     1       0.526   4.326  -0.758  1.00  0.00     0.274 C 
ENDROOT
BRANCH   1   2
ATOM      2  O   UNL     1       0.320   2.983  -0.284  1.00  0.00    -0.462 OA
BRANCH   2   3
ATOM      3  C   UNL     1      -0.138   2.080  -1.190  1.00  0.00     0.306 C 
ATOM      4  O   UNL     1      -0.475   2.354  -2.335  1.00  0.00    -0.252 OA
BRANCH   3   5
ATOM      5  C   UNL     1       0.040   0.662  -0.697  1.00  0.00     0.129 C 
BRANCH   5   6
ATOM      6  C   UNL     1      -0.224   0.335   0.777  1.00  0.00     0.083 C 
BRANCH   6   7
ATOM      7  C   UNL     1      -1.357   1.067   1.551  1.00  0.00     0.232 C 
BRANCH   7   8
ATOM      8  N   UNL     1      -0.913   2.362   2.077  1.00  0.00    -0.350 N 
ATOM      9  H   UNL     1      -1.682   2.808   2.576  1.00  0.00     0.345 HD
ATOM     10  H   UNL     1      -0.616   2.959   1.305  1.00  0.00     0.345 HD
ATOM     11  H   UNL     1      -0.131   2.218   2.716  1.00  0.00     0.345 HD
ENDBRANCH   7   8
BRANCH   7  12
ATOM     12  C   UNL     1      -2.707   1.056   0.816  1.00  0.00     0.107 A 
ATOM     13  N   UNL     1      -2.673   0.433  -0.402  1.00  0.00    -0.254 NA
ATOM     14  C   UNL     1      -3.930   0.939   1.515  1.00  0.00     0.027 A 
ATOM     15  C   UNL     1      -3.427  -0.661  -0.600  1.00  0.00     0.114 A 
ATOM     16  C   UNL     1      -4.649  -0.243   1.321  1.00  0.00     0.049 A 
ATOM     17  C   UNL     1      -4.697   1.738   2.407  1.00  0.00     0.030 A 
ATOM     18  C   UNL     1      -4.328  -1.153   0.321  1.00  0.00     0.047 A 
ATOM     19  N   UNL     1      -5.640  -0.266   2.271  1.00  0.00    -0.361 N 
ATOM     20  C   UNL     1      -5.789   0.992   2.795  1.00  0.00     0.083 A 
ATOM     21  H   UNL     1      -6.161  -1.059   2.533  1.00  0.00     0.166 HD
ENDBRANCH   7  12
ENDBRANCH   6   7
ENDBRANCH   5   6
ENDBRANCH   3   5
ENDBRANCH   2   3
ENDBRANCH   1   2
BRANCH   1  22
ATOM     22  C   UNL     1       2.015   4.547  -1.027  1.00  0.00     0.275 C 
BRANCH  22  23
ATOM     23  O   UNL     1       2.429   3.866  -2.228  1.00  0.00    -0.458 OA
BRANCH  23  24
ATOM     24  C   UNL     1       2.848   2.594  -2.066  1.00  0.00     0.338 C 
ATOM     25  O   UNL     1       2.999   1.986  -1.008  1.00  0.00    -0.246 OA
BRANCH  24  26
ATOM     26  C   UNL     1       2.998   1.958  -3.379  1.00  0.00     0.060 A 
ATOM     27  C   UNL     1       2.201   0.855  -3.697  1.00  0.00     0.016 A 
ATOM     28  C   UNL     1       3.967   2.413  -4.274  1.00  0.00     0.016 A 
ATOM     29  C   UNL     1       2.380   0.184  -4.899  1.00  0.00     0.010 A 
ATOM     30  C   UNL     1       4.133   1.751  -5.492  1.00  0.00     0.010 A 
ATOM     31  C   UNL     1       3.349   0.627  -5.804  1.00  0.00    -0.014 A 
BRANCH  31  32
ATOM     32  C   UNL     1       3.563  -0.121  -7.061  1.00  0.00     0.031 A 
ATOM     33  C   UNL     1       4.803  -0.947  -7.232  1.00  0.00     0.074 A 
ATOM     34  C   UNL     1       2.629  -0.076  -8.028  1.00  0.00     0.049 A 
ATOM     35  N   UNL     1       5.218  -1.607  -8.281  1.00  0.00    -0.248 NA
ATOM     36  C   UNL     1       5.696  -1.039  -6.066  1.00  0.00     0.031 C 
ATOM     37  C   UNL     1       1.362   0.652  -7.944  1.00  0.00     0.029 A 
ATOM     38  N   UNL     1       2.601  -0.656  -9.269  1.00  0.00    -0.354 N 
ATOM     39  C   UNL     1       6.431  -2.173  -7.913  1.00  0.00     0.074 A 
ATOM     40  C   UNL     1       6.694  -1.765  -6.549  1.00  0.00     0.031 C 
ATOM     41  C   UNL     1       0.677   0.471  -9.085  1.00  0.00     0.029 A 
ATOM     42  C   UNL     1       1.480  -0.340  -9.995  1.00  0.00     0.049 A 
ATOM     43  H   UNL     1       3.316  -1.242  -9.607  1.00  0.00     0.167 HD
ATOM     44  C   UNL     1       7.247  -2.964  -8.649  1.00  0.00     0.037 A 
ATOM     45  C   UNL     1       1.154  -0.646 -11.264  1.00  0.00     0.037 A 
ATOM     46  C   UNL     1       6.965  -3.374 -10.000  1.00  0.00     0.049 A 
ATOM     47  C   UNL     1       2.107  -1.472 -12.081  1.00  0.00     0.074 A 
ATOM     48  C   UNL     1       7.719  -4.183 -10.832  1.00  0.00     0.029 A 
ATOM     49  N   UNL     1       5.837  -3.003 -10.717  1.00  0.00    -0.354 N 
ATOM     50  N   UNL     1       3.256  -1.996 -11.730  1.00  0.00    -0.248 NA
ATOM     51  C   UNL     1       1.723  -1.741 -13.473  1.00  0.00     0.031 C 
ATOM     52  C   UNL     1       7.068  -4.266 -12.067  1.00  0.00     0.029 A 
ATOM     53  C   UNL     1       5.885  -3.547 -11.990  1.00  0.00     0.049 A 
ATOM     54  H   UNL     1       5.109  -2.437 -10.373  1.00  0.00     0.167 HD
ATOM     55  C   UNL     1       3.724  -2.672 -12.848  1.00  0.00     0.074 A 
ATOM     56  C   UNL     1       2.725  -2.505 -13.884  1.00  0.00     0.031 C 
ATOM     57  C   UNL     1       4.878  -3.367 -13.005  1.00  0.00     0.037 A 
BRANCH  44  58
ATOM     58  C   UNL     1       8.534  -3.404  -8.017  1.00  0.00     0.057 A 
ATOM     59  C   UNL     1       8.572  -4.357  -6.992  1.00  0.00     0.134 A 
ATOM     60  C   UNL     1       9.756  -2.874  -8.453  1.00  0.00     0.134 A 
ATOM     61  F   UNL     1       7.437  -4.890  -6.516  1.00  0.00    -0.206 F 
ATOM     62  C   UNL     1       9.777  -4.750  -6.406  1.00  0.00     0.040 A 
ATOM     63  C   UNL     1      10.968  -3.278  -7.893  1.00  0.00     0.040 A 
ATOM     64  F   UNL     1       9.790  -1.959  -9.433  1.00  0.00    -0.206 F 
ATOM     65  C   UNL     1      10.981  -4.214  -6.861  1.00  0.00     0.006 A 
ENDBRANCH  44  58
BRANCH  45  66
ATOM     66  C   UNL     1      -0.118  -0.146 -11.843  1.00  0.00     0.057 A 
ATOM     67  C   UNL     1      -1.167  -1.019 -12.148  1.00  0.00     0.134 A 
ATOM     68  C   UNL     1      -0.314   1.216 -12.104  1.00  0.00     0.134 A 
ATOM     69  F   UNL     1      -1.031  -2.337 -11.942  1.00  0.00    -0.206 F 
ATOM     70  C   UNL     1      -2.363  -0.558 -12.702  1.00  0.00     0.040 A 
ATOM     71  C   UNL     1      -1.514   1.694 -12.633  1.00  0.00     0.040 A 
ATOM     72  F   UNL     1       0.653   2.104 -11.833  1.00  0.00    -0.206 F 
ATOM     73  C   UNL     1      -2.541   0.804 -12.940  1.00  0.00     0.006 A 
ENDBRANCH  45  66
BRANCH  57  74
ATOM     74  C   UNL     1       5.103  -4.019 -14.337  1.00  0.00     0.057 A 
ATOM     75  C   UNL     1       5.437  -3.275 -15.475  1.00  0.00     0.134 A 
ATOM     76  C   UNL     1       5.017  -5.410 -14.473  1.00  0.00     0.134 A 
ATOM     77  F   UNL     1       5.521  -1.937 -15.412  1.00  0.00    -0.206 F 
ATOM     78  C   UNL     1       5.657  -3.890 -16.708  1.00  0.00     0.040 A 
ATOM     79  C   UNL     1       5.260  -6.039 -15.694  1.00  0.00     0.040 A 
ATOM     80  F   UNL     1       4.708  -6.180 -13.419  1.00  0.00    -0.206 F 
ATOM     81  C   UNL     1       5.575  -5.277 -16.818  1.00  0.00     0.006 A 
ENDBRANCH  57  74
ENDBRANCH  31  32
ENDBRANCH  24  26
ENDBRANCH  23  24
ENDBRANCH  22  23
ENDBRANCH   1  22
TORSDOF 15
