REMARK SMILES C[C@H]1CCCN(C(=O)NC[C@H]2CC[C@H](C(=O)OCCOC(=O)c3ccc(-c4c5nc(c(-c6c(F)cccc6F)c6ccc([nH]6)c(-c6c(F)cccc6F)c6nc(c(-c7c(F)cccc7F)c7ccc4[nH]7)C=C6)C=C5)cc3)O2)CC1
REMARK SMILES IDX 15 1 16 2 14 3 11 4 12 5 77 6 13 7 10 8 9 9 7 10 8 11 6 13
REMARK SMILES IDX 78 14 79 15 2 16 1 17 3 18 5 20 4 21 17 23 18 24 19 25 20 26
REMARK SMILES IDX 21 27 22 28 23 29 24 30 76 31 25 32 75 33 26 34 27 35 28 36
REMARK SMILES IDX 69 37 29 38 74 39 68 40 70 41 30 42 73 43 67 44 66 45 31 47
REMARK SMILES IDX 57 48 40 49 56 50 41 51 44 52 55 53 71 54 42 55 43 56 54 58
REMARK SMILES IDX 72 59 45 60 32 61 33 62 38 63 34 64 35 65 37 66 39 67 36 68
REMARK SMILES IDX 58 69 59 70 64 71 60 72 61 73 63 74 65 75 62 76 46 77 47 78
REMARK SMILES IDX 52 79 48 80 49 81 51 82 53 83 50 84
REMARK H PARENT 9 12 70 46 44 57
REMARK Flexibility Score: 80.00
ROOT
ATOM      1  C   UNL     1       5.173  -9.462  -1.123  1.00  0.00     0.335 C 
ATOM      2  O   UNL     1       5.925 -10.013  -1.921  1.00  0.00    -0.249 OA
ENDROOT
BRANCH   1   3
ATOM      3  C   UNL     1       3.755  -9.014  -1.479  1.00  0.00     0.228 C 
ATOM      4  C   UNL     1       2.629  -6.978  -1.326  1.00  0.00     0.138 C 
ATOM      5  C   UNL     1       2.473  -7.672   0.017  1.00  0.00     0.037 C 
ATOM      6  O   UNL     1       3.736  -7.656  -1.942  1.00  0.00    -0.361 OA
ATOM      7  C   UNL     1       2.747  -9.118  -0.336  1.00  0.00     0.047 C 
BRANCH   4   8
ATOM      8  C   UNL     1       1.346  -7.099  -2.181  1.00  0.00     0.149 C 
BRANCH   8   9
ATOM      9  N   UNL     1       1.606  -7.240  -3.605  1.00  0.00    -0.335 N 
ATOM     10  C   UNL     1       1.276  -8.102  -4.586  1.00  0.00     0.317 C 
ATOM     11  O   UNL     1       1.843  -7.905  -5.667  1.00  0.00    -0.249 OA
ATOM     12  H   UNL     1       2.175  -6.510  -3.942  1.00  0.00     0.165 HD
BRANCH  10  13
ATOM     13  N   UNL     1       0.383  -9.133  -4.415  1.00  0.00    -0.325 N 
BRANCH  13  14
ATOM     14  C   UNL     1       0.256 -10.085  -5.525  1.00  0.00     0.121 C 
BRANCH  14  15
ATOM     15  C   UNL     1      -0.911  -9.738  -6.453  1.00  0.00     0.025 C 
BRANCH  15  16
ATOM     16  C   UNL     1      -2.309 -10.153  -5.963  1.00  0.00    -0.012 C 
ATOM     17  C   UNL     1      -2.536 -11.662  -6.113  1.00  0.00     0.008 C 
BRANCH  16  18
ATOM     18  C   UNL     1      -2.651  -9.667  -4.547  1.00  0.00     0.005 CG0
ATOM     19  G   UNL     1      -1.731 -10.191  -3.448  1.00  0.00     0.000 G0
ENDBRANCH  16  18
ENDBRANCH  15  16
ENDBRANCH  14  15
ENDBRANCH  13  14
BRANCH  13  20
ATOM     20  C   UNL     1      -0.487  -9.325  -3.265  1.00  0.00     0.121 C 
BRANCH  20  21
ATOM     21  C   UNL     1      -1.731 -10.191  -3.448  1.00  0.00     0.022 CG0
ATOM     22  G   UNL     1      -2.651  -9.667  -4.547  1.00  0.00     0.000 G0
ENDBRANCH  20  21
ENDBRANCH  13  20
ENDBRANCH  10  13
ENDBRANCH   8   9
ENDBRANCH   4   8
ENDBRANCH   1   3
BRANCH   1  23
ATOM     23  O   UNL     1       5.491  -9.186   0.173  1.00  0.00    -0.460 OA
BRANCH  23  24
ATOM     24  C   UNL     1       6.769  -9.665   0.627  1.00  0.00     0.274 C 
BRANCH  24  25
ATOM     25  C   UNL     1       6.652 -11.038   1.298  1.00  0.00     0.275 C 
BRANCH  25  26
ATOM     26  O   UNL     1       6.424 -12.091   0.341  1.00  0.00    -0.458 OA
BRANCH  26  27
ATOM     27  C   UNL     1       5.128 -12.395   0.103  1.00  0.00     0.338 C 
ATOM     28  O   UNL     1       4.143 -11.907   0.630  1.00  0.00    -0.246 OA
BRANCH  27  29
ATOM     29  C   UNL     1       5.036 -13.356  -1.007  1.00  0.00     0.060 A 
ATOM     30  C   UNL     1       4.258 -13.016  -2.119  1.00  0.00     0.016 A 
ATOM     31  C   UNL     1       5.653 -14.604  -0.923  1.00  0.00     0.016 A 
ATOM     32  C   UNL     1       4.095 -13.926  -3.160  1.00  0.00     0.010 A 
ATOM     33  C   UNL     1       5.486 -15.517  -1.966  1.00  0.00     0.010 A 
ATOM     34  C   UNL     1       4.702 -15.186  -3.086  1.00  0.00    -0.014 A 
BRANCH  34  35
ATOM     35  C   UNL     1       4.504 -16.184  -4.161  1.00  0.00     0.031 A 
ATOM     36  C   UNL     1       3.592 -17.351  -3.933  1.00  0.00     0.074 A 
ATOM     37  C   UNL     1       5.179 -16.062  -5.317  1.00  0.00     0.049 A 
ATOM     38  N   UNL     1       3.402 -18.411  -4.676  1.00  0.00    -0.248 NA
ATOM     39  C   UNL     1       2.792 -17.325  -2.699  1.00  0.00     0.031 C 
ATOM     40  C   UNL     1       6.069 -14.955  -5.662  1.00  0.00     0.029 A 
ATOM     41  N   UNL     1       5.238 -16.896  -6.404  1.00  0.00    -0.354 N 
ATOM     42  C   UNL     1       2.483 -19.192  -3.990  1.00  0.00     0.074 A 
ATOM     43  C   UNL     1       2.157 -18.487  -2.767  1.00  0.00     0.031 C 
ATOM     44  C   UNL     1       6.607 -15.189  -6.870  1.00  0.00     0.029 A 
ATOM     45  C   UNL     1       6.131 -16.480  -7.360  1.00  0.00     0.049 A 
ATOM     46  H   UNL     1       4.694 -17.712  -6.490  1.00  0.00     0.167 HD
ATOM     47  C   UNL     1       1.963 -20.390  -4.348  1.00  0.00     0.037 A 
ATOM     48  C   UNL     1       6.548 -17.092  -8.484  1.00  0.00     0.037 A 
ATOM     49  C   UNL     1       2.283 -21.079  -5.571  1.00  0.00     0.049 A 
ATOM     50  C   UNL     1       5.989 -18.439  -8.842  1.00  0.00     0.074 A 
ATOM     51  C   UNL     1       1.786 -22.282  -6.040  1.00  0.00     0.029 A 
ATOM     52  N   UNL     1       3.189 -20.624  -6.518  1.00  0.00    -0.354 N 
ATOM     53  N   UNL     1       5.114 -19.169  -8.192  1.00  0.00    -0.248 NA
ATOM     54  C   UNL     1       6.476 -19.051 -10.086  1.00  0.00     0.031 C 
ATOM     55  C   UNL     1       2.420 -22.574  -7.253  1.00  0.00     0.029 A 
ATOM     56  C   UNL     1       3.282 -21.533  -7.559  1.00  0.00     0.049 A 
ATOM     57  H   UNL     1       3.693 -19.780  -6.458  1.00  0.00     0.167 HD
ATOM     58  C   UNL     1       4.931 -20.314  -8.956  1.00  0.00     0.074 A 
ATOM     59  C   UNL     1       5.780 -20.179 -10.122  1.00  0.00     0.031 C 
ATOM     60  C   UNL     1       4.130 -21.380  -8.713  1.00  0.00     0.037 A 
BRANCH  47  61
ATOM     61  C   UNL     1       1.018 -21.045  -3.386  1.00  0.00     0.057 A 
ATOM     62  C   UNL     1      -0.290 -20.583  -3.200  1.00  0.00     0.134 A 
ATOM     63  C   UNL     1       1.420 -22.167  -2.650  1.00  0.00     0.134 A 
ATOM     64  F   UNL     1      -0.732 -19.504  -3.862  1.00  0.00    -0.206 F 
ATOM     65  C   UNL     1      -1.159 -21.201  -2.298  1.00  0.00     0.040 A 
ATOM     66  C   UNL     1       0.554 -22.806  -1.762  1.00  0.00     0.040 A 
ATOM     67  F   UNL     1       2.660 -22.661  -2.784  1.00  0.00    -0.206 F 
ATOM     68  C   UNL     1      -0.739 -22.320  -1.580  1.00  0.00     0.006 A 
ENDBRANCH  47  61
BRANCH  48  69
ATOM     69  C   UNL     1       7.569 -16.438  -9.337  1.00  0.00     0.057 A 
ATOM     70  C   UNL     1       7.230 -15.882 -10.575  1.00  0.00     0.134 A 
ATOM     71  C   UNL     1       8.904 -16.337  -8.925  1.00  0.00     0.134 A 
ATOM     72  F   UNL     1       5.973 -15.969 -11.031  1.00  0.00    -0.206 F 
ATOM     73  C   UNL     1       8.184 -15.252 -11.376  1.00  0.00     0.040 A 
ATOM     74  C   UNL     1       9.863 -15.692  -9.706  1.00  0.00     0.040 A 
ATOM     75  F   UNL     1       9.289 -16.851  -7.747  1.00  0.00    -0.206 F 
ATOM     76  C   UNL     1       9.503 -15.150 -10.938  1.00  0.00     0.006 A 
ENDBRANCH  48  69
BRANCH  60  77
ATOM     77  C   UNL     1       4.111 -22.469  -9.743  1.00  0.00     0.057 A 
ATOM     78  C   UNL     1       5.163 -23.384  -9.869  1.00  0.00     0.134 A 
ATOM     79  C   UNL     1       3.007 -22.627 -10.591  1.00  0.00     0.134 A 
ATOM     80  F   UNL     1       6.254 -23.276  -9.095  1.00  0.00    -0.206 F 
ATOM     81  C   UNL     1       5.125 -24.411 -10.813  1.00  0.00     0.040 A 
ATOM     82  C   UNL     1       2.949 -23.662 -11.524  1.00  0.00     0.040 A 
ATOM     83  F   UNL     1       1.964 -21.787 -10.515  1.00  0.00    -0.206 F 
ATOM     84  C   UNL     1       4.012 -24.555 -11.640  1.00  0.00     0.006 A 
ENDBRANCH  60  77
ENDBRANCH  34  35
ENDBRANCH  27  29
ENDBRANCH  26  27
ENDBRANCH  25  26
ENDBRANCH  24  25
ENDBRANCH  23  24
ENDBRANCH   1  23
TORSDOF 14
