REMARK SMILES CC(=O)Nc1cc(NC(C)=O)cc(C(=O)Nc2ccc(Br)cc2C(=O)OCCOC(=O)c2ccc(-c3c4nc(c(-c5c(F)cccc5F)c5ccc([nH]5)c(-c5c(F)cccc5F)c5nc(c(-c6c(F)cccc6F)c6ccc3[nH]6)C=C5)C=C4)cc2)c1
REMARK SMILES IDX 27 1 26 2 24 3 25 4 23 5 17 6 18 7 19 8 22 9 20 10 21 11
REMARK SMILES IDX 16 12 14 13 15 14 13 16 5 17 6 18 86 19 7 20 12 21 4 22 1 23
REMARK SMILES IDX 2 24 3 25 8 27 9 28 10 30 11 31 28 32 29 33 30 34 31 35
REMARK SMILES IDX 32 36 33 37 85 38 34 39 84 40 35 41 36 42 37 43 78 44 38 45
REMARK SMILES IDX 83 46 77 47 79 48 39 49 82 50 76 51 75 52 40 54 66 55 49 56
REMARK SMILES IDX 65 57 50 58 53 59 64 60 80 61 51 62 52 63 63 65 81 66 54 67
REMARK SMILES IDX 41 68 42 69 47 70 43 71 44 72 46 73 48 74 45 75 67 76 68 77
REMARK SMILES IDX 73 78 69 79 70 80 72 81 74 82 71 83 55 84 56 85 61 86 57 87
REMARK SMILES IDX 58 88 60 89 62 90 59 91
REMARK H PARENT 16 15 4 26 8 29 79 53 53 64
REMARK Flexibility Score: inf
ROOT
ATOM      1  C   UNL     1       5.744   3.459  -1.879  1.00  0.00     0.275 C 
ENDROOT
BRANCH   1   2
ATOM      2  O   UNL     1       5.572   2.132  -1.339  1.00  0.00    -0.458 OA
BRANCH   2   3
ATOM      3  C   UNL     1       4.308   1.664  -1.435  1.00  0.00     0.340 C 
ATOM      4  O   UNL     1       3.382   2.237  -1.981  1.00  0.00    -0.246 OA
BRANCH   3   5
ATOM      5  C   UNL     1       4.126   0.357  -0.776  1.00  0.00     0.084 A 
ATOM      6  C   UNL     1       4.382   0.141   0.586  1.00  0.00     0.056 A 
ATOM      7  C   UNL     1       4.215  -1.158   1.100  1.00  0.00     0.028 A 
ATOM      8  C   UNL     1       3.655  -2.178   0.322  1.00  0.00     0.018 A 
ATOM      9  C   UNL     1       3.587  -0.680  -1.558  1.00  0.00     0.033 A 
ATOM     10  C   UNL     1       3.318  -1.925  -1.000  1.00  0.00     0.018 A 
ATOM     11  Br  UNL     1       2.444  -3.245  -2.030  1.00  0.00    -0.051 Br
BRANCH   6  12
ATOM     12  N   UNL     1       4.742   1.126   1.530  1.00  0.00    -0.321 N 
ATOM     13  C   UNL     1       4.388   2.457   1.664  1.00  0.00     0.255 C 
ATOM     14  O   UNL     1       5.070   3.184   2.387  1.00  0.00    -0.269 OA
ATOM     15  H   UNL     1       5.361   0.806   2.225  1.00  0.00     0.170 HD
BRANCH  13  16
ATOM     16  C   UNL     1       3.163   3.032   1.032  1.00  0.00     0.044 A 
ATOM     17  C   UNL     1       1.065   2.741  -0.131  1.00  0.00     0.044 A 
ATOM     18  C   UNL     1       1.110   4.094  -0.502  1.00  0.00     0.052 A 
ATOM     19  C   UNL     1       2.044   2.244   0.725  1.00  0.00     0.040 A 
ATOM     20  C   UNL     1       2.140   4.938  -0.082  1.00  0.00     0.044 A 
ATOM     21  C   UNL     1       3.180   4.392   0.677  1.00  0.00     0.040 A 
BRANCH  17  22
ATOM     22  N   UNL     1       0.139   1.945  -0.833  1.00  0.00    -0.326 N 
ATOM     23  C   UNL     1       0.044  -0.183   0.456  1.00  0.00     0.114 C 
ATOM     24  C   UNL     1      -0.192   0.626  -0.783  1.00  0.00     0.221 C 
ATOM     25  O   UNL     1      -0.730   0.116  -1.769  1.00  0.00    -0.275 OA
ATOM     26  H   UNL     1      -0.379   2.450  -1.501  1.00  0.00     0.169 HD
ENDBRANCH  17  22
BRANCH  20  27
ATOM     27  N   UNL     1       2.218   6.307  -0.429  1.00  0.00    -0.326 N 
ATOM     28  C   UNL     1       1.314   7.024  -1.196  1.00  0.00     0.221 C 
ATOM     29  H   UNL     1       2.998   6.802  -0.091  1.00  0.00     0.169 HD
ATOM     30  C   UNL     1       1.676   8.481  -1.346  1.00  0.00     0.114 C 
ATOM     31  O   UNL     1       0.292   6.595  -1.721  1.00  0.00    -0.275 OA
ENDBRANCH  20  27
ENDBRANCH  13  16
ENDBRANCH   6  12
ENDBRANCH   3   5
ENDBRANCH   2   3
ENDBRANCH   1   2
BRANCH   1  32
ATOM     32  C   UNL     1       6.126   3.470  -3.363  1.00  0.00     0.275 C 
BRANCH  32  33
ATOM     33  O   UNL     1       5.031   3.088  -4.218  1.00  0.00    -0.458 OA
BRANCH  33  34
ATOM     34  C   UNL     1       4.980   1.770  -4.511  1.00  0.00     0.338 C 
ATOM     35  O   UNL     1       5.762   0.901  -4.155  1.00  0.00    -0.246 OA
BRANCH  34  36
ATOM     36  C   UNL     1       3.784   1.449  -5.301  1.00  0.00     0.060 A 
ATOM     37  C   UNL     1       2.642   0.999  -4.641  1.00  0.00     0.016 A 
ATOM     38  C   UNL     1       3.872   1.360  -6.686  1.00  0.00     0.016 A 
ATOM     39  C   UNL     1       1.640   0.340  -5.329  1.00  0.00     0.010 A 
ATOM     40  C   UNL     1       2.808   0.799  -7.396  1.00  0.00     0.010 A 
ATOM     41  C   UNL     1       1.704   0.247  -6.717  1.00  0.00    -0.014 A 
BRANCH  41  42
ATOM     42  C   UNL     1       0.644  -0.471  -7.457  1.00  0.00     0.031 A 
ATOM     43  C   UNL     1       1.014  -1.661  -8.291  1.00  0.00     0.074 A 
ATOM     44  C   UNL     1      -0.634  -0.057  -7.375  1.00  0.00     0.049 A 
ATOM     45  N   UNL     1       0.329  -2.260  -9.227  1.00  0.00    -0.248 NA
ATOM     46  C   UNL     1       2.346  -2.241  -8.052  1.00  0.00     0.031 C 
ATOM     47  C   UNL     1      -1.129   1.021  -6.514  1.00  0.00     0.029 A 
ATOM     48  N   UNL     1      -1.752  -0.488  -8.040  1.00  0.00    -0.354 N 
ATOM     49  C   UNL     1       1.165  -3.249  -9.729  1.00  0.00     0.074 A 
ATOM     50  C   UNL     1       2.412  -3.164  -9.000  1.00  0.00     0.031 C 
ATOM     51  C   UNL     1      -2.449   1.162  -6.698  1.00  0.00     0.029 A 
ATOM     52  C   UNL     1      -2.870   0.261  -7.761  1.00  0.00     0.049 A 
ATOM     53  H   UNL     1      -1.755  -1.256  -8.655  1.00  0.00     0.167 HD
ATOM     54  C   UNL     1       0.905  -4.138 -10.716  1.00  0.00     0.037 A 
ATOM     55  C   UNL     1      -4.080   0.266  -8.348  1.00  0.00     0.037 A 
ATOM     56  C   UNL     1      -0.362  -4.219 -11.394  1.00  0.00     0.049 A 
ATOM     57  C   UNL     1      -4.316  -0.667  -9.500  1.00  0.00     0.074 A 
ATOM     58  C   UNL     1      -0.744  -5.068 -12.416  1.00  0.00     0.029 A 
ATOM     59  N   UNL     1      -1.461  -3.422 -11.101  1.00  0.00    -0.354 N 
ATOM     60  N   UNL     1      -3.503  -1.550 -10.029  1.00  0.00    -0.248 NA
ATOM     61  C   UNL     1      -5.630  -0.592 -10.150  1.00  0.00     0.031 C 
ATOM     62  C   UNL     1      -2.060  -4.755 -12.772  1.00  0.00     0.029 A 
ATOM     63  C   UNL     1      -2.517  -3.750 -11.933  1.00  0.00     0.049 A 
ATOM     64  H   UNL     1      -1.486  -2.727 -10.405  1.00  0.00     0.167 HD
ATOM     65  C   UNL     1      -4.216  -2.160 -11.050  1.00  0.00     0.074 A 
ATOM     66  C   UNL     1      -5.530  -1.550 -11.061  1.00  0.00     0.031 C 
ATOM     67  C   UNL     1      -3.822  -3.138 -11.903  1.00  0.00     0.037 A 
BRANCH  54  68
ATOM     68  C   UNL     1       2.017  -5.051 -11.144  1.00  0.00     0.057 A 
ATOM     69  C   UNL     1       2.489  -6.090 -10.333  1.00  0.00     0.134 A 
ATOM     70  C   UNL     1       2.613  -4.897 -12.404  1.00  0.00     0.134 A 
ATOM     71  F   UNL     1       1.976  -6.284  -9.109  1.00  0.00    -0.206 F 
ATOM     72  C   UNL     1       3.530  -6.926 -10.746  1.00  0.00     0.040 A 
ATOM     73  C   UNL     1       3.633  -5.744 -12.840  1.00  0.00     0.040 A 
ATOM     74  F   UNL     1       2.210  -3.924 -13.235  1.00  0.00    -0.206 F 
ATOM     75  C   UNL     1       4.100  -6.758 -12.007  1.00  0.00     0.006 A 
ENDBRANCH  54  68
BRANCH  55  76
ATOM     76  C   UNL     1      -5.126   1.217  -7.896  1.00  0.00     0.057 A 
ATOM     77  C   UNL     1      -6.300   0.762  -7.286  1.00  0.00     0.134 A 
ATOM     78  C   UNL     1      -4.984   2.602  -8.062  1.00  0.00     0.134 A 
ATOM     79  F   UNL     1      -6.505  -0.553  -7.116  1.00  0.00    -0.206 F 
ATOM     80  C   UNL     1      -7.301   1.644  -6.875  1.00  0.00     0.040 A 
ATOM     81  C   UNL     1      -5.962   3.497  -7.627  1.00  0.00     0.040 A 
ATOM     82  F   UNL     1      -3.881   3.107  -8.635  1.00  0.00    -0.206 F 
ATOM     83  C   UNL     1      -7.130   3.017  -7.039  1.00  0.00     0.006 A 
ENDBRANCH  55  76
BRANCH  67  84
ATOM     84  C   UNL     1      -4.846  -3.648 -12.870  1.00  0.00     0.057 A 
ATOM     85  C   UNL     1      -5.261  -2.899 -13.977  1.00  0.00     0.134 A 
ATOM     86  C   UNL     1      -5.386  -4.931 -12.713  1.00  0.00     0.134 A 
ATOM     87  F   UNL     1      -4.792  -1.658 -14.174  1.00  0.00    -0.206 F 
ATOM     88  C   UNL     1      -6.192  -3.402 -14.886  1.00  0.00     0.040 A 
ATOM     89  C   UNL     1      -6.295  -5.456 -13.630  1.00  0.00     0.040 A 
ATOM     90  F   UNL     1      -5.023  -5.701 -11.675  1.00  0.00    -0.206 F 
ATOM     91  C   UNL     1      -6.705  -4.688 -14.718  1.00  0.00     0.006 A 
ENDBRANCH  67  84
ENDBRANCH  41  42
ENDBRANCH  34  36
ENDBRANCH  33  34
ENDBRANCH  32  33
ENDBRANCH   1  32
TORSDOF 15
