REMARK SMILES Cc1noc(C)c1COc1ccc(C(=O)OCCOC(=O)c2ccc(-c3c4nc(c(-c5c(F)cccc5F)c5ccc([nH]5)c(-c5c(F)cccc5F)c5nc(c(-c6c(F)cccc6F)c6ccc3[nH]6)C=C5)C=C4)cc2)cc1
REMARK SMILES IDX 17 1 16 2 14 3 15 4 13 5 10 6 11 7 77 8 12 9 76 10 9 11 8 12
REMARK SMILES IDX 7 13 1 14 2 15 3 16 4 17 5 18 6 19 18 20 19 21 20 22 21 23
REMARK SMILES IDX 22 24 23 25 75 26 24 27 74 28 25 29 26 30 27 31 68 32 28 33
REMARK SMILES IDX 73 34 67 35 69 36 29 37 72 38 66 39 65 40 30 42 56 43 39 44
REMARK SMILES IDX 55 45 40 46 43 47 54 48 70 49 41 50 42 51 53 53 71 54 44 55
REMARK SMILES IDX 31 56 32 57 37 58 33 59 34 60 36 61 38 62 35 63 57 64 58 65
REMARK SMILES IDX 63 66 59 67 60 68 62 69 64 70 61 71 45 72 46 73 51 74 47 75
REMARK SMILES IDX 48 76 50 77 52 78 49 79
REMARK H PARENT 69 41 43 52
REMARK Flexibility Score: inf
ROOT
ATOM      1  C   UNL     1       2.327   0.323  -7.744  1.00  0.00     0.275 C 
ENDROOT
BRANCH   1   2
ATOM      2  O   UNL     1       1.744   0.539  -6.446  1.00  0.00    -0.458 OA
BRANCH   2   3
ATOM      3  C   UNL     1       2.035   1.720  -5.849  1.00  0.00     0.338 C 
ATOM      4  O   UNL     1       2.774   2.591  -6.280  1.00  0.00    -0.246 OA
BRANCH   3   5
ATOM      5  C   UNL     1       1.246   1.882  -4.601  1.00  0.00     0.060 A 
ATOM      6  C   UNL     1      -0.253   2.298  -2.290  1.00  0.00     0.119 A 
ATOM      7  C   UNL     1       0.329   3.388  -2.928  1.00  0.00     0.047 A 
ATOM      8  C   UNL     1      -0.128   1.011  -2.813  1.00  0.00     0.047 A 
ATOM      9  C   UNL     1       1.099   3.175  -4.071  1.00  0.00     0.019 A 
ATOM     10  C   UNL     1       0.630   0.799  -3.965  1.00  0.00     0.019 A 
BRANCH   6  11
ATOM     11  O   UNL     1      -0.992   2.511  -1.159  1.00  0.00    -0.489 OA
BRANCH  11  12
ATOM     12  C   UNL     1      -0.190   2.317   0.022  1.00  0.00     0.271 C 
BRANCH  12  13
ATOM     13  C   UNL     1      -0.089   0.888   0.420  1.00  0.00     0.055 A 
ATOM     14  C   UNL     1      -2.609   0.219   0.558  1.00  0.00     0.071 C 
ATOM     15  C   UNL     1      -1.151  -0.026   0.659  1.00  0.00     0.087 A 
ATOM     16  N   UNL     1      -0.688  -1.243   0.969  1.00  0.00    -0.085 NA
ATOM     17  O   UNL     1       0.689  -1.146   0.916  1.00  0.00    -0.361 OA
ATOM     18  C   UNL     1       1.045   0.120   0.575  1.00  0.00     0.140 A 
ATOM     19  C   UNL     1       2.489   0.376   0.422  1.00  0.00     0.091 C 
ENDBRANCH  12  13
ENDBRANCH  11  12
ENDBRANCH   6  11
ENDBRANCH   3   5
ENDBRANCH   2   3
ENDBRANCH   1   2
BRANCH   1  20
ATOM     20  C   UNL     1       1.295   0.587  -8.838  1.00  0.00     0.275 C 
BRANCH  20  21
ATOM     21  O   UNL     1       0.935   1.981  -8.837  1.00  0.00    -0.458 OA
BRANCH  21  22
ATOM     22  C   UNL     1      -0.377   2.255  -8.657  1.00  0.00     0.338 C 
ATOM     23  O   UNL     1      -1.302   1.469  -8.562  1.00  0.00    -0.246 OA
BRANCH  22  24
ATOM     24  C   UNL     1      -0.552   3.712  -8.566  1.00  0.00     0.060 A 
ATOM     25  C   UNL     1      -0.146   4.373  -7.408  1.00  0.00     0.016 A 
ATOM     26  C   UNL     1      -1.219   4.404  -9.575  1.00  0.00     0.016 A 
ATOM     27  C   UNL     1      -0.446   5.722  -7.228  1.00  0.00     0.010 A 
ATOM     28  C   UNL     1      -1.466   5.773  -9.421  1.00  0.00     0.010 A 
ATOM     29  C   UNL     1      -1.107   6.441  -8.234  1.00  0.00    -0.014 A 
BRANCH  29  30
ATOM     30  C   UNL     1      -1.481   7.866  -8.021  1.00  0.00     0.031 A 
ATOM     31  C   UNL     1      -2.932   8.269  -8.011  1.00  0.00     0.074 A 
ATOM     32  C   UNL     1      -0.536   8.804  -7.815  1.00  0.00     0.049 A 
ATOM     33  N   UNL     1      -3.461   9.467  -8.016  1.00  0.00    -0.248 NA
ATOM     34  C   UNL     1      -3.919   7.177  -8.006  1.00  0.00     0.031 C 
ATOM     35  C   UNL     1       0.905   8.556  -7.746  1.00  0.00     0.029 A 
ATOM     36  N   UNL     1      -0.649  10.159  -7.621  1.00  0.00    -0.354 N 
ATOM     37  C   UNL     1      -4.836   9.274  -8.076  1.00  0.00     0.074 A 
ATOM     38  C   UNL     1      -5.061   7.844  -8.099  1.00  0.00     0.031 C 
ATOM     39  C   UNL     1       1.538   9.712  -7.493  1.00  0.00     0.029 A 
ATOM     40  C   UNL     1       0.558  10.794  -7.458  1.00  0.00     0.049 A 
ATOM     41  H   UNL     1      -1.513  10.630  -7.600  1.00  0.00     0.167 HD
ATOM     42  C   UNL     1      -5.820  10.204  -8.112  1.00  0.00     0.037 A 
ATOM     43  C   UNL     1       0.851  12.103  -7.333  1.00  0.00     0.037 A 
ATOM     44  C   UNL     1      -5.602  11.624  -8.026  1.00  0.00     0.049 A 
ATOM     45  C   UNL     1      -0.256  13.118  -7.387  1.00  0.00     0.074 A 
ATOM     46  C   UNL     1      -6.539  12.644  -8.046  1.00  0.00     0.029 A 
ATOM     47  N   UNL     1      -4.361  12.224  -7.882  1.00  0.00    -0.354 N 
ATOM     48  N   UNL     1      -1.546  12.926  -7.514  1.00  0.00    -0.248 NA
ATOM     49  C   UNL     1       0.137  14.532  -7.303  1.00  0.00     0.031 C 
ATOM     50  C   UNL     1      -5.861  13.864  -7.936  1.00  0.00     0.029 A 
ATOM     51  C   UNL     1      -4.507  13.600  -7.815  1.00  0.00     0.049 A 
ATOM     52  H   UNL     1      -3.503  11.744  -7.834  1.00  0.00     0.167 HD
ATOM     53  C   UNL     1      -2.119  14.191  -7.520  1.00  0.00     0.074 A 
ATOM     54  C   UNL     1      -1.038  15.142  -7.362  1.00  0.00     0.031 C 
ATOM     55  C   UNL     1      -3.423  14.533  -7.652  1.00  0.00     0.037 A 
BRANCH  42  56
ATOM     56  C   UNL     1      -7.227   9.715  -8.284  1.00  0.00     0.057 A 
ATOM     57  C   UNL     1      -7.940   9.113  -7.240  1.00  0.00     0.134 A 
ATOM     58  C   UNL     1      -7.887   9.882  -9.508  1.00  0.00     0.134 A 
ATOM     59  F   UNL     1      -7.359   8.911  -6.048  1.00  0.00    -0.206 F 
ATOM     60  C   UNL     1      -9.255   8.677  -7.414  1.00  0.00     0.040 A 
ATOM     61  C   UNL     1      -9.209   9.471  -9.688  1.00  0.00     0.040 A 
ATOM     62  F   UNL     1      -7.261  10.457 -10.546  1.00  0.00    -0.206 F 
ATOM     63  C   UNL     1      -9.895   8.861  -8.639  1.00  0.00     0.006 A 
ENDBRANCH  42  56
BRANCH  43  64
ATOM     64  C   UNL     1       2.263  12.533  -7.181  1.00  0.00     0.057 A 
ATOM     65  C   UNL     1       2.736  13.048  -5.970  1.00  0.00     0.134 A 
ATOM     66  C   UNL     1       3.173  12.435  -8.241  1.00  0.00     0.134 A 
ATOM     67  F   UNL     1       1.905  13.190  -4.926  1.00  0.00    -0.206 F 
ATOM     68  C   UNL     1       4.062  13.456  -5.817  1.00  0.00     0.040 A 
ATOM     69  C   UNL     1       4.507  12.816  -8.096  1.00  0.00     0.040 A 
ATOM     70  F   UNL     1       2.780  11.951  -9.428  1.00  0.00    -0.206 F 
ATOM     71  C   UNL     1       4.954  13.333  -6.881  1.00  0.00     0.006 A 
ENDBRANCH  43  64
BRANCH  55  72
ATOM     72  C   UNL     1      -3.753  15.993  -7.607  1.00  0.00     0.057 A 
ATOM     73  C   UNL     1      -3.509  16.835  -8.699  1.00  0.00     0.134 A 
ATOM     74  C   UNL     1      -4.351  16.555  -6.473  1.00  0.00     0.134 A 
ATOM     75  F   UNL     1      -2.926  16.358  -9.809  1.00  0.00    -0.206 F 
ATOM     76  C   UNL     1      -3.834  18.192  -8.657  1.00  0.00     0.040 A 
ATOM     77  C   UNL     1      -4.697  17.906  -6.426  1.00  0.00     0.040 A 
ATOM     78  F   UNL     1      -4.615  15.799  -5.397  1.00  0.00    -0.206 F 
ATOM     79  C   UNL     1      -4.434  18.730  -7.519  1.00  0.00     0.006 A 
ENDBRANCH  55  72
ENDBRANCH  29  30
ENDBRANCH  22  24
ENDBRANCH  21  22
ENDBRANCH  20  21
ENDBRANCH   1  20
TORSDOF 14
