REMARK SMILES O=C(OCCOC(=O)c1cc(Cl)cc(Cl)c1NC(=S)NC(=O)c1cccc2ccccc12)c1ccc(-c2c3nc(c(-c4c(F)cccc4F)c4ccc([nH]4)c(-c4c(F)cccc4F)c4nc(c(-c5c(F)cccc5F)c5ccc2[nH]5)C=C4)C=C3)cc1
REMARK SMILES IDX 5 1 4 2 3 3 2 4 1 5 33 6 34 7 86 8 35 9 85 10 36 11 37 12
REMARK SMILES IDX 38 13 79 14 39 15 84 16 78 17 80 18 40 19 83 20 77 21 76 22
REMARK SMILES IDX 41 24 67 25 50 26 66 27 51 28 54 29 65 30 81 31 52 32 53 33
REMARK SMILES IDX 64 35 82 36 55 37 42 38 43 39 48 40 44 41 45 42 47 43 49 44
REMARK SMILES IDX 46 45 68 46 69 47 74 48 70 49 71 50 73 51 75 52 72 53 56 54
REMARK SMILES IDX 57 55 62 56 58 57 59 58 61 59 63 60 60 61 6 62 7 63 8 64
REMARK SMILES IDX 9 65 10 66 16 67 11 68 14 69 12 70 13 71 15 72 17 73 18 75
REMARK SMILES IDX 19 76 20 77 21 78 22 80 23 81 24 82 32 83 25 84 27 85 31 86
REMARK SMILES IDX 26 87 28 88 30 89 29 90
REMARK H PARENT 80 23 54 34 17 74 20 79
REMARK Flexibility Score: inf
ROOT
ATOM      1  C   UNL     1       4.542  -1.731  -1.198  1.00  0.00     0.275 C 
ENDROOT
BRANCH   1   2
ATOM      2  C   UNL     1       4.810  -1.556   0.307  1.00  0.00     0.275 C 
BRANCH   2   3
ATOM      3  O   UNL     1       3.856  -0.736   0.988  1.00  0.00    -0.458 OA
BRANCH   3   4
ATOM      4  C   UNL     1       3.823   0.610   1.084  1.00  0.00     0.338 C 
ATOM      5  O   UNL     1       2.971   1.114   1.814  1.00  0.00    -0.246 OA
BRANCH   4   6
ATOM      6  C   UNL     1       4.641   1.526   0.212  1.00  0.00     0.060 A 
ATOM      7  C   UNL     1       5.838   1.252  -0.471  1.00  0.00     0.016 A 
ATOM      8  C   UNL     1       4.069   2.779   0.005  1.00  0.00     0.016 A 
ATOM      9  C   UNL     1       6.399   2.147  -1.406  1.00  0.00     0.010 A 
ATOM     10  C   UNL     1       4.611   3.659  -0.928  1.00  0.00     0.010 A 
ATOM     11  C   UNL     1       5.795   3.370  -1.643  1.00  0.00    -0.014 A 
BRANCH  11  12
ATOM     12  C   UNL     1       6.423   4.480  -2.430  1.00  0.00     0.031 A 
ATOM     13  C   UNL     1       6.572   5.772  -1.666  1.00  0.00     0.074 A 
ATOM     14  C   UNL     1       6.593   4.466  -3.775  1.00  0.00     0.049 A 
ATOM     15  N   UNL     1       6.606   7.002  -2.098  1.00  0.00    -0.248 NA
ATOM     16  C   UNL     1       6.548   5.646  -0.191  1.00  0.00     0.031 C 
ATOM     17  C   UNL     1       6.356   3.332  -4.671  1.00  0.00     0.029 A 
ATOM     18  N   UNL     1       6.754   5.535  -4.647  1.00  0.00    -0.354 N 
ATOM     19  C   UNL     1       6.641   7.770  -0.942  1.00  0.00     0.074 A 
ATOM     20  C   UNL     1       6.338   6.900   0.166  1.00  0.00     0.031 C 
ATOM     21  C   UNL     1       6.157   3.793  -5.923  1.00  0.00     0.029 A 
ATOM     22  C   UNL     1       6.305   5.247  -5.927  1.00  0.00     0.049 A 
ATOM     23  H   UNL     1       7.144   6.401  -4.385  1.00  0.00     0.167 HD
ATOM     24  C   UNL     1       7.063   9.044  -0.788  1.00  0.00     0.037 A 
ATOM     25  C   UNL     1       5.971   6.070  -6.947  1.00  0.00     0.037 A 
ATOM     26  C   UNL     1       7.399   9.881  -1.898  1.00  0.00     0.049 A 
ATOM     27  C   UNL     1       6.250   7.544  -6.817  1.00  0.00     0.074 A 
ATOM     28  C   UNL     1       8.024  11.111  -1.909  1.00  0.00     0.029 A 
ATOM     29  N   UNL     1       7.108   9.554  -3.212  1.00  0.00    -0.354 N 
ATOM     30  N   UNL     1       6.527   8.240  -5.742  1.00  0.00    -0.248 NA
ATOM     31  C   UNL     1       6.266   8.331  -8.061  1.00  0.00     0.031 C 
ATOM     32  C   UNL     1       8.070  11.552  -3.237  1.00  0.00     0.029 A 
ATOM     33  C   UNL     1       7.529  10.565  -4.049  1.00  0.00     0.049 A 
ATOM     34  H   UNL     1       6.667   8.724  -3.504  1.00  0.00     0.167 HD
ATOM     35  C   UNL     1       6.881   9.508  -6.194  1.00  0.00     0.074 A 
ATOM     36  C   UNL     1       6.691   9.511  -7.628  1.00  0.00     0.031 C 
ATOM     37  C   UNL     1       7.390  10.543  -5.482  1.00  0.00     0.037 A 
BRANCH  24  38
ATOM     38  C   UNL     1       7.291   9.510   0.621  1.00  0.00     0.057 A 
ATOM     39  C   UNL     1       8.208   8.851   1.463  1.00  0.00     0.134 A 
ATOM     40  C   UNL     1       6.574  10.576   1.167  1.00  0.00     0.134 A 
ATOM     41  F   UNL     1       8.940   7.823   1.003  1.00  0.00    -0.206 F 
ATOM     42  C   UNL     1       8.333   9.176   2.812  1.00  0.00     0.040 A 
ATOM     43  C   UNL     1       6.728  10.943   2.506  1.00  0.00     0.040 A 
ATOM     44  F   UNL     1       5.700  11.267   0.420  1.00  0.00    -0.206 F 
ATOM     45  C   UNL     1       7.591  10.227   3.337  1.00  0.00     0.006 A 
ENDBRANCH  24  38
BRANCH  25  46
ATOM     46  C   UNL     1       5.381   5.552  -8.212  1.00  0.00     0.057 A 
ATOM     47  C   UNL     1       6.187   5.251  -9.316  1.00  0.00     0.134 A 
ATOM     48  C   UNL     1       3.995   5.426  -8.378  1.00  0.00     0.134 A 
ATOM     49  F   UNL     1       7.517   5.403  -9.235  1.00  0.00    -0.206 F 
ATOM     50  C   UNL     1       5.643   4.847 -10.538  1.00  0.00     0.040 A 
ATOM     51  C   UNL     1       3.437   5.010  -9.593  1.00  0.00     0.040 A 
ATOM     52  F   UNL     1       3.162   5.734  -7.375  1.00  0.00    -0.206 F 
ATOM     53  C   UNL     1       4.262   4.721 -10.679  1.00  0.00     0.006 A 
ENDBRANCH  25  46
BRANCH  37  54
ATOM     54  C   UNL     1       7.963  11.704  -6.235  1.00  0.00     0.057 A 
ATOM     55  C   UNL     1       7.176  12.678  -6.851  1.00  0.00     0.134 A 
ATOM     56  C   UNL     1       9.354  11.888  -6.241  1.00  0.00     0.134 A 
ATOM     57  F   UNL     1       5.841  12.550  -6.894  1.00  0.00    -0.206 F 
ATOM     58  C   UNL     1       7.753  13.802  -7.447  1.00  0.00     0.040 A 
ATOM     59  C   UNL     1       9.940  13.020  -6.803  1.00  0.00     0.040 A 
ATOM     60  F   UNL     1      10.163  10.987  -5.661  1.00  0.00    -0.206 F 
ATOM     61  C   UNL     1       9.137  13.982  -7.409  1.00  0.00     0.006 A 
ENDBRANCH  37  54
ENDBRANCH  11  12
ENDBRANCH   4   6
ENDBRANCH   3   4
ENDBRANCH   2   3
ENDBRANCH   1   2
BRANCH   1  62
ATOM     62  O   UNL     1       4.202  -0.514  -1.915  1.00  0.00    -0.458 OA
BRANCH  62  63
ATOM     63  C   UNL     1       2.877  -0.229  -1.947  1.00  0.00     0.340 C 
ATOM     64  O   UNL     1       1.992  -0.949  -1.508  1.00  0.00    -0.246 OA
BRANCH  63  65
ATOM     65  C   UNL     1       2.537   1.101  -2.534  1.00  0.00     0.086 A 
ATOM     66  C   UNL     1       2.767   1.276  -4.314  1.00  0.00     0.038 A 
ATOM     67  C   UNL     1       1.250   1.886  -1.660  1.00  0.00     0.074 A 
ATOM     68  C   UNL     1       1.635   2.195  -5.369  1.00  0.00     0.043 A 
ATOM     69  C   UNL     1       0.252   2.923  -2.519  1.00  0.00     0.066 A 
ATOM     70  Cl  UNL     1       1.922   2.326  -7.050  1.00  0.00    -0.084 Cl
ATOM     71  C   UNL     1       0.248   3.055  -4.550  1.00  0.00     0.043 A 
ATOM     72  Cl  UNL     1       1.132   4.336  -1.078  1.00  0.00    -0.082 Cl
BRANCH  67  73
ATOM     73  N   UNL     1       0.517   1.610  -0.467  1.00  0.00    -0.330 N 
ATOM     74  H   UNL     1       0.888   0.909   0.117  1.00  0.00     0.169 HD
BRANCH  73  75
ATOM     75  C   UNL     1      -0.680   2.221  -0.022  1.00  0.00     0.177 C 
ATOM     76  S   UNL     1      -1.361   1.632   1.398  1.00  0.00    -0.040 S 
BRANCH  75  77
ATOM     77  N   UNL     1      -1.369   3.398  -0.619  1.00  0.00    -0.299 N 
ATOM     78  C   UNL     1      -1.579   4.538  -1.679  1.00  0.00     0.258 C 
ATOM     79  H   UNL     1      -2.116   3.546   0.004  1.00  0.00     0.172 HD
ATOM     80  O   UNL     1      -2.179   5.559  -1.350  1.00  0.00    -0.269 OA
BRANCH  78  81
ATOM     81  C   UNL     1      -1.097   4.381  -3.188  1.00  0.00     0.048 A 
ATOM     82  C   UNL     1      -1.844   2.845  -3.438  1.00  0.00     0.014 A 
ATOM     83  C   UNL     1       0.660   4.728  -3.445  1.00  0.00    -0.006 A 
ATOM     84  C   UNL     1      -1.020   1.448  -3.633  1.00  0.00     0.001 A 
ATOM     85  C   UNL     1       1.786   3.243  -3.542  1.00  0.00    -0.018 A 
ATOM     86  C   UNL     1       1.091   6.056  -3.524  1.00  0.00     0.009 A 
ATOM     87  C   UNL     1       0.714   1.504  -3.658  1.00  0.00     0.009 A 
ATOM     88  C   UNL     1       3.113   3.880  -3.655  1.00  0.00     0.009 A 
ATOM     89  C   UNL     1       2.430   6.320  -3.684  1.00  0.00     0.001 A 
ATOM     90  C   UNL     1       3.367   5.286  -3.754  1.00  0.00     0.001 A 
ENDBRANCH  78  81
ENDBRANCH  75  77
ENDBRANCH  73  75
ENDBRANCH  67  73
ENDBRANCH  63  65
ENDBRANCH  62  63
ENDBRANCH   1  62
TORSDOF 15
