REMARK SMILES COC(=O)c1c(NC(=O)CCC(=O)OCCOC(=O)c2ccc(-c3c4nc(c(-c5c(F)cccc5F)c5ccc([nH]5)c(-c5c(F)cccc5F)c5nc(c(-c6c(F)cccc6F)c6ccc3[nH]6)C=C5)C=C4)cc2)sc2c1CCCCCC2
REMARK SMILES IDX 12 1 13 2 11 3 10 4 8 5 7 6 9 8 6 9 5 10 76 11 74 12 75 13
REMARK SMILES IDX 3 14 4 15 2 16 1 17 77 18 78 19 82 21 81 22 80 23 79 24
REMARK SMILES IDX 14 26 15 27 16 28 17 29 18 30 19 31 20 32 21 33 73 34 22 35
REMARK SMILES IDX 72 36 23 37 24 38 25 39 66 40 26 41 71 42 65 43 67 44 27 45
REMARK SMILES IDX 70 46 64 47 63 48 28 50 54 51 37 52 53 53 38 54 41 55 52 56
REMARK SMILES IDX 68 57 39 58 40 59 51 61 69 62 42 63 29 64 30 65 35 66 31 67
REMARK SMILES IDX 32 68 34 69 36 70 33 71 55 72 56 73 61 74 57 75 58 76 60 77
REMARK SMILES IDX 62 78 59 79 43 80 44 81 49 82 45 83 46 84 48 85 50 86 47 87
REMARK H PARENT 7 7 67 49 41 60
REMARK Flexibility Score: 90.00
ROOT
ATOM      1  C   UNL     1      -0.037  -0.650  -3.720  1.00  0.00     0.306 C 
ATOM      2  O   UNL     1       1.166  -0.835  -3.846  1.00  0.00    -0.252 OA
ENDROOT
BRANCH   1   3
ATOM      3  C   UNL     1      -0.876  -1.245  -2.621  1.00  0.00     0.132 C 
BRANCH   3   4
ATOM      4  C   UNL     1      -1.707  -0.307  -1.745  1.00  0.00     0.112 C 
BRANCH   4   5
ATOM      5  C   UNL     1      -2.822   0.519  -2.363  1.00  0.00     0.225 C 
ATOM      6  N   UNL     1      -2.673   1.817  -2.761  1.00  0.00    -0.317 N 
ATOM      7  H   UNL     1      -3.495   2.357  -2.811  1.00  0.00     0.170 HD
ATOM      8  O   UNL     1      -3.942   0.007  -2.479  1.00  0.00    -0.275 OA
BRANCH   6   9
ATOM      9  C   UNL     1      -1.504   2.455  -3.101  1.00  0.00     0.110 A 
ATOM     10  C   UNL     1       0.239   2.132  -2.990  1.00  0.00     0.098 A 
ATOM     11  C   UNL     1       1.262   3.273  -4.179  1.00  0.00    -0.017 A 
ATOM     12  S   UNL     1      -1.964   4.319  -4.419  1.00  0.00    -0.122 S 
ATOM     13  C   UNL     1       0.282   4.517  -4.967  1.00  0.00     0.011 A 
BRANCH  10  14
ATOM     14  C   UNL     1       0.662   1.698  -1.637  1.00  0.00     0.341 C 
ATOM     15  O   UNL     1       0.044   2.115  -0.662  1.00  0.00    -0.246 OA
BRANCH  14  16
ATOM     16  O   UNL     1       1.632   0.754  -1.532  1.00  0.00    -0.465 OA
ATOM     17  C   UNL     1       1.706   0.171  -0.211  1.00  0.00     0.282 C 
ENDBRANCH  14  16
ENDBRANCH  10  14
BRANCH  11  18
ATOM     18  C   UNL     1       2.772   3.329  -4.256  1.00  0.00     0.037 C 
BRANCH  18  19
ATOM     19  C   UNL     1       3.376   2.839  -5.565  1.00  0.00     0.005 CG0
ATOM     20  G   UNL     1       2.764   3.388  -6.858  1.00  0.00     0.000 G0
ENDBRANCH  18  19
ENDBRANCH  11  18
BRANCH  13  21
ATOM     21  C   UNL     1       0.535   5.501  -6.085  1.00  0.00     0.047 C 
BRANCH  21  22
ATOM     22  C   UNL     1       1.999   5.875  -6.319  1.00  0.00     0.006 C 
BRANCH  22  23
ATOM     23  C   UNL     1       2.880   4.893  -7.108  1.00  0.00     0.000 C 
BRANCH  23  24
ATOM     24  C   UNL     1       2.764   3.388  -6.858  1.00  0.00     0.000 CG0
ATOM     25  G   UNL     1       3.376   2.839  -5.565  1.00  0.00     0.000 G0
ENDBRANCH  23  24
ENDBRANCH  22  23
ENDBRANCH  21  22
ENDBRANCH  13  21
ENDBRANCH   6   9
ENDBRANCH   4   5
ENDBRANCH   3   4
ENDBRANCH   1   3
BRANCH   1  26
ATOM     26  O   UNL     1      -0.778   0.140  -4.522  1.00  0.00    -0.462 OA
BRANCH  26  27
ATOM     27  C   UNL     1      -0.037   1.105  -5.287  1.00  0.00     0.274 C 
BRANCH  27  28
ATOM     28  C   UNL     1      -0.572   2.587  -4.986  1.00  0.00     0.275 C 
BRANCH  28  29
ATOM     29  O   UNL     1      -0.339   3.823  -3.354  1.00  0.00    -0.458 OA
BRANCH  29  30
ATOM     30  C   UNL     1      -0.109   4.651  -2.266  1.00  0.00     0.338 C 
ATOM     31  O   UNL     1      -0.991   5.149  -1.574  1.00  0.00    -0.246 OA
BRANCH  30  32
ATOM     32  C   UNL     1       1.263   4.939  -1.897  1.00  0.00     0.060 A 
ATOM     33  C   UNL     1       1.849   4.476  -0.709  1.00  0.00     0.016 A 
ATOM     34  C   UNL     1       1.788   6.002  -2.611  1.00  0.00     0.016 A 
ATOM     35  C   UNL     1       2.680   5.345  -0.066  1.00  0.00     0.010 A 
ATOM     36  C   UNL     1       2.907   6.569  -2.125  1.00  0.00     0.010 A 
ATOM     37  C   UNL     1       2.969   6.507  -0.754  1.00  0.00    -0.014 A 
BRANCH  37  38
ATOM     38  C   UNL     1       3.518   7.660  -0.115  1.00  0.00     0.031 A 
ATOM     39  C   UNL     1       4.869   7.300   0.347  1.00  0.00     0.074 A 
ATOM     40  C   UNL     1       2.809   8.811  -0.117  1.00  0.00     0.049 A 
ATOM     41  N   UNL     1       5.180   6.945   1.548  1.00  0.00    -0.248 NA
ATOM     42  C   UNL     1       5.870   6.867  -0.655  1.00  0.00     0.031 C 
ATOM     43  C   UNL     1       1.499   9.116  -0.722  1.00  0.00     0.029 A 
ATOM     44  N   UNL     1       3.176  10.027   0.374  1.00  0.00    -0.354 N 
ATOM     45  C   UNL     1       6.532   6.651   1.479  1.00  0.00     0.074 A 
ATOM     46  C   UNL     1       6.777   6.270   0.121  1.00  0.00     0.031 C 
ATOM     47  C   UNL     1       1.341  10.458  -0.827  1.00  0.00     0.029 A 
ATOM     48  C   UNL     1       2.459  11.106  -0.175  1.00  0.00     0.049 A 
ATOM     49  H   UNL     1       3.881  10.140   1.052  1.00  0.00     0.167 HD
ATOM     50  C   UNL     1       7.359   7.231   2.389  1.00  0.00     0.037 A 
ATOM     51  C   UNL     1       2.876  12.401  -0.096  1.00  0.00     0.037 A 
ATOM     52  C   UNL     1       6.586   7.675   3.533  1.00  0.00     0.049 A 
ATOM     53  C   UNL     1       3.857  12.439   1.038  1.00  0.00     0.074 A 
ATOM     54  C   UNL     1       5.735   7.040   4.419  1.00  0.00     0.029 A 
ATOM     55  N   UNL     1       6.243   9.007   3.554  1.00  0.00    -0.354 N 
ATOM     56  N   UNL     1       3.509  12.185   2.276  1.00  0.00    -0.248 NA
ATOM     57  C   UNL     1       5.242  12.123   0.695  1.00  0.00     0.031 C 
ATOM     58  C   UNL     1       4.638   7.936   4.588  1.00  0.00     0.029 A 
ATOM     59  C   UNL     1       4.931   9.133   3.935  1.00  0.00     0.049 A 
ATOM     60  H   UNL     1       6.845   9.754   3.330  1.00  0.00     0.167 HD
ATOM     61  C   UNL     1       4.447  11.256   2.713  1.00  0.00     0.074 A 
ATOM     62  C   UNL     1       5.504  11.271   1.694  1.00  0.00     0.031 C 
ATOM     63  C   UNL     1       4.135  10.307   3.649  1.00  0.00     0.037 A 
BRANCH  50  64
ATOM     64  C   UNL     1       8.686   7.860   2.026  1.00  0.00     0.057 A 
ATOM     65  C   UNL     1       9.472   8.370   3.071  1.00  0.00     0.134 A 
ATOM     66  C   UNL     1       9.090   8.255   0.731  1.00  0.00     0.134 A 
ATOM     67  F   UNL     1       9.192   8.072   4.348  1.00  0.00    -0.206 F 
ATOM     68  C   UNL     1      10.516   9.275   2.850  1.00  0.00     0.040 A 
ATOM     69  C   UNL     1      10.157   9.123   0.498  1.00  0.00     0.040 A 
ATOM     70  F   UNL     1       8.440   7.912  -0.384  1.00  0.00    -0.206 F 
ATOM     71  C   UNL     1      10.854   9.664   1.561  1.00  0.00     0.006 A 
ENDBRANCH  50  64
BRANCH  51  72
ATOM     72  C   UNL     1       2.843  13.449  -1.153  1.00  0.00     0.057 A 
ATOM     73  C   UNL     1       3.215  14.779  -0.887  1.00  0.00     0.134 A 
ATOM     74  C   UNL     1       2.733  13.114  -2.514  1.00  0.00     0.134 A 
ATOM     75  F   UNL     1       3.382  15.199   0.376  1.00  0.00    -0.206 F 
ATOM     76  C   UNL     1       3.496  15.702  -1.909  1.00  0.00     0.040 A 
ATOM     77  C   UNL     1       3.014  14.023  -3.543  1.00  0.00     0.040 A 
ATOM     78  F   UNL     1       2.440  11.865  -2.900  1.00  0.00    -0.206 F 
ATOM     79  C   UNL     1       3.413  15.318  -3.244  1.00  0.00     0.006 A 
ENDBRANCH  51  72
BRANCH  63  80
ATOM     80  C   UNL     1       2.800  10.398   4.349  1.00  0.00     0.057 A 
ATOM     81  C   UNL     1       1.547  10.209   3.741  1.00  0.00     0.134 A 
ATOM     82  C   UNL     1       2.805  10.505   5.742  1.00  0.00     0.134 A 
ATOM     83  F   UNL     1       1.441   9.985   2.427  1.00  0.00    -0.206 F 
ATOM     84  C   UNL     1       0.358  10.175   4.482  1.00  0.00     0.040 A 
ATOM     85  C   UNL     1       1.633  10.443   6.496  1.00  0.00     0.040 A 
ATOM     86  F   UNL     1       3.969  10.614   6.402  1.00  0.00    -0.206 F 
ATOM     87  C   UNL     1       0.401  10.291   5.867  1.00  0.00     0.006 A 
ENDBRANCH  63  80
ENDBRANCH  37  38
ENDBRANCH  30  32
ENDBRANCH  29  30
ENDBRANCH  28  29
ENDBRANCH  27  28
ENDBRANCH  26  27
ENDBRANCH   1  26
TORSDOF 16
