REMARK SMILES CNC(=O)NC(=O)CCSc1csc(C(=O)OCCOC(=O)c2ccc(-c3c4nc(c(-c5c(F)cccc5F)c5ccc([nH]5)c(-c5c(F)cccc5F)c5nc(c(-c6c(F)cccc6F)c6ccc3[nH]6)C=C5)C=C4)cc2)c1
REMARK SMILES IDX 18 1 17 2 15 3 16 4 14 5 11 6 12 7 77 8 13 9 10 10 9 11 8 12
REMARK SMILES IDX 6 13 1 14 2 15 3 16 4 18 5 19 7 21 19 22 20 23 21 24 22 25
REMARK SMILES IDX 23 26 24 27 76 28 25 29 75 30 26 31 27 32 28 33 69 34 29 35
REMARK SMILES IDX 74 36 68 37 70 38 30 39 73 40 67 41 66 42 31 44 57 45 40 46
REMARK SMILES IDX 56 47 41 48 44 49 55 50 71 51 42 52 43 53 54 55 72 56 45 57
REMARK SMILES IDX 32 58 33 59 38 60 34 61 35 62 37 63 39 64 36 65 58 66 59 67
REMARK SMILES IDX 64 68 60 69 61 70 63 71 65 72 62 73 46 74 47 75 52 76 48 77
REMARK SMILES IDX 49 78 51 79 53 80 50 81
REMARK H PARENT 2 17 5 20 70 43 44 54
REMARK Flexibility Score: inf
ROOT
ATOM      1  C   UNL     1      -1.911  -4.542   5.939  1.00  0.00     0.275 C 
ENDROOT
BRANCH   1   2
ATOM      2  O   UNL     1      -1.016  -3.698   5.185  1.00  0.00    -0.458 OA
BRANCH   2   3
ATOM      3  C   UNL     1      -1.531  -2.487   4.823  1.00  0.00     0.348 C 
ATOM      4  O   UNL     1      -2.702  -2.162   5.006  1.00  0.00    -0.245 OA
BRANCH   3   5
ATOM      5  C   UNL     1      -0.488  -1.614   4.324  1.00  0.00     0.113 A 
ATOM      6  C   UNL     1       1.336  -0.667   3.228  1.00  0.00     0.019 A 
ATOM      7  C   UNL     1       0.868   0.411   3.937  1.00  0.00     0.080 A 
ATOM      8  C   UNL     1       0.646  -1.873   3.571  1.00  0.00     0.042 A 
ATOM      9  S   UNL     1      -0.641   0.069   4.619  1.00  0.00    -0.136 S 
BRANCH   6  10
ATOM     10  S   UNL     1       2.595  -0.584   2.013  1.00  0.00    -0.125 SA
BRANCH  10  11
ATOM     11  C   UNL     1       2.401   1.123   1.379  1.00  0.00     0.085 C 
BRANCH  11  12
ATOM     12  C   UNL     1       1.202   1.460   0.492  1.00  0.00     0.112 C 
BRANCH  12  13
ATOM     13  C   UNL     1      -0.175   1.378   1.092  1.00  0.00     0.228 C 
ATOM     14  C   UNL     1       0.675  -1.258  -1.172  1.00  0.00     0.144 C 
ATOM     15  N   UNL     1      -0.096  -1.677  -0.034  1.00  0.00    -0.341 N 
ATOM     16  C   UNL     1      -0.982  -1.036   0.736  1.00  0.00     0.321 C 
ATOM     17  H   UNL     1       0.058  -2.613   0.230  1.00  0.00     0.165 HD
ATOM     18  O   UNL     1      -1.785  -1.727   1.369  1.00  0.00    -0.248 OA
ATOM     19  N   UNL     1      -1.038   0.319   0.882  1.00  0.00    -0.278 N 
ATOM     20  H   UNL     1      -1.968   0.637   0.820  1.00  0.00     0.174 HD
ATOM     21  O   UNL     1      -0.575   2.308   1.805  1.00  0.00    -0.275 OA
ENDBRANCH  12  13
ENDBRANCH  11  12
ENDBRANCH  10  11
ENDBRANCH   6  10
ENDBRANCH   3   5
ENDBRANCH   2   3
ENDBRANCH   1   2
BRANCH   1  22
ATOM     22  C   UNL     1      -1.656  -4.419   7.444  1.00  0.00     0.275 C 
BRANCH  22  23
ATOM     23  O   UNL     1      -2.013  -3.108   7.925  1.00  0.00    -0.458 OA
BRANCH  23  24
ATOM     24  C   UNL     1      -0.973  -2.318   8.278  1.00  0.00     0.338 C 
ATOM     25  O   UNL     1       0.213  -2.601   8.245  1.00  0.00    -0.246 OA
BRANCH  24  26
ATOM     26  C   UNL     1      -1.440  -0.977   8.666  1.00  0.00     0.060 A 
ATOM     27  C   UNL     1      -1.893  -0.127   7.670  1.00  0.00     0.016 A 
ATOM     28  C   UNL     1      -1.208  -0.477   9.944  1.00  0.00     0.016 A 
ATOM     29  C   UNL     1      -1.916   1.248   7.878  1.00  0.00     0.010 A 
ATOM     30  C   UNL     1      -1.406   0.889  10.199  1.00  0.00     0.010 A 
ATOM     31  C   UNL     1      -1.698   1.784   9.153  1.00  0.00    -0.014 A 
BRANCH  31  32
ATOM     32  C   UNL     1      -1.751   3.264   9.364  1.00  0.00     0.031 A 
ATOM     33  C   UNL     1      -0.598   3.993  10.014  1.00  0.00     0.074 A 
ATOM     34  C   UNL     1      -2.821   3.975   8.948  1.00  0.00     0.049 A 
ATOM     35  N   UNL     1      -0.524   5.238  10.419  1.00  0.00    -0.248 NA
ATOM     36  C   UNL     1       0.630   3.219  10.255  1.00  0.00     0.031 C 
ATOM     37  C   UNL     1      -3.994   3.425   8.263  1.00  0.00     0.029 A 
ATOM     38  N   UNL     1      -3.096   5.320   9.030  1.00  0.00    -0.354 N 
ATOM     39  C   UNL     1       0.726   5.376  11.012  1.00  0.00     0.074 A 
ATOM     40  C   UNL     1       1.374   4.085  10.928  1.00  0.00     0.031 C 
ATOM     41  C   UNL     1      -4.829   4.422   7.940  1.00  0.00     0.029 A 
ATOM     42  C   UNL     1      -4.311   5.667   8.489  1.00  0.00     0.049 A 
ATOM     43  H   UNL     1      -2.480   5.972   9.436  1.00  0.00     0.167 HD
ATOM     44  C   UNL     1       1.285   6.478  11.572  1.00  0.00     0.037 A 
ATOM     45  C   UNL     1      -4.970   6.841   8.474  1.00  0.00     0.037 A 
ATOM     46  C   UNL     1       0.661   7.777  11.605  1.00  0.00     0.049 A 
ATOM     47  C   UNL     1      -4.350   8.036   9.138  1.00  0.00     0.074 A 
ATOM     48  C   UNL     1       1.155   8.957  12.135  1.00  0.00     0.029 A 
ATOM     49  N   UNL     1      -0.586   8.070  11.074  1.00  0.00    -0.354 N 
ATOM     50  N   UNL     1      -3.188   8.138   9.736  1.00  0.00    -0.248 NA
ATOM     51  C   UNL     1      -5.139   9.275   9.138  1.00  0.00     0.031 C 
ATOM     52  C   UNL     1       0.188   9.954  11.966  1.00  0.00     0.029 A 
ATOM     53  C   UNL     1      -0.885   9.409  11.280  1.00  0.00     0.049 A 
ATOM     54  H   UNL     1      -1.172   7.424  10.618  1.00  0.00     0.167 HD
ATOM     55  C   UNL     1      -3.096   9.456  10.162  1.00  0.00     0.074 A 
ATOM     56  C   UNL     1      -4.313  10.118   9.739  1.00  0.00     0.031 C 
ATOM     57  C   UNL     1      -2.094  10.060  10.845  1.00  0.00     0.037 A 
BRANCH  44  58
ATOM     58  C   UNL     1       2.628   6.322  12.231  1.00  0.00     0.057 A 
ATOM     59  C   UNL     1       3.804   6.117  11.498  1.00  0.00     0.134 A 
ATOM     60  C   UNL     1       2.748   6.419  13.624  1.00  0.00     0.134 A 
ATOM     61  F   UNL     1       3.763   6.006  10.162  1.00  0.00    -0.206 F 
ATOM     62  C   UNL     1       5.045   5.986  12.129  1.00  0.00     0.040 A 
ATOM     63  C   UNL     1       3.986   6.319  14.263  1.00  0.00     0.040 A 
ATOM     64  F   UNL     1       1.665   6.626  14.389  1.00  0.00    -0.206 F 
ATOM     65  C   UNL     1       5.138   6.093  13.515  1.00  0.00     0.006 A 
ENDBRANCH  44  58
BRANCH  45  66
ATOM     66  C   UNL     1      -6.313   6.932   7.843  1.00  0.00     0.057 A 
ATOM     67  C   UNL     1      -6.521   7.688   6.685  1.00  0.00     0.134 A 
ATOM     68  C   UNL     1      -7.420   6.264   8.384  1.00  0.00     0.134 A 
ATOM     69  F   UNL     1      -5.508   8.371   6.133  1.00  0.00    -0.206 F 
ATOM     70  C   UNL     1      -7.782   7.788   6.094  1.00  0.00     0.040 A 
ATOM     71  C   UNL     1      -8.679   6.328   7.785  1.00  0.00     0.040 A 
ATOM     72  F   UNL     1      -7.288   5.519   9.492  1.00  0.00    -0.206 F 
ATOM     73  C   UNL     1      -8.864   7.099   6.640  1.00  0.00     0.006 A 
ENDBRANCH  45  66
BRANCH  57  74
ATOM     74  C   UNL     1      -2.249  11.525  11.131  1.00  0.00     0.057 A 
ATOM     75  C   UNL     1      -3.166  12.005  12.075  1.00  0.00     0.134 A 
ATOM     76  C   UNL     1      -1.453  12.466  10.466  1.00  0.00     0.134 A 
ATOM     77  F   UNL     1      -3.970  11.157  12.735  1.00  0.00    -0.206 F 
ATOM     78  C   UNL     1      -3.304  13.371  12.328  1.00  0.00     0.040 A 
ATOM     79  C   UNL     1      -1.561  13.832  10.731  1.00  0.00     0.040 A 
ATOM     80  F   UNL     1      -0.550  12.073   9.555  1.00  0.00    -0.206 F 
ATOM     81  C   UNL     1      -2.494  14.288  11.659  1.00  0.00     0.006 A 
ENDBRANCH  57  74
ENDBRANCH  31  32
ENDBRANCH  24  26
ENDBRANCH  23  24
ENDBRANCH  22  23
ENDBRANCH   1  22
TORSDOF 15
