REMARK SMILES Cc1ccc(-c2nn(-c3ccccc3)cc2[C@@H]2[NH2+][C@H](C(=O)OCCOC(=O)c3ccc(-c4c5nc(c(-c6c(F)cccc6F)c6ccc([nH]6)c(-c6c(F)cccc6F)c6nc(c(-c7c(F)cccc7F)c7ccc4[nH]7)C=C6)C=C5)cc3)CS2)cc1
REMARK SMILES IDX 23 1 22 2 20 3 21 4 19 5 17 6 18 7 83 8 82 11 16 12 6 13
REMARK SMILES IDX 7 14 8 15 15 16 5 17 1 18 2 19 3 20 85 21 4 22 84 23 9 24
REMARK SMILES IDX 10 25 14 26 11 27 13 28 12 29 24 30 25 31 26 32 27 33 28 34
REMARK SMILES IDX 29 35 81 36 30 37 80 38 31 39 32 40 33 41 74 42 34 43 79 44
REMARK SMILES IDX 73 45 75 46 35 47 78 48 72 49 71 50 36 52 62 53 45 54 61 55
REMARK SMILES IDX 46 56 49 57 60 58 76 59 47 60 48 61 59 63 77 64 50 65 37 66
REMARK SMILES IDX 38 67 43 68 39 69 40 70 42 71 44 72 41 73 63 74 64 75 69 76
REMARK SMILES IDX 65 77 66 78 68 79 70 80 67 81 51 82 52 83 57 84 53 85 54 86
REMARK SMILES IDX 56 87 58 88 55 89
REMARK H PARENT 18 9 18 10 75 51 49 62
REMARK Flexibility Score: inf
ROOT
ATOM      1  C   UNL     1      -4.862  -2.646  -1.426  1.00  0.00     0.274 C 
ENDROOT
BRANCH   1   2
ATOM      2  O   UNL     1      -4.262  -2.687  -0.125  1.00  0.00    -0.458 OA
BRANCH   2   3
ATOM      3  C   UNL     1      -4.821  -1.835   0.784  1.00  0.00     0.365 C 
ATOM      4  O   UNL     1      -5.784  -1.121   0.550  1.00  0.00    -0.245 OA
BRANCH   3   5
ATOM      5  C   UNL     1      -4.085  -1.875   2.128  1.00  0.00     0.304 C 
ATOM      6  C   UNL     1      -2.960   0.243   2.089  1.00  0.00     0.278 C 
ATOM      7  N   UNL     1      -2.757  -1.219   2.018  1.00  0.00    -0.319 N 
ATOM      8  S   UNL     1      -4.152   0.473   3.433  1.00  0.00    -0.087 SA
ATOM      9  H   UNL     1      -2.158  -1.522   2.786  1.00  0.00     0.348 HD
ATOM     10  H   UNL     1      -2.311  -1.472   1.137  1.00  0.00     0.348 HD
ATOM     11  C   UNL     1      -4.848  -1.198   3.271  1.00  0.00     0.153 C 
BRANCH   6  12
ATOM     12  C   UNL     1      -3.427   0.757   0.756  1.00  0.00     0.067 A 
ATOM     13  C   UNL     1      -2.747   0.635  -0.488  1.00  0.00     0.103 A 
ATOM     14  N   UNL     1      -3.534   0.941  -1.528  1.00  0.00    -0.167 NA
ATOM     15  N   UNL     1      -4.700   1.353  -0.961  1.00  0.00    -0.240 N 
ATOM     16  C   UNL     1      -4.562   1.467   0.407  1.00  0.00     0.126 A 
BRANCH  13  17
ATOM     17  C   UNL     1      -1.328   0.357  -0.616  1.00  0.00     0.003 A 
ATOM     18  C   UNL     1       2.885  -0.222  -0.013  1.00  0.00     0.044 C 
ATOM     19  C   UNL     1       1.423  -0.021  -0.277  1.00  0.00    -0.051 A 
ATOM     20  C   UNL     1       0.562  -1.124  -0.381  1.00  0.00     0.004 A 
ATOM     21  C   UNL     1       0.902   1.271  -0.396  1.00  0.00     0.004 A 
ATOM     22  C   UNL     1      -0.813  -0.938  -0.551  1.00  0.00     0.011 A 
ATOM     23  C   UNL     1      -0.465   1.458  -0.568  1.00  0.00     0.011 A 
ENDBRANCH  13  17
BRANCH  15  24
ATOM     24  C   UNL     1      -5.887   1.551  -1.726  1.00  0.00     0.065 A 
ATOM     25  C   UNL     1      -5.962   1.074  -3.041  1.00  0.00     0.028 A 
ATOM     26  C   UNL     1      -7.017   2.156  -1.157  1.00  0.00     0.028 A 
ATOM     27  C   UNL     1      -7.162   1.169  -3.755  1.00  0.00     0.002 A 
ATOM     28  C   UNL     1      -8.215   2.245  -1.872  1.00  0.00     0.002 A 
ATOM     29  C   UNL     1      -8.288   1.748  -3.169  1.00  0.00     0.000 A 
ENDBRANCH  15  24
ENDBRANCH   6  12
ENDBRANCH   3   5
ENDBRANCH   2   3
ENDBRANCH   1   2
BRANCH   1  30
ATOM     30  C   UNL     1      -5.048  -4.046  -2.023  1.00  0.00     0.275 C 
BRANCH  30  31
ATOM     31  O   UNL     1      -5.096  -5.189  -1.117  1.00  0.00    -0.458 OA
BRANCH  31  32
ATOM     32  C   UNL     1      -5.808  -5.413   0.025  1.00  0.00     0.338 C 
ATOM     33  O   UNL     1      -5.594  -6.356   0.745  1.00  0.00    -0.246 OA
BRANCH  32  34
ATOM     34  C   UNL     1      -6.831  -4.420   0.409  1.00  0.00     0.060 A 
ATOM     35  C   UNL     1      -6.957  -4.028   1.756  1.00  0.00     0.016 A 
ATOM     36  C   UNL     1      -7.607  -3.831  -0.572  1.00  0.00     0.016 A 
ATOM     37  C   UNL     1      -7.794  -2.958   2.096  1.00  0.00     0.010 A 
ATOM     38  C   UNL     1      -8.275  -2.670  -0.267  1.00  0.00     0.010 A 
ATOM     39  C   UNL     1      -8.418  -2.247   1.069  1.00  0.00    -0.014 A 
BRANCH  39  40
ATOM     40  C   UNL     1      -9.444  -1.219   1.257  1.00  0.00     0.031 A 
ATOM     41  C   UNL     1      -9.229   0.136   1.810  1.00  0.00     0.074 A 
ATOM     42  C   UNL     1     -10.646  -1.623   0.789  1.00  0.00     0.049 A 
ATOM     43  N   UNL     1     -10.167   0.882   2.289  1.00  0.00    -0.248 NA
ATOM     44  C   UNL     1      -7.934   0.790   1.882  1.00  0.00     0.031 C 
ATOM     45  C   UNL     1     -11.889  -0.906   0.589  1.00  0.00     0.029 A 
ATOM     46  N   UNL     1     -10.989  -2.966   0.555  1.00  0.00    -0.354 N 
ATOM     47  C   UNL     1      -9.669   2.163   2.467  1.00  0.00     0.074 A 
ATOM     48  C   UNL     1      -8.252   2.033   2.270  1.00  0.00     0.031 C 
ATOM     49  C   UNL     1     -12.893  -1.808   0.601  1.00  0.00     0.029 A 
ATOM     50  C   UNL     1     -12.312  -3.102   0.958  1.00  0.00     0.049 A 
ATOM     51  H   UNL     1     -10.409  -3.668   0.181  1.00  0.00     0.167 HD
ATOM     52  C   UNL     1     -10.550   3.197   2.621  1.00  0.00     0.037 A 
ATOM     53  C   UNL     1     -12.556  -3.817   2.096  1.00  0.00     0.037 A 
ATOM     54  C   UNL     1     -11.902   2.663   2.746  1.00  0.00     0.049 A 
ATOM     55  C   UNL     1     -13.189  -2.945   3.146  1.00  0.00     0.074 A 
ATOM     56  C   UNL     1     -12.890   2.433   1.804  1.00  0.00     0.029 A 
ATOM     57  N   UNL     1     -12.235   1.915   3.869  1.00  0.00    -0.354 N 
ATOM     58  N   UNL     1     -12.960  -1.667   3.269  1.00  0.00    -0.248 NA
ATOM     59  C   UNL     1     -14.160  -3.451   4.107  1.00  0.00     0.031 C 
ATOM     60  C   UNL     1     -13.749   1.431   2.322  1.00  0.00     0.029 A 
ATOM     61  C   UNL     1     -13.305   1.088   3.588  1.00  0.00     0.049 A 
ATOM     62  H   UNL     1     -11.775   1.968   4.738  1.00  0.00     0.167 HD
ATOM     63  C   UNL     1     -13.761  -1.169   4.256  1.00  0.00     0.074 A 
ATOM     64  C   UNL     1     -14.481  -2.324   4.763  1.00  0.00     0.031 C 
ATOM     65  C   UNL     1     -13.803   0.154   4.582  1.00  0.00     0.037 A 
BRANCH  52  66
ATOM     66  C   UNL     1     -10.267   4.670   2.373  1.00  0.00     0.057 A 
ATOM     67  C   UNL     1     -11.305   5.532   1.946  1.00  0.00     0.134 A 
ATOM     68  C   UNL     1      -9.014   5.299   2.473  1.00  0.00     0.134 A 
ATOM     69  F   UNL     1     -12.578   5.121   1.873  1.00  0.00    -0.206 F 
ATOM     70  C   UNL     1     -11.098   6.865   1.561  1.00  0.00     0.040 A 
ATOM     71  C   UNL     1      -8.787   6.628   2.065  1.00  0.00     0.040 A 
ATOM     72  F   UNL     1      -7.958   4.680   3.010  1.00  0.00    -0.206 F 
ATOM     73  C   UNL     1      -9.828   7.412   1.592  1.00  0.00     0.006 A 
ENDBRANCH  52  66
BRANCH  53  74
ATOM     74  C   UNL     1     -11.568  -4.914   2.384  1.00  0.00     0.057 A 
ATOM     75  C   UNL     1     -11.286  -5.877   1.390  1.00  0.00     0.134 A 
ATOM     76  C   UNL     1     -10.710  -4.906   3.490  1.00  0.00     0.134 A 
ATOM     77  F   UNL     1     -12.055  -5.957   0.291  1.00  0.00    -0.206 F 
ATOM     78  C   UNL     1     -10.168  -6.718   1.449  1.00  0.00     0.040 A 
ATOM     79  C   UNL     1      -9.597  -5.761   3.571  1.00  0.00     0.040 A 
ATOM     80  F   UNL     1     -10.885  -4.029   4.488  1.00  0.00    -0.206 F 
ATOM     81  C   UNL     1      -9.307  -6.649   2.537  1.00  0.00     0.006 A 
ENDBRANCH  53  74
BRANCH  65  82
ATOM     82  C   UNL     1     -14.422   0.682   5.839  1.00  0.00     0.057 A 
ATOM     83  C   UNL     1     -14.419  -0.027   7.049  1.00  0.00     0.134 A 
ATOM     84  C   UNL     1     -14.905   2.004   5.906  1.00  0.00     0.134 A 
ATOM     85  F   UNL     1     -13.871  -1.248   7.143  1.00  0.00    -0.206 F 
ATOM     86  C   UNL     1     -14.935   0.511   8.229  1.00  0.00     0.040 A 
ATOM     87  C   UNL     1     -15.368   2.573   7.093  1.00  0.00     0.040 A 
ATOM     88  F   UNL     1     -14.918   2.805   4.830  1.00  0.00    -0.206 F 
ATOM     89  C   UNL     1     -15.404   1.818   8.256  1.00  0.00     0.006 A 
ENDBRANCH  65  82
ENDBRANCH  39  40
ENDBRANCH  32  34
ENDBRANCH  31  32
ENDBRANCH  30  31
ENDBRANCH   1  30
TORSDOF 14
