REMARK SMILES Cc1c(NC(=O)c2ccccc2NC(=O)[C@@H]2CCCO2)cccc1C(=O)OCCOC(=O)c1ccc(-c2c3nc(c(-c4c(F)cccc4F)c4ccc([nH]4)c(-c4c(F)cccc4F)c4nc(c(-c5c(F)cccc5F)c5ccc2[nH]5)C=C4)C=C3)cc1
REMARK SMILES IDX 28 1 27 2 25 3 26 4 24 5 1 6 2 7 3 8 21 9 23 10 22 11 4 12
REMARK SMILES IDX 5 13 6 15 7 16 8 17 12 18 9 19 11 20 10 21 13 22 14 23 15 25
REMARK SMILES IDX 16 26 17 27 20 28 18 29 19 30 29 31 30 32 31 33 32 34 33 35
REMARK SMILES IDX 34 36 86 37 35 38 85 39 36 40 37 41 38 42 79 43 39 44 84 45
REMARK SMILES IDX 78 46 80 47 40 48 83 49 77 50 76 51 41 53 67 54 50 55 66 56
REMARK SMILES IDX 51 57 54 58 65 59 81 60 52 61 53 62 64 64 82 65 55 66 42 67
REMARK SMILES IDX 43 68 48 69 44 70 45 71 47 72 49 73 46 74 68 75 69 76 74 77
REMARK SMILES IDX 70 78 71 79 73 80 75 81 72 82 56 83 57 84 62 85 58 86 59 87
REMARK SMILES IDX 61 88 63 89 60 90
REMARK H PARENT 4 14 13 24 80 52 54 63
REMARK Flexibility Score: inf
ROOT
ATOM      1  C   UNL     1       3.108   2.898  -2.139  1.00  0.00     0.275 C 
ENDROOT
BRANCH   1   2
ATOM      2  O   UNL     1       1.982   2.038  -1.907  1.00  0.00    -0.458 OA
BRANCH   2   3
ATOM      3  C   UNL     1       2.155   1.303  -0.774  1.00  0.00     0.338 C 
ATOM      4  O   UNL     1       3.106   1.432  -0.013  1.00  0.00    -0.246 OA
BRANCH   3   5
ATOM      5  C   UNL     1       1.121   0.275  -0.500  1.00  0.00     0.065 A 
ATOM      6  C   UNL     1       2.963  -1.456  -0.146  1.00  0.00     0.047 C 
ATOM      7  C   UNL     1       1.521  -1.007  -0.074  1.00  0.00    -0.013 A 
ATOM      8  C   UNL     1       0.511  -1.950   0.228  1.00  0.00     0.045 A 
ATOM      9  C   UNL     1      -0.825  -1.564   0.342  1.00  0.00     0.026 A 
ATOM     10  C   UNL     1      -0.245   0.586  -0.574  1.00  0.00     0.016 A 
ATOM     11  C   UNL     1      -1.208  -0.295  -0.078  1.00  0.00     0.003 A 
BRANCH   8  12
ATOM     12  N   UNL     1       0.888  -3.300   0.230  1.00  0.00    -0.322 N 
ATOM     13  C   UNL     1       0.327  -4.404  -0.370  1.00  0.00     0.257 C 
ATOM     14  H   UNL     1       1.698  -3.493   0.755  1.00  0.00     0.170 HD
ATOM     15  O   UNL     1       0.943  -5.469  -0.268  1.00  0.00    -0.269 OA
BRANCH  13  16
ATOM     16  C   UNL     1      -0.952  -4.405  -1.136  1.00  0.00     0.063 A 
ATOM     17  C   UNL     1      -1.740  -5.546  -0.873  1.00  0.00     0.016 A 
ATOM     18  C   UNL     1      -1.400  -3.442  -2.075  1.00  0.00     0.054 A 
ATOM     19  C   UNL     1      -2.998  -5.699  -1.439  1.00  0.00     0.001 A 
ATOM     20  C   UNL     1      -2.723  -3.560  -2.518  1.00  0.00     0.027 A 
ATOM     21  C   UNL     1      -3.507  -4.680  -2.223  1.00  0.00     0.002 A 
BRANCH  18  22
ATOM     22  N   UNL     1      -0.513  -2.444  -2.549  1.00  0.00    -0.323 N 
ATOM     23  C   UNL     1      -0.574  -1.385  -3.417  1.00  0.00     0.253 C 
ATOM     24  H   UNL     1       0.382  -2.535  -2.150  1.00  0.00     0.170 HD
ATOM     25  O   UNL     1       0.448  -0.692  -3.507  1.00  0.00    -0.272 OA
BRANCH  23  26
ATOM     26  C   UNL     1      -1.805  -1.083  -4.277  1.00  0.00     0.207 C 
ATOM     27  C   UNL     1      -1.882  -2.099  -5.409  1.00  0.00     0.044 C 
ATOM     28  O   UNL     1      -1.793   0.204  -4.919  1.00  0.00    -0.368 OA
ATOM     29  C   UNL     1      -2.663  -1.361  -6.459  1.00  0.00     0.032 C 
ATOM     30  C   UNL     1      -2.133   0.044  -6.302  1.00  0.00     0.161 C 
ENDBRANCH  23  26
ENDBRANCH  18  22
ENDBRANCH  13  16
ENDBRANCH   8  12
ENDBRANCH   3   5
ENDBRANCH   2   3
ENDBRANCH   1   2
BRANCH   1  31
ATOM     31  C   UNL     1       2.825   4.185  -2.924  1.00  0.00     0.275 C 
BRANCH  31  32
ATOM     32  O   UNL     1       1.505   4.793  -2.932  1.00  0.00    -0.458 OA
BRANCH  32  33
ATOM     33  C   UNL     1       0.511   4.728  -2.023  1.00  0.00     0.338 C 
ATOM     34  O   UNL     1      -0.669   4.878  -2.334  1.00  0.00    -0.246 OA
BRANCH  33  35
ATOM     35  C   UNL     1       0.866   4.473  -0.624  1.00  0.00     0.060 A 
ATOM     36  C   UNL     1      -0.015   3.712   0.161  1.00  0.00     0.016 A 
ATOM     37  C   UNL     1       2.083   4.910  -0.119  1.00  0.00     0.016 A 
ATOM     38  C   UNL     1       0.367   3.274   1.418  1.00  0.00     0.010 A 
ATOM     39  C   UNL     1       2.522   4.385   1.068  1.00  0.00     0.010 A 
ATOM     40  C   UNL     1       1.643   3.615   1.849  1.00  0.00    -0.014 A 
BRANCH  40  41
ATOM     41  C   UNL     1       2.000   3.610   3.252  1.00  0.00     0.031 A 
ATOM     42  C   UNL     1       2.571   2.426   3.902  1.00  0.00     0.074 A 
ATOM     43  C   UNL     1       1.866   4.861   3.750  1.00  0.00     0.049 A 
ATOM     44  N   UNL     1       2.648   2.281   5.174  1.00  0.00    -0.248 NA
ATOM     45  C   UNL     1       3.062   1.251   3.190  1.00  0.00     0.031 C 
ATOM     46  C   UNL     1       2.352   5.500   4.953  1.00  0.00     0.029 A 
ATOM     47  N   UNL     1       1.027   5.838   3.174  1.00  0.00    -0.354 N 
ATOM     48  C   UNL     1       3.496   1.218   5.431  1.00  0.00     0.074 A 
ATOM     49  C   UNL     1       3.600   0.524   4.177  1.00  0.00     0.031 C 
ATOM     50  C   UNL     1       1.578   6.580   5.197  1.00  0.00     0.029 A 
ATOM     51  C   UNL     1       0.489   6.575   4.220  1.00  0.00     0.049 A 
ATOM     52  H   UNL     1       0.856   5.971   2.214  1.00  0.00     0.167 HD
ATOM     53  C   UNL     1       4.127   1.198   6.641  1.00  0.00     0.037 A 
ATOM     54  C   UNL     1      -0.835   6.372   4.494  1.00  0.00     0.037 A 
ATOM     55  C   UNL     1       3.587   2.287   7.457  1.00  0.00     0.049 A 
ATOM     56  C   UNL     1      -0.958   5.667   5.823  1.00  0.00     0.074 A 
ATOM     57  C   UNL     1       4.015   3.591   7.640  1.00  0.00     0.029 A 
ATOM     58  N   UNL     1       2.245   2.251   7.823  1.00  0.00    -0.354 N 
ATOM     59  N   UNL     1      -0.129   4.752   6.260  1.00  0.00    -0.248 NA
ATOM     60  C   UNL     1      -1.942   6.076   6.816  1.00  0.00     0.031 C 
ATOM     61  C   UNL     1       2.878   4.366   8.000  1.00  0.00     0.029 A 
ATOM     62  C   UNL     1       1.770   3.532   8.041  1.00  0.00     0.049 A 
ATOM     63  H   UNL     1       1.710   1.430   7.914  1.00  0.00     0.167 HD
ATOM     64  C   UNL     1      -0.383   4.532   7.588  1.00  0.00     0.074 A 
ATOM     65  C   UNL     1      -1.543   5.361   7.879  1.00  0.00     0.031 C 
ATOM     66  C   UNL     1       0.380   3.748   8.407  1.00  0.00     0.037 A 
BRANCH  53  67
ATOM     67  C   UNL     1       5.394   0.446   7.012  1.00  0.00     0.057 A 
ATOM     68  C   UNL     1       6.120   0.830   8.164  1.00  0.00     0.134 A 
ATOM     69  C   UNL     1       6.002  -0.591   6.282  1.00  0.00     0.134 A 
ATOM     70  F   UNL     1       5.660   1.766   9.006  1.00  0.00    -0.206 F 
ATOM     71  C   UNL     1       7.362   0.281   8.517  1.00  0.00     0.040 A 
ATOM     72  C   UNL     1       7.249  -1.147   6.622  1.00  0.00     0.040 A 
ATOM     73  F   UNL     1       5.426  -1.145   5.213  1.00  0.00    -0.206 F 
ATOM     74  C   UNL     1       7.940  -0.705   7.737  1.00  0.00     0.006 A 
ENDBRANCH  53  67
BRANCH  54  75
ATOM     75  C   UNL     1      -1.704   6.161   3.282  1.00  0.00     0.057 A 
ATOM     76  C   UNL     1      -1.628   7.094   2.220  1.00  0.00     0.134 A 
ATOM     77  C   UNL     1      -2.414   4.988   3.007  1.00  0.00     0.134 A 
ATOM     78  F   UNL     1      -0.987   8.262   2.395  1.00  0.00    -0.206 F 
ATOM     79  C   UNL     1      -2.123   6.831   0.937  1.00  0.00     0.040 A 
ATOM     80  C   UNL     1      -2.944   4.724   1.728  1.00  0.00     0.040 A 
ATOM     81  F   UNL     1      -2.553   4.035   3.939  1.00  0.00    -0.206 F 
ATOM     82  C   UNL     1      -2.771   5.630   0.681  1.00  0.00     0.006 A 
ENDBRANCH  54  75
BRANCH  66  83
ATOM     83  C   UNL     1      -0.109   3.179   9.713  1.00  0.00     0.057 A 
ATOM     84  C   UNL     1      -1.463   2.935   9.985  1.00  0.00     0.134 A 
ATOM     85  C   UNL     1       0.798   2.679  10.675  1.00  0.00     0.134 A 
ATOM     86  F   UNL     1      -2.425   3.225   9.098  1.00  0.00    -0.206 F 
ATOM     87  C   UNL     1      -1.891   2.320  11.164  1.00  0.00     0.040 A 
ATOM     88  C   UNL     1       0.385   1.993  11.816  1.00  0.00     0.040 A 
ATOM     89  F   UNL     1       2.126   2.799  10.533  1.00  0.00    -0.206 F 
ATOM     90  C   UNL     1      -0.966   1.834  12.077  1.00  0.00     0.006 A 
ENDBRANCH  66  83
ENDBRANCH  40  41
ENDBRANCH  33  35
ENDBRANCH  32  33
ENDBRANCH  31  32
ENDBRANCH   1  31
TORSDOF 15
