REMARK SMILES O=C(CCC(=O)N1Cc2[nH]cnc2C[C@H]1C(=O)NCc1ccccc1)OCCOC(=O)c1ccc(-c2c3nc(c(-c4c(F)cccc4F)c4ccc([nH]4)c(-c4c(F)cccc4F)c4nc(c(-c5c(F)cccc5F)c5ccc2[nH]5)C=C4)C=C3)cc1
REMARK SMILES IDX 1 1 2 2 3 3 4 4 5 5 6 6 7 7 8 8 15 9 9 10 14 11 10 12 13 13
REMARK SMILES IDX 11 14 12 16 16 17 17 18 18 19 19 21 20 22 21 23 25 24 22 25
REMARK SMILES IDX 24 26 23 27 26 28 27 29 28 30 29 31 30 32 31 33 32 34 33 35
REMARK SMILES IDX 85 36 34 37 84 38 35 39 36 40 37 41 78 42 38 43 83 44 77 45
REMARK SMILES IDX 79 46 39 47 82 48 76 49 75 50 40 52 66 53 49 54 65 55 50 56
REMARK SMILES IDX 53 57 64 58 80 59 51 60 52 61 63 63 81 64 54 65 41 66 42 67
REMARK SMILES IDX 47 68 43 69 44 70 46 71 48 72 45 73 67 74 68 75 73 76 69 77
REMARK SMILES IDX 70 78 72 79 74 80 71 81 55 82 56 83 61 84 57 85 58 86 60 87
REMARK SMILES IDX 62 88 59 89
REMARK H PARENT 10 15 18 20 79 51 53 62
REMARK Flexibility Score: inf
ROOT
ATOM      1  O   UNL     1       1.417   0.357  -0.778  1.00  0.00    -0.252 OA
ATOM      2  C   UNL     1       2.626   0.379  -0.567  1.00  0.00     0.306 C 
ENDROOT
BRANCH   2   3
ATOM      3  C   UNL     1       3.309   1.623  -0.110  1.00  0.00     0.132 C 
BRANCH   3   4
ATOM      4  C   UNL     1       3.345   1.637   1.408  1.00  0.00     0.112 C 
BRANCH   4   5
ATOM      5  C   UNL     1       4.527   0.860   1.937  1.00  0.00     0.224 C 
ATOM      6  O   UNL     1       5.640   1.394   1.855  1.00  0.00    -0.275 OA
BRANCH   5   7
ATOM      7  N   UNL     1       4.375  -0.424   2.454  1.00  0.00    -0.324 N 
ATOM      8  C   UNL     1       5.579  -0.960   3.111  1.00  0.00     0.176 C 
ATOM      9  C   UNL     1       3.137  -1.297   2.338  1.00  0.00     0.180 C 
ATOM     10  C   UNL     1       5.611  -2.425   3.017  1.00  0.00     0.058 A 
ATOM     11  C   UNL     1       3.389  -2.772   1.919  1.00  0.00     0.093 C 
ATOM     12  N   UNL     1       6.572  -3.252   3.525  1.00  0.00    -0.347 N 
ATOM     13  C   UNL     1       4.665  -3.255   2.478  1.00  0.00     0.066 A 
ATOM     14  C   UNL     1       6.165  -4.535   3.272  1.00  0.00     0.197 A 
ATOM     15  H   UNL     1       7.399  -2.979   3.985  1.00  0.00     0.167 HD
ATOM     16  N   UNL     1       5.014  -4.565   2.634  1.00  0.00    -0.242 NA
BRANCH   9  17
ATOM     17  C   UNL     1       1.986  -1.117   3.349  1.00  0.00     0.243 C 
ATOM     18  O   UNL     1       1.130  -0.242   3.164  1.00  0.00    -0.273 OA
ATOM     19  N   UNL     1       1.862  -1.814   4.500  1.00  0.00    -0.350 N 
ATOM     20  H   UNL     1       0.951  -1.843   4.871  1.00  0.00     0.163 HD
BRANCH  19  21
ATOM     21  C   UNL     1       2.853  -2.522   5.266  1.00  0.00     0.151 C 
BRANCH  21  22
ATOM     22  C   UNL     1       3.667  -1.607   6.149  1.00  0.00    -0.029 A 
ATOM     23  C   UNL     1       4.531  -2.181   7.092  1.00  0.00     0.005 A 
ATOM     24  C   UNL     1       3.615  -0.204   6.058  1.00  0.00     0.005 A 
ATOM     25  C   UNL     1       5.306  -1.375   7.928  1.00  0.00     0.000 A 
ATOM     26  C   UNL     1       4.403   0.599   6.881  1.00  0.00     0.000 A 
ATOM     27  C   UNL     1       5.243   0.013   7.820  1.00  0.00     0.000 A 
ENDBRANCH  21  22
ENDBRANCH  19  21
ENDBRANCH   9  17
ENDBRANCH   5   7
ENDBRANCH   4   5
ENDBRANCH   3   4
ENDBRANCH   2   3
BRANCH   2  28
ATOM     28  O   UNL     1       3.349  -0.762  -0.583  1.00  0.00    -0.462 OA
BRANCH  28  29
ATOM     29  C   UNL     1       4.773  -0.929  -0.802  1.00  0.00     0.274 C 
BRANCH  29  30
ATOM     30  C   UNL     1       4.942  -2.098  -1.782  1.00  0.00     0.275 C 
BRANCH  30  31
ATOM     31  O   UNL     1       4.443  -1.724  -3.062  1.00  0.00    -0.458 OA
BRANCH  31  32
ATOM     32  C   UNL     1       3.100  -1.486  -3.079  1.00  0.00     0.338 C 
ATOM     33  O   UNL     1       2.229  -2.240  -2.720  1.00  0.00    -0.246 OA
BRANCH  32  34
ATOM     34  C   UNL     1       2.937  -0.152  -3.706  1.00  0.00     0.060 A 
ATOM     35  C   UNL     1       1.823  -0.009  -4.518  1.00  0.00     0.016 A 
ATOM     36  C   UNL     1       4.080   0.655  -3.844  1.00  0.00     0.016 A 
ATOM     37  C   UNL     1       2.040   0.584  -5.735  1.00  0.00     0.010 A 
ATOM     38  C   UNL     1       4.319   1.194  -5.071  1.00  0.00     0.010 A 
ATOM     39  C   UNL     1       3.338   1.016  -6.031  1.00  0.00    -0.014 A 
BRANCH  39  40
ATOM     40  C   UNL     1       3.683   1.216  -7.410  1.00  0.00     0.031 A 
ATOM     41  C   UNL     1       3.369   2.562  -7.893  1.00  0.00     0.074 A 
ATOM     42  C   UNL     1       4.306   0.272  -8.135  1.00  0.00     0.049 A 
ATOM     43  N   UNL     1       2.408   2.905  -8.679  1.00  0.00    -0.248 NA
ATOM     44  C   UNL     1       4.101   3.680  -7.282  1.00  0.00     0.031 C 
ATOM     45  C   UNL     1       4.971  -0.958  -7.693  1.00  0.00     0.029 A 
ATOM     46  N   UNL     1       4.529   0.282  -9.472  1.00  0.00    -0.354 N 
ATOM     47  C   UNL     1       2.526   4.278  -8.807  1.00  0.00     0.074 A 
ATOM     48  C   UNL     1       3.438   4.719  -7.784  1.00  0.00     0.031 C 
ATOM     49  C   UNL     1       5.689  -1.465  -8.724  1.00  0.00     0.029 A 
ATOM     50  C   UNL     1       5.426  -0.673  -9.915  1.00  0.00     0.049 A 
ATOM     51  H   UNL     1       4.087   0.918 -10.079  1.00  0.00     0.167 HD
ATOM     52  C   UNL     1       2.056   4.928  -9.902  1.00  0.00     0.037 A 
ATOM     53  C   UNL     1       5.955  -0.720 -11.161  1.00  0.00     0.037 A 
ATOM     54  C   UNL     1       1.118   4.125 -10.641  1.00  0.00     0.049 A 
ATOM     55  C   UNL     1       5.087   0.106 -12.047  1.00  0.00     0.074 A 
ATOM     56  C   UNL     1      -0.109   3.563 -10.341  1.00  0.00     0.029 A 
ATOM     57  N   UNL     1       1.574   3.458 -11.752  1.00  0.00    -0.354 N 
ATOM     58  N   UNL     1       3.871  -0.220 -12.391  1.00  0.00    -0.248 NA
ATOM     59  C   UNL     1       5.411   1.520 -12.188  1.00  0.00     0.031 C 
ATOM     60  C   UNL     1      -0.111   2.297 -10.996  1.00  0.00     0.029 A 
ATOM     61  C   UNL     1       1.095   2.171 -11.687  1.00  0.00     0.049 A 
ATOM     62  H   UNL     1       2.140   3.833 -12.464  1.00  0.00     0.167 HD
ATOM     63  C   UNL     1       3.164   0.976 -12.399  1.00  0.00     0.074 A 
ATOM     64  C   UNL     1       4.183   2.020 -12.356  1.00  0.00     0.031 C 
ATOM     65  C   UNL     1       1.820   1.008 -12.154  1.00  0.00     0.037 A 
BRANCH  52  66
ATOM     66  C   UNL     1       2.709   6.162 -10.442  1.00  0.00     0.057 A 
ATOM     67  C   UNL     1       2.022   6.971 -11.354  1.00  0.00     0.134 A 
ATOM     68  C   UNL     1       4.077   6.468 -10.267  1.00  0.00     0.134 A 
ATOM     69  F   UNL     1       0.731   6.742 -11.638  1.00  0.00    -0.206 F 
ATOM     70  C   UNL     1       2.654   8.006 -12.052  1.00  0.00     0.040 A 
ATOM     71  C   UNL     1       4.702   7.536 -10.909  1.00  0.00     0.040 A 
ATOM     72  F   UNL     1       4.897   5.695  -9.544  1.00  0.00    -0.206 F 
ATOM     73  C   UNL     1       3.995   8.297 -11.823  1.00  0.00     0.006 A 
ENDBRANCH  52  66
BRANCH  53  74
ATOM     74  C   UNL     1       7.318  -1.137 -11.554  1.00  0.00     0.057 A 
ATOM     75  C   UNL     1       7.628  -1.430 -12.888  1.00  0.00     0.134 A 
ATOM     76  C   UNL     1       8.411  -0.998 -10.680  1.00  0.00     0.134 A 
ATOM     77  F   UNL     1       6.656  -1.538 -13.805  1.00  0.00    -0.206 F 
ATOM     78  C   UNL     1       8.951  -1.557 -13.333  1.00  0.00     0.040 A 
ATOM     79  C   UNL     1       9.735  -1.131 -11.109  1.00  0.00     0.040 A 
ATOM     80  F   UNL     1       8.236  -0.640  -9.400  1.00  0.00    -0.206 F 
ATOM     81  C   UNL     1      10.010  -1.397 -12.444  1.00  0.00     0.006 A 
ENDBRANCH  53  74
BRANCH  65  82
ATOM     82  C   UNL     1       1.090  -0.309 -12.111  1.00  0.00     0.057 A 
ATOM     83  C   UNL     1       1.343  -1.309 -11.158  1.00  0.00     0.134 A 
ATOM     84  C   UNL     1       0.001  -0.516 -12.965  1.00  0.00     0.134 A 
ATOM     85  F   UNL     1       2.295  -1.155 -10.230  1.00  0.00    -0.206 F 
ATOM     86  C   UNL     1       0.580  -2.479 -11.092  1.00  0.00     0.040 A 
ATOM     87  C   UNL     1      -0.792  -1.664 -12.886  1.00  0.00     0.040 A 
ATOM     88  F   UNL     1      -0.341   0.422 -13.862  1.00  0.00    -0.206 F 
ATOM     89  C   UNL     1      -0.496  -2.656 -11.955  1.00  0.00     0.006 A 
ENDBRANCH  65  82
ENDBRANCH  39  40
ENDBRANCH  32  34
ENDBRANCH  31  32
ENDBRANCH  30  31
ENDBRANCH  29  30
ENDBRANCH  28  29
ENDBRANCH   2  28
TORSDOF 17
