REMARK SMILES N#CCC[NH+]1CC[NH+]([C@@H](C(=O)OCCOC(=O)c2ccc(-c3c4nc(c(-c5c(F)cccc5F)c5ccc([nH]5)c(-c5c(F)cccc5F)c5nc(c(-c6c(F)cccc6F)c6ccc3[nH]6)C=C5)C=C4)cc2)c2c[nH]c3cc(Cl)ccc23)CC1
REMARK SMILES IDX 13 1 12 2 10 3 11 4 9 5 8 6 5 7 6 8 83 9 7 11 82 12 4 14
REMARK SMILES IDX 3 15 2 16 1 17 72 18 73 19 81 20 74 21 75 22 80 23 76 25
REMARK SMILES IDX 79 26 77 27 78 28 14 29 15 30 16 31 17 32 18 33 19 34 71 35
REMARK SMILES IDX 20 36 70 37 21 38 22 39 23 40 64 41 24 42 69 43 63 44 65 45
REMARK SMILES IDX 25 46 68 47 62 48 61 49 26 51 52 52 35 53 51 54 36 55 39 56
REMARK SMILES IDX 50 57 66 58 37 59 38 60 49 62 67 63 40 64 27 65 28 66 33 67
REMARK SMILES IDX 29 68 30 69 32 70 34 71 31 72 53 73 54 74 59 75 55 76 56 77
REMARK SMILES IDX 58 78 60 79 57 80 41 81 42 82 47 83 43 84 44 85 46 86 48 87
REMARK SMILES IDX 45 88
REMARK H PARENT 5 10 8 13 74 24 65 50 39 61
REMARK Flexibility Score: inf
ROOT
ATOM      1  C   UNL     1       1.781   4.322   1.361  1.00  0.00     0.274 C 
ENDROOT
BRANCH   1   2
ATOM      2  O   UNL     1       3.166   4.456   0.939  1.00  0.00    -0.457 OA
BRANCH   2   3
ATOM      3  C   UNL     1       3.531   5.691   0.493  1.00  0.00     0.370 C 
ATOM      4  O   UNL     1       2.819   6.687   0.641  1.00  0.00    -0.245 OA
BRANCH   3   5
ATOM      5  C   UNL     1       4.814   5.759  -0.346  1.00  0.00     0.328 C 
BRANCH   5   6
ATOM      6  N   UNL     1       4.852   4.947  -1.618  1.00  0.00    -0.310 N 
ATOM      7  N   UNL     1       4.051   2.170  -1.098  1.00  0.00    -0.325 N 
ATOM      8  C   UNL     1       5.321   2.719  -0.683  1.00  0.00     0.324 C 
ATOM      9  C   UNL     1       3.150   3.005  -1.890  1.00  0.00     0.324 C 
ATOM     10  H   UNL     1       3.469   2.242  -0.263  1.00  0.00     0.348 HD
ATOM     11  C   UNL     1       5.777   3.809  -1.635  1.00  0.00     0.325 C 
ATOM     12  C   UNL     1       3.551   4.501  -2.140  1.00  0.00     0.325 C 
ATOM     13  H   UNL     1       5.220   5.662  -2.246  1.00  0.00     0.349 HD
BRANCH   7  14
ATOM     14  C   UNL     1       4.089   0.743  -1.331  1.00  0.00     0.278 C 
BRANCH  14  15
ATOM     15  C   UNL     1       3.707   0.065  -0.018  1.00  0.00     0.181 C 
BRANCH  15  16
ATOM     16  C   UNL     1       2.187   0.065  -0.018  1.00  0.00     0.068 C 
ATOM     17  N   UNL     1       0.926   0.065  -0.018  1.00  0.00    -0.198 NA
ENDBRANCH  15  16
ENDBRANCH  14  15
ENDBRANCH   7  14
ENDBRANCH   5   6
BRANCH   5  18
ATOM     18  C   UNL     1       6.199   5.785   0.309  1.00  0.00     0.046 A 
ATOM     19  C   UNL     1       7.240   6.519  -0.253  1.00  0.00     0.094 A 
ATOM     20  C   UNL     1       6.824   4.927   1.293  1.00  0.00     0.009 A 
ATOM     21  N   UNL     1       8.421   5.922   0.086  1.00  0.00    -0.361 N 
ATOM     22  C   UNL     1       8.186   4.891   0.961  1.00  0.00     0.047 A 
ATOM     23  C   UNL     1       6.388   4.035   2.299  1.00  0.00     0.012 A 
ATOM     24  H   UNL     1       9.307   6.191  -0.246  1.00  0.00     0.166 HD
ATOM     25  C   UNL     1       9.069   3.911   1.437  1.00  0.00     0.047 A 
ATOM     26  C   UNL     1       7.282   3.111   2.864  1.00  0.00     0.021 A 
ATOM     27  C   UNL     1       8.586   3.018   2.392  1.00  0.00     0.043 A 
ATOM     28  Cl  UNL     1       9.621   1.771   2.974  1.00  0.00    -0.084 Cl
ENDBRANCH   5  18
ENDBRANCH   3   5
ENDBRANCH   2   3
ENDBRANCH   1   2
BRANCH   1  29
ATOM     29  C   UNL     1       1.658   4.097   2.865  1.00  0.00     0.275 C 
BRANCH  29  30
ATOM     30  O   UNL     1       2.313   5.182   3.535  1.00  0.00    -0.458 OA
BRANCH  30  31
ATOM     31  C   UNL     1       3.281   4.832   4.403  1.00  0.00     0.338 C 
ATOM     32  O   UNL     1       3.443   3.724   4.913  1.00  0.00    -0.246 OA
BRANCH  31  33
ATOM     33  C   UNL     1       4.271   5.923   4.534  1.00  0.00     0.060 A 
ATOM     34  C   UNL     1       4.401   6.899   3.540  1.00  0.00     0.016 A 
ATOM     35  C   UNL     1       5.207   5.864   5.568  1.00  0.00     0.016 A 
ATOM     36  C   UNL     1       5.515   7.729   3.506  1.00  0.00     0.010 A 
ATOM     37  C   UNL     1       6.271   6.765   5.591  1.00  0.00     0.010 A 
ATOM     38  C   UNL     1       6.448   7.687   4.546  1.00  0.00    -0.014 A 
BRANCH  38  39
ATOM     39  C   UNL     1       7.569   8.651   4.608  1.00  0.00     0.031 A 
ATOM     40  C   UNL     1       8.990   8.175   4.594  1.00  0.00     0.074 A 
ATOM     41  C   UNL     1       7.293   9.958   4.765  1.00  0.00     0.049 A 
ATOM     42  N   UNL     1      10.075   8.805   4.962  1.00  0.00    -0.248 NA
ATOM     43  C   UNL     1       9.221   6.809   4.104  1.00  0.00     0.031 C 
ATOM     44  C   UNL     1       5.955  10.552   4.731  1.00  0.00     0.029 A 
ATOM     45  N   UNL     1       8.124  11.017   5.027  1.00  0.00    -0.354 N 
ATOM     46  C   UNL     1      11.115   7.899   4.790  1.00  0.00     0.074 A 
ATOM     47  C   UNL     1      10.532   6.681   4.265  1.00  0.00     0.031 C 
ATOM     48  C   UNL     1       6.051  11.863   4.988  1.00  0.00     0.029 A 
ATOM     49  C   UNL     1       7.440  12.177   5.295  1.00  0.00     0.049 A 
ATOM     50  H   UNL     1       9.106  10.953   5.024  1.00  0.00     0.167 HD
ATOM     51  C   UNL     1      12.429   8.078   5.065  1.00  0.00     0.037 A 
ATOM     52  C   UNL     1       7.864  13.344   5.810  1.00  0.00     0.037 A 
ATOM     53  C   UNL     1      12.987   9.309   5.571  1.00  0.00     0.049 A 
ATOM     54  C   UNL     1       9.308  13.502   6.165  1.00  0.00     0.074 A 
ATOM     55  C   UNL     1      14.306   9.597   5.880  1.00  0.00     0.029 A 
ATOM     56  N   UNL     1      12.257  10.459   5.834  1.00  0.00    -0.354 N 
ATOM     57  N   UNL     1      10.277  12.623   6.082  1.00  0.00    -0.248 NA
ATOM     58  C   UNL     1       9.718  14.808   6.694  1.00  0.00     0.031 C 
ATOM     59  C   UNL     1      14.368  10.912   6.355  1.00  0.00     0.029 A 
ATOM     60  C   UNL     1      13.096  11.457   6.302  1.00  0.00     0.049 A 
ATOM     61  H   UNL     1      11.285  10.552   5.707  1.00  0.00     0.167 HD
ATOM     62  C   UNL     1      11.415  13.270   6.535  1.00  0.00     0.074 A 
ATOM     63  C   UNL     1      11.017  14.621   6.881  1.00  0.00     0.031 C 
ATOM     64  C   UNL     1      12.678  12.790   6.651  1.00  0.00     0.037 A 
BRANCH  51  65
ATOM     65  C   UNL     1      13.358   6.917   4.862  1.00  0.00     0.057 A 
ATOM     66  C   UNL     1      13.766   6.503   3.589  1.00  0.00     0.134 A 
ATOM     67  C   UNL     1      13.922   6.261   5.966  1.00  0.00     0.134 A 
ATOM     68  F   UNL     1      13.254   7.077   2.490  1.00  0.00    -0.206 F 
ATOM     69  C   UNL     1      14.702   5.479   3.420  1.00  0.00     0.040 A 
ATOM     70  C   UNL     1      14.873   5.251   5.810  1.00  0.00     0.040 A 
ATOM     71  F   UNL     1      13.579   6.612   7.214  1.00  0.00    -0.206 F 
ATOM     72  C   UNL     1      15.266   4.858   4.533  1.00  0.00     0.006 A 
ENDBRANCH  51  65
BRANCH  52  73
ATOM     73  C   UNL     1       6.873  14.415   6.064  1.00  0.00     0.057 A 
ATOM     74  C   UNL     1       6.803  15.542   5.241  1.00  0.00     0.134 A 
ATOM     75  C   UNL     1       5.916  14.290   7.080  1.00  0.00     0.134 A 
ATOM     76  F   UNL     1       7.702  15.720   4.263  1.00  0.00    -0.206 F 
ATOM     77  C   UNL     1       5.808  16.505   5.413  1.00  0.00     0.040 A 
ATOM     78  C   UNL     1       4.902  15.231   7.246  1.00  0.00     0.040 A 
ATOM     79  F   UNL     1       5.927  13.223   7.893  1.00  0.00    -0.206 F 
ATOM     80  C   UNL     1       4.846  16.343   6.409  1.00  0.00     0.006 A 
ENDBRANCH  52  73
BRANCH  64  81
ATOM     81  C   UNL     1      13.716  13.753   7.140  1.00  0.00     0.057 A 
ATOM     82  C   UNL     1      13.799  14.128   8.486  1.00  0.00     0.134 A 
ATOM     83  C   UNL     1      14.639  14.314   6.249  1.00  0.00     0.134 A 
ATOM     84  F   UNL     1      12.931  13.636   9.383  1.00  0.00    -0.206 F 
ATOM     85  C   UNL     1      14.748  15.052   8.925  1.00  0.00     0.040 A 
ATOM     86  C   UNL     1      15.605  15.223   6.680  1.00  0.00     0.040 A 
ATOM     87  F   UNL     1      14.613  13.990   4.947  1.00  0.00    -0.206 F 
ATOM     88  C   UNL     1      15.656  15.601   8.020  1.00  0.00     0.006 A 
ENDBRANCH  64  81
ENDBRANCH  38  39
ENDBRANCH  31  33
ENDBRANCH  30  31
ENDBRANCH  29  30
ENDBRANCH   1  29
TORSDOF 16
