REMARK SMILES O=C(OCCOC(=O)[C@H](c1ccccc1)N1C(=O)/C(=C/c2ccc(-c3nc4ccccc4s3)o2)SC1=S)c1ccc(-c2c3nc(c(-c4c(F)cccc4F)c4ccc([nH]4)c(-c4c(F)cccc4F)c4nc(c(-c5c(F)cccc5F)c5ccc2[nH]5)C=C4)C=C3)cc1
REMARK SMILES IDX 5 1 4 2 3 3 2 4 1 5 38 6 39 7 91 8 40 9 90 10 41 11 42 12
REMARK SMILES IDX 43 13 84 14 44 15 89 16 83 17 85 18 45 19 88 20 82 21 81 22
REMARK SMILES IDX 46 24 72 25 55 26 71 27 56 28 59 29 70 30 86 31 57 32 58 33
REMARK SMILES IDX 69 35 87 36 60 37 47 38 48 39 53 40 49 41 50 42 52 43 54 44
REMARK SMILES IDX 51 45 73 46 74 47 79 48 75 49 76 50 78 51 80 52 77 53 61 54
REMARK SMILES IDX 62 55 67 56 63 57 64 58 66 59 68 60 65 61 6 62 7 63 8 64
REMARK SMILES IDX 9 65 16 66 17 67 36 68 18 69 19 70 35 71 37 72 20 73 21 74
REMARK SMILES IDX 22 75 34 76 23 77 24 78 25 79 26 80 33 81 27 82 32 83 28 84
REMARK SMILES IDX 31 85 29 86 30 87 10 88 11 89 15 90 12 91 14 92 13 93
REMARK H PARENT 85 23 59 34
REMARK Flexibility Score: inf
ROOT
ATOM      1  C   UNL     1       3.943   2.212   4.681  1.00  0.00     0.274 C 
ENDROOT
BRANCH   1   2
ATOM      2  C   UNL     1       3.042   1.089   5.191  1.00  0.00     0.275 C 
BRANCH   2   3
ATOM      3  O   UNL     1       2.821   0.060   4.204  1.00  0.00    -0.458 OA
BRANCH   3   4
ATOM      4  C   UNL     1       1.949  -0.016   3.170  1.00  0.00     0.338 C 
ATOM      5  O   UNL     1       1.942  -1.053   2.506  1.00  0.00    -0.246 OA
BRANCH   4   6
ATOM      6  C   UNL     1       1.036   1.090   2.710  1.00  0.00     0.060 A 
ATOM      7  C   UNL     1       0.692   2.239   3.425  1.00  0.00     0.016 A 
ATOM      8  C   UNL     1       0.495   0.957   1.413  1.00  0.00     0.016 A 
ATOM      9  C   UNL     1      -0.108   3.238   2.860  1.00  0.00     0.010 A 
ATOM     10  C   UNL     1      -0.318   1.949   0.843  1.00  0.00     0.010 A 
ATOM     11  C   UNL     1      -0.629   3.097   1.573  1.00  0.00    -0.014 A 
BRANCH  11  12
ATOM     12  C   UNL     1      -1.665   4.061   1.136  1.00  0.00     0.031 A 
ATOM     13  C   UNL     1      -3.098   3.676   1.341  1.00  0.00     0.074 A 
ATOM     14  C   UNL     1      -1.342   5.290   0.696  1.00  0.00     0.049 A 
ATOM     15  N   UNL     1      -4.177   4.398   1.205  1.00  0.00    -0.248 NA
ATOM     16  C   UNL     1      -3.346   2.282   1.743  1.00  0.00     0.031 C 
ATOM     17  C   UNL     1       0.015   5.753   0.428  1.00  0.00     0.029 A 
ATOM     18  N   UNL     1      -2.123   6.388   0.432  1.00  0.00    -0.354 N 
ATOM     19  C   UNL     1      -5.232   3.541   1.484  1.00  0.00     0.074 A 
ATOM     20  C   UNL     1      -4.667   2.242   1.772  1.00  0.00     0.031 C 
ATOM     21  C   UNL     1      -0.019   7.060   0.113  1.00  0.00     0.029 A 
ATOM     22  C   UNL     1      -1.400   7.522   0.142  1.00  0.00     0.049 A 
ATOM     23  H   UNL     1      -3.107   6.366   0.449  1.00  0.00     0.167 HD
ATOM     24  C   UNL     1      -6.556   3.814   1.496  1.00  0.00     0.037 A 
ATOM     25  C   UNL     1      -1.812   8.790  -0.056  1.00  0.00     0.037 A 
ATOM     26  C   UNL     1      -7.105   5.105   1.190  1.00  0.00     0.049 A 
ATOM     27  C   UNL     1      -3.290   9.072  -0.016  1.00  0.00     0.074 A 
ATOM     28  C   UNL     1      -8.430   5.492   1.137  1.00  0.00     0.029 A 
ATOM     29  N   UNL     1      -6.345   6.224   0.874  1.00  0.00    -0.354 N 
ATOM     30  N   UNL     1      -4.280   8.257   0.257  1.00  0.00    -0.248 NA
ATOM     31  C   UNL     1      -3.709  10.444  -0.333  1.00  0.00     0.031 C 
ATOM     32  C   UNL     1      -8.475   6.833   0.742  1.00  0.00     0.029 A 
ATOM     33  C   UNL     1      -7.175   7.299   0.612  1.00  0.00     0.049 A 
ATOM     34  H   UNL     1      -5.361   6.248   0.843  1.00  0.00     0.167 HD
ATOM     35  C   UNL     1      -5.437   9.014   0.146  1.00  0.00     0.074 A 
ATOM     36  C   UNL     1      -5.022  10.364  -0.181  1.00  0.00     0.031 C 
ATOM     37  C   UNL     1      -6.729   8.630   0.285  1.00  0.00     0.037 A 
BRANCH  24  38
ATOM     38  C   UNL     1      -7.474   2.663   1.778  1.00  0.00     0.057 A 
ATOM     39  C   UNL     1      -7.551   2.062   3.043  1.00  0.00     0.134 A 
ATOM     40  C   UNL     1      -8.240   2.104   0.749  1.00  0.00     0.134 A 
ATOM     41  F   UNL     1      -6.814   2.527   4.063  1.00  0.00    -0.206 F 
ATOM     42  C   UNL     1      -8.325   0.920   3.261  1.00  0.00     0.040 A 
ATOM     43  C   UNL     1      -9.041   0.982   0.963  1.00  0.00     0.040 A 
ATOM     44  F   UNL     1      -8.205   2.625  -0.487  1.00  0.00    -0.206 F 
ATOM     45  C   UNL     1      -9.075   0.379   2.218  1.00  0.00     0.006 A 
ENDBRANCH  24  38
BRANCH  25  46
ATOM     46  C   UNL     1      -0.853   9.899  -0.315  1.00  0.00     0.057 A 
ATOM     47  C   UNL     1      -0.686  10.943   0.606  1.00  0.00     0.134 A 
ATOM     48  C   UNL     1      -0.154   9.995  -1.522  1.00  0.00     0.134 A 
ATOM     49  F   UNL     1      -1.353  10.929   1.770  1.00  0.00    -0.206 F 
ATOM     50  C   UNL     1       0.120  12.051   0.326  1.00  0.00     0.040 A 
ATOM     51  C   UNL     1       0.658  11.093  -1.814  1.00  0.00     0.040 A 
ATOM     52  F   UNL     1      -0.248   9.020  -2.438  1.00  0.00    -0.206 F 
ATOM     53  C   UNL     1       0.793  12.128  -0.890  1.00  0.00     0.006 A 
ENDBRANCH  25  46
BRANCH  37  54
ATOM     54  C   UNL     1      -7.775   9.690   0.108  1.00  0.00     0.057 A 
ATOM     55  C   UNL     1      -8.068  10.241  -1.146  1.00  0.00     0.134 A 
ATOM     56  C   UNL     1      -8.518  10.140   1.206  1.00  0.00     0.134 A 
ATOM     57  F   UNL     1      -7.381   9.861  -2.235  1.00  0.00    -0.206 F 
ATOM     58  C   UNL     1      -9.044  11.226  -1.296  1.00  0.00     0.040 A 
ATOM     59  C   UNL     1      -9.518  11.101   1.063  1.00  0.00     0.040 A 
ATOM     60  F   UNL     1      -8.290   9.645   2.432  1.00  0.00    -0.206 F 
ATOM     61  C   UNL     1      -9.777  11.652  -0.190  1.00  0.00     0.006 A 
ENDBRANCH  37  54
ENDBRANCH  11  12
ENDBRANCH   4   6
ENDBRANCH   3   4
ENDBRANCH   2   3
ENDBRANCH   1   2
BRANCH   1  62
ATOM     62  O   UNL     1       3.541   2.585   3.358  1.00  0.00    -0.460 OA
BRANCH  62  63
ATOM     63  C   UNL     1       4.457   2.559   2.348  1.00  0.00     0.334 C 
ATOM     64  O   UNL     1       5.660   2.389   2.507  1.00  0.00    -0.249 OA
BRANCH  63  65
ATOM     65  C   UNL     1       3.758   2.915   1.026  1.00  0.00     0.232 C 
BRANCH  65  66
ATOM     66  N   UNL     1       4.138   4.289   0.650  1.00  0.00    -0.274 N 
ATOM     67  C   UNL     1       3.500   5.298   1.367  1.00  0.00     0.267 C 
ATOM     68  C   UNL     1       5.128   4.707  -0.214  1.00  0.00     0.149 C 
ATOM     69  O   UNL     1       2.719   5.144   2.294  1.00  0.00    -0.268 OA
ATOM     70  C   UNL     1       3.884   6.629   0.857  1.00  0.00     0.084 C 
ATOM     71  S   UNL     1       5.076   6.457  -0.362  1.00  0.00    -0.054 SA
ATOM     72  S   UNL     1       6.271   3.874  -1.086  1.00  0.00    -0.052 S 
ATOM     73  C   UNL     1       3.325   7.762   1.302  1.00  0.00     0.068 C 
BRANCH  73  74
ATOM     74  C   UNL     1       3.593   8.994   0.652  1.00  0.00     0.129 A 
ATOM     75  C   UNL     1       3.370   9.314  -0.680  1.00  0.00     0.051 A 
ATOM     76  O   UNL     1       4.191  10.071   1.256  1.00  0.00    -0.454 OA
ATOM     77  C   UNL     1       3.920  10.585  -0.906  1.00  0.00     0.054 A 
ATOM     78  C   UNL     1       4.420  11.029   0.302  1.00  0.00     0.163 A 
BRANCH  78  79
ATOM     79  C   UNL     1       5.113  12.263   0.513  1.00  0.00     0.160 A 
ATOM     80  N   UNL     1       4.977  13.261  -0.334  1.00  0.00    -0.233 NA
ATOM     81  S   UNL     1       6.241  12.492   1.776  1.00  0.00    -0.111 S 
ATOM     82  C   UNL     1       5.882  14.254  -0.027  1.00  0.00     0.082 A 
ATOM     83  C   UNL     1       6.691  14.006   1.084  1.00  0.00     0.055 A 
ATOM     84  C   UNL     1       6.057  15.448  -0.750  1.00  0.00     0.030 A 
ATOM     85  C   UNL     1       7.690  14.907   1.484  1.00  0.00     0.021 A 
ATOM     86  C   UNL     1       7.049  16.351  -0.362  1.00  0.00     0.002 A 
ATOM     87  C   UNL     1       7.858  16.079   0.737  1.00  0.00     0.002 A 
ENDBRANCH  78  79
ENDBRANCH  73  74
ENDBRANCH  65  66
BRANCH  65  88
ATOM     88  C   UNL     1       3.810   1.860  -0.074  1.00  0.00    -0.014 A 
ATOM     89  C   UNL     1       4.893   0.982  -0.234  1.00  0.00     0.006 A 
ATOM     90  C   UNL     1       2.755   1.775  -1.003  1.00  0.00     0.006 A 
ATOM     91  C   UNL     1       4.947   0.095  -1.314  1.00  0.00     0.000 A 
ATOM     92  C   UNL     1       2.783   0.847  -2.049  1.00  0.00     0.000 A 
ATOM     93  C   UNL     1       3.890   0.022  -2.216  1.00  0.00     0.000 A 
ENDBRANCH  65  88
ENDBRANCH  63  65
ENDBRANCH  62  63
ENDBRANCH   1  62
TORSDOF 15
