REMARK SMILES CCC(CC)C(O)(C(=O)OCCOC(=O)c1ccc(-c2c3nc(c(-c4c(F)cccc4F)c4ccc([nH]4)c(-c4c(F)cccc4F)c4nc(c(-c5c(F)cccc5F)c5ccc2[nH]5)C=C4)C=C3)cc1)C(CC)CC
REMARK SMILES IDX 11 1 10 2 8 3 9 4 6 5 3 6 2 7 1 8 4 9 5 10 7 11 70 13 71 14
REMARK SMILES IDX 72 15 73 16 74 17 12 18 13 19 14 20 15 21 16 22 17 23 69 24
REMARK SMILES IDX 18 25 68 26 19 27 20 28 21 29 62 30 22 31 67 32 61 33 63 34
REMARK SMILES IDX 23 35 66 36 60 37 59 38 24 40 50 41 33 42 49 43 34 44 37 45
REMARK SMILES IDX 48 46 64 47 35 48 36 49 47 51 65 52 38 53 25 54 26 55 31 56
REMARK SMILES IDX 27 57 28 58 30 59 32 60 29 61 51 62 52 63 57 64 53 65 54 66
REMARK SMILES IDX 56 67 58 68 55 69 39 70 40 71 45 72 41 73 42 74 44 75 46 76
REMARK SMILES IDX 43 77
REMARK H PARENT 7 12 63 39 37 50
REMARK Flexibility Score: inf
ROOT
ATOM      1  C   UNL     1       2.541   4.030   4.522  1.00  0.00     0.274 C 
ENDROOT
BRANCH   1   2
ATOM      2  O   UNL     1       2.051   3.046   3.582  1.00  0.00    -0.460 OA
BRANCH   2   3
ATOM      3  C   UNL     1       0.917   2.377   3.930  1.00  0.00     0.338 C 
ATOM      4  O   UNL     1       0.340   2.562   4.997  1.00  0.00    -0.249 OA
BRANCH   3   5
ATOM      5  C   UNL     1       0.559   1.222   2.934  1.00  0.00     0.167 C 
BRANCH   5   6
ATOM      6  C   UNL     1       1.332   1.230   1.555  1.00  0.00     0.032 C 
BRANCH   6   7
ATOM      7  C   UNL     1       1.003  -0.035   0.720  1.00  0.00     0.004 C 
ATOM      8  C   UNL     1       1.718  -0.160  -0.616  1.00  0.00     0.004 C 
ENDBRANCH   6   7
BRANCH   6   9
ATOM      9  C   UNL     1       1.524   2.541   0.738  1.00  0.00     0.004 C 
ATOM     10  C   UNL     1       0.347   3.340   0.231  1.00  0.00     0.004 C 
ENDBRANCH   6   9
ENDBRANCH   5   6
BRANCH   5  11
ATOM     11  O   UNL     1       1.184   0.109   3.664  1.00  0.00    -0.378 OA
ATOM     12  H   UNL     1       2.147   0.225   3.667  1.00  0.00     0.212 HD
ENDBRANCH   5  11
BRANCH   5  13
ATOM     13  C   UNL     1      -1.013   0.919   2.999  1.00  0.00     0.032 C 
BRANCH  13  14
ATOM     14  C   UNL     1      -1.953   1.778   2.119  1.00  0.00     0.004 C 
ATOM     15  C   UNL     1      -2.367   1.266   0.747  1.00  0.00     0.004 C 
ENDBRANCH  13  14
BRANCH  13  16
ATOM     16  C   UNL     1      -1.501  -0.559   2.990  1.00  0.00     0.004 C 
ATOM     17  C   UNL     1      -1.081  -1.417   4.178  1.00  0.00     0.004 C 
ENDBRANCH  13  16
ENDBRANCH   5  13
ENDBRANCH   3   5
ENDBRANCH   2   3
ENDBRANCH   1   2
BRANCH   1  18
ATOM     18  C   UNL     1       2.076   5.438   4.148  1.00  0.00     0.275 C 
BRANCH  18  19
ATOM     19  O   UNL     1       0.643   5.493   4.230  1.00  0.00    -0.458 OA
BRANCH  19  20
ATOM     20  C   UNL     1      -0.002   6.101   3.207  1.00  0.00     0.338 C 
ATOM     21  O   UNL     1       0.506   6.724   2.292  1.00  0.00    -0.246 OA
BRANCH  20  22
ATOM     22  C   UNL     1      -1.461   5.848   3.313  1.00  0.00     0.060 A 
ATOM     23  C   UNL     1      -1.948   4.726   3.981  1.00  0.00     0.016 A 
ATOM     24  C   UNL     1      -2.358   6.686   2.648  1.00  0.00     0.016 A 
ATOM     25  C   UNL     1      -3.296   4.386   3.902  1.00  0.00     0.010 A 
ATOM     26  C   UNL     1      -3.731   6.398   2.663  1.00  0.00     0.010 A 
ATOM     27  C   UNL     1      -4.217   5.225   3.265  1.00  0.00    -0.014 A 
BRANCH  27  28
ATOM     28  C   UNL     1      -5.668   4.875   3.224  1.00  0.00     0.031 A 
ATOM     29  C   UNL     1      -6.414   4.853   1.914  1.00  0.00     0.074 A 
ATOM     30  C   UNL     1      -6.336   4.576   4.357  1.00  0.00     0.049 A 
ATOM     31  N   UNL     1      -7.706   4.852   1.699  1.00  0.00    -0.248 NA
ATOM     32  C   UNL     1      -5.603   4.850   0.686  1.00  0.00     0.031 C 
ATOM     33  C   UNL     1      -5.752   4.495   5.698  1.00  0.00     0.029 A 
ATOM     34  N   UNL     1      -7.663   4.281   4.562  1.00  0.00    -0.354 N 
ATOM     35  C   UNL     1      -7.863   4.929   0.320  1.00  0.00     0.074 A 
ATOM     36  C   UNL     1      -6.534   4.955  -0.254  1.00  0.00     0.031 C 
ATOM     37  C   UNL     1      -6.697   4.128   6.573  1.00  0.00     0.029 A 
ATOM     38  C   UNL     1      -7.979   4.067   5.883  1.00  0.00     0.049 A 
ATOM     39  H   UNL     1      -8.323   4.229   3.834  1.00  0.00     0.167 HD
ATOM     40  C   UNL     1      -9.012   4.985  -0.396  1.00  0.00     0.037 A 
ATOM     41  C   UNL     1      -9.167   3.908   6.494  1.00  0.00     0.037 A 
ATOM     42  C   UNL     1     -10.332   4.880   0.173  1.00  0.00     0.049 A 
ATOM     43  C   UNL     1     -10.426   3.990   5.686  1.00  0.00     0.074 A 
ATOM     44  C   UNL     1     -11.556   4.913  -0.474  1.00  0.00     0.029 A 
ATOM     45  N   UNL     1     -10.599   4.693   1.520  1.00  0.00    -0.354 N 
ATOM     46  N   UNL     1     -10.567   4.178   4.397  1.00  0.00    -0.248 NA
ATOM     47  C   UNL     1     -11.692   3.873   6.423  1.00  0.00     0.031 C 
ATOM     48  C   UNL     1     -12.565   4.771   0.485  1.00  0.00     0.029 A 
ATOM     49  C   UNL     1     -11.968   4.613   1.724  1.00  0.00     0.049 A 
ATOM     50  H   UNL     1      -9.918   4.627   2.227  1.00  0.00     0.167 HD
ATOM     51  C   UNL     1     -11.935   4.206   4.167  1.00  0.00     0.074 A 
ATOM     52  C   UNL     1     -12.581   3.989   5.446  1.00  0.00     0.031 C 
ATOM     53  C   UNL     1     -12.596   4.405   3.002  1.00  0.00     0.037 A 
BRANCH  40  54
ATOM     54  C   UNL     1      -8.906   5.204  -1.877  1.00  0.00     0.057 A 
ATOM     55  C   UNL     1      -8.513   4.191  -2.758  1.00  0.00     0.134 A 
ATOM     56  C   UNL     1      -9.270   6.439  -2.433  1.00  0.00     0.134 A 
ATOM     57  F   UNL     1      -8.139   2.990  -2.291  1.00  0.00    -0.206 F 
ATOM     58  C   UNL     1      -8.477   4.400  -4.139  1.00  0.00     0.040 A 
ATOM     59  C   UNL     1      -9.260   6.653  -3.812  1.00  0.00     0.040 A 
ATOM     60  F   UNL     1      -9.663   7.450  -1.644  1.00  0.00    -0.206 F 
ATOM     61  C   UNL     1      -8.860   5.631  -4.670  1.00  0.00     0.006 A 
ENDBRANCH  40  54
BRANCH  41  62
ATOM     62  C   UNL     1      -9.214   3.730   7.966  1.00  0.00     0.057 A 
ATOM     63  C   UNL     1      -9.564   2.502   8.535  1.00  0.00     0.134 A 
ATOM     64  C   UNL     1      -8.875   4.774   8.837  1.00  0.00     0.134 A 
ATOM     65  F   UNL     1      -9.924   1.474   7.752  1.00  0.00    -0.206 F 
ATOM     66  C   UNL     1      -9.572   2.315   9.918  1.00  0.00     0.040 A 
ATOM     67  C   UNL     1      -8.851   4.594  10.219  1.00  0.00     0.040 A 
ATOM     68  F   UNL     1      -8.528   5.975   8.351  1.00  0.00    -0.206 F 
ATOM     69  C   UNL     1      -9.203   3.361  10.764  1.00  0.00     0.006 A 
ENDBRANCH  41  62
BRANCH  53  70
ATOM     70  C   UNL     1     -14.092   4.377   3.061  1.00  0.00     0.057 A 
ATOM     71  C   UNL     1     -14.825   5.450   3.583  1.00  0.00     0.134 A 
ATOM     72  C   UNL     1     -14.806   3.271   2.586  1.00  0.00     0.134 A 
ATOM     73  F   UNL     1     -14.197   6.531   4.069  1.00  0.00    -0.206 F 
ATOM     74  C   UNL     1     -16.218   5.413   3.651  1.00  0.00     0.040 A 
ATOM     75  C   UNL     1     -16.199   3.231   2.631  1.00  0.00     0.040 A 
ATOM     76  F   UNL     1     -14.160   2.214   2.071  1.00  0.00    -0.206 F 
ATOM     77  C   UNL     1     -16.909   4.302   3.170  1.00  0.00     0.006 A 
ENDBRANCH  53  70
ENDBRANCH  27  28
ENDBRANCH  20  22
ENDBRANCH  19  20
ENDBRANCH  18  19
ENDBRANCH   1  18
TORSDOF 18
