REMARK SMILES N#CCc1nc(-c2ccccc2)c(CC(=O)OCCOC(=O)c2ccc(-c3c4nc(c(-c5c(F)cccc5F)c5ccc([nH]5)c(-c5c(F)cccc5F)c5nc(c(-c6c(F)cccc6F)c6ccc3[nH]6)C=C5)C=C4)cc2)s1
REMARK SMILES IDX 18 1 17 2 15 3 16 4 14 5 13 6 4 7 5 8 77 9 6 10 3 11 2 12
REMARK SMILES IDX 1 13 7 14 8 15 12 16 9 17 11 18 10 19 19 20 20 21 21 22
REMARK SMILES IDX 22 23 23 24 24 25 76 26 25 27 75 28 26 29 27 30 28 31 69 32
REMARK SMILES IDX 29 33 74 34 68 35 70 36 30 37 73 38 67 39 66 40 31 42 57 43
REMARK SMILES IDX 40 44 56 45 41 46 44 47 55 48 71 49 42 50 43 51 54 53 72 54
REMARK SMILES IDX 45 55 32 56 33 57 38 58 34 59 35 60 37 61 39 62 36 63 58 64
REMARK SMILES IDX 59 65 64 66 60 67 61 68 63 69 65 70 62 71 46 72 47 73 52 74
REMARK SMILES IDX 48 75 49 76 51 77 53 78 50 79
REMARK H PARENT 70 41 44 52
REMARK Flexibility Score: inf
ROOT
ATOM      1  C   UNL     1       2.264   1.913  -6.350  1.00  0.00     0.274 C 
ENDROOT
BRANCH   1   2
ATOM      2  O   UNL     1       3.209   1.125  -5.598  1.00  0.00    -0.462 OA
BRANCH   2   3
ATOM      3  C   UNL     1       4.505   1.255  -5.979  1.00  0.00     0.311 C 
ATOM      4  O   UNL     1       4.881   1.906  -6.951  1.00  0.00    -0.252 OA
BRANCH   3   5
ATOM      5  C   UNL     1       5.494   0.500  -5.130  1.00  0.00     0.171 C 
BRANCH   5   6
ATOM      6  C   UNL     1       5.000   0.011  -3.800  1.00  0.00     0.044 A 
ATOM      7  C   UNL     1       4.236  -0.258  -1.498  1.00  0.00     0.108 A 
ATOM      8  N   UNL     1       4.446  -1.441  -2.043  1.00  0.00    -0.240 NA
ATOM      9  S   UNL     1       4.584   1.085  -2.524  1.00  0.00    -0.121 S 
ATOM     10  C   UNL     1       4.893  -1.292  -3.344  1.00  0.00     0.085 A 
BRANCH   7  11
ATOM     11  C   UNL     1       3.756  -0.039  -0.089  1.00  0.00     0.187 C 
BRANCH  11  12
ATOM     12  C   UNL     1       2.236  -0.039  -0.089  1.00  0.00     0.069 C 
ATOM     13  N   UNL     1       0.975  -0.039  -0.089  1.00  0.00    -0.198 NA
ENDBRANCH  11  12
ENDBRANCH   7  11
BRANCH  10  14
ATOM     14  C   UNL     1       5.241  -2.427  -4.182  1.00  0.00     0.001 A 
ATOM     15  C   UNL     1       6.576  -2.639  -4.557  1.00  0.00     0.010 A 
ATOM     16  C   UNL     1       4.233  -3.225  -4.731  1.00  0.00     0.010 A 
ATOM     17  C   UNL     1       6.893  -3.604  -5.514  1.00  0.00     0.001 A 
ATOM     18  C   UNL     1       4.555  -4.196  -5.682  1.00  0.00     0.001 A 
ATOM     19  C   UNL     1       5.880  -4.375  -6.082  1.00  0.00     0.000 A 
ENDBRANCH  10  14
ENDBRANCH   5   6
ENDBRANCH   3   5
ENDBRANCH   2   3
ENDBRANCH   1   2
BRANCH   1  20
ATOM     20  C   UNL     1       2.022   3.257  -5.666  1.00  0.00     0.275 C 
BRANCH  20  21
ATOM     21  O   UNL     1       3.266   3.972  -5.541  1.00  0.00    -0.458 OA
BRANCH  21  22
ATOM     22  C   UNL     1       3.542   4.466  -4.314  1.00  0.00     0.338 C 
ATOM     23  O   UNL     1       2.839   4.432  -3.320  1.00  0.00    -0.246 OA
BRANCH  22  24
ATOM     24  C   UNL     1       4.867   5.109  -4.330  1.00  0.00     0.060 A 
ATOM     25  C   UNL     1       6.015   4.365  -4.609  1.00  0.00     0.016 A 
ATOM     26  C   UNL     1       4.969   6.449  -3.958  1.00  0.00     0.016 A 
ATOM     27  C   UNL     1       7.276   4.946  -4.476  1.00  0.00     0.010 A 
ATOM     28  C   UNL     1       6.228   7.045  -3.877  1.00  0.00     0.010 A 
ATOM     29  C   UNL     1       7.393   6.292  -4.109  1.00  0.00    -0.014 A 
BRANCH  29  30
ATOM     30  C   UNL     1       8.725   6.916  -3.913  1.00  0.00     0.031 A 
ATOM     31  C   UNL     1       9.152   7.343  -2.537  1.00  0.00     0.074 A 
ATOM     32  C   UNL     1       9.539   7.123  -4.965  1.00  0.00     0.049 A 
ATOM     33  N   UNL     1      10.186   8.059  -2.175  1.00  0.00    -0.248 NA
ATOM     34  C   UNL     1       8.295   6.915  -1.421  1.00  0.00     0.031 C 
ATOM     35  C   UNL     1       9.262   6.720  -6.343  1.00  0.00     0.029 A 
ATOM     36  N   UNL     1      10.761   7.742  -5.035  1.00  0.00    -0.354 N 
ATOM     37  C   UNL     1      10.084   8.200  -0.798  1.00  0.00     0.074 A 
ATOM     38  C   UNL     1       8.885   7.499  -0.388  1.00  0.00     0.031 C 
ATOM     39  C   UNL     1      10.286   7.103  -7.124  1.00  0.00     0.029 A 
ATOM     40  C   UNL     1      11.260   7.825  -6.311  1.00  0.00     0.049 A 
ATOM     41  H   UNL     1      11.236   8.092  -4.246  1.00  0.00     0.167 HD
ATOM     42  C   UNL     1      10.913   8.856   0.048  1.00  0.00     0.037 A 
ATOM     43  C   UNL     1      12.358   8.447  -6.780  1.00  0.00     0.037 A 
ATOM     44  C   UNL     1      12.120   9.528  -0.357  1.00  0.00     0.049 A 
ATOM     45  C   UNL     1      13.242   9.203  -5.829  1.00  0.00     0.074 A 
ATOM     46  C   UNL     1      13.035  10.208   0.429  1.00  0.00     0.029 A 
ATOM     47  N   UNL     1      12.582   9.598  -1.662  1.00  0.00    -0.354 N 
ATOM     48  N   UNL     1      13.121   9.354  -4.533  1.00  0.00    -0.248 NA
ATOM     49  C   UNL     1      14.407   9.886  -6.410  1.00  0.00     0.031 C 
ATOM     50  C   UNL     1      14.038  10.713  -0.406  1.00  0.00     0.029 A 
ATOM     51  C   UNL     1      13.763  10.319  -1.706  1.00  0.00     0.049 A 
ATOM     52  H   UNL     1      12.136   9.195  -2.442  1.00  0.00     0.167 HD
ATOM     53  C   UNL     1      14.198  10.137  -4.140  1.00  0.00     0.074 A 
ATOM     54  C   UNL     1      14.970  10.418  -5.334  1.00  0.00     0.031 C 
ATOM     55  C   UNL     1      14.518  10.585  -2.902  1.00  0.00     0.037 A 
BRANCH  42  56
ATOM     56  C   UNL     1      10.526   8.902   1.495  1.00  0.00     0.057 A 
ATOM     57  C   UNL     1      10.670   7.791   2.335  1.00  0.00     0.134 A 
ATOM     58  C   UNL     1      10.027  10.082   2.059  1.00  0.00     0.134 A 
ATOM     59  F   UNL     1      11.126   6.627   1.850  1.00  0.00    -0.206 F 
ATOM     60  C   UNL     1      10.315   7.849   3.684  1.00  0.00     0.040 A 
ATOM     61  C   UNL     1       9.687  10.158   3.410  1.00  0.00     0.040 A 
ATOM     62  F   UNL     1       9.867  11.182   1.307  1.00  0.00    -0.206 F 
ATOM     63  C   UNL     1       9.826   9.037   4.226  1.00  0.00     0.006 A 
ENDBRANCH  42  56
BRANCH  43  64
ATOM     64  C   UNL     1      12.665   8.406  -8.230  1.00  0.00     0.057 A 
ATOM     65  C   UNL     1      13.730   7.642  -8.719  1.00  0.00     0.134 A 
ATOM     66  C   UNL     1      11.902   9.123  -9.158  1.00  0.00     0.134 A 
ATOM     67  F   UNL     1      14.510   6.953  -7.873  1.00  0.00    -0.206 F 
ATOM     68  C   UNL     1      14.031   7.598 -10.081  1.00  0.00     0.040 A 
ATOM     69  C   UNL     1      12.178   9.072 -10.525  1.00  0.00     0.040 A 
ATOM     70  F   UNL     1      10.868   9.873  -8.749  1.00  0.00    -0.206 F 
ATOM     71  C   UNL     1      13.248   8.309 -10.989  1.00  0.00     0.006 A 
ENDBRANCH  43  64
BRANCH  55  72
ATOM     72  C   UNL     1      15.768  11.401  -2.776  1.00  0.00     0.057 A 
ATOM     73  C   UNL     1      15.813  12.742  -3.175  1.00  0.00     0.134 A 
ATOM     74  C   UNL     1      16.928  10.848  -2.220  1.00  0.00     0.134 A 
ATOM     75  F   UNL     1      14.737  13.323  -3.728  1.00  0.00    -0.206 F 
ATOM     76  C   UNL     1      16.976  13.502  -3.041  1.00  0.00     0.040 A 
ATOM     77  C   UNL     1      18.091  11.603  -2.064  1.00  0.00     0.040 A 
ATOM     78  F   UNL     1      16.946   9.570  -1.814  1.00  0.00    -0.206 F 
ATOM     79  C   UNL     1      18.118  12.933  -2.478  1.00  0.00     0.006 A 
ENDBRANCH  55  72
ENDBRANCH  29  30
ENDBRANCH  22  24
ENDBRANCH  21  22
ENDBRANCH  20  21
ENDBRANCH   1  20
TORSDOF 15
