REMARK SMILES CCCc1cc(-n2ccc(C(=O)OCCOC(=O)c3ccc(-c4c5nc(c(-c6c(F)cccc6F)c6ccc([nH]6)c(-c6c(F)cccc6F)c6nc(c(-c7c(F)cccc7F)c7ccc4[nH]7)C=C6)C=C5)cc3)n2)nc(C(C)C)n1
REMARK SMILES IDX 14 1 13 2 11 3 12 4 10 5 7 6 8 7 73 8 9 9 6 10 4 11 5 12
REMARK SMILES IDX 79 13 75 14 74 15 3 16 2 17 1 18 76 19 77 20 78 21 15 22
REMARK SMILES IDX 16 23 17 24 18 25 19 26 20 27 72 28 21 29 71 30 22 31 23 32
REMARK SMILES IDX 24 33 65 34 25 35 70 36 64 37 66 38 26 39 69 40 63 41 62 42
REMARK SMILES IDX 27 44 53 45 36 46 52 47 37 48 40 49 51 50 67 51 38 52 39 53
REMARK SMILES IDX 50 55 68 56 41 57 28 58 29 59 34 60 30 61 31 62 33 63 35 64
REMARK SMILES IDX 32 65 54 66 55 67 60 68 56 69 57 70 59 71 61 72 58 73 42 74
REMARK SMILES IDX 43 75 48 76 44 77 45 78 47 79 49 80 46 81
REMARK H PARENT 66 43 40 54
REMARK Flexibility Score: inf
ROOT
ATOM      1  C   UNL     1      -1.819 -10.534  -2.790  1.00  0.00     0.275 C 
ENDROOT
BRANCH   1   2
ATOM      2  O   UNL     1      -1.177  -9.414  -2.161  1.00  0.00    -0.457 OA
BRANCH   2   3
ATOM      3  C   UNL     1       0.172  -9.517  -1.953  1.00  0.00     0.358 C 
ATOM      4  O   UNL     1       0.814 -10.558  -2.086  1.00  0.00    -0.244 OA
BRANCH   3   5
ATOM      5  C   UNL     1       0.811  -8.213  -1.735  1.00  0.00     0.170 A 
ATOM      6  N   UNL     1       1.000  -6.112  -1.363  1.00  0.00    -0.222 N 
ATOM      7  C   UNL     1       2.194  -6.489  -1.938  1.00  0.00     0.118 A 
ATOM      8  N   UNL     1       0.179  -7.174  -1.167  1.00  0.00    -0.159 NA
ATOM      9  C   UNL     1       2.122  -7.847  -2.137  1.00  0.00     0.058 A 
BRANCH   6  10
ATOM     10  C   UNL     1       0.599  -4.802  -0.969  1.00  0.00     0.157 A 
ATOM     11  C   UNL     1       0.645  -2.466  -1.196  1.00  0.00     0.046 A 
ATOM     12  C   UNL     1       1.108  -3.697  -1.627  1.00  0.00     0.073 A 
ATOM     13  N   UNL     1      -0.203  -2.350  -0.155  1.00  0.00    -0.238 NA
ATOM     14  C   UNL     1      -0.605  -3.477   0.458  1.00  0.00     0.133 A 
ATOM     15  N   UNL     1      -0.271  -4.707   0.060  1.00  0.00    -0.213 NA
BRANCH  11  16
ATOM     16  C   UNL     1       1.067  -1.209  -1.923  1.00  0.00     0.056 C 
BRANCH  16  17
ATOM     17  C   UNL     1       0.585   0.115  -1.314  1.00  0.00     0.003 C 
ATOM     18  C   UNL     1       1.255   0.452   0.012  1.00  0.00     0.004 C 
ENDBRANCH  16  17
ENDBRANCH  11  16
BRANCH  14  19
ATOM     19  C   UNL     1      -1.393  -3.362   1.741  1.00  0.00     0.051 C 
ATOM     20  C   UNL     1      -0.605  -2.561   2.779  1.00  0.00     0.016 C 
ATOM     21  C   UNL     1      -2.768  -2.755   1.491  1.00  0.00     0.016 C 
ENDBRANCH  14  19
ENDBRANCH   6  10
ENDBRANCH   3   5
ENDBRANCH   2   3
ENDBRANCH   1   2
BRANCH   1  22
ATOM     22  C   UNL     1      -1.758 -10.430  -4.311  1.00  0.00     0.275 C 
BRANCH  22  23
ATOM     23  O   UNL     1      -0.447 -10.721  -4.798  1.00  0.00    -0.458 OA
BRANCH  23  24
ATOM     24  C   UNL     1       0.349  -9.651  -5.015  1.00  0.00     0.338 C 
ATOM     25  O   UNL     1       0.135  -8.496  -4.689  1.00  0.00    -0.246 OA
BRANCH  24  26
ATOM     26  C   UNL     1       1.471 -10.044  -5.878  1.00  0.00     0.060 A 
ATOM     27  C   UNL     1       2.379  -9.042  -6.240  1.00  0.00     0.016 A 
ATOM     28  C   UNL     1       1.460 -11.291  -6.518  1.00  0.00     0.016 A 
ATOM     29  C   UNL     1       3.144  -9.220  -7.375  1.00  0.00     0.010 A 
ATOM     30  C   UNL     1       2.218 -11.465  -7.654  1.00  0.00     0.010 A 
ATOM     31  C   UNL     1       2.981 -10.394  -8.115  1.00  0.00    -0.014 A 
BRANCH  31  32
ATOM     32  C   UNL     1       3.591 -10.461  -9.425  1.00  0.00     0.031 A 
ATOM     33  C   UNL     1       5.056 -10.652  -9.443  1.00  0.00     0.074 A 
ATOM     34  C   UNL     1       2.847 -10.465 -10.546  1.00  0.00     0.049 A 
ATOM     35  N   UNL     1       5.952  -9.864  -9.938  1.00  0.00    -0.248 NA
ATOM     36  C   UNL     1       5.598 -11.827  -8.747  1.00  0.00     0.031 C 
ATOM     37  C   UNL     1       1.391 -10.563 -10.674  1.00  0.00     0.029 A 
ATOM     38  N   UNL     1       3.275 -10.498 -11.835  1.00  0.00    -0.354 N 
ATOM     39  C   UNL     1       7.168 -10.510  -9.754  1.00  0.00     0.074 A 
ATOM     40  C   UNL     1       6.908 -11.651  -8.913  1.00  0.00     0.031 C 
ATOM     41  C   UNL     1       1.082 -10.873 -11.953  1.00  0.00     0.029 A 
ATOM     42  C   UNL     1       2.302 -10.877 -12.743  1.00  0.00     0.049 A 
ATOM     43  H   UNL     1       4.195 -10.271 -12.100  1.00  0.00     0.167 HD
ATOM     44  C   UNL     1       8.280 -10.169 -10.458  1.00  0.00     0.037 A 
ATOM     45  C   UNL     1       2.515 -11.255 -14.026  1.00  0.00     0.037 A 
ATOM     46  C   UNL     1       8.147  -8.892 -11.103  1.00  0.00     0.049 A 
ATOM     47  C   UNL     1       3.846 -10.732 -14.435  1.00  0.00     0.074 A 
ATOM     48  C   UNL     1       7.952  -7.599 -10.658  1.00  0.00     0.029 A 
ATOM     49  N   UNL     1       7.861  -8.872 -12.446  1.00  0.00    -0.354 N 
ATOM     50  N   UNL     1       4.105  -9.465 -14.608  1.00  0.00    -0.248 NA
ATOM     51  C   UNL     1       5.012 -11.577 -14.217  1.00  0.00     0.031 C 
ATOM     52  C   UNL     1       7.105  -6.996 -11.633  1.00  0.00     0.029 A 
ATOM     53  C   UNL     1       6.863  -7.948 -12.624  1.00  0.00     0.049 A 
ATOM     54  H   UNL     1       8.290  -9.416 -13.146  1.00  0.00     0.167 HD
ATOM     55  C   UNL     1       5.389  -9.291 -14.108  1.00  0.00     0.074 A 
ATOM     56  C   UNL     1       5.934 -10.639 -13.978  1.00  0.00     0.031 C 
ATOM     57  C   UNL     1       5.787  -8.098 -13.574  1.00  0.00     0.037 A 
BRANCH  44  58
ATOM     58  C   UNL     1       9.369 -11.136 -10.814  1.00  0.00     0.057 A 
ATOM     59  C   UNL     1      10.620 -10.658 -11.236  1.00  0.00     0.134 A 
ATOM     60  C   UNL     1       9.140 -12.511 -11.017  1.00  0.00     0.134 A 
ATOM     61  F   UNL     1      10.934  -9.358 -11.119  1.00  0.00    -0.206 F 
ATOM     62  C   UNL     1      11.561 -11.486 -11.856  1.00  0.00     0.040 A 
ATOM     63  C   UNL     1      10.092 -13.356 -11.588  1.00  0.00     0.040 A 
ATOM     64  F   UNL     1       7.951 -13.075 -10.764  1.00  0.00    -0.206 F 
ATOM     65  C   UNL     1      11.298 -12.839 -12.035  1.00  0.00     0.006 A 
ENDBRANCH  44  58
BRANCH  45  66
ATOM     66  C   UNL     1       1.766 -12.269 -14.800  1.00  0.00     0.057 A 
ATOM     67  C   UNL     1       1.875 -12.353 -16.194  1.00  0.00     0.134 A 
ATOM     68  C   UNL     1       1.098 -13.337 -14.171  1.00  0.00     0.134 A 
ATOM     69  F   UNL     1       2.538 -11.412 -16.883  1.00  0.00    -0.206 F 
ATOM     70  C   UNL     1       1.356 -13.436 -16.918  1.00  0.00     0.040 A 
ATOM     71  C   UNL     1       0.563 -14.415 -14.881  1.00  0.00     0.040 A 
ATOM     72  F   UNL     1       1.013 -13.416 -12.835  1.00  0.00    -0.206 F 
ATOM     73  C   UNL     1       0.701 -14.474 -16.260  1.00  0.00     0.006 A 
ENDBRANCH  45  66
BRANCH  57  74
ATOM     74  C   UNL     1       4.874  -6.918 -13.752  1.00  0.00     0.057 A 
ATOM     75  C   UNL     1       3.595  -6.840 -13.180  1.00  0.00     0.134 A 
ATOM     76  C   UNL     1       5.354  -5.766 -14.382  1.00  0.00     0.134 A 
ATOM     77  F   UNL     1       3.098  -7.850 -12.457  1.00  0.00    -0.206 F 
ATOM     78  C   UNL     1       2.808  -5.690 -13.279  1.00  0.00     0.040 A 
ATOM     79  C   UNL     1       4.592  -4.598 -14.459  1.00  0.00     0.040 A 
ATOM     80  F   UNL     1       6.596  -5.742 -14.891  1.00  0.00    -0.206 F 
ATOM     81  C   UNL     1       3.309  -4.561 -13.917  1.00  0.00     0.006 A 
ENDBRANCH  57  74
ENDBRANCH  31  32
ENDBRANCH  24  26
ENDBRANCH  23  24
ENDBRANCH  22  23
ENDBRANCH   1  22
TORSDOF 15
