REMARK SMILES CCOc1c(Br)cc(CNc2cccc(C(=O)OCCOC(=O)c3ccc(-c4c5nc(c(-c6c(F)cccc6F)c6ccc([nH]6)c(-c6c(F)cccc6F)c6nc(c(-c7c(F)cccc7F)c7ccc4[nH]7)C=C6)C=C5)cc3)c2C)cc1OC
REMARK SMILES IDX 18 1 16 2 17 3 15 4 11 5 12 6 78 7 13 8 79 9 14 10 10 11
REMARK SMILES IDX 9 13 8 14 4 15 5 16 81 17 6 18 7 19 80 20 3 21 2 22 1 23
REMARK SMILES IDX 82 24 83 25 19 26 20 27 21 28 22 29 23 30 24 31 25 32 77 33
REMARK SMILES IDX 26 34 76 35 27 36 28 37 29 38 70 39 30 40 75 41 69 42 71 43
REMARK SMILES IDX 31 44 74 45 68 46 67 47 32 49 58 50 41 51 57 52 42 53 45 54
REMARK SMILES IDX 56 55 72 56 43 57 44 58 55 60 73 61 46 62 33 63 34 64 39 65
REMARK SMILES IDX 35 66 36 67 38 68 40 69 37 70 59 71 60 72 65 73 61 74 62 75
REMARK SMILES IDX 64 76 66 77 63 78 47 79 48 80 53 81 49 82 50 83 52 84 54 85
REMARK SMILES IDX 51 86
REMARK H PARENT 10 12 71 48 45 59
REMARK Flexibility Score: inf
ROOT
ATOM      1  O   UNL     1      11.275  -0.995   1.339  1.00  0.00    -0.458 OA
ENDROOT
BRANCH   1   2
ATOM      2  C   UNL     1      10.718  -0.915   0.101  1.00  0.00     0.338 C 
ATOM      3  O   UNL     1      10.683  -1.825  -0.720  1.00  0.00    -0.246 OA
BRANCH   2   4
ATOM      4  C   UNL     1      10.330   0.453  -0.316  1.00  0.00     0.065 A 
ATOM      5  C   UNL     1       8.747   2.298  -0.570  1.00  0.00     0.038 A 
ATOM      6  C   UNL     1       9.447   2.678  -1.727  1.00  0.00     0.026 A 
ATOM      7  C   UNL     1       9.248   1.208   0.196  1.00  0.00    -0.013 A 
ATOM      8  C   UNL     1      10.574   1.990  -2.167  1.00  0.00     0.003 A 
ATOM      9  C   UNL     1       8.566   0.867   1.489  1.00  0.00     0.047 C 
ATOM     10  C   UNL     1      10.993   0.863  -1.481  1.00  0.00     0.016 A 
BRANCH   5  11
ATOM     11  N   UNL     1       7.530   2.885  -0.242  1.00  0.00    -0.381 N 
ATOM     12  H   UNL     1       7.230   2.826   0.694  1.00  0.00     0.160 HD
BRANCH  11  13
ATOM     13  C   UNL     1       6.673   3.580  -1.185  1.00  0.00     0.149 C 
BRANCH  13  14
ATOM     14  C   UNL     1       5.233   3.153  -0.998  1.00  0.00    -0.024 A 
ATOM     15  C   UNL     1       2.504   2.390  -0.806  1.00  0.00     0.175 A 
ATOM     16  C   UNL     1       3.466   1.520  -1.352  1.00  0.00     0.064 A 
ATOM     17  C   UNL     1       2.909   3.670  -0.390  1.00  0.00     0.162 A 
ATOM     18  Br  UNL     1       3.005  -0.162  -2.114  1.00  0.00    -0.047 Br
ATOM     19  C   UNL     1       4.816   1.886  -1.419  1.00  0.00     0.025 A 
ATOM     20  C   UNL     1       4.270   4.026  -0.476  1.00  0.00     0.056 A 
BRANCH  15  21
ATOM     21  O   UNL     1       1.190   1.997  -0.809  1.00  0.00    -0.489 OA
BRANCH  21  22
ATOM     22  C   UNL     1       0.738   1.515   0.463  1.00  0.00     0.226 C 
ATOM     23  C   UNL     1       0.614   0.002   0.468  1.00  0.00     0.049 C 
ENDBRANCH  21  22
ENDBRANCH  15  21
BRANCH  17  24
ATOM     24  O   UNL     1       2.149   4.693   0.112  1.00  0.00    -0.493 OA
ATOM     25  C   UNL     1       0.750   4.700  -0.122  1.00  0.00     0.278 C 
ENDBRANCH  17  24
ENDBRANCH  13  14
ENDBRANCH  11  13
ENDBRANCH   5  11
ENDBRANCH   2   4
ENDBRANCH   1   2
BRANCH   1  26
ATOM     26  C   UNL     1      11.929  -2.258   1.556  1.00  0.00     0.275 C 
BRANCH  26  27
ATOM     27  C   UNL     1      11.997  -2.700   3.024  1.00  0.00     0.275 C 
BRANCH  27  28
ATOM     28  O   UNL     1      10.947  -2.245   3.918  1.00  0.00    -0.458 OA
BRANCH  28  29
ATOM     29  C   UNL     1       9.608  -2.344   3.744  1.00  0.00     0.338 C 
ATOM     30  O   UNL     1       8.802  -1.756   4.457  1.00  0.00    -0.246 OA
BRANCH  29  31
ATOM     31  C   UNL     1       9.146  -3.128   2.596  1.00  0.00     0.060 A 
ATOM     32  C   UNL     1       8.275  -2.522   1.685  1.00  0.00     0.016 A 
ATOM     33  C   UNL     1       9.642  -4.410   2.381  1.00  0.00     0.016 A 
ATOM     34  C   UNL     1       7.995  -3.136   0.477  1.00  0.00     0.010 A 
ATOM     35  C   UNL     1       9.424  -5.000   1.156  1.00  0.00     0.010 A 
ATOM     36  C   UNL     1       8.587  -4.372   0.219  1.00  0.00    -0.014 A 
BRANCH  36  37
ATOM     37  C   UNL     1       8.046  -5.246  -0.805  1.00  0.00     0.031 A 
ATOM     38  C   UNL     1       8.324  -5.087  -2.239  1.00  0.00     0.074 A 
ATOM     39  C   UNL     1       7.179  -6.149  -0.299  1.00  0.00     0.049 A 
ATOM     40  N   UNL     1       7.457  -5.343  -3.158  1.00  0.00    -0.248 NA
ATOM     41  C   UNL     1       9.593  -4.595  -2.769  1.00  0.00     0.031 C 
ATOM     42  C   UNL     1       6.495  -7.257  -0.929  1.00  0.00     0.029 A 
ATOM     43  N   UNL     1       6.587  -6.046   0.969  1.00  0.00    -0.354 N 
ATOM     44  C   UNL     1       8.124  -5.358  -4.363  1.00  0.00     0.074 A 
ATOM     45  C   UNL     1       9.421  -4.783  -4.086  1.00  0.00     0.031 C 
ATOM     46  C   UNL     1       5.413  -7.559  -0.183  1.00  0.00     0.029 A 
ATOM     47  C   UNL     1       5.296  -6.546   0.864  1.00  0.00     0.049 A 
ATOM     48  H   UNL     1       7.009  -5.687   1.782  1.00  0.00     0.167 HD
ATOM     49  C   UNL     1       7.573  -6.034  -5.414  1.00  0.00     0.037 A 
ATOM     50  C   UNL     1       4.243  -5.698   1.048  1.00  0.00     0.037 A 
ATOM     51  C   UNL     1       6.291  -6.613  -5.026  1.00  0.00     0.049 A 
ATOM     52  C   UNL     1       3.399  -5.602  -0.194  1.00  0.00     0.074 A 
ATOM     53  C   UNL     1       5.992  -7.856  -4.490  1.00  0.00     0.029 A 
ATOM     54  N   UNL     1       5.194  -5.797  -4.776  1.00  0.00    -0.354 N 
ATOM     55  N   UNL     1       3.869  -5.723  -1.405  1.00  0.00    -0.248 NA
ATOM     56  C   UNL     1       1.958  -5.389  -0.158  1.00  0.00     0.031 C 
ATOM     57  C   UNL     1       4.737  -7.767  -3.850  1.00  0.00     0.029 A 
ATOM     58  C   UNL     1       4.259  -6.480  -4.020  1.00  0.00     0.049 A 
ATOM     59  H   UNL     1       5.098  -4.869  -5.089  1.00  0.00     0.167 HD
ATOM     60  C   UNL     1       2.827  -5.677  -2.292  1.00  0.00     0.074 A 
ATOM     61  C   UNL     1       1.655  -5.451  -1.465  1.00  0.00     0.031 C 
ATOM     62  C   UNL     1       3.002  -5.864  -3.633  1.00  0.00     0.037 A 
BRANCH  49  63
ATOM     63  C   UNL     1       8.365  -6.489  -6.617  1.00  0.00     0.057 A 
ATOM     64  C   UNL     1       8.163  -7.769  -7.176  1.00  0.00     0.134 A 
ATOM     65  C   UNL     1       9.371  -5.733  -7.239  1.00  0.00     0.134 A 
ATOM     66  F   UNL     1       7.187  -8.582  -6.753  1.00  0.00    -0.206 F 
ATOM     67  C   UNL     1       8.964  -8.296  -8.196  1.00  0.00     0.040 A 
ATOM     68  C   UNL     1      10.199  -6.258  -8.247  1.00  0.00     0.040 A 
ATOM     69  F   UNL     1       9.576  -4.450  -6.910  1.00  0.00    -0.206 F 
ATOM     70  C   UNL     1      10.008  -7.551  -8.717  1.00  0.00     0.006 A 
ENDBRANCH  49  63
BRANCH  50  71
ATOM     71  C   UNL     1       4.460  -4.561   2.001  1.00  0.00     0.057 A 
ATOM     72  C   UNL     1       4.947  -4.818   3.300  1.00  0.00     0.134 A 
ATOM     73  C   UNL     1       4.395  -3.216   1.622  1.00  0.00     0.134 A 
ATOM     74  F   UNL     1       5.034  -6.080   3.752  1.00  0.00    -0.206 F 
ATOM     75  C   UNL     1       5.419  -3.804   4.141  1.00  0.00     0.040 A 
ATOM     76  C   UNL     1       4.848  -2.187   2.464  1.00  0.00     0.040 A 
ATOM     77  F   UNL     1       3.947  -2.865   0.409  1.00  0.00    -0.206 F 
ATOM     78  C   UNL     1       5.385  -2.482   3.716  1.00  0.00     0.006 A 
ENDBRANCH  50  71
BRANCH  62  79
ATOM     79  C   UNL     1       1.962  -5.637  -4.696  1.00  0.00     0.057 A 
ATOM     80  C   UNL     1       0.927  -4.700  -4.590  1.00  0.00     0.134 A 
ATOM     81  C   UNL     1       2.068  -6.278  -5.952  1.00  0.00     0.134 A 
ATOM     82  F   UNL     1       0.781  -3.934  -3.500  1.00  0.00    -0.206 F 
ATOM     83  C   UNL     1       0.019  -4.468  -5.630  1.00  0.00     0.040 A 
ATOM     84  C   UNL     1       1.206  -6.010  -7.016  1.00  0.00     0.040 A 
ATOM     85  F   UNL     1       3.029  -7.178  -6.213  1.00  0.00    -0.206 F 
ATOM     86  C   UNL     1       0.164  -5.114  -6.851  1.00  0.00     0.006 A 
ENDBRANCH  62  79
ENDBRANCH  36  37
ENDBRANCH  29  31
ENDBRANCH  28  29
ENDBRANCH  27  28
ENDBRANCH  26  27
ENDBRANCH   1  26
TORSDOF 17
