REMARK SMILES Cc1cccc(N2C(=O)/C(=C/c3ccc(C(=O)OCCOC(=O)c4ccc(-c5c6nc(c(-c7c(F)cccc7F)c7ccc([nH]7)c(-c7c(F)cccc7F)c7nc(c(-c8c(F)cccc8F)c8ccc5[nH]8)C=C7)C=C6)cc4)cc3)c3ccccc3C2=O)c1
REMARK SMILES IDX 19 1 18 2 16 3 17 4 15 5 12 6 13 7 79 8 14 9 78 10 11 11
REMARK SMILES IDX 7 12 8 13 86 14 9 15 10 16 85 17 87 18 80 19 84 20 81 21
REMARK SMILES IDX 83 22 82 23 6 24 1 25 2 26 3 27 88 28 4 29 5 30 20 31 21 32
REMARK SMILES IDX 22 33 23 34 24 35 25 36 77 37 26 38 76 39 27 40 28 41 29 42
REMARK SMILES IDX 70 43 30 44 75 45 69 46 71 47 31 48 74 49 68 50 67 51 32 53
REMARK SMILES IDX 58 54 41 55 57 56 42 57 45 58 56 59 72 60 43 61 44 62 55 64
REMARK SMILES IDX 73 65 46 66 33 67 34 68 39 69 35 70 36 71 38 72 40 73 37 74
REMARK SMILES IDX 59 75 60 76 65 77 61 78 62 79 64 80 66 81 63 82 47 83 48 84
REMARK SMILES IDX 53 85 49 86 50 87 52 88 54 89 51 90
REMARK H PARENT 71 52 45 63
REMARK Flexibility Score: inf
ROOT
ATOM      1  C   UNL     1      -4.749  12.471   1.601  1.00  0.00     0.275 C 
ENDROOT
BRANCH   1   2
ATOM      2  O   UNL     1      -3.902  11.441   1.085  1.00  0.00    -0.458 OA
BRANCH   2   3
ATOM      3  C   UNL     1      -4.614  10.356   0.678  1.00  0.00     0.338 C 
ATOM      4  O   UNL     1      -5.814  10.203   0.859  1.00  0.00    -0.246 OA
BRANCH   3   5
ATOM      5  C   UNL     1      -3.779   9.329   0.006  1.00  0.00     0.060 A 
ATOM      6  C   UNL     1      -2.293   7.109  -0.769  1.00  0.00    -0.025 A 
ATOM      7  C   UNL     1      -1.646   8.326  -0.536  1.00  0.00     0.009 A 
ATOM      8  C   UNL     1      -3.689   7.062  -0.837  1.00  0.00     0.009 A 
ATOM      9  C   UNL     1      -2.391   9.440  -0.139  1.00  0.00     0.016 A 
ATOM     10  C   UNL     1      -4.429   8.163  -0.420  1.00  0.00     0.016 A 
BRANCH   6  11
ATOM     11  C   UNL     1      -1.528   5.859  -0.686  1.00  0.00     0.022 C 
ATOM     12  N   UNL     1      -1.671   2.475   0.441  1.00  0.00    -0.242 N 
ATOM     13  C   UNL     1      -0.960   3.646   0.098  1.00  0.00     0.265 C 
ATOM     14  C   UNL     1      -3.027   2.542   0.839  1.00  0.00     0.265 C 
ATOM     15  O   UNL     1       0.168   3.725  -0.388  1.00  0.00    -0.268 OA
ATOM     16  C   UNL     1      -1.728   4.919   0.270  1.00  0.00     0.049 C 
ATOM     17  C   UNL     1      -3.474   3.788   1.508  1.00  0.00     0.048 A 
ATOM     18  O   UNL     1      -3.893   1.679   0.710  1.00  0.00    -0.268 OA
ATOM     19  C   UNL     1      -2.750   4.957   1.323  1.00  0.00    -0.000 A 
ATOM     20  C   UNL     1      -4.615   3.783   2.326  1.00  0.00     0.014 A 
ATOM     21  C   UNL     1      -3.086   6.089   2.080  1.00  0.00     0.010 A 
ATOM     22  C   UNL     1      -5.004   4.944   2.994  1.00  0.00     0.001 A 
ATOM     23  C   UNL     1      -4.225   6.091   2.890  1.00  0.00     0.001 A 
BRANCH  12  24
ATOM     24  C   UNL     1      -1.027   1.173   0.260  1.00  0.00     0.053 A 
ATOM     25  C   UNL     1       2.526  -0.258  -0.028  1.00  0.00     0.044 C 
ATOM     26  C   UNL     1       1.028  -0.187   0.035  1.00  0.00    -0.049 A 
ATOM     27  C   UNL     1       0.268  -1.348  -0.073  1.00  0.00     0.003 A 
ATOM     28  C   UNL     1       0.377   1.046   0.223  1.00  0.00     0.030 A 
ATOM     29  C   UNL     1      -1.115  -1.268  -0.008  1.00  0.00     0.002 A 
ATOM     30  C   UNL     1      -1.749  -0.028   0.154  1.00  0.00     0.027 A 
ENDBRANCH  12  24
ENDBRANCH   6  11
ENDBRANCH   3   5
ENDBRANCH   2   3
ENDBRANCH   1   2
BRANCH   1  31
ATOM     31  C   UNL     1      -4.074  13.846   1.692  1.00  0.00     0.275 C 
BRANCH  31  32
ATOM     32  O   UNL     1      -2.890  14.136   0.892  1.00  0.00    -0.458 OA
BRANCH  32  33
ATOM     33  C   UNL     1      -2.532  13.705  -0.338  1.00  0.00     0.338 C 
ATOM     34  O   UNL     1      -1.363  13.706  -0.715  1.00  0.00    -0.246 OA
BRANCH  33  35
ATOM     35  C   UNL     1      -3.581  13.194  -1.227  1.00  0.00     0.060 A 
ATOM     36  C   UNL     1      -3.304  12.089  -2.053  1.00  0.00     0.016 A 
ATOM     37  C   UNL     1      -4.852  13.750  -1.165  1.00  0.00     0.016 A 
ATOM     38  C   UNL     1      -4.335  11.469  -2.746  1.00  0.00     0.010 A 
ATOM     39  C   UNL     1      -5.890  13.055  -1.724  1.00  0.00     0.010 A 
ATOM     40  C   UNL     1      -5.624  11.954  -2.555  1.00  0.00    -0.014 A 
BRANCH  40  41
ATOM     41  C   UNL     1      -6.743  11.619  -3.414  1.00  0.00     0.031 A 
ATOM     42  C   UNL     1      -7.561  10.418  -3.215  1.00  0.00     0.074 A 
ATOM     43  C   UNL     1      -7.030  12.642  -4.248  1.00  0.00     0.049 A 
ATOM     44  N   UNL     1      -8.233   9.840  -4.147  1.00  0.00    -0.248 NA
ATOM     45  C   UNL     1      -7.659   9.714  -1.941  1.00  0.00     0.031 C 
ATOM     46  C   UNL     1      -8.238  12.979  -4.967  1.00  0.00     0.029 A 
ATOM     47  N   UNL     1      -6.115  13.622  -4.650  1.00  0.00    -0.354 N 
ATOM     48  C   UNL     1      -9.122   8.980  -3.526  1.00  0.00     0.074 A 
ATOM     49  C   UNL     1      -8.594   8.790  -2.200  1.00  0.00     0.031 C 
ATOM     50  C   UNL     1      -7.933  13.892  -5.912  1.00  0.00     0.029 A 
ATOM     51  C   UNL     1      -6.481  14.050  -5.921  1.00  0.00     0.049 A 
ATOM     52  H   UNL     1      -5.349  13.951  -4.126  1.00  0.00     0.167 HD
ATOM     53  C   UNL     1     -10.327   8.741  -4.124  1.00  0.00     0.037 A 
ATOM     54  C   UNL     1      -5.648  13.734  -6.957  1.00  0.00     0.037 A 
ATOM     55  C   UNL     1     -10.416   9.540  -5.341  1.00  0.00     0.049 A 
ATOM     56  C   UNL     1      -6.327  12.749  -7.872  1.00  0.00     0.074 A 
ATOM     57  C   UNL     1     -10.975  10.789  -5.559  1.00  0.00     0.029 A 
ATOM     58  N   UNL     1      -9.571   9.283  -6.410  1.00  0.00    -0.354 N 
ATOM     59  N   UNL     1      -7.141  11.810  -7.468  1.00  0.00    -0.248 NA
ATOM     60  C   UNL     1      -6.232  12.841  -9.323  1.00  0.00     0.031 C 
ATOM     61  C   UNL     1     -10.424  11.306  -6.755  1.00  0.00     0.029 A 
ATOM     62  C   UNL     1      -9.529  10.374  -7.253  1.00  0.00     0.049 A 
ATOM     63  H   UNL     1      -9.074   8.444  -6.548  1.00  0.00     0.167 HD
ATOM     64  C   UNL     1      -7.741  11.248  -8.565  1.00  0.00     0.074 A 
ATOM     65  C   UNL     1      -7.117  11.903  -9.700  1.00  0.00     0.031 C 
ATOM     66  C   UNL     1      -8.756  10.338  -8.479  1.00  0.00     0.037 A 
BRANCH  53  67
ATOM     67  C   UNL     1     -11.558   8.122  -3.486  1.00  0.00     0.057 A 
ATOM     68  C   UNL     1     -12.845   8.410  -3.998  1.00  0.00     0.134 A 
ATOM     69  C   UNL     1     -11.565   7.255  -2.382  1.00  0.00     0.134 A 
ATOM     70  F   UNL     1     -13.021   9.137  -5.109  1.00  0.00    -0.206 F 
ATOM     71  C   UNL     1     -14.033   7.961  -3.407  1.00  0.00     0.040 A 
ATOM     72  C   UNL     1     -12.750   6.809  -1.768  1.00  0.00     0.040 A 
ATOM     73  F   UNL     1     -10.433   6.754  -1.873  1.00  0.00    -0.206 F 
ATOM     74  C   UNL     1     -13.991   7.173  -2.272  1.00  0.00     0.006 A 
ENDBRANCH  53  67
BRANCH  54  75
ATOM     75  C   UNL     1      -4.200  13.715  -6.560  1.00  0.00     0.057 A 
ATOM     76  C   UNL     1      -3.632  14.902  -6.050  1.00  0.00     0.134 A 
ATOM     77  C   UNL     1      -3.487  12.535  -6.320  1.00  0.00     0.134 A 
ATOM     78  F   UNL     1      -4.255  16.078  -6.237  1.00  0.00    -0.206 F 
ATOM     79  C   UNL     1      -2.491  14.903  -5.239  1.00  0.00     0.040 A 
ATOM     80  C   UNL     1      -2.328  12.526  -5.526  1.00  0.00     0.040 A 
ATOM     81  F   UNL     1      -3.942  11.356  -6.766  1.00  0.00    -0.206 F 
ATOM     82  C   UNL     1      -1.851  13.704  -4.950  1.00  0.00     0.006 A 
ENDBRANCH  54  75
BRANCH  66  83
ATOM     83  C   UNL     1      -9.219   9.420  -9.582  1.00  0.00     0.057 A 
ATOM     84  C   UNL     1      -8.421   9.053 -10.672  1.00  0.00     0.134 A 
ATOM     85  C   UNL     1     -10.449   8.724  -9.480  1.00  0.00     0.134 A 
ATOM     86  F   UNL     1      -7.179   9.527 -10.830  1.00  0.00    -0.206 F 
ATOM     87  C   UNL     1      -8.843   8.125 -11.630  1.00  0.00     0.040 A 
ATOM     88  C   UNL     1     -10.846   7.744 -10.390  1.00  0.00     0.040 A 
ATOM     89  F   UNL     1     -11.310   8.932  -8.474  1.00  0.00    -0.206 F 
ATOM     90  C   UNL     1     -10.051   7.457 -11.485  1.00  0.00     0.006 A 
ENDBRANCH  66  83
ENDBRANCH  40  41
ENDBRANCH  33  35
ENDBRANCH  32  33
ENDBRANCH  31  32
ENDBRANCH   1  31
TORSDOF 13
