REMARK SMILES COc1ccc2c(c1)c(CC(=O)OCCOC(=O)c1ccc(-c3c4nc(c(-c5c(F)cccc5F)c5ccc([nH]5)c(-c5c(F)cccc5F)c5nc(c(-c6c(F)cccc6F)c6ccc3[nH]6)C=C5)C=C4)cc1)c(C)n2Cc1ccc(Br)cc1
REMARK SMILES IDX 14 1 13 2 11 3 12 4 10 5 9 6 3 7 4 8 8 9 5 10 7 11 6 12
REMARK SMILES IDX 75 13 73 14 74 15 2 16 1 17 76 18 77 19 78 20 83 21 79 22
REMARK SMILES IDX 82 23 80 24 81 25 15 26 16 27 17 28 18 29 19 30 20 31 72 32
REMARK SMILES IDX 21 33 71 34 22 35 23 36 24 37 65 38 25 39 70 40 64 41 66 42
REMARK SMILES IDX 26 43 69 44 63 45 62 46 27 48 53 49 36 50 52 51 37 52 40 53
REMARK SMILES IDX 51 54 67 55 38 56 39 57 50 59 68 60 41 61 28 62 29 63 34 64
REMARK SMILES IDX 30 65 31 66 33 67 35 68 32 69 54 70 55 71 60 72 56 73 57 74
REMARK SMILES IDX 59 75 61 76 58 77 42 78 43 79 48 80 44 81 45 82 47 83 49 84
REMARK SMILES IDX 46 85
REMARK H PARENT 66 47 40 58
REMARK Flexibility Score: inf
ROOT
ATOM      1  C   UNL     1      -1.343  -4.247  -5.764  1.00  0.00     0.274 C 
ENDROOT
BRANCH   1   2
ATOM      2  O   UNL     1      -0.794  -2.910  -5.854  1.00  0.00    -0.462 OA
BRANCH   2   3
ATOM      3  C   UNL     1      -1.702  -1.966  -6.186  1.00  0.00     0.310 C 
ATOM      4  O   UNL     1      -2.897  -2.215  -6.342  1.00  0.00    -0.252 OA
BRANCH   3   5
ATOM      5  C   UNL     1      -1.172  -0.602  -6.518  1.00  0.00     0.160 C 
BRANCH   5   6
ATOM      6  C   UNL     1       0.209  -0.139  -6.196  1.00  0.00    -0.008 A 
ATOM      7  C   UNL     1       1.815  -0.496  -2.727  1.00  0.00     0.119 A 
ATOM      8  C   UNL     1       3.044   0.051  -3.067  1.00  0.00     0.048 A 
ATOM      9  C   UNL     1       0.839  -0.720  -3.707  1.00  0.00     0.057 A 
ATOM     10  C   UNL     1       3.295   0.466  -4.378  1.00  0.00     0.031 A 
ATOM     11  C   UNL     1       1.019  -0.222  -5.016  1.00  0.00     0.007 A 
ATOM     12  C   UNL     1       2.253   0.375  -5.319  1.00  0.00     0.049 A 
ATOM     13  N   UNL     1       2.184   0.760  -6.644  1.00  0.00    -0.340 N 
ATOM     14  C   UNL     1       0.866   0.756  -7.035  1.00  0.00     0.020 A 
ATOM     15  C   UNL     1       0.312   1.519  -8.194  1.00  0.00     0.065 C 
BRANCH   7  16
ATOM     16  O   UNL     1       1.527  -0.901  -1.449  1.00  0.00    -0.497 OA
ATOM     17  C   UNL     1       1.615   0.168  -0.503  1.00  0.00     0.278 C 
ENDBRANCH   7  16
BRANCH  13  18
ATOM     18  C   UNL     1       3.317   1.051  -7.518  1.00  0.00     0.157 C 
BRANCH  18  19
ATOM     19  C   UNL     1       3.547  -0.110  -8.465  1.00  0.00    -0.028 A 
ATOM     20  C   UNL     1       2.802  -0.234  -9.651  1.00  0.00     0.007 A 
ATOM     21  C   UNL     1       4.436  -1.139  -8.124  1.00  0.00     0.007 A 
ATOM     22  C   UNL     1       2.902  -1.375 -10.448  1.00  0.00     0.016 A 
ATOM     23  C   UNL     1       4.563  -2.268  -8.939  1.00  0.00     0.016 A 
ATOM     24  C   UNL     1       3.783  -2.388 -10.088  1.00  0.00     0.017 A 
ATOM     25  Br  UNL     1       3.913  -3.938 -11.159  1.00  0.00    -0.051 Br
ENDBRANCH  18  19
ENDBRANCH  13  18
ENDBRANCH   5   6
ENDBRANCH   3   5
ENDBRANCH   2   3
ENDBRANCH   1   2
BRANCH   1  26
ATOM     26  C   UNL     1      -1.720  -4.615  -4.324  1.00  0.00     0.275 C 
BRANCH  26  27
ATOM     27  O   UNL     1      -2.876  -3.865  -3.914  1.00  0.00    -0.458 OA
BRANCH  27  28
ATOM     28  C   UNL     1      -2.708  -2.994  -2.887  1.00  0.00     0.338 C 
ATOM     29  O   UNL     1      -1.825  -3.003  -2.046  1.00  0.00    -0.246 OA
BRANCH  28  30
ATOM     30  C   UNL     1      -3.544  -1.820  -3.208  1.00  0.00     0.060 A 
ATOM     31  C   UNL     1      -4.845  -1.957  -3.698  1.00  0.00     0.016 A 
ATOM     32  C   UNL     1      -2.869  -0.601  -3.307  1.00  0.00     0.016 A 
ATOM     33  C   UNL     1      -5.386  -0.928  -4.464  1.00  0.00     0.010 A 
ATOM     34  C   UNL     1      -3.390   0.402  -4.107  1.00  0.00     0.010 A 
ATOM     35  C   UNL     1      -4.609   0.202  -4.753  1.00  0.00    -0.014 A 
BRANCH  35  36
ATOM     36  C   UNL     1      -5.112   1.224  -5.660  1.00  0.00     0.031 A 
ATOM     37  C   UNL     1      -5.816   2.343  -5.008  1.00  0.00     0.074 A 
ATOM     38  C   UNL     1      -4.935   1.297  -6.994  1.00  0.00     0.049 A 
ATOM     39  N   UNL     1      -7.095   2.493  -4.942  1.00  0.00    -0.248 NA
ATOM     40  C   UNL     1      -5.044   3.366  -4.301  1.00  0.00     0.031 C 
ATOM     41  C   UNL     1      -4.103   0.498  -7.884  1.00  0.00     0.029 A 
ATOM     42  N   UNL     1      -5.505   2.201  -7.845  1.00  0.00    -0.354 N 
ATOM     43  C   UNL     1      -7.313   3.693  -4.286  1.00  0.00     0.074 A 
ATOM     44  C   UNL     1      -6.022   4.132  -3.811  1.00  0.00     0.031 C 
ATOM     45  C   UNL     1      -4.069   1.061  -9.115  1.00  0.00     0.029 A 
ATOM     46  C   UNL     1      -5.038   2.141  -9.145  1.00  0.00     0.049 A 
ATOM     47  H   UNL     1      -6.192   2.844  -7.555  1.00  0.00     0.167 HD
ATOM     48  C   UNL     1      -8.529   4.301  -4.312  1.00  0.00     0.037 A 
ATOM     49  C   UNL     1      -5.462   2.878 -10.197  1.00  0.00     0.037 A 
ATOM     50  C   UNL     1      -9.545   3.436  -4.860  1.00  0.00     0.049 A 
ATOM     51  C   UNL     1      -6.851   3.306  -9.902  1.00  0.00     0.074 A 
ATOM     52  C   UNL     1     -10.076   2.213  -4.496  1.00  0.00     0.029 A 
ATOM     53  N   UNL     1      -9.910   3.618  -6.173  1.00  0.00    -0.354 N 
ATOM     54  N   UNL     1      -7.869   2.489  -9.866  1.00  0.00    -0.248 NA
ATOM     55  C   UNL     1      -7.058   4.582  -9.234  1.00  0.00     0.031 C 
ATOM     56  C   UNL     1     -10.300   1.523  -5.725  1.00  0.00     0.029 A 
ATOM     57  C   UNL     1      -9.918   2.377  -6.761  1.00  0.00     0.049 A 
ATOM     58  H   UNL     1     -10.125   4.474  -6.609  1.00  0.00     0.167 HD
ATOM     59  C   UNL     1      -8.665   2.956  -8.830  1.00  0.00     0.074 A 
ATOM     60  C   UNL     1      -8.177   4.304  -8.558  1.00  0.00     0.031 C 
ATOM     61  C   UNL     1      -9.465   2.114  -8.110  1.00  0.00     0.037 A 
BRANCH  48  62
ATOM     62  C   UNL     1      -8.769   5.761  -4.075  1.00  0.00     0.057 A 
ATOM     63  C   UNL     1      -7.819   6.766  -4.336  1.00  0.00     0.134 A 
ATOM     64  C   UNL     1     -10.071   6.213  -3.801  1.00  0.00     0.134 A 
ATOM     65  F   UNL     1      -6.569   6.478  -4.720  1.00  0.00    -0.206 F 
ATOM     66  C   UNL     1      -8.136   8.126  -4.309  1.00  0.00     0.040 A 
ATOM     67  C   UNL     1     -10.412   7.569  -3.824  1.00  0.00     0.040 A 
ATOM     68  F   UNL     1     -11.065   5.345  -3.561  1.00  0.00    -0.206 F 
ATOM     69  C   UNL     1      -9.443   8.531  -4.078  1.00  0.00     0.006 A 
ENDBRANCH  48  62
BRANCH  49  70
ATOM     70  C   UNL     1      -4.699   3.329 -11.376  1.00  0.00     0.057 A 
ATOM     71  C   UNL     1      -3.324   3.611 -11.277  1.00  0.00     0.134 A 
ATOM     72  C   UNL     1      -5.330   3.739 -12.557  1.00  0.00     0.134 A 
ATOM     73  F   UNL     1      -2.638   3.320 -10.161  1.00  0.00    -0.206 F 
ATOM     74  C   UNL     1      -2.621   4.276 -12.286  1.00  0.00     0.040 A 
ATOM     75  C   UNL     1      -4.638   4.408 -13.575  1.00  0.00     0.040 A 
ATOM     76  F   UNL     1      -6.646   3.550 -12.729  1.00  0.00    -0.206 F 
ATOM     77  C   UNL     1      -3.281   4.689 -13.436  1.00  0.00     0.006 A 
ENDBRANCH  49  70
BRANCH  61  78
ATOM     78  C   UNL     1      -9.653   0.713  -8.629  1.00  0.00     0.057 A 
ATOM     79  C   UNL     1     -10.945   0.244  -8.888  1.00  0.00     0.134 A 
ATOM     80  C   UNL     1      -8.611  -0.221  -8.735  1.00  0.00     0.134 A 
ATOM     81  F   UNL     1     -12.002   1.060  -8.748  1.00  0.00    -0.206 F 
ATOM     82  C   UNL     1     -11.190  -1.084  -9.251  1.00  0.00     0.040 A 
ATOM     83  C   UNL     1      -8.837  -1.544  -9.128  1.00  0.00     0.040 A 
ATOM     84  F   UNL     1      -7.355   0.105  -8.409  1.00  0.00    -0.206 F 
ATOM     85  C   UNL     1     -10.132  -1.981  -9.383  1.00  0.00     0.006 A 
ENDBRANCH  61  78
ENDBRANCH  35  36
ENDBRANCH  28  30
ENDBRANCH  27  28
ENDBRANCH  26  27
ENDBRANCH   1  26
TORSDOF 15
