REMARK SMILES O=C1NC(=S)S/C1=C\c1ccc(OCc2cn(-c3ccc(C(=O)OCCOC(=O)c4ccc(-c5c6nc(c(-c7c(F)cccc7F)c7ccc([nH]7)c(-c7c(F)cccc7F)c7nc(c(-c8c(F)cccc8F)c8ccc5[nH]8)C=C7)C=C6)cc4)cc3)nn2)cc1
REMARK SMILES IDX 24 1 22 2 23 3 21 4 18 5 19 6 85 7 20 8 84 9 17 10 15 11
REMARK SMILES IDX 16 12 87 13 86 14 14 15 13 16 12 17 9 18 10 19 89 20 11 21
REMARK SMILES IDX 88 22 8 23 1 24 2 25 3 26 7 27 4 28 6 30 5 31 25 32 26 33
REMARK SMILES IDX 27 34 28 35 29 36 30 37 31 38 83 39 32 40 82 41 33 42 34 43
REMARK SMILES IDX 35 44 76 45 36 46 81 47 75 48 77 49 37 50 80 51 74 52 73 53
REMARK SMILES IDX 38 55 64 56 47 57 63 58 48 59 51 60 62 61 78 62 49 63 50 64
REMARK SMILES IDX 61 66 79 67 52 68 39 69 40 70 45 71 41 72 42 73 44 74 46 75
REMARK SMILES IDX 43 76 65 77 66 78 71 79 67 80 68 81 70 82 72 83 69 84 53 85
REMARK SMILES IDX 54 86 59 87 55 88 56 89 58 90 60 91 57 92
REMARK H PARENT 3 29 77 54 51 65
REMARK Flexibility Score: inf
ROOT
ATOM      1  O   UNL     1       6.725  10.514  -0.272  1.00  0.00    -0.458 OA
ENDROOT
BRANCH   1   2
ATOM      2  C   UNL     1       6.280  10.036  -1.460  1.00  0.00     0.338 C 
ATOM      3  O   UNL     1       6.878  10.068  -2.527  1.00  0.00    -0.246 OA
BRANCH   2   4
ATOM      4  C   UNL     1       4.977   9.355  -1.285  1.00  0.00     0.060 A 
ATOM      5  C   UNL     1       2.481   8.118  -1.134  1.00  0.00     0.066 A 
ATOM      6  C   UNL     1       3.418   7.687  -2.085  1.00  0.00     0.029 A 
ATOM      7  C   UNL     1       2.821   9.114  -0.209  1.00  0.00     0.029 A 
ATOM      8  C   UNL     1       4.653   8.325  -2.175  1.00  0.00     0.018 A 
ATOM      9  C   UNL     1       4.079   9.719  -0.275  1.00  0.00     0.018 A 
BRANCH   5  10
ATOM     10  N   UNL     1       1.172   7.588  -1.180  1.00  0.00    -0.220 N 
ATOM     11  C   UNL     1      -0.996   7.326  -1.183  1.00  0.00     0.120 A 
ATOM     12  C   UNL     1       0.006   8.141  -0.698  1.00  0.00     0.144 A 
ATOM     13  N   UNL     1      -0.422   6.306  -1.892  1.00  0.00    -0.131 NA
ATOM     14  N   UNL     1       0.888   6.470  -1.883  1.00  0.00    -0.062 NA
BRANCH  11  15
ATOM     15  C   UNL     1      -2.481   7.474  -1.135  1.00  0.00     0.289 C 
BRANCH  15  16
ATOM     16  O   UNL     1      -3.139   6.727  -0.099  1.00  0.00    -0.487 OA
BRANCH  16  17
ATOM     17  C   UNL     1      -3.135   5.362  -0.187  1.00  0.00     0.119 A 
ATOM     18  C   UNL     1      -2.913   2.567  -0.022  1.00  0.00    -0.024 A 
ATOM     19  C   UNL     1      -3.375   3.300   1.074  1.00  0.00     0.012 A 
ATOM     20  C   UNL     1      -2.655   3.229  -1.224  1.00  0.00     0.012 A 
ATOM     21  C   UNL     1      -3.482   4.692   0.988  1.00  0.00     0.047 A 
ATOM     22  C   UNL     1      -2.789   4.616  -1.312  1.00  0.00     0.047 A 
BRANCH  18  23
ATOM     23  C   UNL     1      -2.679   1.126   0.082  1.00  0.00     0.029 C 
ATOM     24  O   UNL     1      -2.200  -1.745   0.157  1.00  0.00    -0.268 OA
ATOM     25  C   UNL     1      -1.296  -0.926   0.113  1.00  0.00     0.263 C 
ATOM     26  N   UNL     1       0.035  -1.235   0.071  1.00  0.00    -0.307 N 
ATOM     27  C   UNL     1      -1.468   0.551   0.082  1.00  0.00     0.080 C 
ATOM     28  C   UNL     1       0.931  -0.212   0.026  1.00  0.00     0.145 C 
ATOM     29  H   UNL     1       0.337  -2.172   0.073  1.00  0.00     0.171 HD
ATOM     30  S   UNL     1       0.082   1.315   0.029  1.00  0.00    -0.055 SA
ATOM     31  S   UNL     1       2.571  -0.432  -0.020  1.00  0.00    -0.052 S 
ENDBRANCH  18  23
ENDBRANCH  16  17
ENDBRANCH  15  16
ENDBRANCH  11  15
ENDBRANCH   5  10
ENDBRANCH   2   4
ENDBRANCH   1   2
BRANCH   1  32
ATOM     32  C   UNL     1       8.099  10.925  -0.257  1.00  0.00     0.275 C 
BRANCH  32  33
ATOM     33  C   UNL     1       9.015   9.762   0.095  1.00  0.00     0.275 C 
BRANCH  33  34
ATOM     34  O   UNL     1       9.086   8.792  -0.951  1.00  0.00    -0.458 OA
BRANCH  34  35
ATOM     35  C   UNL     1       8.279   7.719  -0.783  1.00  0.00     0.338 C 
ATOM     36  O   UNL     1       7.253   7.656  -0.127  1.00  0.00    -0.246 OA
BRANCH  35  37
ATOM     37  C   UNL     1       8.962   6.527  -1.293  1.00  0.00     0.060 A 
ATOM     38  C   UNL     1       8.223   5.348  -1.428  1.00  0.00     0.016 A 
ATOM     39  C   UNL     1      10.363   6.531  -1.370  1.00  0.00     0.016 A 
ATOM     40  C   UNL     1       8.902   4.150  -1.539  1.00  0.00     0.010 A 
ATOM     41  C   UNL     1      11.037   5.336  -1.455  1.00  0.00     0.010 A 
ATOM     42  C   UNL     1      10.302   4.154  -1.492  1.00  0.00    -0.014 A 
BRANCH  42  43
ATOM     43  C   UNL     1      11.005   2.897  -1.669  1.00  0.00     0.031 A 
ATOM     44  C   UNL     1      10.931   2.393  -3.063  1.00  0.00     0.074 A 
ATOM     45  C   UNL     1      11.790   2.357  -0.717  1.00  0.00     0.049 A 
ATOM     46  N   UNL     1      10.405   1.291  -3.480  1.00  0.00    -0.248 NA
ATOM     47  C   UNL     1      11.362   3.298  -4.144  1.00  0.00     0.031 C 
ATOM     48  C   UNL     1      12.174   2.950   0.566  1.00  0.00     0.029 A 
ATOM     49  N   UNL     1      12.511   1.202  -0.749  1.00  0.00    -0.354 N 
ATOM     50  C   UNL     1      10.625   1.269  -4.854  1.00  0.00     0.074 A 
ATOM     51  C   UNL     1      11.033   2.595  -5.226  1.00  0.00     0.031 C 
ATOM     52  C   UNL     1      13.222   2.263   1.077  1.00  0.00     0.029 A 
ATOM     53  C   UNL     1      13.503   1.122   0.221  1.00  0.00     0.049 A 
ATOM     54  H   UNL     1      12.344   0.486  -1.403  1.00  0.00     0.167 HD
ATOM     55  C   UNL     1      10.728   0.089  -5.521  1.00  0.00     0.037 A 
ATOM     56  C   UNL     1      14.520   0.222   0.266  1.00  0.00     0.037 A 
ATOM     57  C   UNL     1      10.133  -0.984  -4.764  1.00  0.00     0.049 A 
ATOM     58  C   UNL     1      14.168  -0.901  -0.637  1.00  0.00     0.074 A 
ATOM     59  C   UNL     1       8.876  -1.234  -4.248  1.00  0.00     0.029 A 
ATOM     60  N   UNL     1      10.982  -1.847  -4.118  1.00  0.00    -0.354 N 
ATOM     61  N   UNL     1      13.233  -1.774  -0.393  1.00  0.00    -0.248 NA
ATOM     62  C   UNL     1      14.585  -0.808  -2.028  1.00  0.00     0.031 C 
ATOM     63  C   UNL     1       9.107  -1.896  -3.007  1.00  0.00     0.029 A 
ATOM     64  C   UNL     1      10.484  -2.070  -2.863  1.00  0.00     0.049 A 
ATOM     65  H   UNL     1      11.805  -2.238  -4.492  1.00  0.00     0.167 HD
ATOM     66  C   UNL     1      12.636  -1.998  -1.624  1.00  0.00     0.074 A 
ATOM     67  C   UNL     1      13.579  -1.470  -2.606  1.00  0.00     0.031 C 
ATOM     68  C   UNL     1      11.313  -2.320  -1.708  1.00  0.00     0.037 A 
BRANCH  55  69
ATOM     69  C   UNL     1      11.739  -0.164  -6.618  1.00  0.00     0.057 A 
ATOM     70  C   UNL     1      11.728  -1.412  -7.268  1.00  0.00     0.134 A 
ATOM     71  C   UNL     1      12.897   0.611  -6.839  1.00  0.00     0.134 A 
ATOM     72  F   UNL     1      10.687  -2.248  -7.138  1.00  0.00    -0.206 F 
ATOM     73  C   UNL     1      12.827  -1.893  -7.989  1.00  0.00     0.040 A 
ATOM     74  C   UNL     1      13.977   0.162  -7.602  1.00  0.00     0.040 A 
ATOM     75  F   UNL     1      13.102   1.796  -6.255  1.00  0.00    -0.206 F 
ATOM     76  C   UNL     1      13.962  -1.110  -8.148  1.00  0.00     0.006 A 
ENDBRANCH  55  69
BRANCH  56  77
ATOM     77  C   UNL     1      15.891   0.369   0.809  1.00  0.00     0.057 A 
ATOM     78  C   UNL     1      16.704  -0.754   1.028  1.00  0.00     0.134 A 
ATOM     79  C   UNL     1      16.538   1.615   0.861  1.00  0.00     0.134 A 
ATOM     80  F   UNL     1      16.191  -1.991   0.965  1.00  0.00    -0.206 F 
ATOM     81  C   UNL     1      18.084  -0.646   1.248  1.00  0.00     0.040 A 
ATOM     82  C   UNL     1      17.913   1.737   1.089  1.00  0.00     0.040 A 
ATOM     83  F   UNL     1      15.878   2.752   0.599  1.00  0.00    -0.206 F 
ATOM     84  C   UNL     1      18.695   0.603   1.266  1.00  0.00     0.006 A 
ENDBRANCH  56  77
BRANCH  68  85
ATOM     85  C   UNL     1      10.612  -2.749  -0.450  1.00  0.00     0.057 A 
ATOM     86  C   UNL     1      10.457  -1.946   0.690  1.00  0.00     0.134 A 
ATOM     87  C   UNL     1       9.958  -3.986  -0.447  1.00  0.00     0.134 A 
ATOM     88  F   UNL     1      10.962  -0.706   0.744  1.00  0.00    -0.206 F 
ATOM     89  C   UNL     1       9.726  -2.381   1.800  1.00  0.00     0.040 A 
ATOM     90  C   UNL     1       9.193  -4.415   0.639  1.00  0.00     0.040 A 
ATOM     91  F   UNL     1      10.018  -4.786  -1.524  1.00  0.00    -0.206 F 
ATOM     92  C   UNL     1       9.086  -3.616   1.774  1.00  0.00     0.006 A 
ENDBRANCH  68  85
ENDBRANCH  42  43
ENDBRANCH  35  37
ENDBRANCH  34  35
ENDBRANCH  33  34
ENDBRANCH  32  33
ENDBRANCH   1  32
TORSDOF 16
