REMARK SMILES COc1cc([C@@H]2CC[NH2+][C@@H]2C(=O)OCCOC(=O)c2ccc(-c3c4nc(c(-c5c(F)cccc5F)c5ccc([nH]5)c(-c5c(F)cccc5F)c5nc(c(-c6c(F)cccc6F)c6ccc3[nH]6)C=C5)C=C4)cc2)cc(OC)c1OC
REMARK SMILES IDX 14 1 13 2 11 3 12 4 10 5 6 6 7 7 8 8 9 9 5 12 3 13 4 14
REMARK SMILES IDX 77 15 74 16 73 17 2 18 1 19 78 20 79 21 75 22 76 23 15 24
REMARK SMILES IDX 16 25 17 26 18 27 19 28 20 29 72 30 21 31 71 32 22 33 23 34
REMARK SMILES IDX 24 35 65 36 25 37 70 38 64 39 66 40 26 41 69 42 63 43 62 44
REMARK SMILES IDX 27 46 53 47 36 48 52 49 37 50 40 51 51 52 67 53 38 54 39 55
REMARK SMILES IDX 50 57 68 58 41 59 28 60 29 61 34 62 30 63 31 64 33 65 35 66
REMARK SMILES IDX 32 67 54 68 55 69 60 70 56 71 57 72 59 73 61 74 58 75 42 76
REMARK SMILES IDX 43 77 48 78 44 79 45 80 47 81 49 82 46 83
REMARK H PARENT 9 10 9 11 66 45 40 56
REMARK Flexibility Score: inf
ROOT
ATOM      1  C   UNL     1       1.224   6.230   2.469  1.00  0.00     0.274 C 
ENDROOT
BRANCH   1   2
ATOM      2  O   UNL     1       0.663   6.513   1.173  1.00  0.00    -0.458 OA
BRANCH   2   3
ATOM      3  C   UNL     1      -0.501   5.882   0.857  1.00  0.00     0.365 C 
ATOM      4  O   UNL     1      -1.102   5.106   1.596  1.00  0.00    -0.245 OA
BRANCH   3   5
ATOM      5  C   UNL     1      -0.995   6.202  -0.561  1.00  0.00     0.301 C 
ATOM      6  C   UNL     1      -0.399   5.350  -1.700  1.00  0.00     0.095 C 
ATOM      7  C   UNL     1       0.136   6.390  -2.695  1.00  0.00     0.076 C 
ATOM      8  C   UNL     1       0.323   7.651  -1.874  1.00  0.00     0.262 C 
ATOM      9  N   UNL     1      -0.802   7.634  -0.938  1.00  0.00    -0.334 N 
ATOM     10  H   UNL     1      -1.642   8.000  -1.387  1.00  0.00     0.347 HD
ATOM     11  H   UNL     1      -0.620   8.217  -0.121  1.00  0.00     0.347 HD
BRANCH   6  12
ATOM     12  C   UNL     1       0.620   4.300  -1.305  1.00  0.00    -0.030 A 
ATOM     13  C   UNL     1       1.199   1.962  -0.913  1.00  0.00     0.164 A 
ATOM     14  C   UNL     1       0.274   2.947  -1.305  1.00  0.00     0.055 A 
ATOM     15  C   UNL     1       2.512   2.301  -0.529  1.00  0.00     0.203 A 
ATOM     16  C   UNL     1       2.859   3.666  -0.518  1.00  0.00     0.164 A 
ATOM     17  C   UNL     1       1.919   4.633  -0.911  1.00  0.00     0.055 A 
BRANCH  13  18
ATOM     18  O   UNL     1       0.789   0.654  -0.992  1.00  0.00    -0.493 OA
ATOM     19  C   UNL     1      -0.158   0.340   0.030  1.00  0.00     0.278 C 
ENDBRANCH  13  18
BRANCH  15  20
ATOM     20  O   UNL     1       3.484   1.424  -0.134  1.00  0.00    -0.490 OA
ATOM     21  C   UNL     1       3.279   0.026  -0.237  1.00  0.00     0.278 C 
ENDBRANCH  15  20
BRANCH  16  22
ATOM     22  O   UNL     1       4.043   4.257  -0.151  1.00  0.00    -0.493 OA
ATOM     23  C   UNL     1       5.155   3.445   0.184  1.00  0.00     0.278 C 
ENDBRANCH  16  22
ENDBRANCH   6  12
ENDBRANCH   3   5
ENDBRANCH   2   3
ENDBRANCH   1   2
BRANCH   1  24
ATOM     24  C   UNL     1       1.219   7.489   3.330  1.00  0.00     0.275 C 
BRANCH  24  25
ATOM     25  O   UNL     1      -0.132   7.945   3.515  1.00  0.00    -0.458 OA
BRANCH  25  26
ATOM     26  C   UNL     1      -0.482   9.023   2.781  1.00  0.00     0.338 C 
ATOM     27  O   UNL     1       0.233   9.732   2.087  1.00  0.00    -0.246 OA
BRANCH  26  28
ATOM     28  C   UNL     1      -1.930   9.212   2.898  1.00  0.00     0.060 A 
ATOM     29  C   UNL     1      -2.749   8.783   1.852  1.00  0.00     0.016 A 
ATOM     30  C   UNL     1      -2.468   9.876   4.000  1.00  0.00     0.016 A 
ATOM     31  C   UNL     1      -4.117   9.034   1.890  1.00  0.00     0.010 A 
ATOM     32  C   UNL     1      -3.842  10.119   4.044  1.00  0.00     0.010 A 
ATOM     33  C   UNL     1      -4.670   9.716   2.981  1.00  0.00    -0.014 A 
BRANCH  33  34
ATOM     34  C   UNL     1      -6.104  10.084   2.975  1.00  0.00     0.031 A 
ATOM     35  C   UNL     1      -6.499  11.506   2.700  1.00  0.00     0.074 A 
ATOM     36  C   UNL     1      -7.043   9.149   3.201  1.00  0.00     0.049 A 
ATOM     37  N   UNL     1      -7.682  12.062   2.753  1.00  0.00    -0.248 NA
ATOM     38  C   UNL     1      -5.415  12.425   2.315  1.00  0.00     0.031 C 
ATOM     39  C   UNL     1      -6.783   7.727   3.428  1.00  0.00     0.029 A 
ATOM     40  N   UNL     1      -8.407   9.260   3.286  1.00  0.00    -0.354 N 
ATOM     41  C   UNL     1      -7.485  13.396   2.423  1.00  0.00     0.074 A 
ATOM     42  C   UNL     1      -6.067  13.572   2.189  1.00  0.00     0.031 C 
ATOM     43  C   UNL     1      -7.952   7.098   3.632  1.00  0.00     0.029 A 
ATOM     44  C   UNL     1      -9.034   8.078   3.594  1.00  0.00     0.049 A 
ATOM     45  H   UNL     1      -8.890  10.105   3.140  1.00  0.00     0.167 HD
ATOM     46  C   UNL     1      -8.405  14.384   2.321  1.00  0.00     0.037 A 
ATOM     47  C   UNL     1     -10.332   7.825   3.845  1.00  0.00     0.037 A 
ATOM     48  C   UNL     1      -9.815  14.205   2.550  1.00  0.00     0.049 A 
ATOM     49  C   UNL     1     -11.324   8.953   3.794  1.00  0.00     0.074 A 
ATOM     50  C   UNL     1     -10.828  15.145   2.486  1.00  0.00     0.029 A 
ATOM     51  N   UNL     1     -10.409  12.998   2.885  1.00  0.00    -0.354 N 
ATOM     52  N   UNL     1     -11.127  10.216   3.504  1.00  0.00    -0.248 NA
ATOM     53  C   UNL     1     -12.720   8.622   4.114  1.00  0.00     0.031 C 
ATOM     54  C   UNL     1     -12.033  14.512   2.811  1.00  0.00     0.029 A 
ATOM     55  C   UNL     1     -11.774  13.171   3.042  1.00  0.00     0.049 A 
ATOM     56  H   UNL     1      -9.931  12.144   2.996  1.00  0.00     0.167 HD
ATOM     57  C   UNL     1     -12.372  10.825   3.584  1.00  0.00     0.074 A 
ATOM     58  C   UNL     1     -13.322   9.790   3.939  1.00  0.00     0.031 C 
ATOM     59  C   UNL     1     -12.701  12.124   3.385  1.00  0.00     0.037 A 
BRANCH  46  60
ATOM     60  C   UNL     1      -7.907  15.752   1.965  1.00  0.00     0.057 A 
ATOM     61  C   UNL     1      -7.499  16.072   0.665  1.00  0.00     0.134 A 
ATOM     62  C   UNL     1      -7.856  16.766   2.930  1.00  0.00     0.134 A 
ATOM     63  F   UNL     1      -7.509  15.140  -0.300  1.00  0.00    -0.206 F 
ATOM     64  C   UNL     1      -7.038  17.350   0.340  1.00  0.00     0.040 A 
ATOM     65  C   UNL     1      -7.417  18.052   2.612  1.00  0.00     0.040 A 
ATOM     66  F   UNL     1      -8.235  16.524   4.194  1.00  0.00    -0.206 F 
ATOM     67  C   UNL     1      -7.002  18.346   1.315  1.00  0.00     0.006 A 
ENDBRANCH  46  60
BRANCH  47  68
ATOM     68  C   UNL     1     -10.768   6.450   4.192  1.00  0.00     0.057 A 
ATOM     69  C   UNL     1     -11.545   5.694   3.309  1.00  0.00     0.134 A 
ATOM     70  C   UNL     1     -10.436   5.870   5.422  1.00  0.00     0.134 A 
ATOM     71  F   UNL     1     -11.915   6.206   2.126  1.00  0.00    -0.206 F 
ATOM     72  C   UNL     1     -11.990   4.413   3.641  1.00  0.00     0.040 A 
ATOM     73  C   UNL     1     -10.855   4.582   5.758  1.00  0.00     0.040 A 
ATOM     74  F   UNL     1      -9.695   6.545   6.312  1.00  0.00    -0.206 F 
ATOM     75  C   UNL     1     -11.641   3.852   4.869  1.00  0.00     0.006 A 
ENDBRANCH  47  68
BRANCH  59  76
ATOM     76  C   UNL     1     -14.150  12.487   3.511  1.00  0.00     0.057 A 
ATOM     77  C   UNL     1     -14.778  12.590   4.758  1.00  0.00     0.134 A 
ATOM     78  C   UNL     1     -14.916  12.764   2.372  1.00  0.00     0.134 A 
ATOM     79  F   UNL     1     -14.101  12.322   5.884  1.00  0.00    -0.206 F 
ATOM     80  C   UNL     1     -16.125  12.940   4.867  1.00  0.00     0.040 A 
ATOM     81  C   UNL     1     -16.258  13.135   2.469  1.00  0.00     0.040 A 
ATOM     82  F   UNL     1     -14.370  12.688   1.149  1.00  0.00    -0.206 F 
ATOM     83  C   UNL     1     -16.867  13.219   3.720  1.00  0.00     0.006 A 
ENDBRANCH  59  76
ENDBRANCH  33  34
ENDBRANCH  26  28
ENDBRANCH  25  26
ENDBRANCH  24  25
ENDBRANCH   1  24
TORSDOF 15
