REMARK SMILES CC[C@@H](C)N(C)C(=O)N1[C@@H](C(=O)OCCOC(=O)c2ccc(-c3c4nc(c(-c5c(F)cccc5F)c5ccc([nH]5)c(-c5c(F)cccc5F)c5nc(c(-c6c(F)cccc6F)c6ccc3[nH]6)C=C5)C=C4)cc2)CC[C@H]2CCCC[C@H]21
REMARK SMILES IDX 14 1 13 2 11 3 12 4 10 5 9 6 80 7 73 8 75 9 79 10 74 11
REMARK SMILES IDX 76 12 78 13 77 14 7 15 8 16 5 17 6 18 3 19 4 20 2 21 1 22
REMARK SMILES IDX 15 23 16 24 17 25 18 26 19 27 20 28 72 29 21 30 71 31 22 32
REMARK SMILES IDX 23 33 24 34 65 35 25 36 70 37 64 38 66 39 26 40 69 41 63 42
REMARK SMILES IDX 62 43 27 45 53 46 36 47 52 48 37 49 40 50 51 51 67 52 38 53
REMARK SMILES IDX 39 54 50 56 68 57 41 58 28 59 29 60 34 61 30 62 31 63 33 64
REMARK SMILES IDX 35 65 32 66 54 67 55 68 60 69 56 70 57 71 59 72 61 73 58 74
REMARK SMILES IDX 42 75 43 76 48 77 44 78 45 79 47 80 49 81 46 82
REMARK H PARENT 66 44 40 55
REMARK Flexibility Score: inf
ROOT
ATOM      1  C   UNL     1       1.141  -3.501  -5.818  1.00  0.00     0.274 C 
ENDROOT
BRANCH   1   2
ATOM      2  O   UNL     1      -0.004  -2.640  -5.958  1.00  0.00    -0.461 OA
BRANCH   2   3
ATOM      3  C   UNL     1       0.269  -1.315  -6.100  1.00  0.00     0.329 C 
ATOM      4  O   UNL     1       1.403  -0.844  -6.119  1.00  0.00    -0.250 OA
BRANCH   3   5
ATOM      5  C   UNL     1      -1.005  -0.453  -6.207  1.00  0.00     0.197 C 
ATOM      6  N   UNL     1      -1.498   0.218  -4.991  1.00  0.00    -0.308 N 
ATOM      7  C   UNL     1      -2.684   1.076  -5.162  1.00  0.00     0.091 C 
ATOM      8  C   UNL     1      -2.128  -1.158  -6.974  1.00  0.00     0.038 C 
ATOM      9  C   UNL     1      -3.806   0.478  -6.035  1.00  0.00     0.012 C 
ATOM     10  C   UNL     1      -3.267   1.715  -3.897  1.00  0.00     0.025 C 
ATOM     11  C   UNL     1      -3.246  -0.172  -7.305  1.00  0.00     0.008 C 
ATOM     12  C   UNL     1      -4.772  -0.469  -5.311  1.00  0.00     0.006 C 
ATOM     13  C   UNL     1      -4.344   0.909  -3.168  1.00  0.00     0.002 C 
ATOM     14  C   UNL     1      -4.761  -0.414  -3.793  1.00  0.00     0.000 C 
BRANCH   6  15
ATOM     15  C   UNL     1      -1.106  -0.257  -3.756  1.00  0.00     0.320 C 
ATOM     16  O   UNL     1      -1.884  -0.836  -3.009  1.00  0.00    -0.248 OA
BRANCH  15  17
ATOM     17  N   UNL     1       0.213   0.011  -3.396  1.00  0.00    -0.325 N 
ATOM     18  C   UNL     1       1.025   1.051  -4.030  1.00  0.00     0.149 C 
BRANCH  17  19
ATOM     19  C   UNL     1       0.747  -0.511  -2.122  1.00  0.00     0.083 C 
ATOM     20  C   UNL     1       0.515  -2.017  -1.936  1.00  0.00     0.031 C 
BRANCH  19  21
ATOM     21  C   UNL     1       0.242   0.332  -0.937  1.00  0.00     0.021 C 
ATOM     22  C   UNL     1       0.899  -0.026   0.386  1.00  0.00     0.006 C 
ENDBRANCH  19  21
ENDBRANCH  17  19
ENDBRANCH  15  17
ENDBRANCH   6  15
ENDBRANCH   3   5
ENDBRANCH   2   3
ENDBRANCH   1   2
BRANCH   1  23
ATOM     23  C   UNL     1       1.631  -4.043  -7.166  1.00  0.00     0.275 C 
BRANCH  23  24
ATOM     24  O   UNL     1       2.244  -3.018  -7.972  1.00  0.00    -0.458 OA
BRANCH  24  25
ATOM     25  C   UNL     1       1.410  -2.373  -8.819  1.00  0.00     0.338 C 
ATOM     26  O   UNL     1       0.229  -2.617  -9.021  1.00  0.00    -0.246 OA
BRANCH  25  27
ATOM     27  C   UNL     1       2.075  -1.187  -9.379  1.00  0.00     0.060 A 
ATOM     28  C   UNL     1       1.457   0.059  -9.207  1.00  0.00     0.016 A 
ATOM     29  C   UNL     1       3.247  -1.299 -10.125  1.00  0.00     0.016 A 
ATOM     30  C   UNL     1       2.008   1.205  -9.770  1.00  0.00     0.010 A 
ATOM     31  C   UNL     1       3.784  -0.154 -10.718  1.00  0.00     0.010 A 
ATOM     32  C   UNL     1       3.159   1.097 -10.553  1.00  0.00    -0.014 A 
BRANCH  32  33
ATOM     33  C   UNL     1       3.641   2.257 -11.329  1.00  0.00     0.031 A 
ATOM     34  C   UNL     1       3.279   2.342 -12.780  1.00  0.00     0.074 A 
ATOM     35  C   UNL     1       4.407   3.199 -10.754  1.00  0.00     0.049 A 
ATOM     36  N   UNL     1       3.768   3.114 -13.713  1.00  0.00    -0.248 NA
ATOM     37  C   UNL     1       2.224   1.425 -13.243  1.00  0.00     0.031 C 
ATOM     38  C   UNL     1       4.747   3.265  -9.334  1.00  0.00     0.029 A 
ATOM     39  N   UNL     1       5.065   4.267 -11.310  1.00  0.00    -0.354 N 
ATOM     40  C   UNL     1       3.112   2.748 -14.881  1.00  0.00     0.074 A 
ATOM     41  C   UNL     1       2.181   1.696 -14.539  1.00  0.00     0.031 C 
ATOM     42  C   UNL     1       5.584   4.298  -9.135  1.00  0.00     0.029 A 
ATOM     43  C   UNL     1       5.880   4.924 -10.421  1.00  0.00     0.049 A 
ATOM     44  H   UNL     1       4.962   4.536 -12.252  1.00  0.00     0.167 HD
ATOM     45  C   UNL     1       3.290   3.241 -16.128  1.00  0.00     0.037 A 
ATOM     46  C   UNL     1       6.803   5.880 -10.640  1.00  0.00     0.037 A 
ATOM     47  C   UNL     1       4.212   4.296 -16.447  1.00  0.00     0.049 A 
ATOM     48  C   UNL     1       7.033   6.366 -12.048  1.00  0.00     0.074 A 
ATOM     49  C   UNL     1       4.479   4.867 -17.678  1.00  0.00     0.029 A 
ATOM     50  N   UNL     1       5.017   4.941 -15.519  1.00  0.00    -0.354 N 
ATOM     51  N   UNL     1       6.440   5.996 -13.157  1.00  0.00    -0.248 NA
ATOM     52  C   UNL     1       8.070   7.391 -12.237  1.00  0.00     0.031 C 
ATOM     53  C   UNL     1       5.471   5.836 -17.500  1.00  0.00     0.029 A 
ATOM     54  C   UNL     1       5.790   5.897 -16.152  1.00  0.00     0.049 A 
ATOM     55  H   UNL     1       5.035   4.747 -14.554  1.00  0.00     0.167 HD
ATOM     56  C   UNL     1       7.006   6.763 -14.168  1.00  0.00     0.074 A 
ATOM     57  C   UNL     1       7.990   7.620 -13.541  1.00  0.00     0.031 C 
ATOM     58  C   UNL     1       6.737   6.760 -15.496  1.00  0.00     0.037 A 
BRANCH  45  59
ATOM     59  C   UNL     1       2.508   2.613 -17.240  1.00  0.00     0.057 A 
ATOM     60  C   UNL     1       1.141   2.852 -17.415  1.00  0.00     0.134 A 
ATOM     61  C   UNL     1       3.146   1.780 -18.169  1.00  0.00     0.134 A 
ATOM     62  F   UNL     1       0.469   3.624 -16.548  1.00  0.00    -0.206 F 
ATOM     63  C   UNL     1       0.431   2.274 -18.470  1.00  0.00     0.040 A 
ATOM     64  C   UNL     1       2.452   1.214 -19.239  1.00  0.00     0.040 A 
ATOM     65  F   UNL     1       4.455   1.510 -18.055  1.00  0.00    -0.206 F 
ATOM     66  C   UNL     1       1.089   1.459 -19.390  1.00  0.00     0.006 A 
ENDBRANCH  45  59
BRANCH  46  67
ATOM     67  C   UNL     1       7.621   6.402  -9.516  1.00  0.00     0.057 A 
ATOM     68  C   UNL     1       7.480   7.719  -9.066  1.00  0.00     0.134 A 
ATOM     69  C   UNL     1       8.585   5.605  -8.885  1.00  0.00     0.134 A 
ATOM     70  F   UNL     1       6.592   8.539  -9.646  1.00  0.00    -0.206 F 
ATOM     71  C   UNL     1       8.278   8.231  -8.041  1.00  0.00     0.040 A 
ATOM     72  C   UNL     1       9.372   6.096  -7.843  1.00  0.00     0.040 A 
ATOM     73  F   UNL     1       8.771   4.334  -9.271  1.00  0.00    -0.206 F 
ATOM     74  C   UNL     1       9.226   7.416  -7.424  1.00  0.00     0.006 A 
ENDBRANCH  46  67
BRANCH  58  75
ATOM     75  C   UNL     1       7.463   7.752 -16.351  1.00  0.00     0.057 A 
ATOM     76  C   UNL     1       8.797   7.566 -16.730  1.00  0.00     0.134 A 
ATOM     77  C   UNL     1       6.788   8.867 -16.866  1.00  0.00     0.134 A 
ATOM     78  F   UNL     1       9.498   6.523 -16.261  1.00  0.00    -0.206 F 
ATOM     79  C   UNL     1       9.438   8.460 -17.589  1.00  0.00     0.040 A 
ATOM     80  C   UNL     1       7.412   9.755 -17.741  1.00  0.00     0.040 A 
ATOM     81  F   UNL     1       5.505   9.093 -16.546  1.00  0.00    -0.206 F 
ATOM     82  C   UNL     1       8.742   9.552 -18.105  1.00  0.00     0.006 A 
ENDBRANCH  58  75
ENDBRANCH  32  33
ENDBRANCH  25  27
ENDBRANCH  24  25
ENDBRANCH  23  24
ENDBRANCH   1  23
TORSDOF 15
