REMARK SMILES Cc1cc(C)cc(C(=O)N2CC[C@H](C(=O)OCCOC(=O)c3ccc(-c4c5nc(c(-c6c(F)cccc6F)c6ccc([nH]6)c(-c6c(F)cccc6F)c6nc(c(-c7c(F)cccc7F)c7ccc4[nH]7)C=C6)C=C5)cc3)[C@@H]2C)c1
REMARK SMILES IDX 17 1 16 2 14 3 15 4 13 5 10 6 11 7 76 8 12 9 77 10 8 11 9 12
REMARK SMILES IDX 7 13 1 14 2 15 3 16 78 17 4 18 5 19 6 20 18 21 19 22 20 23
REMARK SMILES IDX 21 24 22 25 23 26 75 27 24 28 74 29 25 30 26 31 27 32 68 33
REMARK SMILES IDX 28 34 73 35 67 36 69 37 29 38 72 39 66 40 65 41 30 43 56 44
REMARK SMILES IDX 39 45 55 46 40 47 43 48 54 49 70 50 41 51 42 52 53 54 71 55
REMARK SMILES IDX 44 56 31 57 32 58 37 59 33 60 34 61 36 62 38 63 35 64 57 65
REMARK SMILES IDX 58 66 63 67 59 68 60 69 62 70 64 71 61 72 45 73 46 74 51 75
REMARK SMILES IDX 47 76 48 77 50 78 52 79 49 80
REMARK H PARENT 69 42 43 53
REMARK Flexibility Score: inf
ROOT
ATOM      1  C   UNL     1       4.722  -7.174   2.628  1.00  0.00     0.274 C 
ENDROOT
BRANCH   1   2
ATOM      2  O   UNL     1       4.433  -5.833   2.169  1.00  0.00    -0.462 OA
BRANCH   2   3
ATOM      3  C   UNL     1       4.099  -5.723   0.852  1.00  0.00     0.311 C 
ATOM      4  O   UNL     1       3.992  -6.671   0.084  1.00  0.00    -0.252 OA
BRANCH   3   5
ATOM      5  C   UNL     1       4.001  -4.266   0.426  1.00  0.00     0.123 C 
ATOM      6  N   UNL     1       1.843  -3.557  -0.309  1.00  0.00    -0.335 N 
ATOM      7  C   UNL     1       2.449  -4.293  -1.399  1.00  0.00     0.121 C 
ATOM      8  C   UNL     1       2.747  -3.471   0.852  1.00  0.00     0.096 C 
ATOM      9  C   UNL     1       3.937  -4.181  -1.110  1.00  0.00     0.039 C 
ATOM     10  C   UNL     1       2.080  -3.893   2.153  1.00  0.00     0.032 C 
BRANCH   6  11
ATOM     11  C   UNL     1       0.617  -2.950  -0.530  1.00  0.00     0.254 C 
ATOM     12  O   UNL     1      -0.270  -3.512  -1.171  1.00  0.00    -0.269 OA
BRANCH  11  13
ATOM     13  C   UNL     1       0.421  -1.523  -0.151  1.00  0.00     0.040 A 
ATOM     14  C   UNL     1       2.451   1.699  -0.057  1.00  0.00     0.044 C 
ATOM     15  C   UNL     1       1.294   0.747   0.006  1.00  0.00    -0.050 A 
ATOM     16  C   UNL     1      -0.009   1.225   0.177  1.00  0.00     0.006 A 
ATOM     17  C   UNL     1       1.493  -0.623  -0.193  1.00  0.00     0.017 A 
ATOM     18  C   UNL     1      -1.105   0.349   0.165  1.00  0.00    -0.050 A 
ATOM     19  C   UNL     1      -2.498   0.906   0.225  1.00  0.00     0.044 C 
ATOM     20  C   UNL     1      -0.881  -1.027   0.010  1.00  0.00     0.017 A 
ENDBRANCH  11  13
ENDBRANCH   6  11
ENDBRANCH   3   5
ENDBRANCH   2   3
ENDBRANCH   1   2
BRANCH   1  21
ATOM     21  C   UNL     1       3.511  -7.798   3.317  1.00  0.00     0.275 C 
BRANCH  21  22
ATOM     22  O   UNL     1       2.422  -7.861   2.386  1.00  0.00    -0.458 OA
BRANCH  22  23
ATOM     23  C   UNL     1       1.183  -7.724   2.906  1.00  0.00     0.338 C 
ATOM     24  O   UNL     1       0.895  -7.679   4.097  1.00  0.00    -0.246 OA
BRANCH  23  25
ATOM     25  C   UNL     1       0.188  -7.588   1.817  1.00  0.00     0.060 A 
ATOM     26  C   UNL     1       0.547  -7.032   0.588  1.00  0.00     0.016 A 
ATOM     27  C   UNL     1      -1.146  -7.926   2.051  1.00  0.00     0.016 A 
ATOM     28  C   UNL     1      -0.422  -6.747  -0.371  1.00  0.00     0.010 A 
ATOM     29  C   UNL     1      -2.106  -7.715   1.053  1.00  0.00     0.010 A 
ATOM     30  C   UNL     1      -1.759  -7.097  -0.160  1.00  0.00    -0.014 A 
BRANCH  30  31
ATOM     31  C   UNL     1      -2.791  -6.752  -1.175  1.00  0.00     0.031 A 
ATOM     32  C   UNL     1      -3.929  -5.841  -0.806  1.00  0.00     0.074 A 
ATOM     33  C   UNL     1      -2.706  -7.214  -2.438  1.00  0.00     0.049 A 
ATOM     34  N   UNL     1      -5.041  -5.596  -1.453  1.00  0.00    -0.248 NA
ATOM     35  C   UNL     1      -3.809  -5.127   0.474  1.00  0.00     0.031 C 
ATOM     36  C   UNL     1      -1.618  -8.030  -2.976  1.00  0.00     0.029 A 
ATOM     37  N   UNL     1      -3.550  -7.042  -3.509  1.00  0.00    -0.354 N 
ATOM     38  C   UNL     1      -5.780  -4.758  -0.628  1.00  0.00     0.074 A 
ATOM     39  C   UNL     1      -4.990  -4.532   0.564  1.00  0.00     0.031 C 
ATOM     40  C   UNL     1      -1.830  -8.239  -4.285  1.00  0.00     0.029 A 
ATOM     41  C   UNL     1      -3.113  -7.653  -4.657  1.00  0.00     0.049 A 
ATOM     42  H   UNL     1      -4.389  -6.529  -3.457  1.00  0.00     0.167 HD
ATOM     43  C   UNL     1      -7.009  -4.232  -0.846  1.00  0.00     0.037 A 
ATOM     44  C   UNL     1      -3.695  -7.763  -5.867  1.00  0.00     0.037 A 
ATOM     45  C   UNL     1      -7.758  -4.389  -2.066  1.00  0.00     0.049 A 
ATOM     46  C   UNL     1      -5.069  -7.197  -6.079  1.00  0.00     0.074 A 
ATOM     47  C   UNL     1      -9.013  -3.897  -2.380  1.00  0.00     0.029 A 
ATOM     48  N   UNL     1      -7.303  -5.067  -3.187  1.00  0.00    -0.354 N 
ATOM     49  N   UNL     1      -5.818  -6.512  -5.251  1.00  0.00    -0.248 NA
ATOM     50  C   UNL     1      -5.693  -7.453  -7.385  1.00  0.00     0.031 C 
ATOM     51  C   UNL     1      -9.326  -4.296  -3.685  1.00  0.00     0.029 A 
ATOM     52  C   UNL     1      -8.254  -5.010  -4.193  1.00  0.00     0.049 A 
ATOM     53  H   UNL     1      -6.433  -5.523  -3.257  1.00  0.00     0.167 HD
ATOM     54  C   UNL     1      -6.999  -6.253  -5.932  1.00  0.00     0.074 A 
ATOM     55  C   UNL     1      -6.860  -6.836  -7.251  1.00  0.00     0.031 C 
ATOM     56  C   UNL     1      -8.103  -5.598  -5.499  1.00  0.00     0.037 A 
BRANCH  43  57
ATOM     57  C   UNL     1      -7.641  -3.473   0.283  1.00  0.00     0.057 A 
ATOM     58  C   UNL     1      -7.229  -2.186   0.645  1.00  0.00     0.134 A 
ATOM     59  C   UNL     1      -8.694  -4.045   1.009  1.00  0.00     0.134 A 
ATOM     60  F   UNL     1      -6.215  -1.589   0.002  1.00  0.00    -0.206 F 
ATOM     61  C   UNL     1      -7.829  -1.502   1.705  1.00  0.00     0.040 A 
ATOM     62  C   UNL     1      -9.316  -3.363   2.055  1.00  0.00     0.040 A 
ATOM     63  F   UNL     1      -9.139  -5.276   0.710  1.00  0.00    -0.206 F 
ATOM     64  C   UNL     1      -8.879  -2.089   2.409  1.00  0.00     0.006 A 
ENDBRANCH  43  57
BRANCH  44  65
ATOM     65  C   UNL     1      -2.990  -8.473  -6.962  1.00  0.00     0.057 A 
ATOM     66  C   UNL     1      -2.480  -7.772  -8.060  1.00  0.00     0.134 A 
ATOM     67  C   UNL     1      -2.795  -9.859  -6.932  1.00  0.00     0.134 A 
ATOM     68  F   UNL     1      -2.660  -6.447  -8.159  1.00  0.00    -0.206 F 
ATOM     69  C   UNL     1      -1.798  -8.424  -9.089  1.00  0.00     0.040 A 
ATOM     70  C   UNL     1      -2.095 -10.520  -7.941  1.00  0.00     0.040 A 
ATOM     71  F   UNL     1      -3.265 -10.587  -5.908  1.00  0.00    -0.206 F 
ATOM     72  C   UNL     1      -1.596  -9.802  -9.025  1.00  0.00     0.006 A 
ENDBRANCH  44  65
BRANCH  56  73
ATOM     73  C   UNL     1      -9.238  -5.465  -6.467  1.00  0.00     0.057 A 
ATOM     74  C   UNL     1     -10.086  -6.541  -6.755  1.00  0.00     0.134 A 
ATOM     75  C   UNL     1      -9.500  -4.244  -7.100  1.00  0.00     0.134 A 
ATOM     76  F   UNL     1      -9.878  -7.741  -6.192  1.00  0.00    -0.206 F 
ATOM     77  C   UNL     1     -11.146  -6.412  -7.654  1.00  0.00     0.040 A 
ATOM     78  C   UNL     1     -10.568  -4.097  -7.986  1.00  0.00     0.040 A 
ATOM     79  F   UNL     1      -8.726  -3.174  -6.862  1.00  0.00    -0.206 F 
ATOM     80  C   UNL     1     -11.392  -5.185  -8.269  1.00  0.00     0.006 A 
ENDBRANCH  56  73
ENDBRANCH  30  31
ENDBRANCH  23  25
ENDBRANCH  22  23
ENDBRANCH  21  22
ENDBRANCH   1  21
TORSDOF 13
