REMARK SMILES [NH3+][C@H](CC[S@@](=O)[O-])C(=O)OCCOC(=O)c1ccc(-c2c3nc(c(-c4c(F)cccc4F)c4ccc([nH]4)c(-c4c(F)cccc4F)c4nc(c(-c5c(F)cccc5F)c5ccc2[nH]5)C=C4)C=C3)cc1
REMARK SMILES IDX 11 1 10 2 8 3 9 4 2 5 1 6 3 10 4 11 5 12 6 13 7 14 12 15
REMARK SMILES IDX 13 16 14 17 15 18 16 19 17 20 69 21 18 22 68 23 19 24 20 25
REMARK SMILES IDX 21 26 62 27 22 28 67 29 61 30 63 31 23 32 66 33 60 34 59 35
REMARK SMILES IDX 24 37 50 38 33 39 49 40 34 41 37 42 48 43 64 44 35 45 36 46
REMARK SMILES IDX 47 48 65 49 38 50 25 51 26 52 31 53 27 54 28 55 30 56 32 57
REMARK SMILES IDX 29 58 51 59 52 60 57 61 53 62 54 63 56 64 58 65 55 66 39 67
REMARK SMILES IDX 40 68 45 69 41 70 42 71 44 72 46 73 43 74
REMARK H PARENT 1 7 1 8 1 9 63 36 37 47
REMARK Flexibility Score: inf
ROOT
ATOM      1  C   UNL     1      -2.946  -0.708  -1.073  1.00  0.00     0.274 C 
ENDROOT
BRANCH   1   2
ATOM      2  O   UNL     1      -1.524  -0.790  -0.859  1.00  0.00    -0.458 OA
BRANCH   2   3
ATOM      3  C   UNL     1      -0.723  -0.275  -1.830  1.00  0.00     0.364 C 
ATOM      4  O   UNL     1      -1.142   0.200  -2.881  1.00  0.00    -0.245 OA
BRANCH   3   5
ATOM      5  C   UNL     1       0.775  -0.277  -1.428  1.00  0.00     0.292 C 
BRANCH   5   6
ATOM      6  N   UNL     1       1.615  -0.684  -2.569  1.00  0.00    -0.346 N 
ATOM      7  H   UNL     1       1.311  -0.190  -3.408  1.00  0.00     0.345 HD
ATOM      8  H   UNL     1       1.526  -1.689  -2.715  1.00  0.00     0.345 HD
ATOM      9  H   UNL     1       2.589  -0.453  -2.373  1.00  0.00     0.345 HD
ENDBRANCH   5   6
BRANCH   5  10
ATOM     10  C   UNL     1       1.147  -0.963  -0.104  1.00  0.00     0.090 C 
BRANCH  10  11
ATOM     11  C   UNL     1       0.835  -2.445   0.071  1.00  0.00     0.096 C 
BRANCH  11  12
ATOM     12  S   UNL     1       1.949  -3.543  -0.857  1.00  0.00    -0.055 S 
ATOM     13  O   UNL     1       1.735  -4.938  -0.359  1.00  0.00    -0.275 OA
ATOM     14  O   UNL     1       1.079  -3.466  -2.204  1.00  0.00    -0.772 OA
ENDBRANCH  11  12
ENDBRANCH  10  11
ENDBRANCH   5  10
ENDBRANCH   3   5
ENDBRANCH   2   3
ENDBRANCH   1   2
BRANCH   1  15
ATOM     15  C   UNL     1      -3.580   0.297  -0.108  1.00  0.00     0.275 C 
BRANCH  15  16
ATOM     16  O   UNL     1      -3.195   1.648  -0.422  1.00  0.00    -0.458 OA
BRANCH  16  17
ATOM     17  C   UNL     1      -2.046   2.061   0.157  1.00  0.00     0.338 C 
ATOM     18  O   UNL     1      -1.332   1.439   0.925  1.00  0.00    -0.246 OA
BRANCH  17  19
ATOM     19  C   UNL     1      -1.674   3.381  -0.365  1.00  0.00     0.060 A 
ATOM     20  C   UNL     1      -0.521   3.474  -1.145  1.00  0.00     0.016 A 
ATOM     21  C   UNL     1      -2.379   4.525   0.008  1.00  0.00     0.016 A 
ATOM     22  C   UNL     1      -0.031   4.719  -1.518  1.00  0.00     0.010 A 
ATOM     23  C   UNL     1      -1.901   5.776  -0.391  1.00  0.00     0.010 A 
ATOM     24  C   UNL     1      -0.711   5.880  -1.134  1.00  0.00    -0.014 A 
BRANCH  24  25
ATOM     25  C   UNL     1      -0.140   7.205  -1.465  1.00  0.00     0.031 A 
ATOM     26  C   UNL     1       0.454   8.051  -0.378  1.00  0.00     0.074 A 
ATOM     27  C   UNL     1      -0.130   7.630  -2.740  1.00  0.00     0.049 A 
ATOM     28  N   UNL     1       0.887   9.284  -0.434  1.00  0.00    -0.248 NA
ATOM     29  C   UNL     1       0.574   7.428   0.950  1.00  0.00     0.031 C 
ATOM     30  C   UNL     1      -0.622   6.869  -3.889  1.00  0.00     0.029 A 
ATOM     31  N   UNL     1       0.311   8.810  -3.281  1.00  0.00    -0.354 N 
ATOM     32  C   UNL     1       1.297   9.597   0.855  1.00  0.00     0.074 A 
ATOM     33  C   UNL     1       1.061   8.426   1.673  1.00  0.00     0.031 C 
ATOM     34  C   UNL     1      -0.450   7.601  -5.002  1.00  0.00     0.029 A 
ATOM     35  C   UNL     1       0.112   8.897  -4.636  1.00  0.00     0.049 A 
ATOM     36  H   UNL     1       0.730   9.525  -2.749  1.00  0.00     0.167 HD
ATOM     37  C   UNL     1       1.818  10.760   1.312  1.00  0.00     0.037 A 
ATOM     38  C   UNL     1       0.327   9.922  -5.481  1.00  0.00     0.037 A 
ATOM     39  C   UNL     1       2.077  11.911   0.489  1.00  0.00     0.049 A 
ATOM     40  C   UNL     1       0.871  11.214  -4.944  1.00  0.00     0.074 A 
ATOM     41  C   UNL     1       2.600  13.138   0.856  1.00  0.00     0.029 A 
ATOM     42  N   UNL     1       1.840  11.968  -0.877  1.00  0.00    -0.354 N 
ATOM     43  N   UNL     1       1.208  11.519  -3.715  1.00  0.00    -0.248 NA
ATOM     44  C   UNL     1       1.049  12.309  -5.908  1.00  0.00     0.031 C 
ATOM     45  C   UNL     1       2.658  13.947  -0.284  1.00  0.00     0.029 A 
ATOM     46  C   UNL     1       2.198  13.213  -1.366  1.00  0.00     0.049 A 
ATOM     47  H   UNL     1       1.472  11.233  -1.418  1.00  0.00     0.167 HD
ATOM     48  C   UNL     1       1.647  12.835  -3.757  1.00  0.00     0.074 A 
ATOM     49  C   UNL     1       1.546  13.266  -5.136  1.00  0.00     0.031 C 
ATOM     50  C   UNL     1       2.090  13.618  -2.743  1.00  0.00     0.037 A 
BRANCH  37  51
ATOM     51  C   UNL     1       2.106  10.851   2.780  1.00  0.00     0.057 A 
ATOM     52  C   UNL     1       3.219  10.228   3.357  1.00  0.00     0.134 A 
ATOM     53  C   UNL     1       1.264  11.586   3.623  1.00  0.00     0.134 A 
ATOM     54  F   UNL     1       4.053   9.494   2.605  1.00  0.00    -0.206 F 
ATOM     55  C   UNL     1       3.474  10.318   4.726  1.00  0.00     0.040 A 
ATOM     56  C   UNL     1       1.519  11.699   4.990  1.00  0.00     0.040 A 
ATOM     57  F   UNL     1       0.181  12.206   3.131  1.00  0.00    -0.206 F 
ATOM     58  C   UNL     1       2.625  11.059   5.546  1.00  0.00     0.006 A 
ENDBRANCH  37  51
BRANCH  38  59
ATOM     59  C   UNL     1      -0.006   9.771  -6.917  1.00  0.00     0.057 A 
ATOM     60  C   UNL     1       0.998   9.656  -7.884  1.00  0.00     0.134 A 
ATOM     61  C   UNL     1      -1.336   9.721  -7.353  1.00  0.00     0.134 A 
ATOM     62  F   UNL     1       2.289   9.718  -7.526  1.00  0.00    -0.206 F 
ATOM     63  C   UNL     1       0.692   9.501  -9.236  1.00  0.00     0.040 A 
ATOM     64  C   UNL     1      -1.656   9.546  -8.700  1.00  0.00     0.040 A 
ATOM     65  F   UNL     1      -2.341   9.825  -6.472  1.00  0.00    -0.206 F 
ATOM     66  C   UNL     1      -0.639   9.439  -9.646  1.00  0.00     0.006 A 
ENDBRANCH  38  59
BRANCH  50  67
ATOM     67  C   UNL     1       2.516  15.008  -3.098  1.00  0.00     0.057 A 
ATOM     68  C   UNL     1       1.580  16.023  -3.332  1.00  0.00     0.134 A 
ATOM     69  C   UNL     1       3.873  15.342  -3.172  1.00  0.00     0.134 A 
ATOM     70  F   UNL     1       0.266  15.759  -3.288  1.00  0.00    -0.206 F 
ATOM     71  C   UNL     1       1.982  17.323  -3.642  1.00  0.00     0.040 A 
ATOM     72  C   UNL     1       4.287  16.642  -3.466  1.00  0.00     0.040 A 
ATOM     73  F   UNL     1       4.816  14.413  -2.954  1.00  0.00    -0.206 F 
ATOM     74  C   UNL     1       3.339  17.635  -3.705  1.00  0.00     0.006 A 
ENDBRANCH  50  67
ENDBRANCH  24  25
ENDBRANCH  17  19
ENDBRANCH  16  17
ENDBRANCH  15  16
ENDBRANCH   1  15
TORSDOF 15
