REMARK SMILES Cc1cc2nc(NC3=[NH+][C@H](CC(=O)OCCOC(=O)c4ccc(-c5c6nc(c(-c7c(F)cccc7F)c7ccc([nH]7)c(-c7c(F)cccc7F)c7nc(c(-c8c(F)cccc8F)c8ccc5[nH]8)C=C7)C=C6)cc4)C(=O)N3)nc(C)c2cc1C
REMARK SMILES IDX 15 1 14 2 12 3 13 4 11 5 10 6 7 7 8 8 9 10 76 11 74 13 75 15
REMARK SMILES IDX 6 16 1 17 2 18 3 19 82 20 4 21 81 22 83 23 5 24 80 25 78 26
REMARK SMILES IDX 77 27 79 28 16 29 17 30 18 31 19 32 20 33 21 34 73 35 22 36
REMARK SMILES IDX 72 37 23 38 24 39 25 40 66 41 26 42 71 43 65 44 67 45 27 46
REMARK SMILES IDX 70 47 64 48 63 49 28 51 54 52 37 53 53 54 38 55 41 56 52 57
REMARK SMILES IDX 68 58 39 59 40 60 51 62 69 63 42 64 29 65 30 66 35 67 31 68
REMARK SMILES IDX 32 69 34 70 36 71 33 72 55 73 56 74 61 75 57 76 58 77 60 78
REMARK SMILES IDX 62 79 59 80 43 81 44 82 49 83 45 84 46 85 48 86 50 87 47 88
REMARK H PARENT 7 9 9 12 76 14 67 50 41 61
REMARK Flexibility Score: inf
ROOT
ATOM      1  C   UNL     1       1.986  -0.600   5.285  1.00  0.00     0.274 C 
ENDROOT
BRANCH   1   2
ATOM      2  O   UNL     1       0.724   0.021   5.580  1.00  0.00    -0.462 OA
BRANCH   2   3
ATOM      3  C   UNL     1      -0.309  -0.774   5.950  1.00  0.00     0.310 C 
ATOM      4  O   UNL     1      -0.267  -1.999   5.986  1.00  0.00    -0.252 OA
BRANCH   3   5
ATOM      5  C   UNL     1      -1.567   0.004   6.245  1.00  0.00     0.175 C 
BRANCH   5   6
ATOM      6  C   UNL     1      -1.333   1.245   7.094  1.00  0.00     0.262 C 
ATOM      7  N   UNL     1      -1.509   4.305   5.311  1.00  0.00    -0.212 N 
ATOM      8  C   UNL     1      -1.614   3.239   6.136  1.00  0.00     0.358 C 
ATOM      9  H   UNL     1      -1.860   5.175   5.611  1.00  0.00     0.270 HD
ATOM     10  N   UNL     1      -0.738   2.294   6.245  1.00  0.00    -0.263 N 
ATOM     11  N   UNL     1      -2.696   3.085   6.923  1.00  0.00    -0.211 N 
ATOM     12  H   UNL     1       0.158   2.278   5.837  1.00  0.00     0.261 HD
ATOM     13  C   UNL     1      -2.638   1.871   7.530  1.00  0.00     0.320 C 
ATOM     14  H   UNL     1      -3.415   3.747   7.040  1.00  0.00     0.270 HD
ATOM     15  O   UNL     1      -3.502   1.375   8.233  1.00  0.00    -0.252 OA
BRANCH   7  16
ATOM     16  C   UNL     1      -0.920   4.215   4.054  1.00  0.00     0.291 A 
ATOM     17  C   UNL     1       0.949   0.048   0.067  1.00  0.00     0.044 C 
ATOM     18  C   UNL     1       0.675   1.452   0.532  1.00  0.00    -0.046 A 
ATOM     19  C   UNL     1       0.116   1.653   1.804  1.00  0.00     0.033 A 
ATOM     20  C   UNL     1       0.984   2.572  -0.254  1.00  0.00    -0.047 A 
ATOM     21  C   UNL     1      -0.147   2.918   2.311  1.00  0.00     0.078 A 
ATOM     22  C   UNL     1       0.723   3.854   0.257  1.00  0.00     0.016 A 
ATOM     23  C   UNL     1       1.596   2.425  -1.620  1.00  0.00     0.044 C 
ATOM     24  N   UNL     1      -0.683   3.008   3.523  1.00  0.00    -0.198 NA
ATOM     25  C   UNL     1       0.156   4.037   1.544  1.00  0.00     0.022 A 
ATOM     26  C   UNL     1      -0.148   5.262   2.159  1.00  0.00     0.052 A 
ATOM     27  N   UNL     1      -0.703   5.357   3.393  1.00  0.00    -0.203 NA
ATOM     28  C   UNL     1       0.130   6.571   1.477  1.00  0.00     0.067 C 
ENDBRANCH   7  16
ENDBRANCH   5   6
ENDBRANCH   3   5
ENDBRANCH   2   3
ENDBRANCH   1   2
BRANCH   1  29
ATOM     29  C   UNL     1       2.911  -0.572   6.502  1.00  0.00     0.275 C 
BRANCH  29  30
ATOM     30  O   UNL     1       2.472  -1.514   7.497  1.00  0.00    -0.458 OA
BRANCH  30  31
ATOM     31  C   UNL     1       1.698  -1.005   8.484  1.00  0.00     0.338 C 
ATOM     32  O   UNL     1       1.414   0.162   8.683  1.00  0.00    -0.246 OA
BRANCH  31  33
ATOM     33  C   UNL     1       1.116  -2.115   9.254  1.00  0.00     0.060 A 
ATOM     34  C   UNL     1       1.941  -3.079   9.833  1.00  0.00     0.016 A 
ATOM     35  C   UNL     1      -0.273  -2.167   9.419  1.00  0.00     0.016 A 
ATOM     36  C   UNL     1       1.365  -4.114  10.567  1.00  0.00     0.010 A 
ATOM     37  C   UNL     1      -0.847  -3.201  10.158  1.00  0.00     0.010 A 
ATOM     38  C   UNL     1      -0.031  -4.184  10.730  1.00  0.00    -0.014 A 
BRANCH  38  39
ATOM     39  C   UNL     1      -0.606  -5.279  11.542  1.00  0.00     0.031 A 
ATOM     40  C   UNL     1      -1.258  -6.457  10.888  1.00  0.00     0.074 A 
ATOM     41  C   UNL     1      -0.483  -5.228  12.880  1.00  0.00     0.049 A 
ATOM     42  N   UNL     1      -1.607  -7.601  11.421  1.00  0.00    -0.248 NA
ATOM     43  C   UNL     1      -1.562  -6.339   9.455  1.00  0.00     0.031 C 
ATOM     44  C   UNL     1       0.090  -4.106  13.625  1.00  0.00     0.029 A 
ATOM     45  N   UNL     1      -0.796  -6.151  13.844  1.00  0.00    -0.354 N 
ATOM     46  C   UNL     1      -2.139  -8.352  10.383  1.00  0.00     0.074 A 
ATOM     47  C   UNL     1      -2.132  -7.510   9.205  1.00  0.00     0.031 C 
ATOM     48  C   UNL     1       0.142  -4.431  14.926  1.00  0.00     0.029 A 
ATOM     49  C   UNL     1      -0.399  -5.776  15.104  1.00  0.00     0.049 A 
ATOM     50  H   UNL     1      -1.260  -6.997  13.652  1.00  0.00     0.167 HD
ATOM     51  C   UNL     1      -2.561  -9.638  10.406  1.00  0.00     0.037 A 
ATOM     52  C   UNL     1      -0.434  -6.456  16.265  1.00  0.00     0.037 A 
ATOM     53  C   UNL     1      -2.582 -10.460  11.588  1.00  0.00     0.049 A 
ATOM     54  C   UNL     1      -0.953  -7.865  16.279  1.00  0.00     0.074 A 
ATOM     55  C   UNL     1      -2.941 -11.791  11.707  1.00  0.00     0.029 A 
ATOM     56  N   UNL     1      -2.247 -10.020  12.861  1.00  0.00    -0.354 N 
ATOM     57  N   UNL     1      -1.351  -8.607  15.274  1.00  0.00    -0.248 NA
ATOM     58  C   UNL     1      -1.026  -8.532  17.586  1.00  0.00     0.031 C 
ATOM     59  C   UNL     1      -2.871 -12.142  13.060  1.00  0.00     0.029 A 
ATOM     60  C   UNL     1      -2.430 -11.041  13.778  1.00  0.00     0.049 A 
ATOM     61  H   UNL     1      -1.927  -9.115  13.079  1.00  0.00     0.167 HD
ATOM     62  C   UNL     1      -1.714  -9.829  15.822  1.00  0.00     0.074 A 
ATOM     63  C   UNL     1      -1.473  -9.735  17.248  1.00  0.00     0.031 C 
ATOM     64  C   UNL     1      -2.204 -10.927  15.197  1.00  0.00     0.037 A 
BRANCH  51  65
ATOM     65  C   UNL     1      -3.017 -10.236   9.109  1.00  0.00     0.057 A 
ATOM     66  C   UNL     1      -2.107 -10.536   8.085  1.00  0.00     0.134 A 
ATOM     67  C   UNL     1      -4.363 -10.546   8.888  1.00  0.00     0.134 A 
ATOM     68  F   UNL     1      -0.802 -10.260   8.232  1.00  0.00    -0.206 F 
ATOM     69  C   UNL     1      -2.526 -11.096   6.877  1.00  0.00     0.040 A 
ATOM     70  C   UNL     1      -4.790 -11.129   7.693  1.00  0.00     0.040 A 
ATOM     71  F   UNL     1      -5.285 -10.295   9.830  1.00  0.00    -0.206 F 
ATOM     72  C   UNL     1      -3.871 -11.399   6.681  1.00  0.00     0.006 A 
ENDBRANCH  51  65
BRANCH  52  73
ATOM     73  C   UNL     1       0.112  -5.824  17.489  1.00  0.00     0.057 A 
ATOM     74  C   UNL     1       1.346  -6.224  18.012  1.00  0.00     0.134 A 
ATOM     75  C   UNL     1      -0.550  -4.767  18.125  1.00  0.00     0.134 A 
ATOM     76  F   UNL     1       2.021  -7.238  17.451  1.00  0.00    -0.206 F 
ATOM     77  C   UNL     1       1.906  -5.592  19.123  1.00  0.00     0.040 A 
ATOM     78  C   UNL     1       0.007  -4.115  19.226  1.00  0.00     0.040 A 
ATOM     79  F   UNL     1      -1.733  -4.334  17.664  1.00  0.00    -0.206 F 
ATOM     80  C   UNL     1       1.240  -4.528  19.727  1.00  0.00     0.006 A 
ENDBRANCH  52  73
BRANCH  64  81
ATOM     81  C   UNL     1      -2.541 -12.116  16.047  1.00  0.00     0.057 A 
ATOM     82  C   UNL     1      -3.696 -12.140  16.837  1.00  0.00     0.134 A 
ATOM     83  C   UNL     1      -1.759 -13.277  16.003  1.00  0.00     0.134 A 
ATOM     84  F   UNL     1      -4.480 -11.055  16.930  1.00  0.00    -0.206 F 
ATOM     85  C   UNL     1      -4.064 -13.280  17.555  1.00  0.00     0.040 A 
ATOM     86  C   UNL     1      -2.128 -14.429  16.700  1.00  0.00     0.040 A 
ATOM     87  F   UNL     1      -0.644 -13.321  15.259  1.00  0.00    -0.206 F 
ATOM     88  C   UNL     1      -3.284 -14.432  17.477  1.00  0.00     0.006 A 
ENDBRANCH  64  81
ENDBRANCH  38  39
ENDBRANCH  31  33
ENDBRANCH  30  31
ENDBRANCH  29  30
ENDBRANCH   1  29
TORSDOF 13
