REMARK SMILES Cc1cscc1CNC(=O)N[C@@H](C)c1nc(C(=O)OCCOC(=O)c2ccc(-c3c4nc(c(-c5c(F)cccc5F)c5ccc([nH]5)c(-c5c(F)cccc5F)c5nc(c(-c6c(F)cccc6F)c6ccc3[nH]6)C=C5)C=C4)cc2)cs1
REMARK SMILES IDX 20 1 19 2 17 3 18 4 16 5 14 6 15 7 80 8 79 9 12 10 13 11
REMARK SMILES IDX 11 12 8 13 9 14 10 16 7 18 6 19 1 20 2 21 3 22 4 23 5 24
REMARK SMILES IDX 21 25 22 26 23 27 24 28 25 29 26 30 78 31 27 32 77 33 28 34
REMARK SMILES IDX 29 35 30 36 71 37 31 38 76 39 70 40 72 41 32 42 75 43 69 44
REMARK SMILES IDX 68 45 33 47 59 48 42 49 58 50 43 51 46 52 57 53 73 54 44 55
REMARK SMILES IDX 45 56 56 58 74 59 47 60 34 61 35 62 40 63 36 64 37 65 39 66
REMARK SMILES IDX 41 67 38 68 60 69 61 70 66 71 62 72 63 73 65 74 67 75 64 76
REMARK SMILES IDX 48 77 49 78 54 79 50 80 51 81 53 82 55 83 52 84
REMARK H PARENT 8 15 11 17 72 46 46 57
REMARK Flexibility Score: inf
ROOT
ATOM      1  C   UNL     1      -4.242   7.889   4.483  1.00  0.00     0.275 C 
ENDROOT
BRANCH   1   2
ATOM      2  O   UNL     1      -3.224   7.079   3.863  1.00  0.00    -0.457 OA
BRANCH   2   3
ATOM      3  C   UNL     1      -2.889   5.936   4.528  1.00  0.00     0.357 C 
ATOM      4  O   UNL     1      -3.380   5.600   5.604  1.00  0.00    -0.244 OA
BRANCH   3   5
ATOM      5  C   UNL     1      -1.924   5.086   3.819  1.00  0.00     0.159 A 
ATOM      6  C   UNL     1      -0.262   4.557   2.435  1.00  0.00     0.116 A 
ATOM      7  N   UNL     1      -1.050   5.543   2.830  1.00  0.00    -0.232 NA
ATOM      8  S   UNL     1      -0.621   3.010   3.096  1.00  0.00    -0.124 S 
ATOM      9  C   UNL     1      -1.770   3.741   4.117  1.00  0.00     0.102 A 
BRANCH   6  10
ATOM     10  C   UNL     1       0.967   4.703   1.573  1.00  0.00     0.140 C 
ATOM     11  C   UNL     1       1.928   5.701   2.218  1.00  0.00     0.039 C 
BRANCH  10  12
ATOM     12  N   UNL     1       0.584   5.145   0.246  1.00  0.00    -0.329 N 
ATOM     13  N   UNL     1       1.024   3.393  -1.288  1.00  0.00    -0.334 N 
ATOM     14  C   UNL     1       0.565   4.602  -0.968  1.00  0.00     0.315 C 
ATOM     15  H   UNL     1       0.845   3.182  -2.233  1.00  0.00     0.165 HD
ATOM     16  O   UNL     1       0.079   5.274  -1.883  1.00  0.00    -0.249 OA
ATOM     17  H   UNL     1       0.258   6.074   0.243  1.00  0.00     0.166 HD
BRANCH  13  18
ATOM     18  C   UNL     1       1.712   2.307  -0.628  1.00  0.00     0.154 C 
BRANCH  18  19
ATOM     19  C   UNL     1       0.786   1.147  -0.377  1.00  0.00    -0.015 A 
ATOM     20  C   UNL     1       2.676  -0.627  -0.044  1.00  0.00     0.045 C 
ATOM     21  C   UNL     1       1.243  -0.208  -0.125  1.00  0.00    -0.035 A 
ATOM     22  C   UNL     1       0.182  -1.082   0.029  1.00  0.00     0.068 A 
ATOM     23  S   UNL     1      -1.333  -0.313  -0.086  1.00  0.00    -0.152 S 
ATOM     24  C   UNL     1      -0.599   1.203  -0.357  1.00  0.00     0.070 A 
ENDBRANCH  18  19
ENDBRANCH  13  18
ENDBRANCH  10  12
ENDBRANCH   6  10
ENDBRANCH   3   5
ENDBRANCH   2   3
ENDBRANCH   1   2
BRANCH   1  25
ATOM     25  C   UNL     1      -5.634   7.614   3.902  1.00  0.00     0.275 C 
BRANCH  25  26
ATOM     26  O   UNL     1      -6.124   6.311   4.283  1.00  0.00    -0.458 OA
BRANCH  26  27
ATOM     27  C   UNL     1      -6.014   5.361   3.328  1.00  0.00     0.338 C 
ATOM     28  O   UNL     1      -5.562   5.491   2.203  1.00  0.00    -0.246 OA
BRANCH  27  29
ATOM     29  C   UNL     1      -6.392   4.044   3.861  1.00  0.00     0.060 A 
ATOM     30  C   UNL     1      -5.360   3.215   4.287  1.00  0.00     0.016 A 
ATOM     31  C   UNL     1      -7.688   3.547   3.759  1.00  0.00     0.016 A 
ATOM     32  C   UNL     1      -5.586   1.870   4.548  1.00  0.00     0.010 A 
ATOM     33  C   UNL     1      -7.932   2.204   4.086  1.00  0.00     0.010 A 
ATOM     34  C   UNL     1      -6.877   1.343   4.450  1.00  0.00    -0.014 A 
BRANCH  34  35
ATOM     35  C   UNL     1      -7.091  -0.118   4.652  1.00  0.00     0.031 A 
ATOM     36  C   UNL     1      -7.627  -0.963   3.526  1.00  0.00     0.074 A 
ATOM     37  C   UNL     1      -6.764  -0.703   5.821  1.00  0.00     0.049 A 
ATOM     38  N   UNL     1      -8.026  -2.210   3.541  1.00  0.00    -0.248 NA
ATOM     39  C   UNL     1      -7.740  -0.314   2.210  1.00  0.00     0.031 C 
ATOM     40  C   UNL     1      -6.170  -0.023   6.974  1.00  0.00     0.029 A 
ATOM     41  N   UNL     1      -6.880  -2.009   6.233  1.00  0.00    -0.354 N 
ATOM     42  C   UNL     1      -8.485  -2.477   2.256  1.00  0.00     0.074 A 
ATOM     43  C   UNL     1      -8.325  -1.260   1.490  1.00  0.00     0.031 C 
ATOM     44  C   UNL     1      -5.952  -0.918   7.950  1.00  0.00     0.029 A 
ATOM     45  C   UNL     1      -6.468  -2.215   7.528  1.00  0.00     0.049 A 
ATOM     46  H   UNL     1      -7.225  -2.728   5.656  1.00  0.00     0.167 HD
ATOM     47  C   UNL     1      -8.991  -3.633   1.761  1.00  0.00     0.037 A 
ATOM     48  C   UNL     1      -6.540  -3.311   8.308  1.00  0.00     0.037 A 
ATOM     49  C   UNL     1      -9.099  -4.857   2.513  1.00  0.00     0.049 A 
ATOM     50  C   UNL     1      -7.156  -4.565   7.754  1.00  0.00     0.074 A 
ATOM     51  C   UNL     1      -9.585  -6.085   2.098  1.00  0.00     0.029 A 
ATOM     52  N   UNL     1      -8.703  -5.011   3.834  1.00  0.00    -0.354 N 
ATOM     53  N   UNL     1      -7.631  -4.793   6.554  1.00  0.00    -0.248 NA
ATOM     54  C   UNL     1      -7.261  -5.710   8.669  1.00  0.00     0.031 C 
ATOM     55  C   UNL     1      -9.526  -6.969   3.180  1.00  0.00     0.029 A 
ATOM     56  C   UNL     1      -8.951  -6.308   4.254  1.00  0.00     0.049 A 
ATOM     57  H   UNL     1      -8.304  -4.303   4.390  1.00  0.00     0.167 HD
ATOM     58  C   UNL     1      -8.068  -6.112   6.562  1.00  0.00     0.074 A 
ATOM     59  C   UNL     1      -7.786  -6.638   7.881  1.00  0.00     0.031 C 
ATOM     60  C   UNL     1      -8.653  -6.821   5.566  1.00  0.00     0.037 A 
BRANCH  47  61
ATOM     61  C   UNL     1      -9.503  -3.620   0.349  1.00  0.00     0.057 A 
ATOM     62  C   UNL     1      -8.649  -3.538  -0.758  1.00  0.00     0.134 A 
ATOM     63  C   UNL     1     -10.878  -3.722   0.095  1.00  0.00     0.134 A 
ATOM     64  F   UNL     1      -7.323  -3.427  -0.587  1.00  0.00    -0.206 F 
ATOM     65  C   UNL     1      -9.145  -3.530  -2.064  1.00  0.00     0.040 A 
ATOM     66  C   UNL     1     -11.383  -3.745  -1.206  1.00  0.00     0.040 A 
ATOM     67  F   UNL     1     -11.753  -3.813   1.108  1.00  0.00    -0.206 F 
ATOM     68  C   UNL     1     -10.516  -3.641  -2.291  1.00  0.00     0.006 A 
ENDBRANCH  47  61
BRANCH  48  69
ATOM     69  C   UNL     1      -6.058  -3.259   9.713  1.00  0.00     0.057 A 
ATOM     70  C   UNL     1      -4.944  -3.998  10.126  1.00  0.00     0.134 A 
ATOM     71  C   UNL     1      -6.707  -2.479  10.678  1.00  0.00     0.134 A 
ATOM     72  F   UNL     1      -4.294  -4.784   9.256  1.00  0.00    -0.206 F 
ATOM     73  C   UNL     1      -4.502  -3.976  11.451  1.00  0.00     0.040 A 
ATOM     74  C   UNL     1      -6.258  -2.422  11.998  1.00  0.00     0.040 A 
ATOM     75  F   UNL     1      -7.780  -1.745  10.348  1.00  0.00    -0.206 F 
ATOM     76  C   UNL     1      -5.156  -3.180  12.389  1.00  0.00     0.006 A 
ENDBRANCH  48  69
BRANCH  60  77
ATOM     77  C   UNL     1      -8.982  -8.258   5.851  1.00  0.00     0.057 A 
ATOM     78  C   UNL     1     -10.030  -8.625   6.704  1.00  0.00     0.134 A 
ATOM     79  C   UNL     1      -8.257  -9.287   5.236  1.00  0.00     0.134 A 
ATOM     80  F   UNL     1     -10.753  -7.688   7.335  1.00  0.00    -0.206 F 
ATOM     81  C   UNL     1     -10.330  -9.965   6.955  1.00  0.00     0.040 A 
ATOM     82  C   UNL     1      -8.565 -10.630   5.457  1.00  0.00     0.040 A 
ATOM     83  F   UNL     1      -7.245  -9.004   4.402  1.00  0.00    -0.206 F 
ATOM     84  C   UNL     1      -9.601 -10.972   6.324  1.00  0.00     0.006 A 
ENDBRANCH  60  77
ENDBRANCH  34  35
ENDBRANCH  27  29
ENDBRANCH  26  27
ENDBRANCH  25  26
ENDBRANCH   1  25
TORSDOF 15
