REMARK SMILES O=C(OCCOC(=O)c1ccc(-c2c3nc(c(-c4c(F)cccc4F)c4ccc([nH]4)c(-c4c(F)cccc4F)c4nc(c(-c5c(F)cccc5F)c5ccc2[nH]5)C=C4)C=C3)cc1)c1ccc(/C=C/c2ccnc(-c3cccc([N+](=O)[O-])c3)[n+]2[O-])cc1
REMARK SMILES IDX 4 1 3 2 2 3 1 4 63 5 64 6 86 7 65 8 85 9 66 10 67 11 68 12
REMARK SMILES IDX 69 13 70 14 83 15 71 16 73 17 84 18 72 19 74 20 75 21 82 22
REMARK SMILES IDX 76 23 78 24 77 25 79 26 80 27 81 28 5 29 6 30 7 31 8 32 9 33
REMARK SMILES IDX 10 34 62 35 11 36 61 37 12 38 13 39 14 40 55 41 15 42 60 43
REMARK SMILES IDX 54 44 56 45 16 46 59 47 53 48 52 49 17 51 43 52 26 53 42 54
REMARK SMILES IDX 27 55 30 56 41 57 57 58 28 59 29 60 40 62 58 63 31 64 18 65
REMARK SMILES IDX 19 66 24 67 20 68 21 69 23 70 25 71 22 72 44 73 45 74 50 75
REMARK SMILES IDX 46 76 47 77 49 78 51 79 48 80 32 81 33 82 38 83 34 84 35 85
REMARK SMILES IDX 37 86 39 87 36 88
REMARK H PARENT 56 50 30 61
REMARK Flexibility Score: inf
ROOT
ATOM      1  C   UNL     1       4.168  -1.463   0.166  1.00  0.00     0.275 C 
ENDROOT
BRANCH   1   2
ATOM      2  O   UNL     1       3.083  -0.731   0.759  1.00  0.00    -0.458 OA
BRANCH   2   3
ATOM      3  C   UNL     1       2.983   0.586   1.054  1.00  0.00     0.338 C 
ATOM      4  O   UNL     1       2.093   0.936   1.829  1.00  0.00    -0.246 OA
BRANCH   3   5
ATOM      5  C   UNL     1       3.792   1.669   0.395  1.00  0.00     0.060 A 
ATOM      6  C   UNL     1       4.926   1.505  -0.401  1.00  0.00     0.016 A 
ATOM      7  C   UNL     1       3.319   2.982   0.560  1.00  0.00     0.016 A 
ATOM      8  C   UNL     1       5.465   2.568  -1.133  1.00  0.00     0.009 A 
ATOM      9  C   UNL     1       3.894   4.054  -0.130  1.00  0.00     0.009 A 
ATOM     10  C   UNL     1       4.908   3.841  -1.060  1.00  0.00    -0.025 A 
BRANCH  10  11
ATOM     11  C   UNL     1       5.382   4.955  -1.886  1.00  0.00     0.012 C 
ATOM     12  C   UNL     1       6.016   4.819  -3.064  1.00  0.00     0.053 C 
BRANCH  12  13
ATOM     13  C   UNL     1       6.584   5.937  -3.843  1.00  0.00     0.134 A 
ATOM     14  C   UNL     1       6.647   5.830  -5.236  1.00  0.00     0.100 A 
ATOM     15  N   UNL     1       7.152   7.051  -3.202  1.00  0.00    -0.228 N 
ATOM     16  C   UNL     1       7.242   6.852  -5.941  1.00  0.00     0.259 A 
ATOM     17  C   UNL     1       7.761   8.027  -3.995  1.00  0.00     0.333 A 
ATOM     18  O   UNL     1       7.164   7.152  -1.921  1.00  0.00    -0.710 OA
ATOM     19  N   UNL     1       7.789   7.934  -5.360  1.00  0.00    -0.049 NA
BRANCH  17  20
ATOM     20  C   UNL     1       8.483   9.137  -3.368  1.00  0.00     0.076 A 
ATOM     21  C   UNL     1       8.228  10.470  -3.728  1.00  0.00     0.017 A 
ATOM     22  C   UNL     1       9.449   8.887  -2.375  1.00  0.00     0.102 A 
ATOM     23  C   UNL     1       8.891  11.525  -3.093  1.00  0.00     0.008 A 
ATOM     24  C   UNL     1      10.111   9.943  -1.741  1.00  0.00     0.270 A 
ATOM     25  C   UNL     1       9.832  11.267  -2.095  1.00  0.00     0.085 A 
BRANCH  24  26
ATOM     26  N   UNL     1      11.101   9.652  -0.698  1.00  0.00     0.062 N 
ATOM     27  O   UNL     1      11.620  10.614  -0.114  1.00  0.00    -0.258 OA
ATOM     28  O   UNL     1      11.372   8.464  -0.470  1.00  0.00    -0.258 OA
ENDBRANCH  24  26
ENDBRANCH  17  20
ENDBRANCH  12  13
ENDBRANCH  10  11
ENDBRANCH   3   5
ENDBRANCH   2   3
ENDBRANCH   1   2
BRANCH   1  29
ATOM     29  C   UNL     1       3.982  -1.691  -1.341  1.00  0.00     0.275 C 
BRANCH  29  30
ATOM     30  O   UNL     1       3.632  -0.487  -2.053  1.00  0.00    -0.458 OA
BRANCH  30  31
ATOM     31  C   UNL     1       2.299  -0.302  -2.257  1.00  0.00     0.338 C 
ATOM     32  O   UNL     1       1.417  -1.101  -2.012  1.00  0.00    -0.246 OA
BRANCH  31  33
ATOM     33  C   UNL     1       2.023   1.085  -2.722  1.00  0.00     0.060 A 
ATOM     34  C   UNL     1       0.866   1.711  -2.244  1.00  0.00     0.016 A 
ATOM     35  C   UNL     1       2.855   1.766  -3.615  1.00  0.00     0.016 A 
ATOM     36  C   UNL     1       0.534   3.007  -2.660  1.00  0.00     0.010 A 
ATOM     37  C   UNL     1       2.524   3.069  -4.025  1.00  0.00     0.010 A 
ATOM     38  C   UNL     1       1.355   3.701  -3.559  1.00  0.00    -0.014 A 
BRANCH  38  39
ATOM     39  C   UNL     1       0.986   5.068  -4.030  1.00  0.00     0.031 A 
ATOM     40  C   UNL     1       0.441   5.279  -5.414  1.00  0.00     0.074 A 
ATOM     41  C   UNL     1       1.141   6.144  -3.233  1.00  0.00     0.049 A 
ATOM     42  N   UNL     1       0.092   6.398  -5.999  1.00  0.00    -0.248 NA
ATOM     43  C   UNL     1       0.248   4.079  -6.241  1.00  0.00     0.031 C 
ATOM     44  C   UNL     1       1.595   6.099  -1.851  1.00  0.00     0.029 A 
ATOM     45  N   UNL     1       0.956   7.485  -3.475  1.00  0.00    -0.354 N 
ATOM     46  C   UNL     1      -0.393   6.038  -7.248  1.00  0.00     0.074 A 
ATOM     47  C   UNL     1      -0.238   4.601  -7.359  1.00  0.00     0.031 C 
ATOM     48  C   UNL     1       1.735   7.351  -1.385  1.00  0.00     0.029 A 
ATOM     49  C   UNL     1       1.353   8.291  -2.434  1.00  0.00     0.049 A 
ATOM     50  H   UNL     1       0.576   7.834  -4.313  1.00  0.00     0.167 HD
ATOM     51  C   UNL     1      -0.947   6.825  -8.200  1.00  0.00     0.037 A 
ATOM     52  C   UNL     1       1.411   9.634  -2.331  1.00  0.00     0.037 A 
ATOM     53  C   UNL     1      -1.118   8.252  -8.101  1.00  0.00     0.049 A 
ATOM     54  C   UNL     1       0.906  10.494  -3.456  1.00  0.00     0.074 A 
ATOM     55  C   UNL     1      -1.734   9.107  -9.001  1.00  0.00     0.029 A 
ATOM     56  N   UNL     1      -0.664   9.038  -7.056  1.00  0.00    -0.354 N 
ATOM     57  N   UNL     1       0.376  10.131  -4.597  1.00  0.00    -0.248 NA
ATOM     58  C   UNL     1       0.984  11.952  -3.268  1.00  0.00     0.031 C 
ATOM     59  C   UNL     1      -1.599  10.416  -8.530  1.00  0.00     0.029 A 
ATOM     60  C   UNL     1      -0.939  10.373  -7.314  1.00  0.00     0.049 A 
ATOM     61  H   UNL     1      -0.213   8.700  -6.249  1.00  0.00     0.167 HD
ATOM     62  C   UNL     1       0.020  11.309  -5.241  1.00  0.00     0.074 A 
ATOM     63  C   UNL     1       0.392  12.399  -4.366  1.00  0.00     0.031 C 
ATOM     64  C   UNL     1      -0.571  11.464  -6.450  1.00  0.00     0.037 A 
BRANCH  51  65
ATOM     65  C   UNL     1      -1.424   6.160  -9.454  1.00  0.00     0.057 A 
ATOM     66  C   UNL     1      -2.609   5.414  -9.482  1.00  0.00     0.134 A 
ATOM     67  C   UNL     1      -0.738   6.339 -10.661  1.00  0.00     0.134 A 
ATOM     68  F   UNL     1      -3.306   5.203  -8.355  1.00  0.00    -0.206 F 
ATOM     69  C   UNL     1      -3.091   4.861 -10.668  1.00  0.00     0.040 A 
ATOM     70  C   UNL     1      -1.221   5.808 -11.857  1.00  0.00     0.040 A 
ATOM     71  F   UNL     1       0.399   7.050 -10.699  1.00  0.00    -0.206 F 
ATOM     72  C   UNL     1      -2.401   5.066 -11.862  1.00  0.00     0.006 A 
ENDBRANCH  51  65
BRANCH  52  73
ATOM     73  C   UNL     1       1.984  10.268  -1.118  1.00  0.00     0.057 A 
ATOM     74  C   UNL     1       1.182  10.975  -0.215  1.00  0.00     0.134 A 
ATOM     75  C   UNL     1       3.362  10.237  -0.876  1.00  0.00     0.134 A 
ATOM     76  F   UNL     1      -0.141  11.064  -0.413  1.00  0.00    -0.206 F 
ATOM     77  C   UNL     1       1.734  11.655   0.872  1.00  0.00     0.040 A 
ATOM     78  C   UNL     1       3.925  10.891   0.220  1.00  0.00     0.040 A 
ATOM     79  F   UNL     1       4.181   9.586  -1.716  1.00  0.00    -0.206 F 
ATOM     80  C   UNL     1       3.110  11.613   1.092  1.00  0.00     0.006 A 
ENDBRANCH  52  73
BRANCH  64  81
ATOM     81  C   UNL     1      -0.876  12.864  -6.898  1.00  0.00     0.057 A 
ATOM     82  C   UNL     1       0.136  13.745  -7.301  1.00  0.00     0.134 A 
ATOM     83  C   UNL     1      -2.197  13.326  -6.961  1.00  0.00     0.134 A 
ATOM     84  F   UNL     1       1.423  13.371  -7.250  1.00  0.00    -0.206 F 
ATOM     85  C   UNL     1      -0.154  15.041  -7.733  1.00  0.00     0.040 A 
ATOM     86  C   UNL     1      -2.501  14.611  -7.415  1.00  0.00     0.040 A 
ATOM     87  F   UNL     1      -3.215  12.532  -6.595  1.00  0.00    -0.206 F 
ATOM     88  C   UNL     1      -1.477  15.474  -7.799  1.00  0.00     0.006 A 
ENDBRANCH  64  81
ENDBRANCH  38  39
ENDBRANCH  31  33
ENDBRANCH  30  31
ENDBRANCH  29  30
ENDBRANCH   1  29
TORSDOF 15
