REMARK SMILES Cc1c(Cl)cccc1NC(=O)NCc1cn([C@@H]2C[NH2+][C@H](C(=O)OCCOC(=O)c3ccc(-c4c5nc(c(-c6c(F)cccc6F)c6ccc([nH]6)c(-c6c(F)cccc6F)c6nc(c(-c7c(F)cccc7F)c7ccc4[nH]7)C=C6)C=C5)cc3)C2)nn1
REMARK SMILES IDX 24 1 23 2 21 3 22 4 20 5 17 6 18 7 83 8 19 9 16 12 14 13
REMARK SMILES IDX 15 14 85 15 84 16 13 17 12 18 9 19 10 20 11 22 8 24 1 25
REMARK SMILES IDX 2 26 3 27 4 28 5 29 7 30 6 31 25 32 26 33 27 34 28 35 29 36
REMARK SMILES IDX 30 37 82 38 31 39 81 40 32 41 33 42 34 43 75 44 35 45 80 46
REMARK SMILES IDX 74 47 76 48 36 49 79 50 73 51 72 52 37 54 63 55 46 56 62 57
REMARK SMILES IDX 47 58 50 59 61 60 77 61 48 62 49 63 60 65 78 66 51 67 38 68
REMARK SMILES IDX 39 69 44 70 40 71 41 72 43 73 45 74 42 75 64 76 65 77 70 78
REMARK SMILES IDX 66 79 67 80 69 81 71 82 68 83 52 84 53 85 58 86 54 87 55 88
REMARK SMILES IDX 57 89 59 90 56 91
REMARK H PARENT 19 10 19 11 9 21 12 23 76 53 50 64
REMARK Flexibility Score: inf
ROOT
ATOM      1  C   UNL     1      -2.914  -7.282  -0.181  1.00  0.00     0.274 C 
ENDROOT
BRANCH   1   2
ATOM      2  O   UNL     1      -3.129  -6.527   1.022  1.00  0.00    -0.458 OA
BRANCH   2   3
ATOM      3  C   UNL     1      -4.420  -6.222   1.326  1.00  0.00     0.365 C 
ATOM      4  O   UNL     1      -5.357  -6.336   0.540  1.00  0.00    -0.245 OA
BRANCH   3   5
ATOM      5  C   UNL     1      -4.617  -5.820   2.800  1.00  0.00     0.295 C 
ATOM      6  C   UNL     1      -4.751  -3.499   3.534  1.00  0.00     0.170 C 
ATOM      7  C   UNL     1      -3.305  -3.970   3.413  1.00  0.00     0.289 C 
ATOM      8  C   UNL     1      -5.578  -4.642   2.940  1.00  0.00     0.110 C 
ATOM      9  N   UNL     1      -3.360  -5.427   3.483  1.00  0.00    -0.333 N 
ATOM     10  H   UNL     1      -3.373  -5.735   4.455  1.00  0.00     0.347 HD
ATOM     11  H   UNL     1      -2.546  -5.853   3.041  1.00  0.00     0.347 HD
BRANCH   6  12
ATOM     12  N   UNL     1      -4.956  -2.239   2.862  1.00  0.00    -0.243 N 
ATOM     13  C   UNL     1      -4.918  -0.631   1.423  1.00  0.00     0.102 A 
ATOM     14  C   UNL     1      -4.772  -1.993   1.540  1.00  0.00     0.137 A 
ATOM     15  N   UNL     1      -5.259  -0.114   2.644  1.00  0.00    -0.134 NA
ATOM     16  N   UNL     1      -5.278  -1.115   3.523  1.00  0.00    -0.067 NA
BRANCH  13  17
ATOM     17  C   UNL     1      -4.733   0.125   0.170  1.00  0.00     0.178 C 
BRANCH  17  18
ATOM     18  N   UNL     1      -4.445   1.520   0.328  1.00  0.00    -0.332 N 
ATOM     19  N   UNL     1      -2.256   2.067  -0.520  1.00  0.00    -0.308 N 
ATOM     20  C   UNL     1      -3.519   2.350  -0.151  1.00  0.00     0.319 C 
ATOM     21  H   UNL     1      -1.809   2.856  -0.903  1.00  0.00     0.171 HD
ATOM     22  O   UNL     1      -3.827   3.550  -0.169  1.00  0.00    -0.248 OA
ATOM     23  H   UNL     1      -5.080   1.970   0.931  1.00  0.00     0.165 HD
BRANCH  19  24
ATOM     24  C   UNL     1      -1.401   0.948  -0.507  1.00  0.00     0.047 A 
ATOM     25  C   UNL     1       0.561   2.420   0.257  1.00  0.00     0.048 C 
ATOM     26  C   UNL     1      -0.069   1.081  -0.044  1.00  0.00    -0.009 A 
ATOM     27  C   UNL     1       0.722  -0.086   0.077  1.00  0.00     0.046 A 
ATOM     28  Cl  UNL     1       2.354  -0.033   0.654  1.00  0.00    -0.084 Cl
ATOM     29  C   UNL     1       0.226  -1.338  -0.284  1.00  0.00     0.021 A 
ATOM     30  C   UNL     1      -1.787  -0.277  -1.049  1.00  0.00     0.026 A 
ATOM     31  C   UNL     1      -1.018  -1.429  -0.887  1.00  0.00     0.004 A 
ENDBRANCH  19  24
ENDBRANCH  17  18
ENDBRANCH  13  17
ENDBRANCH   6  12
ENDBRANCH   3   5
ENDBRANCH   2   3
ENDBRANCH   1   2
BRANCH   1  32
ATOM     32  C   UNL     1      -2.837  -8.771   0.135  1.00  0.00     0.275 C 
BRANCH  32  33
ATOM     33  O   UNL     1      -4.109  -9.302   0.518  1.00  0.00    -0.458 OA
BRANCH  33  34
ATOM     34  C   UNL     1      -4.333  -9.344   1.851  1.00  0.00     0.338 C 
ATOM     35  O   UNL     1      -3.732  -8.746   2.724  1.00  0.00    -0.246 OA
BRANCH  34  36
ATOM     36  C   UNL     1      -5.333 -10.373   2.151  1.00  0.00     0.060 A 
ATOM     37  C   UNL     1      -5.887 -10.393   3.436  1.00  0.00     0.016 A 
ATOM     38  C   UNL     1      -5.536 -11.424   1.247  1.00  0.00     0.016 A 
ATOM     39  C   UNL     1      -6.561 -11.525   3.854  1.00  0.00     0.010 A 
ATOM     40  C   UNL     1      -6.202 -12.553   1.668  1.00  0.00     0.010 A 
ATOM     41  C   UNL     1      -6.661 -12.616   2.984  1.00  0.00    -0.014 A 
BRANCH  41  42
ATOM     42  C   UNL     1      -7.330 -13.815   3.455  1.00  0.00     0.031 A 
ATOM     43  C   UNL     1      -8.799 -13.689   3.607  1.00  0.00     0.074 A 
ATOM     44  C   UNL     1      -6.692 -14.995   3.574  1.00  0.00     0.049 A 
ATOM     45  N   UNL     1      -9.514 -13.894   4.663  1.00  0.00    -0.248 NA
ATOM     46  C   UNL     1      -9.558 -13.193   2.447  1.00  0.00     0.031 C 
ATOM     47  C   UNL     1      -5.321 -15.311   3.159  1.00  0.00     0.029 A 
ATOM     48  N   UNL     1      -7.181 -16.197   3.990  1.00  0.00    -0.354 N 
ATOM     49  C   UNL     1     -10.835 -13.732   4.255  1.00  0.00     0.074 A 
ATOM     50  C   UNL     1     -10.800 -13.175   2.929  1.00  0.00     0.031 C 
ATOM     51  C   UNL     1      -5.160 -16.652   3.151  1.00  0.00     0.029 A 
ATOM     52  C   UNL     1      -6.363 -17.272   3.681  1.00  0.00     0.049 A 
ATOM     53  H   UNL     1      -8.037 -16.292   4.466  1.00  0.00     0.167 HD
ATOM     54  C   UNL     1     -11.865 -14.293   4.940  1.00  0.00     0.037 A 
ATOM     55  C   UNL     1      -6.670 -18.584   3.799  1.00  0.00     0.037 A 
ATOM     56  C   UNL     1     -11.492 -14.646   6.281  1.00  0.00     0.049 A 
ATOM     57  C   UNL     1      -7.800 -18.708   4.747  1.00  0.00     0.074 A 
ATOM     58  C   UNL     1     -11.118 -13.957   7.415  1.00  0.00     0.029 A 
ATOM     59  N   UNL     1     -11.156 -15.958   6.490  1.00  0.00    -0.354 N 
ATOM     60  N   UNL     1      -7.716 -18.460   6.023  1.00  0.00    -0.248 NA
ATOM     61  C   UNL     1      -9.156 -18.809   4.223  1.00  0.00     0.031 C 
ATOM     62  C   UNL     1     -10.238 -14.829   8.121  1.00  0.00     0.029 A 
ATOM     63  C   UNL     1     -10.125 -16.013   7.392  1.00  0.00     0.049 A 
ATOM     64  H   UNL     1     -11.585 -16.734   6.063  1.00  0.00     0.167 HD
ATOM     65  C   UNL     1      -8.961 -17.961   6.366  1.00  0.00     0.074 A 
ATOM     66  C   UNL     1      -9.841 -18.364   5.279  1.00  0.00     0.031 C 
ATOM     67  C   UNL     1      -9.088 -17.020   7.346  1.00  0.00     0.037 A 
BRANCH  54  68
ATOM     68  C   UNL     1     -13.076 -14.882   4.265  1.00  0.00     0.057 A 
ATOM     69  C   UNL     1     -14.200 -15.230   5.030  1.00  0.00     0.134 A 
ATOM     70  C   UNL     1     -13.061 -15.389   2.948  1.00  0.00     0.134 A 
ATOM     71  F   UNL     1     -14.306 -14.843   6.310  1.00  0.00    -0.206 F 
ATOM     72  C   UNL     1     -15.217 -16.055   4.532  1.00  0.00     0.040 A 
ATOM     73  C   UNL     1     -14.095 -16.168   2.424  1.00  0.00     0.040 A 
ATOM     74  F   UNL     1     -12.003 -15.243   2.139  1.00  0.00    -0.206 F 
ATOM     75  C   UNL     1     -15.166 -16.527   3.226  1.00  0.00     0.006 A 
ENDBRANCH  54  68
BRANCH  55  76
ATOM     76  C   UNL     1      -6.190 -19.718   2.983  1.00  0.00     0.057 A 
ATOM     77  C   UNL     1      -6.277 -21.038   3.444  1.00  0.00     0.134 A 
ATOM     78  C   UNL     1      -5.866 -19.555   1.624  1.00  0.00     0.134 A 
ATOM     79  F   UNL     1      -6.619 -21.294   4.714  1.00  0.00    -0.206 F 
ATOM     80  C   UNL     1      -6.074 -22.134   2.597  1.00  0.00     0.040 A 
ATOM     81  C   UNL     1      -5.651 -20.640   0.771  1.00  0.00     0.040 A 
ATOM     82  F   UNL     1      -5.833 -18.339   1.060  1.00  0.00    -0.206 F 
ATOM     83  C   UNL     1      -5.769 -21.937   1.253  1.00  0.00     0.006 A 
ENDBRANCH  55  76
BRANCH  67  84
ATOM     84  C   UNL     1      -7.934 -16.869   8.297  1.00  0.00     0.057 A 
ATOM     85  C   UNL     1      -6.665 -16.402   7.925  1.00  0.00     0.134 A 
ATOM     86  C   UNL     1      -8.145 -17.121   9.656  1.00  0.00     0.134 A 
ATOM     87  F   UNL     1      -6.401 -16.044   6.663  1.00  0.00    -0.206 F 
ATOM     88  C   UNL     1      -5.636 -16.249   8.858  1.00  0.00     0.040 A 
ATOM     89  C   UNL     1      -7.135 -16.937  10.604  1.00  0.00     0.040 A 
ATOM     90  F   UNL     1      -9.351 -17.516  10.093  1.00  0.00    -0.206 F 
ATOM     91  C   UNL     1      -5.870 -16.514  10.204  1.00  0.00     0.006 A 
ENDBRANCH  67  84
ENDBRANCH  41  42
ENDBRANCH  34  36
ENDBRANCH  33  34
ENDBRANCH  32  33
ENDBRANCH   1  32
TORSDOF 15
