REMARK SMILES Cc1oc2cc3c(cc2c1C)[C@H](C)[C@@H](CC(=O)N[C@H](CC1=c2ccccc2=NC1)C(=O)OCCOC(=O)c1ccc(-c2c4nc(c(-c5c(F)cccc5F)c5ccc([nH]5)c(-c5c(F)cccc5F)c5nc(c(-c6c(F)cccc6F)c6ccc2[nH]6)C=C5)C=C4)cc1)C(=O)O3
REMARK SMILES IDX 33 1 32 2 30 3 31 4 19 5 18 6 16 7 17 8 15 10 14 11 1 12
REMARK SMILES IDX 2 13 3 14 10 15 4 16 9 17 11 18 5 19 8 20 6 21 7 22 94 23
REMARK SMILES IDX 12 24 92 25 13 26 93 27 20 28 21 29 22 30 29 31 23 32 27 33
REMARK SMILES IDX 28 34 24 35 26 36 25 37 34 38 35 39 36 40 37 41 38 42 39 43
REMARK SMILES IDX 91 44 40 45 90 46 41 47 42 48 43 49 84 50 44 51 89 52 83 53
REMARK SMILES IDX 85 54 45 55 88 56 82 57 81 58 46 60 72 61 55 62 71 63 56 64
REMARK SMILES IDX 59 65 70 66 86 67 57 68 58 69 69 71 87 72 60 73 47 74 48 75
REMARK SMILES IDX 53 76 49 77 50 78 52 79 54 80 51 81 73 82 74 83 79 84 75 85
REMARK SMILES IDX 76 86 78 87 80 88 77 89 61 90 62 91 67 92 63 93 64 94 66 95
REMARK SMILES IDX 68 96 65 97
REMARK H PARENT 18 9 85 59 59 70
REMARK Flexibility Score: inf
ROOT
ATOM      1  C   UNL     1       1.893  11.580   5.068  1.00  0.00     0.274 C 
ENDROOT
BRANCH   1   2
ATOM      2  O   UNL     1       1.089  10.706   4.250  1.00  0.00    -0.461 OA
BRANCH   2   3
ATOM      3  C   UNL     1       1.680   9.728   3.527  1.00  0.00     0.329 C 
ATOM      4  O   UNL     1       2.871   9.453   3.590  1.00  0.00    -0.250 OA
BRANCH   3   5
ATOM      5  C   UNL     1       0.700   9.137   2.482  1.00  0.00     0.196 C 
BRANCH   5   6
ATOM      6  N   UNL     1       1.073   9.579   1.114  1.00  0.00    -0.342 N 
ATOM      7  C   UNL     1       1.146  10.812   0.531  1.00  0.00     0.221 C 
ATOM      8  O   UNL     1       1.092  10.857  -0.701  1.00  0.00    -0.275 OA
ATOM      9  H   UNL     1       1.314   8.840   0.510  1.00  0.00     0.164 HD
BRANCH   7  10
ATOM     10  C   UNL     1       1.383  12.102   1.316  1.00  0.00     0.116 C 
BRANCH  10  11
ATOM     11  C   UNL     1       0.205  13.080   1.282  1.00  0.00     0.116 C 
ATOM     12  C   UNL     1      -5.253  18.487   4.916  1.00  0.00     0.088 C 
ATOM     13  C   UNL     1      -4.152  17.716   4.304  1.00  0.00     0.105 A 
ATOM     14  O   UNL     1      -4.528  16.541   3.736  1.00  0.00    -0.461 OA
ATOM     15  C   UNL     1      -2.790  17.919   4.145  1.00  0.00    -0.002 A 
ATOM     16  C   UNL     1      -3.416  15.979   3.204  1.00  0.00     0.138 A 
ATOM     17  C   UNL     1      -2.302  16.776   3.435  1.00  0.00     0.024 A 
ATOM     18  C   UNL     1      -1.986  19.078   4.597  1.00  0.00     0.049 C 
ATOM     19  C   UNL     1      -3.394  14.768   2.537  1.00  0.00     0.095 A 
ATOM     20  C   UNL     1      -1.037  16.334   2.979  1.00  0.00     0.020 A 
ATOM     21  C   UNL     1      -2.134  14.351   2.114  1.00  0.00     0.138 A 
ATOM     22  C   UNL     1      -0.945  15.108   2.298  1.00  0.00    -0.001 A 
ATOM     23  O   UNL     1      -2.105  13.067   1.578  1.00  0.00    -0.426 OA
ATOM     24  C   UNL     1       0.423  14.463   1.963  1.00  0.00     0.035 C 
ATOM     25  C   UNL     1      -0.943  12.598   2.112  1.00  0.00     0.315 C 
ATOM     26  C   UNL     1       1.367  15.362   1.167  1.00  0.00     0.014 C 
ATOM     27  O   UNL     1      -0.845  12.163   3.251  1.00  0.00    -0.251 OA
ENDBRANCH  10  11
ENDBRANCH   7  10
ENDBRANCH   5   6
BRANCH   5  28
ATOM     28  C   UNL     1      -0.808   9.344   2.770  1.00  0.00     0.070 C 
BRANCH  28  29
ATOM     29  C   UNL     1      -1.922   8.489   2.172  1.00  0.00    -0.037 C 
ATOM     30  C   UNL     1      -1.681   7.553   1.249  1.00  0.00     0.001 A 
ATOM     31  C   UNL     1      -3.076   9.351   1.677  1.00  0.00     0.174 C 
ATOM     32  C   UNL     1      -2.004   6.143   1.300  1.00  0.00     0.010 A 
ATOM     33  C   UNL     1      -2.251   8.222   0.046  1.00  0.00     0.065 A 
ATOM     34  N   UNL     1      -2.981   9.280   0.204  1.00  0.00    -0.280 NA
ATOM     35  C   UNL     1      -2.104   5.490   0.127  1.00  0.00     0.001 A 
ATOM     36  C   UNL     1      -1.937   7.530  -1.218  1.00  0.00     0.028 A 
ATOM     37  C   UNL     1      -1.855   6.190  -1.131  1.00  0.00     0.002 A 
ENDBRANCH  28  29
ENDBRANCH   5  28
ENDBRANCH   3   5
ENDBRANCH   2   3
ENDBRANCH   1   2
BRANCH   1  38
ATOM     38  C   UNL     1       0.982  12.186   6.140  1.00  0.00     0.275 C 
BRANCH  38  39
ATOM     39  O   UNL     1       0.685  11.167   7.104  1.00  0.00    -0.458 OA
BRANCH  39  40
ATOM     40  C   UNL     1      -0.331  10.328   6.764  1.00  0.00     0.338 C 
ATOM     41  O   UNL     1      -1.285  10.540   6.059  1.00  0.00    -0.246 OA
BRANCH  40  42
ATOM     42  C   UNL     1       0.128   8.996   7.186  1.00  0.00     0.060 A 
ATOM     43  C   UNL     1       0.544   8.793   8.498  1.00  0.00     0.016 A 
ATOM     44  C   UNL     1       0.290   8.004   6.213  1.00  0.00     0.016 A 
ATOM     45  C   UNL     1       1.160   7.595   8.823  1.00  0.00     0.010 A 
ATOM     46  C   UNL     1       0.938   6.820   6.529  1.00  0.00     0.010 A 
ATOM     47  C   UNL     1       1.374   6.615   7.838  1.00  0.00    -0.014 A 
BRANCH  47  48
ATOM     48  C   UNL     1       2.010   5.365   8.262  1.00  0.00     0.031 A 
ATOM     49  C   UNL     1       1.492   4.102   7.654  1.00  0.00     0.074 A 
ATOM     50  C   UNL     1       3.290   5.405   8.674  1.00  0.00     0.049 A 
ATOM     51  N   UNL     1       1.926   3.571   6.547  1.00  0.00    -0.248 NA
ATOM     52  C   UNL     1       0.261   3.493   8.160  1.00  0.00     0.031 C 
ATOM     53  C   UNL     1       4.362   6.141   7.998  1.00  0.00     0.029 A 
ATOM     54  N   UNL     1       3.923   4.654   9.630  1.00  0.00    -0.354 N 
ATOM     55  C   UNL     1       1.032   2.570   6.200  1.00  0.00     0.074 A 
ATOM     56  C   UNL     1       0.016   2.561   7.229  1.00  0.00     0.031 C 
ATOM     57  C   UNL     1       5.545   5.677   8.450  1.00  0.00     0.029 A 
ATOM     58  C   UNL     1       5.308   4.718   9.526  1.00  0.00     0.049 A 
ATOM     59  H   UNL     1       3.450   4.128  10.314  1.00  0.00     0.167 HD
ATOM     60  C   UNL     1       1.162   1.786   5.097  1.00  0.00     0.037 A 
ATOM     61  C   UNL     1       6.132   3.695   9.878  1.00  0.00     0.037 A 
ATOM     62  C   UNL     1       2.317   2.019   4.288  1.00  0.00     0.049 A 
ATOM     63  C   UNL     1       5.938   2.777   8.692  1.00  0.00     0.074 A 
ATOM     64  C   UNL     1       2.637   2.714   3.143  1.00  0.00     0.029 A 
ATOM     65  N   UNL     1       3.501   1.449   4.693  1.00  0.00    -0.354 N 
ATOM     66  N   UNL     1       6.501   2.900   7.519  1.00  0.00    -0.248 NA
ATOM     67  C   UNL     1       4.769   1.893   8.714  1.00  0.00     0.031 C 
ATOM     68  C   UNL     1       4.054   2.898   3.195  1.00  0.00     0.029 A 
ATOM     69  C   UNL     1       4.495   2.344   4.396  1.00  0.00     0.049 A 
ATOM     70  H   UNL     1       3.613   0.567   5.117  1.00  0.00     0.167 HD
ATOM     71  C   UNL     1       5.596   2.338   6.612  1.00  0.00     0.074 A 
ATOM     72  C   UNL     1       4.569   1.710   7.416  1.00  0.00     0.031 C 
ATOM     73  C   UNL     1       5.622   2.577   5.269  1.00  0.00     0.037 A 
BRANCH  60  74
ATOM     74  C   UNL     1       0.316   0.612   4.810  1.00  0.00     0.057 A 
ATOM     75  C   UNL     1       0.816  -0.658   5.124  1.00  0.00     0.134 A 
ATOM     76  C   UNL     1      -0.856   0.687   4.058  1.00  0.00     0.134 A 
ATOM     77  F   UNL     1       1.948  -0.779   5.838  1.00  0.00    -0.206 F 
ATOM     78  C   UNL     1       0.201  -1.820   4.666  1.00  0.00     0.040 A 
ATOM     79  C   UNL     1      -1.490  -0.472   3.600  1.00  0.00     0.040 A 
ATOM     80  F   UNL     1      -1.375   1.876   3.718  1.00  0.00    -0.206 F 
ATOM     81  C   UNL     1      -0.951  -1.727   3.889  1.00  0.00     0.006 A 
ENDBRANCH  60  74
BRANCH  61  82
ATOM     82  C   UNL     1       6.000   3.260  11.306  1.00  0.00     0.057 A 
ATOM     83  C   UNL     1       6.037   4.245  12.317  1.00  0.00     0.134 A 
ATOM     84  C   UNL     1       5.824   1.945  11.750  1.00  0.00     0.134 A 
ATOM     85  F   UNL     1       6.313   5.523  12.013  1.00  0.00    -0.206 F 
ATOM     86  C   UNL     1       5.778   3.957  13.660  1.00  0.00     0.040 A 
ATOM     87  C   UNL     1       5.544   1.643  13.089  1.00  0.00     0.040 A 
ATOM     88  F   UNL     1       5.900   0.909  10.905  1.00  0.00    -0.206 F 
ATOM     89  C   UNL     1       5.498   2.653  14.045  1.00  0.00     0.006 A 
ENDBRANCH  61  82
BRANCH  73  90
ATOM     90  C   UNL     1       6.793   3.347   4.768  1.00  0.00     0.057 A 
ATOM     91  C   UNL     1       8.058   2.757   4.710  1.00  0.00     0.134 A 
ATOM     92  C   UNL     1       6.664   4.659   4.291  1.00  0.00     0.134 A 
ATOM     93  F   UNL     1       8.244   1.499   5.140  1.00  0.00    -0.206 F 
ATOM     94  C   UNL     1       9.153   3.439   4.178  1.00  0.00     0.040 A 
ATOM     95  C   UNL     1       7.745   5.340   3.732  1.00  0.00     0.040 A 
ATOM     96  F   UNL     1       5.483   5.295   4.332  1.00  0.00    -0.206 F 
ATOM     97  C   UNL     1       8.995   4.729   3.673  1.00  0.00     0.006 A 
ENDBRANCH  73  90
ENDBRANCH  47  48
ENDBRANCH  40  42
ENDBRANCH  39  40
ENDBRANCH  38  39
ENDBRANCH   1  38
TORSDOF 16
