REMARK SMILES O=C(C[C@@H]1CN(C(=O)N2CCC[C@H]2CO)CCO1)OCCOC(=O)c1ccc(-c2c3nc(c(-c4c(F)cccc4F)c4ccc([nH]4)c(-c4c(F)cccc4F)c4nc(c(-c5c(F)cccc5F)c5ccc2[nH]5)C=C4)C=C3)cc1
REMARK SMILES IDX 19 1 2 2 1 3 3 4 4 5 5 6 18 7 6 8 17 9 16 10 7 11 8 12 9 13
REMARK SMILES IDX 10 14 13 15 11 16 12 17 14 18 15 19 20 21 21 22 22 23 23 24
REMARK SMILES IDX 24 25 25 26 26 27 78 28 27 29 77 30 28 31 29 32 30 33 71 34
REMARK SMILES IDX 31 35 76 36 70 37 72 38 32 39 75 40 69 41 68 42 33 44 59 45
REMARK SMILES IDX 42 46 58 47 43 48 46 49 57 50 73 51 44 52 45 53 56 55 74 56
REMARK SMILES IDX 47 57 34 58 35 59 40 60 36 61 37 62 39 63 41 64 38 65 60 66
REMARK SMILES IDX 61 67 66 68 62 69 63 70 65 71 67 72 64 73 48 74 49 75 54 76
REMARK SMILES IDX 50 77 51 78 53 79 55 80 52 81
REMARK H PARENT 15 20 72 43 46 54
REMARK Flexibility Score: inf
ROOT
ATOM      1  O   UNL     1       3.154  -0.116  -1.024  1.00  0.00    -0.462 OA
ENDROOT
BRANCH   1   2
ATOM      2  C   UNL     1       2.421  -0.368   0.081  1.00  0.00     0.308 C 
ATOM      3  O   UNL     1       1.268  -0.782  -0.029  1.00  0.00    -0.252 OA
BRANCH   2   4
ATOM      4  C   UNL     1       3.042  -0.220   1.444  1.00  0.00     0.156 C 
BRANCH   4   5
ATOM      5  C   UNL     1       3.880  -1.417   1.838  1.00  0.00     0.149 C 
ATOM      6  C   UNL     1       3.146  -2.748   1.681  1.00  0.00     0.154 C 
ATOM      7  O   UNL     1       4.286  -1.271   3.219  1.00  0.00    -0.374 OA
ATOM      8  N   UNL     1       4.105  -3.809   1.969  1.00  0.00    -0.320 N 
ATOM      9  C   UNL     1       5.201  -2.322   3.599  1.00  0.00     0.182 C 
ATOM     10  C   UNL     1       4.644  -3.732   3.325  1.00  0.00     0.150 C 
BRANCH   8  11
ATOM     11  C   UNL     1       4.261  -4.933   1.193  1.00  0.00     0.320 C 
ATOM     12  O   UNL     1       4.546  -6.022   1.688  1.00  0.00    -0.248 OA
BRANCH  11  13
ATOM     13  N   UNL     1       4.050  -4.788  -0.156  1.00  0.00    -0.319 N 
ATOM     14  C   UNL     1       4.449  -3.678  -1.003  1.00  0.00     0.122 C 
ATOM     15  C   UNL     1       3.497  -5.860  -0.979  1.00  0.00     0.112 C 
ATOM     16  C   UNL     1       3.392  -3.684  -2.085  1.00  0.00     0.024 C 
ATOM     17  C   UNL     1       3.178  -5.176  -2.329  1.00  0.00     0.029 C 
BRANCH  15  18
ATOM     18  C   UNL     1       4.434  -7.071  -1.129  1.00  0.00     0.181 C 
BRANCH  18  19
ATOM     19  O   UNL     1       4.111  -7.861  -2.272  1.00  0.00    -0.394 OA
ATOM     20  H   UNL     1       3.209  -8.207  -2.182  1.00  0.00     0.210 HD
ENDBRANCH  18  19
ENDBRANCH  15  18
ENDBRANCH  11  13
ENDBRANCH   8  11
ENDBRANCH   4   5
ENDBRANCH   2   4
ENDBRANCH   1   2
BRANCH   1  21
ATOM     21  C   UNL     1       4.490   0.433  -1.065  1.00  0.00     0.274 C 
BRANCH  21  22
ATOM     22  C   UNL     1       4.469   1.947  -1.269  1.00  0.00     0.275 C 
BRANCH  22  23
ATOM     23  O   UNL     1       3.995   2.580  -0.068  1.00  0.00    -0.458 OA
BRANCH  23  24
ATOM     24  C   UNL     1       2.682   2.919  -0.064  1.00  0.00     0.338 C 
ATOM     25  O   UNL     1       1.925   2.906  -1.018  1.00  0.00    -0.246 OA
BRANCH  24  26
ATOM     26  C   UNL     1       2.239   3.106   1.338  1.00  0.00     0.060 A 
ATOM     27  C   UNL     1       0.941   2.698   1.669  1.00  0.00     0.016 A 
ATOM     28  C   UNL     1       3.091   3.613   2.327  1.00  0.00     0.016 A 
ATOM     29  C   UNL     1       0.477   2.839   2.977  1.00  0.00     0.010 A 
ATOM     30  C   UNL     1       2.626   3.751   3.638  1.00  0.00     0.010 A 
ATOM     31  C   UNL     1       1.305   3.398   3.960  1.00  0.00    -0.014 A 
BRANCH  31  32
ATOM     32  C   UNL     1       0.721   3.782   5.267  1.00  0.00     0.031 A 
ATOM     33  C   UNL     1       0.249   5.198   5.449  1.00  0.00     0.074 A 
ATOM     34  C   UNL     1       0.570   2.888   6.260  1.00  0.00     0.049 A 
ATOM     35  N   UNL     1      -0.359   5.747   6.469  1.00  0.00    -0.248 NA
ATOM     36  C   UNL     1       0.495   6.118   4.326  1.00  0.00     0.031 C 
ATOM     37  C   UNL     1       0.985   1.488   6.214  1.00  0.00     0.029 A 
ATOM     38  N   UNL     1       0.019   3.037   7.508  1.00  0.00    -0.354 N 
ATOM     39  C   UNL     1      -0.593   7.065   6.099  1.00  0.00     0.074 A 
ATOM     40  C   UNL     1      -0.009   7.251   4.789  1.00  0.00     0.031 C 
ATOM     41  C   UNL     1       0.679   0.905   7.388  1.00  0.00     0.029 A 
ATOM     42  C   UNL     1       0.052   1.893   8.266  1.00  0.00     0.049 A 
ATOM     43  H   UNL     1      -0.363   3.885   7.830  1.00  0.00     0.167 HD
ATOM     44  C   UNL     1      -1.258   8.030   6.776  1.00  0.00     0.037 A 
ATOM     45  C   UNL     1      -0.377   1.672   9.524  1.00  0.00     0.037 A 
ATOM     46  C   UNL     1      -1.817   7.863   8.089  1.00  0.00     0.049 A 
ATOM     47  C   UNL     1      -1.056   2.782  10.285  1.00  0.00     0.074 A 
ATOM     48  C   UNL     1      -2.500   8.787   8.861  1.00  0.00     0.029 A 
ATOM     49  N   UNL     1      -1.749   6.693   8.830  1.00  0.00    -0.354 N 
ATOM     50  N   UNL     1      -1.322   4.008   9.904  1.00  0.00    -0.248 NA
ATOM     51  C   UNL     1      -1.511   2.469  11.649  1.00  0.00     0.031 C 
ATOM     52  C   UNL     1      -2.813   8.186  10.085  1.00  0.00     0.029 A 
ATOM     53  C   UNL     1      -2.364   6.876  10.057  1.00  0.00     0.049 A 
ATOM     54  H   UNL     1      -1.326   5.857   8.528  1.00  0.00     0.167 HD
ATOM     55  C   UNL     1      -2.000   4.600  10.964  1.00  0.00     0.074 A 
ATOM     56  C   UNL     1      -2.117   3.595  11.999  1.00  0.00     0.031 C 
ATOM     57  C   UNL     1      -2.482   5.862  11.073  1.00  0.00     0.037 A 
BRANCH  44  58
ATOM     58  C   UNL     1      -1.412   9.355   6.094  1.00  0.00     0.057 A 
ATOM     59  C   UNL     1      -2.292   9.522   5.016  1.00  0.00     0.134 A 
ATOM     60  C   UNL     1      -0.692  10.476   6.524  1.00  0.00     0.134 A 
ATOM     61  F   UNL     1      -2.996   8.481   4.546  1.00  0.00    -0.206 F 
ATOM     62  C   UNL     1      -2.435  10.754   4.376  1.00  0.00     0.040 A 
ATOM     63  C   UNL     1      -0.844  11.718   5.906  1.00  0.00     0.040 A 
ATOM     64  F   UNL     1       0.167  10.381   7.549  1.00  0.00    -0.206 F 
ATOM     65  C   UNL     1      -1.714  11.858   4.826  1.00  0.00     0.006 A 
ENDBRANCH  44  58
BRANCH  45  66
ATOM     66  C   UNL     1      -0.187   0.343  10.158  1.00  0.00     0.057 A 
ATOM     67  C   UNL     1      -1.274  -0.494  10.434  1.00  0.00     0.134 A 
ATOM     68  C   UNL     1       1.082  -0.096  10.554  1.00  0.00     0.134 A 
ATOM     69  F   UNL     1      -2.518  -0.116  10.103  1.00  0.00    -0.206 F 
ATOM     70  C   UNL     1      -1.111  -1.707  11.105  1.00  0.00     0.040 A 
ATOM     71  C   UNL     1       1.263  -1.317  11.204  1.00  0.00     0.040 A 
ATOM     72  F   UNL     1       2.164   0.662  10.320  1.00  0.00    -0.206 F 
ATOM     73  C   UNL     1       0.162  -2.122  11.491  1.00  0.00     0.006 A 
ENDBRANCH  45  66
BRANCH  57  74
ATOM     74  C   UNL     1      -3.211   6.216  12.336  1.00  0.00     0.057 A 
ATOM     75  C   UNL     1      -2.539   6.396  13.552  1.00  0.00     0.134 A 
ATOM     76  C   UNL     1      -4.597   6.415  12.328  1.00  0.00     0.134 A 
ATOM     77  F   UNL     1      -1.212   6.211  13.630  1.00  0.00    -0.206 F 
ATOM     78  C   UNL     1      -3.224   6.735  14.720  1.00  0.00     0.040 A 
ATOM     79  C   UNL     1      -5.290   6.779  13.484  1.00  0.00     0.040 A 
ATOM     80  F   UNL     1      -5.300   6.269  11.194  1.00  0.00    -0.206 F 
ATOM     81  C   UNL     1      -4.604   6.933  14.686  1.00  0.00     0.006 A 
ENDBRANCH  57  74
ENDBRANCH  31  32
ENDBRANCH  24  26
ENDBRANCH  23  24
ENDBRANCH  22  23
ENDBRANCH  21  22
ENDBRANCH   1  21
TORSDOF 16
