REMARK SMILES O=C(OCCOC(=O)[C@@H](Cc1ccccc1)/N=C1\C(=O)c2ccccc2C(=O)[C@H]1Cl)c1ccc(-c2c3nc(c(-c4c(F)cccc4F)c4ccc([nH]4)c(-c4c(F)cccc4F)c4nc(c(-c5c(F)cccc5F)c5ccc2[nH]5)C=C4)C=C3)cc1
REMARK SMILES IDX 4 1 3 2 2 3 1 4 31 5 32 6 84 7 33 8 83 9 34 10 35 11 36 12
REMARK SMILES IDX 77 13 37 14 82 15 76 16 78 17 38 18 81 19 75 20 74 21 39 23
REMARK SMILES IDX 65 24 48 25 64 26 49 27 52 28 63 29 79 30 50 31 51 32 62 34
REMARK SMILES IDX 80 35 53 36 40 37 41 38 46 39 42 40 43 41 45 42 47 43 44 44
REMARK SMILES IDX 66 45 67 46 72 47 68 48 69 49 71 50 73 51 70 52 54 53 55 54
REMARK SMILES IDX 60 55 56 56 57 57 59 58 61 59 58 60 5 61 6 62 7 63 8 64 9 65
REMARK SMILES IDX 10 66 11 67 12 68 16 69 13 70 15 71 14 72 17 73 18 74 19 75
REMARK SMILES IDX 29 76 20 77 21 78 27 79 30 80 22 81 26 82 28 83 23 84 25 85
REMARK SMILES IDX 24 86
REMARK H PARENT 78 22 52 33
REMARK Flexibility Score: inf
ROOT
ATOM      1  C   UNL     1       4.498  -1.808  -0.665  1.00  0.00     0.275 C 
ENDROOT
BRANCH   1   2
ATOM      2  O   UNL     1       3.454  -1.684   0.296  1.00  0.00    -0.458 OA
BRANCH   2   3
ATOM      3  C   UNL     1       3.033  -0.557   0.880  1.00  0.00     0.338 C 
ATOM      4  O   UNL     1       2.084  -0.620   1.662  1.00  0.00    -0.246 OA
BRANCH   3   5
ATOM      5  C   UNL     1       3.605   0.806   0.654  1.00  0.00     0.060 A 
ATOM      6  C   UNL     1       4.773   1.466  -0.596  1.00  0.00     0.016 A 
ATOM      7  C   UNL     1       2.806   1.985   1.798  1.00  0.00     0.016 A 
ATOM      8  C   UNL     1       4.905   3.299  -0.836  1.00  0.00     0.010 A 
ATOM      9  C   UNL     1       3.023   3.735   1.619  1.00  0.00     0.010 A 
ATOM     10  C   UNL     1       4.057   4.437   0.343  1.00  0.00    -0.014 A 
BRANCH  10  11
ATOM     11  C   UNL     1       4.459   5.877   0.439  1.00  0.00     0.031 A 
ATOM     12  C   UNL     1       5.238   6.336   1.655  1.00  0.00     0.074 A 
ATOM     13  C   UNL     1       4.474   6.571  -0.709  1.00  0.00     0.049 A 
ATOM     14  N   UNL     1       6.225   7.197   1.710  1.00  0.00    -0.248 NA
ATOM     15  C   UNL     1       4.982   5.662   2.939  1.00  0.00     0.031 C 
ATOM     16  C   UNL     1       3.762   6.180  -1.922  1.00  0.00     0.029 A 
ATOM     17  N   UNL     1       5.213   7.664  -1.082  1.00  0.00    -0.354 N 
ATOM     18  C   UNL     1       6.731   7.108   3.005  1.00  0.00     0.074 A 
ATOM     19  C   UNL     1       5.966   6.109   3.700  1.00  0.00     0.031 C 
ATOM     20  C   UNL     1       4.216   6.920  -2.944  1.00  0.00     0.029 A 
ATOM     21  C   UNL     1       5.219   7.856  -2.447  1.00  0.00     0.049 A 
ATOM     22  H   UNL     1       5.687   8.247  -0.445  1.00  0.00     0.167 HD
ATOM     23  C   UNL     1       7.731   7.812   3.580  1.00  0.00     0.037 A 
ATOM     24  C   UNL     1       5.987   8.662  -3.207  1.00  0.00     0.037 A 
ATOM     25  C   UNL     1       8.389   8.904   2.926  1.00  0.00     0.049 A 
ATOM     26  C   UNL     1       6.993   9.535  -2.506  1.00  0.00     0.074 A 
ATOM     27  C   UNL     1       9.242   9.848   3.461  1.00  0.00     0.029 A 
ATOM     28  N   UNL     1       8.213   9.219   1.588  1.00  0.00    -0.354 N 
ATOM     29  N   UNL     1       7.427   9.476  -1.268  1.00  0.00    -0.248 NA
ATOM     30  C   UNL     1       7.578  10.623  -3.299  1.00  0.00     0.031 C 
ATOM     31  C   UNL     1       9.522  10.784   2.459  1.00  0.00     0.029 A 
ATOM     32  C   UNL     1       8.900  10.378   1.287  1.00  0.00     0.049 A 
ATOM     33  H   UNL     1       7.678   8.696   0.948  1.00  0.00     0.167 HD
ATOM     34  C   UNL     1       8.298  10.548  -1.122  1.00  0.00     0.074 A 
ATOM     35  C   UNL     1       8.395  11.184  -2.420  1.00  0.00     0.031 C 
ATOM     36  C   UNL     1       8.930  11.000  -0.010  1.00  0.00     0.037 A 
BRANCH  23  37
ATOM     37  C   UNL     1       8.034   7.517   5.019  1.00  0.00     0.057 A 
ATOM     38  C   UNL     1       8.785   6.403   5.415  1.00  0.00     0.134 A 
ATOM     39  C   UNL     1       7.513   8.337   6.027  1.00  0.00     0.134 A 
ATOM     40  F   UNL     1       9.286   5.558   4.500  1.00  0.00    -0.206 F 
ATOM     41  C   UNL     1       8.996   6.111   6.766  1.00  0.00     0.040 A 
ATOM     42  C   UNL     1       7.729   8.064   7.378  1.00  0.00     0.040 A 
ATOM     43  F   UNL     1       6.769   9.408   5.713  1.00  0.00    -0.206 F 
ATOM     44  C   UNL     1       8.468   6.944   7.751  1.00  0.00     0.006 A 
ENDBRANCH  23  37
BRANCH  24  45
ATOM     45  C   UNL     1       5.849   8.687  -4.691  1.00  0.00     0.057 A 
ATOM     46  C   UNL     1       6.936   8.412  -5.532  1.00  0.00     0.134 A 
ATOM     47  C   UNL     1       4.633   9.002  -5.314  1.00  0.00     0.134 A 
ATOM     48  F   UNL     1       8.145   8.149  -5.014  1.00  0.00    -0.206 F 
ATOM     49  C   UNL     1       6.815   8.440  -6.925  1.00  0.00     0.040 A 
ATOM     50  C   UNL     1       4.488   8.999  -6.702  1.00  0.00     0.040 A 
ATOM     51  F   UNL     1       3.552   9.304  -4.578  1.00  0.00    -0.206 F 
ATOM     52  C   UNL     1       5.584   8.722  -7.513  1.00  0.00     0.006 A 
ENDBRANCH  24  45
BRANCH  36  53
ATOM     53  C   UNL     1       9.697  12.280  -0.141  1.00  0.00     0.057 A 
ATOM     54  C   UNL     1       9.034  13.504  -0.301  1.00  0.00     0.134 A 
ATOM     55  C   UNL     1      11.092  12.303  -0.039  1.00  0.00     0.134 A 
ATOM     56  F   UNL     1       7.696  13.544  -0.406  1.00  0.00    -0.206 F 
ATOM     57  C   UNL     1       9.734  14.706  -0.383  1.00  0.00     0.040 A 
ATOM     58  C   UNL     1      11.802  13.502  -0.089  1.00  0.00     0.040 A 
ATOM     59  F   UNL     1      11.783  11.166   0.134  1.00  0.00    -0.206 F 
ATOM     60  C   UNL     1      11.123  14.707  -0.268  1.00  0.00     0.006 A 
ENDBRANCH  36  53
ENDBRANCH  10  11
ENDBRANCH   3   5
ENDBRANCH   2   3
ENDBRANCH   1   2
BRANCH   1  61
ATOM     61  C   UNL     1       3.943  -1.614  -2.077  1.00  0.00     0.274 C 
BRANCH  61  62
ATOM     62  O   UNL     1       3.795  -0.211  -2.362  1.00  0.00    -0.460 OA
BRANCH  62  63
ATOM     63  C   UNL     1       2.639   0.443  -2.112  1.00  0.00     0.331 C 
ATOM     64  O   UNL     1       1.571  -0.112  -1.889  1.00  0.00    -0.250 OA
BRANCH  63  65
ATOM     65  C   UNL     1       2.884   1.966  -1.938  1.00  0.00     0.219 C 
BRANCH  65  66
ATOM     66  C   UNL     1       3.162   2.603  -0.199  1.00  0.00     0.074 C 
BRANCH  66  67
ATOM     67  C   UNL     1       4.845   2.563   1.148  1.00  0.00    -0.045 A 
ATOM     68  C   UNL     1       5.290   1.509   2.133  1.00  0.00     0.004 A 
ATOM     69  C   UNL     1       6.182   3.389   1.054  1.00  0.00     0.004 A 
ATOM     70  C   UNL     1       6.640   1.178   2.505  1.00  0.00     0.000 A 
ATOM     71  C   UNL     1       7.496   3.104   1.483  1.00  0.00     0.000 A 
ATOM     72  C   UNL     1       7.737   1.933   2.131  1.00  0.00     0.000 A 
ENDBRANCH  66  67
ENDBRANCH  65  66
BRANCH  65  73
ATOM     73  N   UNL     1       3.570   2.689  -3.054  1.00  0.00    -0.268 NA
ATOM     74  C   UNL     1       4.651   2.543  -3.737  1.00  0.00     0.110 C 
ATOM     75  C   UNL     1       5.756   1.517  -3.613  1.00  0.00     0.209 C 
ATOM     76  C   UNL     1       5.079   3.650  -4.669  1.00  0.00     0.205 C 
ATOM     77  O   UNL     1       5.628   0.356  -3.952  1.00  0.00    -0.287 OA
ATOM     78  C   UNL     1       7.066   2.058  -3.204  1.00  0.00     0.035 A 
ATOM     79  C   UNL     1       6.422   4.239  -4.272  1.00  0.00     0.187 C 
ATOM     80  Cl  UNL     1       5.218   3.019  -6.325  1.00  0.00    -0.107 Cl
ATOM     81  C   UNL     1       7.971   1.249  -2.505  1.00  0.00     0.013 A 
ATOM     82  C   UNL     1       7.368   3.394  -3.484  1.00  0.00     0.031 A 
ATOM     83  O   UNL     1       6.769   5.366  -4.614  1.00  0.00    -0.292 OA
ATOM     84  C   UNL     1       9.171   1.794  -2.049  1.00  0.00     0.001 A 
ATOM     85  C   UNL     1       8.574   3.933  -3.020  1.00  0.00     0.012 A 
ATOM     86  C   UNL     1       9.469   3.135  -2.300  1.00  0.00     0.001 A 
ENDBRANCH  65  73
ENDBRANCH  63  65
ENDBRANCH  62  63
ENDBRANCH  61  62
ENDBRANCH   1  61
TORSDOF 14
