REMARK SMILES O=C(CC1(NS(=O)(=O)C[C@H]2CCCO2)CCC1)OCCOC(=O)c1ccc(-c2c3nc(c(-c4c(F)cccc4F)c4ccc([nH]4)c(-c4c(F)cccc4F)c4nc(c(-c5c(F)cccc5F)c5ccc2[nH]5)C=C4)C=C3)cc1
REMARK SMILES IDX 18 1 2 2 1 3 3 4 4 5 15 6 17 7 16 8 5 9 6 11 7 12 8 13 9 14
REMARK SMILES IDX 10 15 11 16 14 17 12 18 13 19 19 20 20 21 21 22 22 23 23 24
REMARK SMILES IDX 24 25 25 26 77 27 26 28 76 29 27 30 28 31 29 32 70 33 30 34
REMARK SMILES IDX 75 35 69 36 71 37 31 38 74 39 68 40 67 41 32 43 58 44 41 45
REMARK SMILES IDX 57 46 42 47 45 48 56 49 72 50 43 51 44 52 55 54 73 55 46 56
REMARK SMILES IDX 33 57 34 58 39 59 35 60 36 61 38 62 40 63 37 64 59 65 60 66
REMARK SMILES IDX 65 67 61 68 62 69 64 70 66 71 63 72 47 73 48 74 53 75 49 76
REMARK SMILES IDX 50 77 52 78 54 79 51 80
REMARK H PARENT 5 10 71 42 45 53
REMARK Flexibility Score: inf
ROOT
ATOM      1  O   UNL     1       7.587   0.421   0.747  1.00  0.00    -0.462 OA
ENDROOT
BRANCH   1   2
ATOM      2  C   UNL     1       8.094   1.665   0.628  1.00  0.00     0.307 C 
ATOM      3  O   UNL     1       8.648   2.185   1.597  1.00  0.00    -0.252 OA
BRANCH   2   4
ATOM      4  C   UNL     1       8.022   2.408  -0.688  1.00  0.00     0.146 C 
BRANCH   4   5
ATOM      5  C   UNL     1       8.285   1.675  -2.011  1.00  0.00     0.043 C 
ATOM      6  C   UNL     1       9.421   2.352  -2.849  1.00  0.00     0.024 C 
ATOM      7  C   UNL     1       9.230   0.436  -1.879  1.00  0.00     0.024 C 
ATOM      8  C   UNL     1      10.166   1.023  -2.933  1.00  0.00     0.004 C 
BRANCH   5   9
ATOM      9  N   UNL     1       6.979   1.410  -2.755  1.00  0.00    -0.208 NA
ATOM     10  H   UNL     1       6.322   1.158  -2.017  1.00  0.00     0.141 HD
BRANCH   9  11
ATOM     11  S   UNL     1       6.077   2.402  -3.781  1.00  0.00     0.214 S 
ATOM     12  O   UNL     1       6.926   3.495  -4.203  1.00  0.00    -0.212 OA
ATOM     13  O   UNL     1       5.460   1.529  -4.754  1.00  0.00    -0.212 OA
BRANCH  11  14
ATOM     14  C   UNL     1       4.830   3.107  -2.741  1.00  0.00     0.185 C 
BRANCH  14  15
ATOM     15  C   UNL     1       3.669   2.244  -2.274  1.00  0.00     0.134 C 
ATOM     16  C   UNL     1       2.361   2.436  -3.031  1.00  0.00     0.035 C 
ATOM     17  O   UNL     1       3.964   0.848  -2.243  1.00  0.00    -0.377 OA
ATOM     18  C   UNL     1       2.231   1.177  -3.840  1.00  0.00     0.031 C 
ATOM     19  C   UNL     1       2.962   0.153  -3.000  1.00  0.00     0.160 C 
ENDBRANCH  14  15
ENDBRANCH  11  14
ENDBRANCH   9  11
ENDBRANCH   5   9
ENDBRANCH   4   5
ENDBRANCH   2   4
ENDBRANCH   1   2
BRANCH   1  20
ATOM     20  C   UNL     1       6.298   0.038   0.225  1.00  0.00     0.274 C 
BRANCH  20  21
ATOM     21  C   UNL     1       5.149   0.814   0.868  1.00  0.00     0.275 C 
BRANCH  21  22
ATOM     22  O   UNL     1       5.272   2.200   0.512  1.00  0.00    -0.458 OA
BRANCH  22  23
ATOM     23  C   UNL     1       4.836   3.110   1.415  1.00  0.00     0.338 C 
ATOM     24  O   UNL     1       4.222   2.910   2.438  1.00  0.00    -0.246 OA
BRANCH  23  25
ATOM     25  C   UNL     1       5.287   4.430   0.924  1.00  0.00     0.060 A 
ATOM     26  C   UNL     1       6.485   4.967   1.392  1.00  0.00     0.016 A 
ATOM     27  C   UNL     1       4.564   5.090  -0.071  1.00  0.00     0.016 A 
ATOM     28  C   UNL     1       6.940   6.190   0.884  1.00  0.00     0.010 A 
ATOM     29  C   UNL     1       5.075   6.260  -0.644  1.00  0.00     0.010 A 
ATOM     30  C   UNL     1       6.235   6.863  -0.131  1.00  0.00    -0.014 A 
BRANCH  30  31
ATOM     31  C   UNL     1       6.642   8.244  -0.539  1.00  0.00     0.031 A 
ATOM     32  C   UNL     1       5.707   9.410  -0.295  1.00  0.00     0.074 A 
ATOM     33  C   UNL     1       7.856   8.492  -1.075  1.00  0.00     0.049 A 
ATOM     34  N   UNL     1       5.929  10.696  -0.431  1.00  0.00    -0.248 NA
ATOM     35  C   UNL     1       4.336   9.093   0.134  1.00  0.00     0.031 C 
ATOM     36  C   UNL     1       8.844   7.482  -1.455  1.00  0.00     0.029 A 
ATOM     37  N   UNL     1       8.472   9.686  -1.379  1.00  0.00    -0.354 N 
ATOM     38  C   UNL     1       4.738  11.326  -0.090  1.00  0.00     0.074 A 
ATOM     39  C   UNL     1       3.768  10.287   0.160  1.00  0.00     0.031 C 
ATOM     40  C   UNL     1       9.954   8.097  -1.900  1.00  0.00     0.029 A 
ATOM     41  C   UNL     1       9.760   9.545  -1.842  1.00  0.00     0.049 A 
ATOM     42  H   UNL     1       8.031  10.560  -1.274  1.00  0.00     0.167 HD
ATOM     43  C   UNL     1       4.474  12.646   0.062  1.00  0.00     0.037 A 
ATOM     44  C   UNL     1      10.686  10.473  -2.159  1.00  0.00     0.037 A 
ATOM     45  C   UNL     1       5.425  13.700  -0.163  1.00  0.00     0.049 A 
ATOM     46  C   UNL     1      10.378  11.938  -1.974  1.00  0.00     0.074 A 
ATOM     47  C   UNL     1       5.258  15.063   0.010  1.00  0.00     0.029 A 
ATOM     48  N   UNL     1       6.720  13.509  -0.613  1.00  0.00    -0.354 N 
ATOM     49  N   UNL     1       9.281  12.508  -1.538  1.00  0.00    -0.248 NA
ATOM     50  C   UNL     1      11.452  12.889  -2.303  1.00  0.00     0.031 C 
ATOM     51  C   UNL     1       6.442  15.702  -0.373  1.00  0.00     0.029 A 
ATOM     52  C   UNL     1       7.360  14.731  -0.738  1.00  0.00     0.049 A 
ATOM     53  H   UNL     1       7.125  12.635  -0.815  1.00  0.00     0.167 HD
ATOM     54  C   UNL     1       9.544  13.875  -1.515  1.00  0.00     0.074 A 
ATOM     55  C   UNL     1      10.911  14.046  -1.953  1.00  0.00     0.031 C 
ATOM     56  C   UNL     1       8.723  14.897  -1.168  1.00  0.00     0.037 A 
BRANCH  43  57
ATOM     57  C   UNL     1       3.099  13.020   0.537  1.00  0.00     0.057 A 
ATOM     58  C   UNL     1       2.678  12.742   1.846  1.00  0.00     0.134 A 
ATOM     59  C   UNL     1       2.199  13.684  -0.303  1.00  0.00     0.134 A 
ATOM     60  F   UNL     1       3.488  12.093   2.697  1.00  0.00    -0.206 F 
ATOM     61  C   UNL     1       1.402  13.085   2.292  1.00  0.00     0.040 A 
ATOM     62  C   UNL     1       0.929  14.059   0.141  1.00  0.00     0.040 A 
ATOM     63  F   UNL     1       2.538  13.985  -1.566  1.00  0.00    -0.206 F 
ATOM     64  C   UNL     1       0.526  13.754   1.440  1.00  0.00     0.006 A 
ENDBRANCH  43  57
BRANCH  44  65
ATOM     65  C   UNL     1      12.028  10.060  -2.655  1.00  0.00     0.057 A 
ATOM     66  C   UNL     1      13.182  10.263  -1.887  1.00  0.00     0.134 A 
ATOM     67  C   UNL     1      12.194   9.515  -3.933  1.00  0.00     0.134 A 
ATOM     68  F   UNL     1      13.093  10.808  -0.665  1.00  0.00    -0.206 F 
ATOM     69  C   UNL     1      14.454   9.972  -2.385  1.00  0.00     0.040 A 
ATOM     70  C   UNL     1      13.458   9.192  -4.432  1.00  0.00     0.040 A 
ATOM     71  F   UNL     1      11.130   9.296  -4.719  1.00  0.00    -0.206 F 
ATOM     72  C   UNL     1      14.594   9.432  -3.661  1.00  0.00     0.006 A 
ENDBRANCH  44  65
BRANCH  56  73
ATOM     73  C   UNL     1       9.287  16.288  -1.220  1.00  0.00     0.057 A 
ATOM     74  C   UNL     1       9.589  16.921  -2.433  1.00  0.00     0.134 A 
ATOM     75  C   UNL     1       9.507  17.015  -0.042  1.00  0.00     0.134 A 
ATOM     76  F   UNL     1       9.408  16.280  -3.598  1.00  0.00    -0.206 F 
ATOM     77  C   UNL     1      10.122  18.211  -2.472  1.00  0.00     0.040 A 
ATOM     78  C   UNL     1      10.012  18.317  -0.070  1.00  0.00     0.040 A 
ATOM     79  F   UNL     1       9.227  16.477   1.154  1.00  0.00    -0.206 F 
ATOM     80  C   UNL     1      10.330  18.914  -1.287  1.00  0.00     0.006 A 
ENDBRANCH  56  73
ENDBRANCH  30  31
ENDBRANCH  23  25
ENDBRANCH  22  23
ENDBRANCH  21  22
ENDBRANCH  20  21
ENDBRANCH   1  20
TORSDOF 16
