REMARK SMILES O=C(OCCOC(=O)[C@H]1CCN(c2ccc(F)cc2)[C@@H]1c1ccc(C(F)(F)F)cc1)c1ccc(-c2c3nc(c(-c4c(F)cccc4F)c4ccc([nH]4)c(-c4c(F)cccc4F)c4nc(c(-c5c(F)cccc5F)c5ccc2[nH]5)C=C4)C=C3)cc1
REMARK SMILES IDX 4 1 3 2 2 3 1 4 31 5 32 6 84 7 33 8 83 9 34 10 35 11 36 12
REMARK SMILES IDX 77 13 37 14 82 15 76 16 78 17 38 18 81 19 75 20 74 21 39 23
REMARK SMILES IDX 65 24 48 25 64 26 49 27 52 28 63 29 79 30 50 31 51 32 62 34
REMARK SMILES IDX 80 35 53 36 40 37 41 38 46 39 42 40 43 41 45 42 47 43 44 44
REMARK SMILES IDX 66 45 67 46 72 47 68 48 69 49 71 50 73 51 70 52 54 53 55 54
REMARK SMILES IDX 60 55 56 56 57 57 59 58 61 59 58 60 5 61 6 62 7 63 8 64 9 65
REMARK SMILES IDX 10 66 20 67 11 68 12 69 21 70 22 71 30 72 23 73 29 74 24 75
REMARK SMILES IDX 25 76 26 77 27 78 28 79 13 80 14 81 19 82 15 83 18 84 16 85
REMARK SMILES IDX 17 86
REMARK H PARENT 78 22 52 33
REMARK Flexibility Score: inf
ROOT
ATOM      1  C   UNL     1       2.457   0.685   6.442  1.00  0.00     0.275 C 
ENDROOT
BRANCH   1   2
ATOM      2  O   UNL     1       2.624  -0.721   6.666  1.00  0.00    -0.458 OA
BRANCH   2   3
ATOM      3  C   UNL     1       1.796  -1.730   6.323  1.00  0.00     0.338 C 
ATOM      4  O   UNL     1       2.071  -2.880   6.672  1.00  0.00    -0.246 OA
BRANCH   3   5
ATOM      5  C   UNL     1       0.653  -1.539   5.383  1.00  0.00     0.060 A 
ATOM      6  C   UNL     1      -0.194  -0.429   5.298  1.00  0.00     0.016 A 
ATOM      7  C   UNL     1       0.440  -2.591   4.493  1.00  0.00     0.016 A 
ATOM      8  C   UNL     1      -1.144  -0.315   4.265  1.00  0.00     0.010 A 
ATOM      9  C   UNL     1      -0.489  -2.466   3.460  1.00  0.00     0.010 A 
ATOM     10  C   UNL     1      -1.282  -1.322   3.311  1.00  0.00    -0.014 A 
BRANCH  10  11
ATOM     11  C   UNL     1      -2.297  -1.293   2.217  1.00  0.00     0.031 A 
ATOM     12  C   UNL     1      -3.283  -2.438   2.137  1.00  0.00     0.074 A 
ATOM     13  C   UNL     1      -2.298  -0.335   1.263  1.00  0.00     0.049 A 
ATOM     14  N   UNL     1      -4.151  -2.727   1.202  1.00  0.00    -0.248 NA
ATOM     15  C   UNL     1      -3.261  -3.413   3.247  1.00  0.00     0.031 C 
ATOM     16  C   UNL     1      -1.383   0.808   1.188  1.00  0.00     0.029 A 
ATOM     17  N   UNL     1      -3.070  -0.198   0.130  1.00  0.00    -0.354 N 
ATOM     18  C   UNL     1      -4.786  -3.883   1.640  1.00  0.00     0.074 A 
ATOM     19  C   UNL     1      -4.081  -4.351   2.807  1.00  0.00     0.031 C 
ATOM     20  C   UNL     1      -1.615   1.495   0.053  1.00  0.00     0.029 A 
ATOM     21  C   UNL     1      -2.697   0.854  -0.682  1.00  0.00     0.049 A 
ATOM     22  H   UNL     1      -3.821  -0.798  -0.082  1.00  0.00     0.167 HD
ATOM     23  C   UNL     1      -5.943  -4.431   1.203  1.00  0.00     0.037 A 
ATOM     24  C   UNL     1      -3.169   1.233  -1.889  1.00  0.00     0.037 A 
ATOM     25  C   UNL     1      -6.695  -3.912   0.100  1.00  0.00     0.049 A 
ATOM     26  C   UNL     1      -4.363   0.510  -2.450  1.00  0.00     0.074 A 
ATOM     27  C   UNL     1      -7.950  -4.284  -0.341  1.00  0.00     0.029 A 
ATOM     28  N   UNL     1      -6.256  -2.891  -0.726  1.00  0.00    -0.354 N 
ATOM     29  N   UNL     1      -4.982  -0.547  -1.989  1.00  0.00    -0.248 NA
ATOM     30  C   UNL     1      -4.967   1.084  -3.663  1.00  0.00     0.031 C 
ATOM     31  C   UNL     1      -8.265  -3.498  -1.454  1.00  0.00     0.029 A 
ATOM     32  C   UNL     1      -7.216  -2.620  -1.681  1.00  0.00     0.049 A 
ATOM     33  H   UNL     1      -5.391  -2.428  -0.645  1.00  0.00     0.167 HD
ATOM     34  C   UNL     1      -6.084  -0.725  -2.812  1.00  0.00     0.074 A 
ATOM     35  C   UNL     1      -6.015   0.295  -3.837  1.00  0.00     0.031 C 
ATOM     36  C   UNL     1      -7.099  -1.613  -2.699  1.00  0.00     0.037 A 
BRANCH  23  37
ATOM     37  C   UNL     1      -6.526  -5.549   2.017  1.00  0.00     0.057 A 
ATOM     38  C   UNL     1      -6.641  -6.846   1.509  1.00  0.00     0.134 A 
ATOM     39  C   UNL     1      -7.015  -5.315   3.313  1.00  0.00     0.134 A 
ATOM     40  F   UNL     1      -6.207  -7.138   0.275  1.00  0.00    -0.206 F 
ATOM     41  C   UNL     1      -7.218  -7.872   2.264  1.00  0.00     0.040 A 
ATOM     42  C   UNL     1      -7.565  -6.336   4.085  1.00  0.00     0.040 A 
ATOM     43  F   UNL     1      -6.928  -4.093   3.862  1.00  0.00    -0.206 F 
ATOM     44  C   UNL     1      -7.675  -7.619   3.557  1.00  0.00     0.006 A 
ENDBRANCH  23  37
BRANCH  24  45
ATOM     45  C   UNL     1      -2.593   2.371  -2.658  1.00  0.00     0.057 A 
ATOM     46  C   UNL     1      -1.958   2.150  -3.889  1.00  0.00     0.134 A 
ATOM     47  C   UNL     1      -2.770   3.700  -2.265  1.00  0.00     0.134 A 
ATOM     48  F   UNL     1      -1.812   0.899  -4.350  1.00  0.00    -0.206 F 
ATOM     49  C   UNL     1      -1.503   3.203  -4.688  1.00  0.00     0.040 A 
ATOM     50  C   UNL     1      -2.314   4.765  -3.049  1.00  0.00     0.040 A 
ATOM     51  F   UNL     1      -3.421   3.987  -1.128  1.00  0.00    -0.206 F 
ATOM     52  C   UNL     1      -1.674   4.518  -4.263  1.00  0.00     0.006 A 
ENDBRANCH  24  45
BRANCH  36  53
ATOM     53  C   UNL     1      -8.231  -1.469  -3.663  1.00  0.00     0.057 A 
ATOM     54  C   UNL     1      -9.449  -0.925  -3.236  1.00  0.00     0.134 A 
ATOM     55  C   UNL     1      -8.129  -1.889  -4.992  1.00  0.00     0.134 A 
ATOM     56  F   UNL     1      -9.602  -0.503  -1.972  1.00  0.00    -0.206 F 
ATOM     57  C   UNL     1     -10.537  -0.819  -4.099  1.00  0.00     0.040 A 
ATOM     58  C   UNL     1      -9.202  -1.762  -5.872  1.00  0.00     0.040 A 
ATOM     59  F   UNL     1      -6.976  -2.392  -5.460  1.00  0.00    -0.206 F 
ATOM     60  C   UNL     1     -10.413  -1.235  -5.423  1.00  0.00     0.006 A 
ENDBRANCH  36  53
ENDBRANCH  10  11
ENDBRANCH   3   5
ENDBRANCH   2   3
ENDBRANCH   1   2
BRANCH   1  61
ATOM     61  C   UNL     1       2.762   1.191   5.026  1.00  0.00     0.274 C 
BRANCH  61  62
ATOM     62  O   UNL     1       2.632   0.223   3.962  1.00  0.00    -0.462 OA
BRANCH  62  63
ATOM     63  C   UNL     1       3.779  -0.438   3.663  1.00  0.00     0.311 C 
ATOM     64  O   UNL     1       4.822  -0.292   4.297  1.00  0.00    -0.252 OA
BRANCH  63  65
ATOM     65  C   UNL     1       3.732  -1.326   2.436  1.00  0.00     0.128 C 
ATOM     66  C   UNL     1       4.280  -2.701   2.801  1.00  0.00     0.039 C 
ATOM     67  C   UNL     1       2.382  -1.637   1.726  1.00  0.00     0.127 C 
ATOM     68  C   UNL     1       3.910  -3.533   1.592  1.00  0.00     0.118 C 
ATOM     69  N   UNL     1       2.569  -3.066   1.248  1.00  0.00    -0.364 N 
BRANCH  67  70
ATOM     70  C   UNL     1       2.050  -0.691   0.566  1.00  0.00    -0.025 A 
ATOM     71  C   UNL     1       0.946  -0.950  -0.256  1.00  0.00     0.006 A 
ATOM     72  C   UNL     1       2.787   0.463   0.265  1.00  0.00     0.006 A 
ATOM     73  C   UNL     1       0.744  -0.283  -1.466  1.00  0.00     0.013 A 
ATOM     74  C   UNL     1       2.561   1.177  -0.916  1.00  0.00     0.013 A 
ATOM     75  C   UNL     1       1.590   0.760  -1.830  1.00  0.00     0.056 A 
BRANCH  75  76
ATOM     76  C   UNL     1       1.447   1.468  -3.145  1.00  0.00     0.416 C 
ATOM     77  F   UNL     1       0.742   0.770  -4.075  1.00  0.00    -0.166 F 
ATOM     78  F   UNL     1       0.825   2.670  -3.007  1.00  0.00    -0.166 F 
ATOM     79  F   UNL     1       2.647   1.743  -3.729  1.00  0.00    -0.166 F 
ENDBRANCH  75  76
ENDBRANCH  67  70
BRANCH  69  80
ATOM     80  C   UNL     1       1.574  -4.032   1.161  1.00  0.00     0.037 A 
ATOM     81  C   UNL     1       1.386  -5.026   2.140  1.00  0.00     0.029 A 
ATOM     82  C   UNL     1       0.733  -4.111   0.040  1.00  0.00     0.029 A 
ATOM     83  C   UNL     1       0.351  -5.972   2.050  1.00  0.00     0.041 A 
ATOM     84  C   UNL     1      -0.332  -5.018  -0.043  1.00  0.00     0.041 A 
ATOM     85  C   UNL     1      -0.518  -5.939   0.971  1.00  0.00     0.123 A 
ATOM     86  F   UNL     1      -1.529  -6.815   0.902  1.00  0.00    -0.207 F 
ENDBRANCH  69  80
ENDBRANCH  63  65
ENDBRANCH  62  63
ENDBRANCH  61  62
ENDBRANCH   1  61
TORSDOF 14
