REMARK SMILES COc1ccc(C[NH2+]Cc2cccn2-c2sc(C)c(C)c2C(=O)OCCOC(=O)c2ccc(-c3c4nc(c(-c5c(F)cccc5F)c5ccc([nH]5)c(-c5c(F)cccc5F)c5nc(c(-c6c(F)cccc6F)c6ccc3[nH]6)C=C5)C=C4)cc2)cc1
REMARK SMILES IDX 22 1 23 2 21 3 15 4 16 5 17 6 19 7 18 8 20 9 14 10 10 11
REMARK SMILES IDX 11 12 12 13 13 14 9 15 8 16 7 19 6 20 3 21 4 22 85 23 5 24
REMARK SMILES IDX 84 25 2 26 1 27 24 28 25 29 26 30 27 31 28 32 29 33 30 34
REMARK SMILES IDX 31 35 83 36 32 37 82 38 33 39 34 40 35 41 76 42 36 43 81 44
REMARK SMILES IDX 75 45 77 46 37 47 80 48 74 49 73 50 38 52 64 53 47 54 63 55
REMARK SMILES IDX 48 56 51 57 62 58 78 59 49 60 50 61 61 63 79 64 52 65 39 66
REMARK SMILES IDX 40 67 45 68 41 69 42 70 44 71 46 72 43 73 65 74 66 75 71 76
REMARK SMILES IDX 67 77 68 78 70 79 72 80 69 81 53 82 54 83 59 84 55 85 56 86
REMARK SMILES IDX 58 87 60 88 57 89
REMARK H PARENT 8 17 8 18 77 51 51 62
REMARK Flexibility Score: inf
ROOT
ATOM      1  C   UNL     1       5.239 -11.760  -1.853  1.00  0.00     0.341 C 
ATOM      2  O   UNL     1       5.935 -12.725  -1.548  1.00  0.00    -0.246 OA
ENDROOT
BRANCH   1   3
ATOM      3  C   UNL     1       3.969 -11.882  -2.603  1.00  0.00     0.098 A 
ATOM      4  C   UNL     1       3.308 -10.831  -3.225  1.00  0.00     0.115 A 
ATOM      5  S   UNL     1       1.833 -11.255  -3.935  1.00  0.00    -0.122 S 
ATOM      6  C   UNL     1       1.999 -12.883  -3.456  1.00  0.00     0.007 A 
ATOM      7  C   UNL     1       3.159 -13.100  -2.720  1.00  0.00    -0.021 A 
ATOM      8  C   UNL     1       0.938 -13.875  -3.820  1.00  0.00     0.057 C 
ATOM      9  C   UNL     1       3.472 -14.431  -2.099  1.00  0.00     0.046 C 
BRANCH   4  10
ATOM     10  N   UNL     1       3.770  -9.521  -3.421  1.00  0.00    -0.306 N 
ATOM     11  C   UNL     1       3.143  -8.301  -3.132  1.00  0.00     0.078 A 
ATOM     12  C   UNL     1       4.076  -7.299  -3.372  1.00  0.00     0.029 A 
ATOM     13  C   UNL     1       5.252  -7.881  -3.876  1.00  0.00     0.020 A 
ATOM     14  C   UNL     1       5.030  -9.232  -3.926  1.00  0.00     0.092 A 
BRANCH  11  15
ATOM     15  C   UNL     1       1.747  -8.212  -2.576  1.00  0.00     0.316 C 
BRANCH  15  16
ATOM     16  N   UNL     1       1.504  -7.018  -1.764  1.00  0.00    -0.338 N 
ATOM     17  H   UNL     1       0.744  -7.219  -1.114  1.00  0.00     0.346 HD
ATOM     18  H   UNL     1       2.377  -6.800  -1.282  1.00  0.00     0.346 HD
BRANCH  16  19
ATOM     19  C   UNL     1       1.143  -5.847  -2.548  1.00  0.00     0.297 C 
BRANCH  19  20
ATOM     20  C   UNL     1       1.004  -4.618  -1.677  1.00  0.00     0.006 A 
ATOM     21  C   UNL     1       0.705  -2.271  -0.163  1.00  0.00     0.118 A 
ATOM     22  C   UNL     1      -0.376  -3.131  -0.341  1.00  0.00     0.047 A 
ATOM     23  C   UNL     1       1.955  -2.612  -0.678  1.00  0.00     0.047 A 
ATOM     24  C   UNL     1      -0.230  -4.297  -1.097  1.00  0.00     0.013 A 
ATOM     25  C   UNL     1       2.104  -3.781  -1.432  1.00  0.00     0.013 A 
BRANCH  21  26
ATOM     26  O   UNL     1       0.473  -1.141   0.574  1.00  0.00    -0.497 OA
ATOM     27  C   UNL     1       1.008   0.038  -0.024  1.00  0.00     0.278 C 
ENDBRANCH  21  26
ENDBRANCH  19  20
ENDBRANCH  16  19
ENDBRANCH  15  16
ENDBRANCH  11  15
ENDBRANCH   4  10
ENDBRANCH   1   3
BRANCH   1  28
ATOM     28  O   UNL     1       5.536 -10.484  -1.472  1.00  0.00    -0.458 OA
BRANCH  28  29
ATOM     29  C   UNL     1       6.638 -10.276  -0.575  1.00  0.00     0.275 C 
BRANCH  29  30
ATOM     30  C   UNL     1       6.175 -10.098   0.870  1.00  0.00     0.275 C 
BRANCH  30  31
ATOM     31  O   UNL     1       5.620 -11.288   1.442  1.00  0.00    -0.458 OA
BRANCH  31  32
ATOM     32  C   UNL     1       4.312 -11.433   1.147  1.00  0.00     0.338 C 
ATOM     33  O   UNL     1       3.667 -10.843   0.293  1.00  0.00    -0.246 OA
BRANCH  32  34
ATOM     34  C   UNL     1       3.612 -12.246   2.125  1.00  0.00     0.060 A 
ATOM     35  C   UNL     1       2.468 -12.900   1.659  1.00  0.00     0.016 A 
ATOM     36  C   UNL     1       3.856 -12.024   3.486  1.00  0.00     0.016 A 
ATOM     37  C   UNL     1       1.488 -13.237   2.562  1.00  0.00     0.010 A 
ATOM     38  C   UNL     1       2.867 -12.355   4.393  1.00  0.00     0.010 A 
ATOM     39  C   UNL     1       1.684 -12.938   3.916  1.00  0.00    -0.014 A 
BRANCH  39  40
ATOM     40  C   UNL     1       0.728 -13.540   4.851  1.00  0.00     0.031 A 
ATOM     41  C   UNL     1       1.107 -15.034   5.040  1.00  0.00     0.074 A 
ATOM     42  C   UNL     1      -0.279 -12.722   5.298  1.00  0.00     0.049 A 
ATOM     43  N   UNL     1       0.383 -16.044   5.404  1.00  0.00    -0.248 NA
ATOM     44  C   UNL     1       2.495 -15.492   4.701  1.00  0.00     0.031 C 
ATOM     45  C   UNL     1      -0.425 -11.279   4.973  1.00  0.00     0.029 A 
ATOM     46  N   UNL     1      -1.385 -12.915   6.100  1.00  0.00    -0.354 N 
ATOM     47  C   UNL     1       1.258 -17.140   5.608  1.00  0.00     0.074 A 
ATOM     48  C   UNL     1       2.498 -16.791   5.000  1.00  0.00     0.031 C 
ATOM     49  C   UNL     1      -1.572 -10.772   5.485  1.00  0.00     0.029 A 
ATOM     50  C   UNL     1      -2.275 -11.805   6.221  1.00  0.00     0.049 A 
ATOM     51  H   UNL     1      -1.551 -13.769   6.561  1.00  0.00     0.167 HD
ATOM     52  C   UNL     1       0.957 -18.171   6.452  1.00  0.00     0.037 A 
ATOM     53  C   UNL     1      -3.498 -11.751   6.847  1.00  0.00     0.037 A 
ATOM     54  C   UNL     1      -0.373 -18.003   6.930  1.00  0.00     0.049 A 
ATOM     55  C   UNL     1      -3.568 -13.012   7.589  1.00  0.00     0.074 A 
ATOM     56  C   UNL     1      -1.584 -18.086   6.297  1.00  0.00     0.029 A 
ATOM     57  N   UNL     1      -0.506 -17.285   8.095  1.00  0.00    -0.354 N 
ATOM     58  N   UNL     1      -2.875 -13.266   8.657  1.00  0.00    -0.248 NA
ATOM     59  C   UNL     1      -4.386 -14.106   7.055  1.00  0.00     0.031 C 
ATOM     60  C   UNL     1      -2.280 -16.983   6.827  1.00  0.00     0.029 A 
ATOM     61  C   UNL     1      -1.606 -16.484   7.950  1.00  0.00     0.049 A 
ATOM     62  H   UNL     1       0.079 -17.337   8.884  1.00  0.00     0.167 HD
ATOM     63  C   UNL     1      -2.892 -14.636   8.683  1.00  0.00     0.074 A 
ATOM     64  C   UNL     1      -4.064 -15.049   7.937  1.00  0.00     0.031 C 
ATOM     65  C   UNL     1      -1.716 -15.309   8.780  1.00  0.00     0.037 A 
BRANCH  52  66
ATOM     66  C   UNL     1       1.816 -19.172   7.176  1.00  0.00     0.057 A 
ATOM     67  C   UNL     1       1.155 -20.205   7.885  1.00  0.00     0.134 A 
ATOM     68  C   UNL     1       3.147 -18.947   7.539  1.00  0.00     0.134 A 
ATOM     69  F   UNL     1      -0.102 -20.564   7.573  1.00  0.00    -0.206 F 
ATOM     70  C   UNL     1       1.712 -20.827   9.002  1.00  0.00     0.040 A 
ATOM     71  C   UNL     1       3.736 -19.608   8.625  1.00  0.00     0.040 A 
ATOM     72  F   UNL     1       3.899 -18.021   6.932  1.00  0.00    -0.206 F 
ATOM     73  C   UNL     1       3.002 -20.506   9.394  1.00  0.00     0.006 A 
ENDBRANCH  52  66
BRANCH  53  74
ATOM     74  C   UNL     1      -4.731 -10.873   6.974  1.00  0.00     0.057 A 
ATOM     75  C   UNL     1      -4.905  -9.597   6.438  1.00  0.00     0.134 A 
ATOM     76  C   UNL     1      -5.908 -11.387   7.603  1.00  0.00     0.134 A 
ATOM     77  F   UNL     1      -3.875  -8.918   5.920  1.00  0.00    -0.206 F 
ATOM     78  C   UNL     1      -6.165  -8.951   6.418  1.00  0.00     0.040 A 
ATOM     79  C   UNL     1      -7.170 -10.789   7.538  1.00  0.00     0.040 A 
ATOM     80  F   UNL     1      -5.898 -12.520   8.318  1.00  0.00    -0.206 F 
ATOM     81  C   UNL     1      -7.309  -9.566   6.921  1.00  0.00     0.006 A 
ENDBRANCH  53  74
BRANCH  65  82
ATOM     82  C   UNL     1      -0.577 -14.522   9.420  1.00  0.00     0.057 A 
ATOM     83  C   UNL     1      -0.741 -13.960  10.695  1.00  0.00     0.134 A 
ATOM     84  C   UNL     1       0.630 -14.195   8.783  1.00  0.00     0.134 A 
ATOM     85  F   UNL     1      -1.833 -14.244  11.420  1.00  0.00    -0.206 F 
ATOM     86  C   UNL     1       0.203 -13.091  11.266  1.00  0.00     0.040 A 
ATOM     87  C   UNL     1       1.584 -13.325   9.334  1.00  0.00     0.040 A 
ATOM     88  F   UNL     1       0.942 -14.719   7.602  1.00  0.00    -0.206 F 
ATOM     89  C   UNL     1       1.365 -12.758  10.580  1.00  0.00     0.006 A 
ENDBRANCH  65  82
ENDBRANCH  39  40
ENDBRANCH  32  34
ENDBRANCH  31  32
ENDBRANCH  30  31
ENDBRANCH  29  30
ENDBRANCH  28  29
ENDBRANCH   1  28
TORSDOF 17
