REMARK SMILES O=C(OCCOC(=O)c1cc2c(cc1NS(=O)(=O)c1cc(Cl)ccc1Cl)OCCCO2)c1ccc(-c2c3nc(c(-c4c(F)cccc4F)c4ccc([nH]4)c(-c4c(F)cccc4F)c4nc(c(-c5c(F)cccc5F)c5ccc2[nH]5)C=C4)C=C3)cc1
REMARK SMILES IDX 5 1 4 2 3 3 2 4 1 5 32 6 33 7 85 8 34 9 84 10 35 11 36 12
REMARK SMILES IDX 37 13 78 14 38 15 83 16 77 17 79 18 39 19 82 20 76 21 75 22
REMARK SMILES IDX 40 24 66 25 49 26 65 27 50 28 53 29 64 30 80 31 51 32 52 33
REMARK SMILES IDX 63 35 81 36 54 37 41 38 42 39 47 40 43 41 44 42 46 43 48 44
REMARK SMILES IDX 45 45 67 46 68 47 73 48 69 49 70 50 72 51 74 52 71 53 55 54
REMARK SMILES IDX 56 55 61 56 57 57 58 58 60 59 62 60 59 61 6 62 7 63 8 64
REMARK SMILES IDX 9 65 10 66 14 67 11 68 13 69 12 70 15 71 16 73 17 74 18 75
REMARK SMILES IDX 19 76 20 77 25 78 21 79 24 80 26 81 22 82 23 83 31 84 30 85
REMARK SMILES IDX 27 87 28 88 29 89
REMARK H PARENT 79 23 53 34 15 72
REMARK Flexibility Score: 100.00
ROOT
ATOM      1  C   UNL     1       5.251  -0.799  -2.588  1.00  0.00     0.275 C 
ENDROOT
BRANCH   1   2
ATOM      2  C   UNL     1       4.736  -1.708  -1.019  1.00  0.00     0.275 C 
BRANCH   2   3
ATOM      3  O   UNL     1       3.373  -0.881   0.231  1.00  0.00    -0.458 OA
BRANCH   3   4
ATOM      4  C   UNL     1       2.606   0.195   0.984  1.00  0.00     0.338 C 
ATOM      5  O   UNL     1       1.549  -0.145   1.517  1.00  0.00    -0.246 OA
BRANCH   4   6
ATOM      6  C   UNL     1       2.945   1.764   1.024  1.00  0.00     0.060 A 
ATOM      7  C   UNL     1       2.039   2.726   0.537  1.00  0.00     0.016 A 
ATOM      8  C   UNL     1       4.168   2.321   1.399  1.00  0.00     0.016 A 
ATOM      9  C   UNL     1       2.493   3.986  -0.032  1.00  0.00     0.010 A 
ATOM     10  C   UNL     1       4.625   3.566   0.836  1.00  0.00     0.010 A 
ATOM     11  C   UNL     1       3.849   4.346  -0.052  1.00  0.00    -0.014 A 
BRANCH  11  12
ATOM     12  C   UNL     1       4.457   5.479  -0.915  1.00  0.00     0.031 A 
ATOM     13  C   UNL     1       4.638   5.492  -2.459  1.00  0.00     0.074 A 
ATOM     14  C   UNL     1       5.065   6.525  -0.325  1.00  0.00     0.049 A 
ATOM     15  N   UNL     1       4.903   6.472  -3.309  1.00  0.00    -0.248 NA
ATOM     16  C   UNL     1       4.597   4.220  -3.146  1.00  0.00     0.031 C 
ATOM     17  C   UNL     1       5.147   6.748   1.110  1.00  0.00     0.029 A 
ATOM     18  N   UNL     1       5.775   7.572  -0.876  1.00  0.00    -0.354 N 
ATOM     19  C   UNL     1       4.883   5.918  -4.604  1.00  0.00     0.074 A 
ATOM     20  C   UNL     1       4.662   4.505  -4.438  1.00  0.00     0.031 C 
ATOM     21  C   UNL     1       5.930   7.814   1.336  1.00  0.00     0.029 A 
ATOM     22  C   UNL     1       6.371   8.377   0.057  1.00  0.00     0.049 A 
ATOM     23  H   UNL     1       5.846   7.725  -1.846  1.00  0.00     0.167 HD
ATOM     24  C   UNL     1       5.082   6.490  -5.823  1.00  0.00     0.037 A 
ATOM     25  C   UNL     1       7.171   9.453  -0.072  1.00  0.00     0.037 A 
ATOM     26  C   UNL     1       5.566   7.830  -6.026  1.00  0.00     0.049 A 
ATOM     27  C   UNL     1       7.461  10.074  -1.410  1.00  0.00     0.074 A 
ATOM     28  C   UNL     1       5.672   8.551  -7.206  1.00  0.00     0.029 A 
ATOM     29  N   UNL     1       6.139   8.602  -5.037  1.00  0.00    -0.354 N 
ATOM     30  N   UNL     1       7.089   9.690  -2.604  1.00  0.00    -0.248 NA
ATOM     31  C   UNL     1       8.246  11.320  -1.403  1.00  0.00     0.031 C 
ATOM     32  C   UNL     1       6.391   9.723  -6.942  1.00  0.00     0.029 A 
ATOM     33  C   UNL     1       6.671   9.756  -5.587  1.00  0.00     0.049 A 
ATOM     34  H   UNL     1       6.166   8.367  -4.081  1.00  0.00     0.167 HD
ATOM     35  C   UNL     1       7.545  10.671  -3.481  1.00  0.00     0.074 A 
ATOM     36  C   UNL     1       8.231  11.662  -2.684  1.00  0.00     0.031 C 
ATOM     37  C   UNL     1       7.378  10.748  -4.824  1.00  0.00     0.037 A 
BRANCH  24  38
ATOM     38  C   UNL     1       4.743   5.716  -7.080  1.00  0.00     0.057 A 
ATOM     39  C   UNL     1       5.713   5.336  -8.020  1.00  0.00     0.134 A 
ATOM     40  C   UNL     1       3.403   5.568  -7.464  1.00  0.00     0.134 A 
ATOM     41  F   UNL     1       7.019   5.487  -7.750  1.00  0.00    -0.206 F 
ATOM     42  C   UNL     1       5.362   4.849  -9.287  1.00  0.00     0.040 A 
ATOM     43  C   UNL     1       3.038   5.064  -8.717  1.00  0.00     0.040 A 
ATOM     44  F   UNL     1       2.421   5.971  -6.648  1.00  0.00    -0.206 F 
ATOM     45  C   UNL     1       4.021   4.714  -9.639  1.00  0.00     0.006 A 
ENDBRANCH  24  38
BRANCH  25  46
ATOM     46  C   UNL     1       7.714  10.060   1.165  1.00  0.00     0.057 A 
ATOM     47  C   UNL     1       8.732   9.429   1.890  1.00  0.00     0.134 A 
ATOM     48  C   UNL     1       7.184  11.248   1.678  1.00  0.00     0.134 A 
ATOM     49  F   UNL     1       9.268   8.282   1.447  1.00  0.00    -0.206 F 
ATOM     50  C   UNL     1       9.190   9.949   3.099  1.00  0.00     0.040 A 
ATOM     51  C   UNL     1       7.650  11.791   2.873  1.00  0.00     0.040 A 
ATOM     52  F   UNL     1       6.220  11.900   1.012  1.00  0.00    -0.206 F 
ATOM     53  C   UNL     1       8.649  11.135   3.592  1.00  0.00     0.006 A 
ENDBRANCH  25  46
BRANCH  37  54
ATOM     54  C   UNL     1       7.920  11.955  -5.534  1.00  0.00     0.057 A 
ATOM     55  C   UNL     1       7.052  12.915  -6.074  1.00  0.00     0.134 A 
ATOM     56  C   UNL     1       9.294  12.170  -5.694  1.00  0.00     0.134 A 
ATOM     57  F   UNL     1       5.723  12.768  -5.970  1.00  0.00    -0.206 F 
ATOM     58  C   UNL     1       7.532  14.046  -6.736  1.00  0.00     0.040 A 
ATOM     59  C   UNL     1       9.787  13.311  -6.333  1.00  0.00     0.040 A 
ATOM     60  F   UNL     1      10.182  11.294  -5.198  1.00  0.00    -0.206 F 
ATOM     61  C   UNL     1       8.904  14.252  -6.858  1.00  0.00     0.006 A 
ENDBRANCH  37  54
ENDBRANCH  11  12
ENDBRANCH   4   6
ENDBRANCH   3   4
ENDBRANCH   2   3
ENDBRANCH   1   2
BRANCH   1  62
ATOM     62  O   UNL     1       4.350   0.522  -3.224  1.00  0.00    -0.458 OA
BRANCH  62  63
ATOM     63  C   UNL     1       3.378   1.464  -2.697  1.00  0.00     0.340 C 
ATOM     64  O   UNL     1       3.431   2.065  -1.644  1.00  0.00    -0.246 OA
BRANCH  63  65
ATOM     65  C   UNL     1       2.037   1.674  -3.256  1.00  0.00     0.088 A 
ATOM     66  C   UNL     1       1.010   2.274  -2.554  1.00  0.00     0.068 A 
ATOM     67  C   UNL     1       1.972   1.565  -4.579  1.00  0.00     0.067 A 
ATOM     68  C   UNL     1       0.397   3.369  -3.106  1.00  0.00     0.162 A 
ATOM     69  C   UNL     1       1.499   2.733  -5.189  1.00  0.00     0.078 A 
ATOM     70  C   UNL     1       0.733   3.689  -4.416  1.00  0.00     0.163 A 
BRANCH  67  71
ATOM     71  N   UNL     1       2.699   0.391  -5.000  1.00  0.00    -0.279 N 
ATOM     72  H   UNL     1       3.235   0.317  -5.823  1.00  0.00     0.180 HD
BRANCH  71  73
ATOM     73  S   UNL     1       2.451  -1.041  -3.669  1.00  0.00     0.263 S 
ATOM     74  O   UNL     1       1.016  -1.195  -3.545  1.00  0.00    -0.201 OA
ATOM     75  O   UNL     1       3.284  -2.143  -4.108  1.00  0.00    -0.201 OA
BRANCH  73  76
ATOM     76  C   UNL     1       3.063  -0.656  -1.620  1.00  0.00     0.107 A 
ATOM     77  C   UNL     1       2.508  -2.214  -0.937  1.00  0.00     0.044 A 
ATOM     78  C   UNL     1       4.490   0.246  -0.714  1.00  0.00     0.061 A 
ATOM     79  C   UNL     1       3.286  -2.863   0.489  1.00  0.00     0.042 A 
ATOM     80  C   UNL     1       5.192  -0.505   0.785  1.00  0.00     0.023 A 
ATOM     81  Cl  UNL     1       5.873   1.440  -1.111  1.00  0.00    -0.083 Cl
ATOM     82  Cl  UNL     1       2.857  -4.450   1.010  1.00  0.00    -0.084 Cl
ATOM     83  C   UNL     1       4.572  -2.047   1.335  1.00  0.00     0.022 A 
ENDBRANCH  73  76
ENDBRANCH  71  73
ENDBRANCH  67  71
BRANCH  68  84
ATOM     84  O   UNL     1      -0.212   4.138  -2.164  1.00  0.00    -0.490 OA
BRANCH  84  85
ATOM     85  C   UNL     1      -1.441   4.715  -2.550  1.00  0.00     0.233 CG0
ATOM     86  G   UNL     1      -1.177   5.962  -3.356  1.00  0.00     0.000 G0
ENDBRANCH  84  85
ENDBRANCH  68  84
BRANCH  70  87
ATOM     87  O   UNL     1       0.572   4.953  -4.915  1.00  0.00    -0.489 OA
BRANCH  87  88
ATOM     88  C   UNL     1      -0.693   5.607  -4.760  1.00  0.00     0.233 C 
BRANCH  88  89
ATOM     89  C   UNL     1      -1.177   5.962  -3.356  1.00  0.00     0.083 CG0
ATOM     90  G   UNL     1      -1.441   4.715  -2.550  1.00  0.00     0.000 G0
ENDBRANCH  88  89
ENDBRANCH  87  88
ENDBRANCH  70  87
ENDBRANCH  63  65
ENDBRANCH  62  63
ENDBRANCH   1  62
TORSDOF 14
