REMARK SMILES C[C@@H](Oc1ccc(/C=C2\C(=O)[NH+]=C(OCCOC(=O)c3ccc(-c4c5nc(c(-c6c(F)cccc6F)c6ccc([nH]6)c(-c6c(F)cccc6F)c6nc(c(-c7c(F)cccc7F)c7ccc4[nH]7)C=C6)C=C5)cc3)N(c3ccc4c(c3)OCO4)C2=O)cc1)C(=O)[O-]
REMARK SMILES IDX 15 1 14 2 13 3 8 4 9 5 10 6 84 7 11 8 12 9 74 10 85 11 7 13
REMARK SMILES IDX 4 14 5 15 87 16 6 17 86 18 3 19 2 20 1 21 88 22 89 23 90 24
REMARK SMILES IDX 75 25 76 26 80 27 77 28 79 29 78 30 81 31 83 32 82 33 16 34
REMARK SMILES IDX 17 35 18 36 19 37 20 38 21 39 73 40 22 41 72 42 23 43 24 44
REMARK SMILES IDX 25 45 66 46 26 47 71 48 65 49 67 50 27 51 70 52 64 53 63 54
REMARK SMILES IDX 28 56 54 57 37 58 53 59 38 60 41 61 52 62 68 63 39 64 40 65
REMARK SMILES IDX 51 67 69 68 42 69 29 70 30 71 35 72 31 73 32 74 34 75 36 76
REMARK SMILES IDX 33 77 55 78 56 79 61 80 57 81 58 82 60 83 62 84 59 85 43 86
REMARK SMILES IDX 44 87 49 88 45 89 46 90 48 91 50 92 47 93
REMARK H PARENT 12 12 67 55 41 66
REMARK Flexibility Score: inf
ROOT
ATOM      1  C   UNL     1      10.271   6.625  -4.961  1.00  0.00     0.279 C 
ENDROOT
BRANCH   1   2
ATOM      2  O   UNL     1       9.434   5.784  -5.791  1.00  0.00    -0.427 OA
BRANCH   2   3
ATOM      3  C   UNL     1       8.558   4.900  -5.254  1.00  0.00     0.465 C 
ATOM      4  C   UNL     1       5.857   2.012  -4.205  1.00  0.00     0.032 C 
ATOM      5  C   UNL     1       6.692   3.016  -4.570  1.00  0.00     0.155 C 
ATOM      6  C   UNL     1       6.432   4.472  -4.448  1.00  0.00     0.349 C 
ATOM      7  C   UNL     1       8.057   2.573  -4.997  1.00  0.00     0.357 C 
ATOM      8  O   UNL     1       5.411   4.909  -3.924  1.00  0.00    -0.240 OA
ATOM      9  N   UNL     1       7.385   5.320  -4.933  1.00  0.00    -0.171 N 
ATOM     10  N   UNL     1       8.966   3.587  -5.235  1.00  0.00    -0.123 N 
ATOM     11  O   UNL     1       8.341   1.375  -5.073  1.00  0.00    -0.240 OA
ATOM     12  H   UNL     1       7.170   6.275  -5.039  1.00  0.00     0.319 HD
BRANCH   4  13
ATOM     13  C   UNL     1       4.520   1.946  -3.574  1.00  0.00    -0.024 A 
ATOM     14  C   UNL     1       1.995   1.516  -2.356  1.00  0.00     0.120 A 
ATOM     15  C   UNL     1       2.185   2.562  -3.261  1.00  0.00     0.047 A 
ATOM     16  C   UNL     1       3.054   0.669  -2.073  1.00  0.00     0.047 A 
ATOM     17  C   UNL     1       3.436   2.772  -3.872  1.00  0.00     0.012 A 
ATOM     18  C   UNL     1       4.297   0.885  -2.677  1.00  0.00     0.012 A 
BRANCH  14  19
ATOM     19  O   UNL     1       0.719   1.252  -1.950  1.00  0.00    -0.485 OA
BRANCH  19  20
ATOM     20  C   UNL     1       0.475   1.264  -0.536  1.00  0.00     0.216 C 
ATOM     21  C   UNL     1       0.783  -0.066   0.148  1.00  0.00     0.059 C 
BRANCH  20  22
ATOM     22  C   UNL     1      -1.017   1.527  -0.360  1.00  0.00     0.082 C 
ATOM     23  O   UNL     1      -1.523   2.307   0.434  1.00  0.00    -0.546 OA
ATOM     24  O   UNL     1      -1.807   0.753  -1.137  1.00  0.00    -0.546 OA
ENDBRANCH  20  22
ENDBRANCH  19  20
ENDBRANCH  14  19
ENDBRANCH   4  13
BRANCH  10  25
ATOM     25  C   UNL     1      10.322   3.231  -5.499  1.00  0.00     0.144 A 
ATOM     26  C   UNL     1      11.325   3.514  -4.542  1.00  0.00     0.056 A 
ATOM     27  C   UNL     1      10.658   2.533  -6.662  1.00  0.00     0.103 A 
ATOM     28  C   UNL     1      12.654   3.138  -4.733  1.00  0.00     0.055 A 
ATOM     29  C   UNL     1      11.974   2.147  -6.814  1.00  0.00     0.170 A 
ATOM     30  C   UNL     1      12.942   2.442  -5.879  1.00  0.00     0.166 A 
ATOM     31  O   UNL     1      12.475   1.422  -7.851  1.00  0.00    -0.453 OA
ATOM     32  O   UNL     1      14.159   1.938  -6.210  1.00  0.00    -0.454 OA
ATOM     33  C   UNL     1      13.800   1.138  -7.354  1.00  0.00     0.468 C 
ENDBRANCH  10  25
ENDBRANCH   2   3
ENDBRANCH   1   2
BRANCH   1  34
ATOM     34  C   UNL     1       9.823   6.877  -3.519  1.00  0.00     0.275 C 
BRANCH  34  35
ATOM     35  O   UNL     1       9.779   5.636  -2.791  1.00  0.00    -0.458 OA
BRANCH  35  36
ATOM     36  C   UNL     1       8.827   5.561  -1.832  1.00  0.00     0.338 C 
ATOM     37  O   UNL     1       8.132   6.478  -1.432  1.00  0.00    -0.246 OA
BRANCH  36  38
ATOM     38  C   UNL     1       8.617   4.142  -1.451  1.00  0.00     0.060 A 
ATOM     39  C   UNL     1       7.296   3.725  -1.286  1.00  0.00     0.016 A 
ATOM     40  C   UNL     1       9.662   3.229  -1.242  1.00  0.00     0.016 A 
ATOM     41  C   UNL     1       7.018   2.412  -0.912  1.00  0.00     0.010 A 
ATOM     42  C   UNL     1       9.380   1.904  -0.861  1.00  0.00     0.010 A 
ATOM     43  C   UNL     1       8.052   1.493  -0.677  1.00  0.00    -0.014 A 
BRANCH  43  44
ATOM     44  C   UNL     1       7.674   0.227   0.004  1.00  0.00     0.031 A 
ATOM     45  C   UNL     1       7.418   0.295   1.485  1.00  0.00     0.074 A 
ATOM     46  C   UNL     1       7.380  -0.903  -0.665  1.00  0.00     0.049 A 
ATOM     47  N   UNL     1       6.792  -0.549   2.264  1.00  0.00    -0.248 NA
ATOM     48  C   UNL     1       7.910   1.503   2.167  1.00  0.00     0.031 C 
ATOM     49  C   UNL     1       7.550  -1.117  -2.099  1.00  0.00     0.029 A 
ATOM     50  N   UNL     1       6.820  -2.076  -0.212  1.00  0.00    -0.354 N 
ATOM     51  C   UNL     1       6.761   0.055   3.514  1.00  0.00     0.074 A 
ATOM     52  C   UNL     1       7.474   1.310   3.400  1.00  0.00     0.031 C 
ATOM     53  C   UNL     1       7.067  -2.333  -2.417  1.00  0.00     0.029 A 
ATOM     54  C   UNL     1       6.565  -2.989  -1.208  1.00  0.00     0.049 A 
ATOM     55  H   UNL     1       6.621  -2.246   0.737  1.00  0.00     0.167 HD
ATOM     56  C   UNL     1       6.182  -0.381   4.656  1.00  0.00     0.037 A 
ATOM     57  C   UNL     1       5.981  -4.205  -1.149  1.00  0.00     0.037 A 
ATOM     58  C   UNL     1       5.550  -1.660   4.814  1.00  0.00     0.049 A 
ATOM     59  C   UNL     1       5.448  -4.725   0.166  1.00  0.00     0.074 A 
ATOM     60  C   UNL     1       5.015  -2.223   5.960  1.00  0.00     0.029 A 
ATOM     61  N   UNL     1       5.394  -2.590   3.799  1.00  0.00    -0.354 N 
ATOM     62  N   UNL     1       5.380  -4.128   1.331  1.00  0.00    -0.248 NA
ATOM     63  C   UNL     1       4.899  -6.091   0.166  1.00  0.00     0.031 C 
ATOM     64  C   UNL     1       4.576  -3.515   5.646  1.00  0.00     0.029 A 
ATOM     65  C   UNL     1       4.788  -3.732   4.295  1.00  0.00     0.049 A 
ATOM     66  H   UNL     1       5.672  -2.458   2.864  1.00  0.00     0.167 HD
ATOM     67  C   UNL     1       4.757  -5.030   2.189  1.00  0.00     0.074 A 
ATOM     68  C   UNL     1       4.450  -6.208   1.408  1.00  0.00     0.031 C 
ATOM     69  C   UNL     1       4.466  -4.894   3.507  1.00  0.00     0.037 A 
BRANCH  56  70
ATOM     70  C   UNL     1       6.261   0.542   5.832  1.00  0.00     0.057 A 
ATOM     71  C   UNL     1       5.481   1.704   5.902  1.00  0.00     0.134 A 
ATOM     72  C   UNL     1       7.154   0.292   6.880  1.00  0.00     0.134 A 
ATOM     73  F   UNL     1       4.625   2.008   4.914  1.00  0.00    -0.206 F 
ATOM     74  C   UNL     1       5.609   2.603   6.961  1.00  0.00     0.040 A 
ATOM     75  C   UNL     1       7.275   1.173   7.955  1.00  0.00     0.040 A 
ATOM     76  F   UNL     1       7.932  -0.800   6.866  1.00  0.00    -0.206 F 
ATOM     77  C   UNL     1       6.508   2.337   7.992  1.00  0.00     0.006 A 
ENDBRANCH  56  70
BRANCH  57  78
ATOM     78  C   UNL     1       5.860  -5.044  -2.372  1.00  0.00     0.057 A 
ATOM     79  C   UNL     1       4.611  -5.363  -2.922  1.00  0.00     0.134 A 
ATOM     80  C   UNL     1       6.989  -5.617  -2.969  1.00  0.00     0.134 A 
ATOM     81  F   UNL     1       3.489  -4.874  -2.375  1.00  0.00    -0.206 F 
ATOM     82  C   UNL     1       4.489  -6.241  -4.001  1.00  0.00     0.040 A 
ATOM     83  C   UNL     1       6.883  -6.475  -4.065  1.00  0.00     0.040 A 
ATOM     84  F   UNL     1       8.213  -5.361  -2.485  1.00  0.00    -0.206 F 
ATOM     85  C   UNL     1       5.629  -6.798  -4.577  1.00  0.00     0.006 A 
ENDBRANCH  57  78
BRANCH  69  86
ATOM     86  C   UNL     1       3.740  -6.022   4.187  1.00  0.00     0.057 A 
ATOM     87  C   UNL     1       4.360  -7.246   4.468  1.00  0.00     0.134 A 
ATOM     88  C   UNL     1       2.416  -5.858   4.616  1.00  0.00     0.134 A 
ATOM     89  F   UNL     1       5.624  -7.473   4.080  1.00  0.00    -0.206 F 
ATOM     90  C   UNL     1       3.683  -8.274   5.129  1.00  0.00     0.040 A 
ATOM     91  C   UNL     1       1.738  -6.867   5.301  1.00  0.00     0.040 A 
ATOM     92  F   UNL     1       1.765  -4.707   4.390  1.00  0.00    -0.206 F 
ATOM     93  C   UNL     1       2.370  -8.082   5.554  1.00  0.00     0.006 A 
ENDBRANCH  69  86
ENDBRANCH  43  44
ENDBRANCH  36  38
ENDBRANCH  35  36
ENDBRANCH  34  35
ENDBRANCH   1  34
TORSDOF 15
