REMARK SMILES CC(C)n1ncnc1C[C@H](C(=O)OCCOC(=O)c1ccc(-c2c3nc(c(-c4c(F)cccc4F)c4ccc([nH]4)c(-c4c(F)cccc4F)c4nc(c(-c5c(F)cccc5F)c5ccc2[nH]5)C=C4)C=C3)cc1)c1ccccc1F
REMARK SMILES IDX 14 1 13 2 11 3 12 4 10 5 9 6 8 7 4 8 5 9 6 10 7 11 2 12 1 13
REMARK SMILES IDX 3 14 73 15 74 16 78 17 75 18 77 19 79 20 76 21 15 22 16 23
REMARK SMILES IDX 17 24 18 25 19 26 20 27 72 28 21 29 71 30 22 31 23 32 24 33
REMARK SMILES IDX 65 34 25 35 70 36 64 37 66 38 26 39 69 40 63 41 62 42 27 44
REMARK SMILES IDX 53 45 36 46 52 47 37 48 40 49 51 50 67 51 38 52 39 53 50 55
REMARK SMILES IDX 68 56 41 57 28 58 29 59 34 60 30 61 31 62 33 63 35 64 32 65
REMARK SMILES IDX 54 66 55 67 60 68 56 69 57 70 59 71 61 72 58 73 42 74 43 75
REMARK SMILES IDX 48 76 44 77 45 78 47 79 49 80 46 81
REMARK H PARENT 66 43 40 54
REMARK Flexibility Score: inf
ROOT
ATOM      1  C   UNL     1       0.020   3.009   0.420  1.00  0.00     0.274 C 
ENDROOT
BRANCH   1   2
ATOM      2  O   UNL     1      -0.664   3.765  -0.598  1.00  0.00    -0.462 OA
BRANCH   2   3
ATOM      3  C   UNL     1      -0.758   3.226  -1.846  1.00  0.00     0.314 C 
ATOM      4  O   UNL     1      -0.491   2.058  -2.111  1.00  0.00    -0.252 OA
BRANCH   3   5
ATOM      5  C   UNL     1      -1.290   4.218  -2.894  1.00  0.00     0.140 C 
BRANCH   5   6
ATOM      6  C   UNL     1      -2.830   4.003  -2.898  1.00  0.00     0.097 C 
BRANCH   6   7
ATOM      7  C   UNL     1      -3.759   5.157  -3.081  1.00  0.00     0.128 A 
ATOM      8  N   UNL     1      -4.738   5.274  -4.046  1.00  0.00    -0.248 N 
ATOM      9  N   UNL     1      -5.393   6.449  -3.921  1.00  0.00    -0.159 NA
ATOM     10  C   UNL     1      -4.818   6.967  -2.839  1.00  0.00     0.246 A 
ATOM     11  N   UNL     1      -3.839   6.204  -2.282  1.00  0.00    -0.220 NA
BRANCH   8  12
ATOM     12  C   UNL     1      -5.149   4.339  -5.087  1.00  0.00     0.103 C 
ATOM     13  C   UNL     1      -6.662   4.093  -5.074  1.00  0.00     0.033 C 
ATOM     14  C   UNL     1      -4.687   4.807  -6.466  1.00  0.00     0.033 C 
ENDBRANCH   8  12
ENDBRANCH   6   7
ENDBRANCH   5   6
BRANCH   5  15
ATOM     15  C   UNL     1      -0.678   5.616  -2.834  1.00  0.00     0.002 A 
ATOM     16  C   UNL     1       0.402   5.950  -1.996  1.00  0.00     0.007 A 
ATOM     17  C   UNL     1      -1.118   6.621  -3.702  1.00  0.00     0.127 A 
ATOM     18  C   UNL     1       0.876   7.261  -1.894  1.00  0.00     0.001 A 
ATOM     19  C   UNL     1      -0.671   7.937  -3.597  1.00  0.00     0.039 A 
ATOM     20  F   UNL     1      -1.961   6.323  -4.701  1.00  0.00    -0.207 F 
ATOM     21  C   UNL     1       0.310   8.265  -2.667  1.00  0.00     0.003 A 
ENDBRANCH   5  15
ENDBRANCH   3   5
ENDBRANCH   2   3
ENDBRANCH   1   2
BRANCH   1  22
ATOM     22  C   UNL     1      -0.932   2.489   1.487  1.00  0.00     0.275 C 
BRANCH  22  23
ATOM     23  O   UNL     1      -1.876   1.577   0.927  1.00  0.00    -0.458 OA
BRANCH  23  24
ATOM     24  C   UNL     1      -2.990   2.183   0.476  1.00  0.00     0.338 C 
ATOM     25  O   UNL     1      -3.217   3.387   0.421  1.00  0.00    -0.246 OA
BRANCH  24  26
ATOM     26  C   UNL     1      -4.005   1.195   0.139  1.00  0.00     0.060 A 
ATOM     27  C   UNL     1      -4.938   1.517  -0.854  1.00  0.00     0.016 A 
ATOM     28  C   UNL     1      -4.175   0.102   0.994  1.00  0.00     0.016 A 
ATOM     29  C   UNL     1      -6.115   0.808  -0.921  1.00  0.00     0.010 A 
ATOM     30  C   UNL     1      -5.364  -0.588   0.945  1.00  0.00     0.010 A 
ATOM     31  C   UNL     1      -6.341  -0.186   0.028  1.00  0.00    -0.014 A 
BRANCH  31  32
ATOM     32  C   UNL     1      -7.649  -0.809   0.052  1.00  0.00     0.031 A 
ATOM     33  C   UNL     1      -7.865  -1.866  -0.960  1.00  0.00     0.074 A 
ATOM     34  C   UNL     1      -8.510  -0.540   1.052  1.00  0.00     0.049 A 
ATOM     35  N   UNL     1      -8.845  -1.993  -1.792  1.00  0.00    -0.248 NA
ATOM     36  C   UNL     1      -6.810  -2.883  -1.112  1.00  0.00     0.031 C 
ATOM     37  C   UNL     1      -8.245   0.269   2.246  1.00  0.00     0.029 A 
ATOM     38  N   UNL     1      -9.747  -1.057   1.291  1.00  0.00    -0.354 N 
ATOM     39  C   UNL     1      -8.638  -3.215  -2.425  1.00  0.00     0.074 A 
ATOM     40  C   UNL     1      -7.308  -3.643  -2.085  1.00  0.00     0.031 C 
ATOM     41  C   UNL     1      -9.182  -0.005   3.178  1.00  0.00     0.029 A 
ATOM     42  C   UNL     1     -10.153  -0.927   2.611  1.00  0.00     0.049 A 
ATOM     43  H   UNL     1     -10.299  -1.482   0.595  1.00  0.00     0.167 HD
ATOM     44  C   UNL     1      -9.673  -3.921  -2.947  1.00  0.00     0.037 A 
ATOM     45  C   UNL     1     -11.152  -1.608   3.223  1.00  0.00     0.037 A 
ATOM     46  C   UNL     1     -10.796  -3.079  -3.264  1.00  0.00     0.049 A 
ATOM     47  C   UNL     1     -12.013  -2.203   2.174  1.00  0.00     0.074 A 
ATOM     48  C   UNL     1     -10.978  -1.947  -4.036  1.00  0.00     0.029 A 
ATOM     49  N   UNL     1     -11.929  -3.189  -2.500  1.00  0.00    -0.354 N 
ATOM     50  N   UNL     1     -12.822  -1.531   1.406  1.00  0.00    -0.248 NA
ATOM     51  C   UNL     1     -11.704  -3.552   1.720  1.00  0.00     0.031 C 
ATOM     52  C   UNL     1     -11.985  -1.192  -3.366  1.00  0.00     0.029 A 
ATOM     53  C   UNL     1     -12.370  -1.919  -2.240  1.00  0.00     0.049 A 
ATOM     54  H   UNL     1     -12.349  -4.026  -2.195  1.00  0.00     0.167 HD
ATOM     55  C   UNL     1     -12.781  -2.192   0.187  1.00  0.00     0.074 A 
ATOM     56  C   UNL     1     -12.190  -3.492   0.479  1.00  0.00     0.031 C 
ATOM     57  C   UNL     1     -12.957  -1.516  -0.986  1.00  0.00     0.037 A 
BRANCH  44  58
ATOM     58  C   UNL     1      -9.800  -5.416  -2.773  1.00  0.00     0.057 A 
ATOM     59  C   UNL     1     -10.812  -6.102  -3.465  1.00  0.00     0.134 A 
ATOM     60  C   UNL     1      -9.186  -6.145  -1.730  1.00  0.00     0.134 A 
ATOM     61  F   UNL     1     -11.483  -5.509  -4.464  1.00  0.00    -0.206 F 
ATOM     62  C   UNL     1     -11.239  -7.381  -3.091  1.00  0.00     0.040 A 
ATOM     63  C   UNL     1      -9.566  -7.443  -1.387  1.00  0.00     0.040 A 
ATOM     64  F   UNL     1      -8.262  -5.609  -0.922  1.00  0.00    -0.206 F 
ATOM     65  C   UNL     1     -10.621  -8.053  -2.043  1.00  0.00     0.006 A 
ENDBRANCH  44  58
BRANCH  45  66
ATOM     66  C   UNL     1     -11.276  -1.982   4.651  1.00  0.00     0.057 A 
ATOM     67  C   UNL     1     -12.505  -2.397   5.181  1.00  0.00     0.134 A 
ATOM     68  C   UNL     1     -10.155  -2.170   5.480  1.00  0.00     0.134 A 
ATOM     69  F   UNL     1     -13.627  -2.308   4.452  1.00  0.00    -0.206 F 
ATOM     70  C   UNL     1     -12.613  -2.971   6.454  1.00  0.00     0.040 A 
ATOM     71  C   UNL     1     -10.251  -2.723   6.760  1.00  0.00     0.040 A 
ATOM     72  F   UNL     1      -8.914  -1.904   5.048  1.00  0.00    -0.206 F 
ATOM     73  C   UNL     1     -11.482  -3.138   7.247  1.00  0.00     0.006 A 
ENDBRANCH  45  66
BRANCH  57  74
ATOM     74  C   UNL     1     -13.543  -0.137  -0.918  1.00  0.00     0.057 A 
ATOM     75  C   UNL     1     -12.930   0.944  -0.269  1.00  0.00     0.134 A 
ATOM     76  C   UNL     1     -14.709   0.134  -1.643  1.00  0.00     0.134 A 
ATOM     77  F   UNL     1     -11.753   0.802   0.356  1.00  0.00    -0.206 F 
ATOM     78  C   UNL     1     -13.488   2.225  -0.291  1.00  0.00     0.040 A 
ATOM     79  C   UNL     1     -15.257   1.417  -1.702  1.00  0.00     0.040 A 
ATOM     80  F   UNL     1     -15.315  -0.840  -2.341  1.00  0.00    -0.206 F 
ATOM     81  C   UNL     1     -14.654   2.465  -1.012  1.00  0.00     0.006 A 
ENDBRANCH  57  74
ENDBRANCH  31  32
ENDBRANCH  24  26
ENDBRANCH  23  24
ENDBRANCH  22  23
ENDBRANCH   1  22
TORSDOF 15
