REMARK SMILES C[C@@H]1c2ccccc2-c2ccc(C(=O)OCCOC(=O)c3ccc(-c4c5nc(c(-c6c(F)cccc6F)c6ccc([nH]6)c(-c6c(F)cccc6F)c6nc(c(-c7c(F)cccc7F)c7ccc4[nH]7)C=C6)C=C5)cc3)cc21
REMARK SMILES IDX 17 1 16 2 15 3 13 4 14 5 12 6 1 7 2 8 3 9 76 10 4 11 8 12
REMARK SMILES IDX 9 13 75 14 5 15 7 16 10 17 6 18 11 19 18 20 19 21 20 22
REMARK SMILES IDX 21 23 22 24 74 25 23 26 73 27 24 28 25 29 26 30 67 31 27 32
REMARK SMILES IDX 72 33 66 34 68 35 28 36 71 37 65 38 64 39 29 41 55 42 38 43
REMARK SMILES IDX 54 44 39 45 42 46 53 47 69 48 40 49 41 50 52 52 70 53 43 54
REMARK SMILES IDX 30 55 31 56 36 57 32 58 33 59 35 60 37 61 34 62 56 63 57 64
REMARK SMILES IDX 62 65 58 66 59 67 61 68 63 69 60 70 44 71 45 72 50 73 46 74
REMARK SMILES IDX 47 75 49 76 51 77 48 78
REMARK H PARENT 68 40 42 51
REMARK Flexibility Score: inf
ROOT
ATOM      1  C   UNL     1      -7.131  -0.951   1.225  1.00  0.00     0.275 C 
ENDROOT
BRANCH   1   2
ATOM      2  C   UNL     1      -6.426  -1.775   0.148  1.00  0.00     0.275 C 
BRANCH   2   3
ATOM      3  O   UNL     1      -5.002  -1.549   0.187  1.00  0.00    -0.458 OA
BRANCH   3   4
ATOM      4  C   UNL     1      -4.537  -0.629  -0.695  1.00  0.00     0.338 C 
ATOM      5  O   UNL     1      -5.191  -0.023  -1.528  1.00  0.00    -0.246 OA
BRANCH   4   6
ATOM      6  C   UNL     1      -3.099  -0.355  -0.460  1.00  0.00     0.060 A 
ATOM      7  C   UNL     1       0.208  -2.613   1.746  1.00  0.00     0.018 C 
ATOM      8  C   UNL     1       0.313  -1.931   0.389  1.00  0.00     0.047 C 
ATOM      9  C   UNL     1       1.485  -0.961   0.304  1.00  0.00    -0.033 A 
ATOM     10  C   UNL     1      -0.871  -1.020   0.085  1.00  0.00    -0.032 A 
ATOM     11  C   UNL     1       2.839  -1.222   0.444  1.00  0.00     0.005 A 
ATOM     12  C   UNL     1       1.022   0.337   0.001  1.00  0.00    -0.014 A 
ATOM     13  C   UNL     1      -0.413   0.296  -0.160  1.00  0.00    -0.014 A 
ATOM     14  C   UNL     1      -2.214  -1.355  -0.039  1.00  0.00     0.020 A 
ATOM     15  C   UNL     1       3.734  -0.159   0.299  1.00  0.00     0.000 A 
ATOM     16  C   UNL     1       1.908   1.395  -0.127  1.00  0.00     0.009 A 
ATOM     17  C   UNL     1      -1.288   1.289  -0.557  1.00  0.00     0.010 A 
ATOM     18  C   UNL     1       3.273   1.139   0.025  1.00  0.00     0.001 A 
ATOM     19  C   UNL     1      -2.628   0.948  -0.736  1.00  0.00     0.016 A 
ENDBRANCH   4   6
ENDBRANCH   3   4
ENDBRANCH   2   3
ENDBRANCH   1   2
BRANCH   1  20
ATOM     20  O   UNL     1      -6.946   0.449   0.953  1.00  0.00    -0.458 OA
BRANCH  20  21
ATOM     21  C   UNL     1      -6.724   1.236   2.030  1.00  0.00     0.338 C 
ATOM     22  O   UNL     1      -6.739   0.903   3.203  1.00  0.00    -0.246 OA
BRANCH  21  23
ATOM     23  C   UNL     1      -6.461   2.622   1.589  1.00  0.00     0.060 A 
ATOM     24  C   UNL     1      -5.586   2.878   0.534  1.00  0.00     0.016 A 
ATOM     25  C   UNL     1      -7.019   3.685   2.297  1.00  0.00     0.016 A 
ATOM     26  C   UNL     1      -5.200   4.186   0.236  1.00  0.00     0.010 A 
ATOM     27  C   UNL     1      -6.702   5.000   1.939  1.00  0.00     0.010 A 
ATOM     28  C   UNL     1      -5.758   5.268   0.930  1.00  0.00    -0.014 A 
BRANCH  28  29
ATOM     29  C   UNL     1      -5.321   6.670   0.663  1.00  0.00     0.031 A 
ATOM     30  C   UNL     1      -4.757   7.505   1.785  1.00  0.00     0.074 A 
ATOM     31  C   UNL     1      -5.417   7.215  -0.566  1.00  0.00     0.049 A 
ATOM     32  N   UNL     1      -4.543   8.797   1.835  1.00  0.00    -0.248 NA
ATOM     33  C   UNL     1      -4.404   6.793   3.024  1.00  0.00     0.031 C 
ATOM     34  C   UNL     1      -5.889   6.529  -1.769  1.00  0.00     0.029 A 
ATOM     35  N   UNL     1      -5.116   8.482  -1.006  1.00  0.00    -0.354 N 
ATOM     36  C   UNL     1      -4.108   9.060   3.128  1.00  0.00     0.074 A 
ATOM     37  C   UNL     1      -4.074   7.794   3.828  1.00  0.00     0.031 C 
ATOM     38  C   UNL     1      -5.811   7.367  -2.814  1.00  0.00     0.029 A 
ATOM     39  C   UNL     1      -5.367   8.675  -2.343  1.00  0.00     0.049 A 
ATOM     40  H   UNL     1      -4.755   9.185  -0.418  1.00  0.00     0.167 HD
ATOM     41  C   UNL     1      -3.773  10.249   3.684  1.00  0.00     0.037 A 
ATOM     42  C   UNL     1      -5.292   9.787  -3.100  1.00  0.00     0.037 A 
ATOM     43  C   UNL     1      -3.727  11.499   2.971  1.00  0.00     0.049 A 
ATOM     44  C   UNL     1      -4.914  11.095  -2.467  1.00  0.00     0.074 A 
ATOM     45  C   UNL     1      -3.384  12.753   3.447  1.00  0.00     0.029 A 
ATOM     46  N   UNL     1      -4.004  11.646   1.621  1.00  0.00    -0.354 N 
ATOM     47  N   UNL     1      -4.595  11.348  -1.222  1.00  0.00    -0.248 NA
ATOM     48  C   UNL     1      -4.917  12.279  -3.339  1.00  0.00     0.031 C 
ATOM     49  C   UNL     1      -3.470  13.664   2.388  1.00  0.00     0.029 A 
ATOM     50  C   UNL     1      -3.840  12.970   1.248  1.00  0.00     0.049 A 
ATOM     51  H   UNL     1      -4.277  10.918   1.018  1.00  0.00     0.167 HD
ATOM     52  C   UNL     1      -4.362  12.715  -1.160  1.00  0.00     0.074 A 
ATOM     53  C   UNL     1      -4.551  13.236  -2.498  1.00  0.00     0.031 C 
ATOM     54  C   UNL     1      -4.032  13.473  -0.086  1.00  0.00     0.037 A 
BRANCH  41  55
ATOM     55  C   UNL     1      -3.462  10.263   5.150  1.00  0.00     0.057 A 
ATOM     56  C   UNL     1      -2.251   9.783   5.661  1.00  0.00     0.134 A 
ATOM     57  C   UNL     1      -4.383  10.797   6.061  1.00  0.00     0.134 A 
ATOM     58  F   UNL     1      -1.334   9.244   4.843  1.00  0.00    -0.206 F 
ATOM     59  C   UNL     1      -1.974   9.816   7.029  1.00  0.00     0.040 A 
ATOM     60  C   UNL     1      -4.109  10.856   7.428  1.00  0.00     0.040 A 
ATOM     61  F   UNL     1      -5.561  11.279   5.634  1.00  0.00    -0.206 F 
ATOM     62  C   UNL     1      -2.903  10.360   7.916  1.00  0.00     0.006 A 
ENDBRANCH  41  55
BRANCH  42  63
ATOM     63  C   UNL     1      -5.628   9.719  -4.544  1.00  0.00     0.057 A 
ATOM     64  C   UNL     1      -4.634   9.835  -5.521  1.00  0.00     0.134 A 
ATOM     65  C   UNL     1      -6.945   9.531  -4.979  1.00  0.00     0.134 A 
ATOM     66  F   UNL     1      -3.358  10.044  -5.165  1.00  0.00    -0.206 F 
ATOM     67  C   UNL     1      -4.938   9.767  -6.882  1.00  0.00     0.040 A 
ATOM     68  C   UNL     1      -7.260   9.438  -6.335  1.00  0.00     0.040 A 
ATOM     69  F   UNL     1      -7.942   9.416  -4.089  1.00  0.00    -0.206 F 
ATOM     70  C   UNL     1      -6.254   9.559  -7.291  1.00  0.00     0.006 A 
ENDBRANCH  42  63
BRANCH  54  71
ATOM     71  C   UNL     1      -3.841  14.940  -0.321  1.00  0.00     0.057 A 
ATOM     72  C   UNL     1      -4.931  15.804  -0.476  1.00  0.00     0.134 A 
ATOM     73  C   UNL     1      -2.557  15.497  -0.365  1.00  0.00     0.134 A 
ATOM     74  F   UNL     1      -6.185  15.327  -0.457  1.00  0.00    -0.206 F 
ATOM     75  C   UNL     1      -4.750  17.172  -0.684  1.00  0.00     0.040 A 
ATOM     76  C   UNL     1      -2.364  16.866  -0.555  1.00  0.00     0.040 A 
ATOM     77  F   UNL     1      -1.473  14.721  -0.218  1.00  0.00    -0.206 F 
ATOM     78  C   UNL     1      -3.463  17.707  -0.719  1.00  0.00     0.006 A 
ENDBRANCH  54  71
ENDBRANCH  28  29
ENDBRANCH  21  23
ENDBRANCH  20  21
ENDBRANCH   1  20
TORSDOF 11
