REMARK SMILES C[C@H](CN(C)C(=O)CCc1nc2ccccc2o1)C(=O)OCCOC(=O)c1ccc(-c2c3nc(c(-c4c(F)cccc4F)c4ccc([nH]4)c(-c4c(F)cccc4F)c4nc(c(-c5c(F)cccc5F)c5ccc2[nH]5)C=C4)C=C3)cc1
REMARK SMILES IDX 19 1 20 2 2 3 1 4 3 5 4 6 5 7 6 8 7 9 8 10 9 11 10 12 11 13
REMARK SMILES IDX 18 14 12 15 17 16 13 17 16 18 14 19 15 20 21 21 22 22 23 23
REMARK SMILES IDX 24 24 25 25 26 26 27 27 28 28 80 29 29 30 79 31 30 32 31 33
REMARK SMILES IDX 32 34 73 35 33 36 78 37 72 38 74 39 34 40 77 41 71 42 70 43
REMARK SMILES IDX 35 45 61 46 44 47 60 48 45 49 48 50 59 51 75 52 46 53 47 54
REMARK SMILES IDX 58 56 76 57 49 58 36 59 37 60 42 61 38 62 39 63 41 64 43 65
REMARK SMILES IDX 40 66 62 67 63 68 68 69 64 70 65 71 67 72 69 73 66 74 50 75
REMARK SMILES IDX 51 76 56 77 52 78 53 79 55 80 57 81 54 82
REMARK H PARENT 74 44 48 55
REMARK Flexibility Score: inf
ROOT
ATOM      1  C   UNL     1      -1.096   2.046   0.142  1.00  0.00     0.310 C 
ATOM      2  O   UNL     1      -1.451   2.851   0.997  1.00  0.00    -0.252 OA
ENDROOT
BRANCH   1   3
ATOM      3  C   UNL     1       0.367   1.744  -0.138  1.00  0.00     0.115 C 
ATOM      4  C   UNL     1       0.996   2.916  -0.878  1.00  0.00     0.022 C 
BRANCH   3   5
ATOM      5  C   UNL     1       0.590   0.312  -0.676  1.00  0.00     0.134 C 
BRANCH   5   6
ATOM      6  N   UNL     1       1.592   0.144  -1.728  1.00  0.00    -0.345 N 
ATOM      7  C   UNL     1       2.714  -0.720  -1.391  1.00  0.00     0.146 C 
BRANCH   6   8
ATOM      8  C   UNL     1       1.274   0.602  -2.997  1.00  0.00     0.222 C 
ATOM      9  O   UNL     1       0.154   1.054  -3.257  1.00  0.00    -0.275 OA
BRANCH   8  10
ATOM     10  C   UNL     1       2.331   0.628  -4.082  1.00  0.00     0.110 C 
BRANCH  10  11
ATOM     11  C   UNL     1       3.187   1.893  -4.002  1.00  0.00     0.107 C 
BRANCH  11  12
ATOM     12  C   UNL     1       4.247   1.800  -2.965  1.00  0.00     0.195 A 
ATOM     13  N   UNL     1       4.433   2.560  -1.903  1.00  0.00    -0.214 NA
ATOM     14  O   UNL     1       5.090   0.723  -3.054  1.00  0.00    -0.441 OA
ATOM     15  C   UNL     1       5.386   1.884  -1.184  1.00  0.00     0.109 A 
ATOM     16  C   UNL     1       5.787   0.758  -1.883  1.00  0.00     0.154 A 
ATOM     17  C   UNL     1       5.927   2.121   0.085  1.00  0.00     0.032 A 
ATOM     18  C   UNL     1       6.685  -0.192  -1.415  1.00  0.00     0.049 A 
ATOM     19  C   UNL     1       6.824   1.175   0.606  1.00  0.00     0.003 A 
ATOM     20  C   UNL     1       7.189   0.039  -0.130  1.00  0.00     0.004 A 
ENDBRANCH  11  12
ENDBRANCH  10  11
ENDBRANCH   8  10
ENDBRANCH   6   8
ENDBRANCH   5   6
ENDBRANCH   3   5
ENDBRANCH   1   3
BRANCH   1  21
ATOM     21  O   UNL     1      -1.945   1.324  -0.629  1.00  0.00    -0.462 OA
BRANCH  21  22
ATOM     22  C   UNL     1      -3.346   1.385  -0.314  1.00  0.00     0.274 C 
BRANCH  22  23
ATOM     23  C   UNL     1      -3.758   0.199   0.565  1.00  0.00     0.275 C 
BRANCH  23  24
ATOM     24  O   UNL     1      -3.271   0.339   1.916  1.00  0.00    -0.458 OA
BRANCH  24  25
ATOM     25  C   UNL     1      -2.083  -0.256   2.170  1.00  0.00     0.338 C 
ATOM     26  O   UNL     1      -1.413  -0.928   1.405  1.00  0.00    -0.246 OA
BRANCH  25  27
ATOM     27  C   UNL     1      -1.594   0.137   3.502  1.00  0.00     0.060 A 
ATOM     28  C   UNL     1      -0.343   0.753   3.575  1.00  0.00     0.016 A 
ATOM     29  C   UNL     1      -2.301  -0.163   4.667  1.00  0.00     0.016 A 
ATOM     30  C   UNL     1       0.214   1.075   4.806  1.00  0.00     0.010 A 
ATOM     31  C   UNL     1      -1.740   0.157   5.909  1.00  0.00     0.010 A 
ATOM     32  C   UNL     1      -0.476   0.769   5.984  1.00  0.00    -0.014 A 
BRANCH  32  33
ATOM     33  C   UNL     1       0.169   1.047   7.288  1.00  0.00     0.031 A 
ATOM     34  C   UNL     1       0.753  -0.081   8.086  1.00  0.00     0.074 A 
ATOM     35  C   UNL     1       0.278   2.314   7.726  1.00  0.00     0.049 A 
ATOM     36  N   UNL     1       1.302  -0.058   9.273  1.00  0.00    -0.248 NA
ATOM     37  C   UNL     1       0.716  -1.414   7.464  1.00  0.00     0.031 C 
ATOM     38  C   UNL     1      -0.195   3.498   7.008  1.00  0.00     0.029 A 
ATOM     39  N   UNL     1       0.827   2.816   8.877  1.00  0.00    -0.354 N 
ATOM     40  C   UNL     1       1.655  -1.371   9.552  1.00  0.00     0.074 A 
ATOM     41  C   UNL     1       1.251  -2.169   8.413  1.00  0.00     0.031 C 
ATOM     42  C   UNL     1       0.089   4.591   7.735  1.00  0.00     0.029 A 
ATOM     43  C   UNL     1       0.720   4.181   8.986  1.00  0.00     0.049 A 
ATOM     44  H   UNL     1       1.256   2.252   9.561  1.00  0.00     0.167 HD
ATOM     45  C   UNL     1       2.260  -1.865  10.658  1.00  0.00     0.037 A 
ATOM     46  C   UNL     1       1.069   5.002   9.993  1.00  0.00     0.037 A 
ATOM     47  C   UNL     1       2.675  -1.065  11.780  1.00  0.00     0.049 A 
ATOM     48  C   UNL     1       1.692   4.423  11.232  1.00  0.00     0.074 A 
ATOM     49  C   UNL     1       3.295  -1.472  12.949  1.00  0.00     0.029 A 
ATOM     50  N   UNL     1       2.517   0.310  11.870  1.00  0.00    -0.354 N 
ATOM     51  N   UNL     1       1.995   3.176  11.498  1.00  0.00    -0.248 NA
ATOM     52  C   UNL     1       2.012   5.365  12.314  1.00  0.00     0.031 C 
ATOM     53  C   UNL     1       3.483  -0.347  13.760  1.00  0.00     0.029 A 
ATOM     54  C   UNL     1       3.014   0.765  13.080  1.00  0.00     0.049 A 
ATOM     55  H   UNL     1       2.111   0.878  11.176  1.00  0.00     0.167 HD
ATOM     56  C   UNL     1       2.553   3.183  12.769  1.00  0.00     0.074 A 
ATOM     57  C   UNL     1       2.562   4.562  13.214  1.00  0.00     0.031 C 
ATOM     58  C   UNL     1       3.015   2.142  13.503  1.00  0.00     0.037 A 
BRANCH  45  59
ATOM     59  C   UNL     1       2.475  -3.346  10.720  1.00  0.00     0.057 A 
ATOM     60  C   UNL     1       3.476  -3.982   9.976  1.00  0.00     0.134 A 
ATOM     61  C   UNL     1       1.682  -4.144  11.555  1.00  0.00     0.134 A 
ATOM     62  F   UNL     1       4.257  -3.275   9.145  1.00  0.00    -0.206 F 
ATOM     63  C   UNL     1       3.670  -5.362  10.046  1.00  0.00     0.040 A 
ATOM     64  C   UNL     1       1.879  -5.522  11.648  1.00  0.00     0.040 A 
ATOM     65  F   UNL     1       0.707  -3.596  12.295  1.00  0.00    -0.206 F 
ATOM     66  C   UNL     1       2.873  -6.136  10.889  1.00  0.00     0.006 A 
ENDBRANCH  45  59
BRANCH  46  67
ATOM     67  C   UNL     1       0.810   6.458   9.882  1.00  0.00     0.057 A 
ATOM     68  C   UNL     1       1.859   7.372   9.731  1.00  0.00     0.134 A 
ATOM     69  C   UNL     1      -0.493   6.970   9.927  1.00  0.00     0.134 A 
ATOM     70  F   UNL     1       3.129   6.943   9.706  1.00  0.00    -0.206 F 
ATOM     71  C   UNL     1       1.622   8.745   9.638  1.00  0.00     0.040 A 
ATOM     72  C   UNL     1      -0.745   8.337   9.812  1.00  0.00     0.040 A 
ATOM     73  F   UNL     1      -1.540   6.144  10.072  1.00  0.00    -0.206 F 
ATOM     74  C   UNL     1       0.316   9.229   9.672  1.00  0.00     0.006 A 
ENDBRANCH  46  67
BRANCH  58  75
ATOM     75  C   UNL     1       3.588   2.461  14.850  1.00  0.00     0.057 A 
ATOM     76  C   UNL     1       2.769   2.777  15.941  1.00  0.00     0.134 A 
ATOM     77  C   UNL     1       4.971   2.423  15.065  1.00  0.00     0.134 A 
ATOM     78  F   UNL     1       1.437   2.842  15.794  1.00  0.00    -0.206 F 
ATOM     79  C   UNL     1       3.308   3.063  17.196  1.00  0.00     0.040 A 
ATOM     80  C   UNL     1       5.520   2.688  16.320  1.00  0.00     0.040 A 
ATOM     81  F   UNL     1       5.808   2.120  14.061  1.00  0.00    -0.206 F 
ATOM     82  C   UNL     1       4.687   3.014  17.389  1.00  0.00     0.006 A 
ENDBRANCH  58  75
ENDBRANCH  32  33
ENDBRANCH  25  27
ENDBRANCH  24  25
ENDBRANCH  23  24
ENDBRANCH  22  23
ENDBRANCH  21  22
ENDBRANCH   1  21
TORSDOF 17
