REMARK SMILES O=C(OCCOC(=O)c1ccn(-c2cc(-c3ccncc3)nc(-c3ccccc3F)n2)n1)c1ccc(-c2c3nc(c(-c4c(F)cccc4F)c4ccc([nH]4)c(-c4c(F)cccc4F)c4nc(c(-c5c(F)cccc5F)c5ccc2[nH]5)C=C4)C=C3)cc1
REMARK SMILES IDX 4 1 3 2 2 3 1 4 33 5 34 6 86 7 35 8 85 9 36 10 37 11 38 12
REMARK SMILES IDX 79 13 39 14 84 15 78 16 80 17 40 18 83 19 77 20 76 21 41 23
REMARK SMILES IDX 67 24 50 25 66 26 51 27 54 28 65 29 81 30 52 31 53 32 64 34
REMARK SMILES IDX 82 35 55 36 42 37 43 38 48 39 44 40 45 41 47 42 49 43 46 44
REMARK SMILES IDX 68 45 69 46 74 47 70 48 71 49 73 50 75 51 72 52 56 53 57 54
REMARK SMILES IDX 62 55 58 56 59 57 61 58 63 59 60 60 5 61 6 62 7 63 8 64 9 65
REMARK SMILES IDX 10 66 32 67 11 68 12 69 13 70 14 71 31 72 15 73 23 74 22 75
REMARK SMILES IDX 16 76 17 77 21 78 18 79 20 80 19 81 24 82 25 83 29 84 26 85
REMARK SMILES IDX 28 86 30 87 27 88
REMARK H PARENT 80 22 54 33
REMARK Flexibility Score: inf
ROOT
ATOM      1  C   UNL     1       4.648  -0.769  -0.658  1.00  0.00     0.275 C 
ENDROOT
BRANCH   1   2
ATOM      2  O   UNL     1       3.419  -1.426  -0.289  1.00  0.00    -0.458 OA
BRANCH   2   3
ATOM      3  C   UNL     1       2.331  -0.701   0.051  1.00  0.00     0.338 C 
ATOM      4  O   UNL     1       1.392  -0.509  -0.707  1.00  0.00    -0.246 OA
BRANCH   3   5
ATOM      5  C   UNL     1       2.248  -0.417   1.505  1.00  0.00     0.060 A 
ATOM      6  C   UNL     1       3.361  -0.400   2.354  1.00  0.00     0.016 A 
ATOM      7  C   UNL     1       0.970  -0.194   2.030  1.00  0.00     0.016 A 
ATOM      8  C   UNL     1       3.190  -0.267   3.724  1.00  0.00     0.010 A 
ATOM      9  C   UNL     1       0.798  -0.055   3.397  1.00  0.00     0.010 A 
ATOM     10  C   UNL     1       1.901  -0.142   4.245  1.00  0.00    -0.014 A 
BRANCH  10  11
ATOM     11  C   UNL     1       1.732   0.000   5.690  1.00  0.00     0.031 A 
ATOM     12  C   UNL     1       2.401   1.202   6.282  1.00  0.00     0.074 A 
ATOM     13  C   UNL     1       0.904  -0.824   6.373  1.00  0.00     0.049 A 
ATOM     14  N   UNL     1       3.178   1.270   7.311  1.00  0.00    -0.248 NA
ATOM     15  C   UNL     1       2.268   2.495   5.591  1.00  0.00     0.031 C 
ATOM     16  C   UNL     1       0.038  -1.877   5.820  1.00  0.00     0.029 A 
ATOM     17  N   UNL     1       0.573  -0.845   7.695  1.00  0.00    -0.354 N 
ATOM     18  C   UNL     1       3.466   2.624   7.514  1.00  0.00     0.074 A 
ATOM     19  C   UNL     1       2.943   3.328   6.382  1.00  0.00     0.031 C 
ATOM     20  C   UNL     1      -0.875  -2.249   6.743  1.00  0.00     0.029 A 
ATOM     21  C   UNL     1      -0.572  -1.585   7.995  1.00  0.00     0.049 A 
ATOM     22  H   UNL     1       1.099  -0.376   8.382  1.00  0.00     0.167 HD
ATOM     23  C   UNL     1       3.952   3.056   8.710  1.00  0.00     0.037 A 
ATOM     24  C   UNL     1      -1.234  -1.637   9.181  1.00  0.00     0.037 A 
ATOM     25  C   UNL     1       4.587   1.962   9.398  1.00  0.00     0.049 A 
ATOM     26  C   UNL     1      -0.283  -1.170  10.215  1.00  0.00     0.074 A 
ATOM     27  C   UNL     1       5.689   1.171   9.151  1.00  0.00     0.029 A 
ATOM     28  N   UNL     1       3.821   1.294  10.316  1.00  0.00    -0.354 N 
ATOM     29  N   UNL     1       0.800  -1.812  10.554  1.00  0.00    -0.248 NA
ATOM     30  C   UNL     1      -0.320   0.234  10.584  1.00  0.00     0.031 C 
ATOM     31  C   UNL     1       5.319  -0.126   9.608  1.00  0.00     0.029 A 
ATOM     32  C   UNL     1       4.052  -0.047  10.190  1.00  0.00     0.049 A 
ATOM     33  H   UNL     1       3.205   1.711  10.961  1.00  0.00     0.167 HD
ATOM     34  C   UNL     1       1.744  -0.817  10.751  1.00  0.00     0.074 A 
ATOM     35  C   UNL     1       0.970   0.417  10.875  1.00  0.00     0.031 C 
ATOM     36  C   UNL     1       3.064  -1.057  10.502  1.00  0.00     0.037 A 
BRANCH  23  37
ATOM     37  C   UNL     1       3.444   4.280   9.452  1.00  0.00     0.057 A 
ATOM     38  C   UNL     1       2.306   5.025   9.093  1.00  0.00     0.134 A 
ATOM     39  C   UNL     1       3.900   4.503  10.769  1.00  0.00     0.134 A 
ATOM     40  F   UNL     1       1.770   4.971   7.870  1.00  0.00    -0.206 F 
ATOM     41  C   UNL     1       1.598   5.818  10.004  1.00  0.00     0.040 A 
ATOM     42  C   UNL     1       3.185   5.270  11.697  1.00  0.00     0.040 A 
ATOM     43  F   UNL     1       5.006   3.898  11.228  1.00  0.00    -0.206 F 
ATOM     44  C   UNL     1       2.011   5.906  11.324  1.00  0.00     0.006 A 
ENDBRANCH  23  37
BRANCH  24  45
ATOM     45  C   UNL     1      -2.694  -1.741   9.456  1.00  0.00     0.057 A 
ATOM     46  C   UNL     1      -3.661  -1.375   8.505  1.00  0.00     0.134 A 
ATOM     47  C   UNL     1      -3.170  -1.904  10.769  1.00  0.00     0.134 A 
ATOM     48  F   UNL     1      -3.336  -1.182   7.220  1.00  0.00    -0.206 F 
ATOM     49  C   UNL     1      -4.992  -1.102   8.850  1.00  0.00     0.040 A 
ATOM     50  C   UNL     1      -4.502  -1.642  11.126  1.00  0.00     0.040 A 
ATOM     51  F   UNL     1      -2.334  -2.253  11.758  1.00  0.00    -0.206 F 
ATOM     52  C   UNL     1      -5.412  -1.211  10.168  1.00  0.00     0.006 A 
ENDBRANCH  24  45
BRANCH  36  53
ATOM     53  C   UNL     1       3.506  -2.487  10.345  1.00  0.00     0.057 A 
ATOM     54  C   UNL     1       4.503  -2.958  11.207  1.00  0.00     0.134 A 
ATOM     55  C   UNL     1       3.118  -3.340   9.302  1.00  0.00     0.134 A 
ATOM     56  F   UNL     1       4.963  -2.177  12.198  1.00  0.00    -0.206 F 
ATOM     57  C   UNL     1       5.097  -4.210  11.039  1.00  0.00     0.040 A 
ATOM     58  C   UNL     1       3.678  -4.612   9.144  1.00  0.00     0.040 A 
ATOM     59  F   UNL     1       2.237  -2.951   8.372  1.00  0.00    -0.206 F 
ATOM     60  C   UNL     1       4.679  -5.046  10.008  1.00  0.00     0.006 A 
ENDBRANCH  36  53
ENDBRANCH  10  11
ENDBRANCH   3   5
ENDBRANCH   2   3
ENDBRANCH   1   2
BRANCH   1  61
ATOM     61  C   UNL     1       4.541   0.595  -1.337  1.00  0.00     0.275 C 
BRANCH  61  62
ATOM     62  O   UNL     1       3.995   1.569  -0.429  1.00  0.00    -0.457 OA
BRANCH  62  63
ATOM     63  C   UNL     1       2.888   2.236  -0.871  1.00  0.00     0.358 C 
ATOM     64  O   UNL     1       2.398   2.113  -1.996  1.00  0.00    -0.244 OA
BRANCH  63  65
ATOM     65  C   UNL     1       2.385   3.201   0.103  1.00  0.00     0.170 A 
ATOM     66  C   UNL     1       2.833   4.537   0.233  1.00  0.00     0.058 A 
ATOM     67  N   UNL     1       1.385   2.938   0.972  1.00  0.00    -0.159 NA
ATOM     68  C   UNL     1       1.912   5.137   1.054  1.00  0.00     0.118 A 
ATOM     69  N   UNL     1       1.018   4.162   1.433  1.00  0.00    -0.222 N 
BRANCH  69  70
ATOM     70  C   UNL     1      -0.136   4.375   2.236  1.00  0.00     0.158 A 
ATOM     71  C   UNL     1      -0.436   3.469   3.231  1.00  0.00     0.078 A 
ATOM     72  N   UNL     1      -0.836   5.513   2.045  1.00  0.00    -0.209 NA
ATOM     73  C   UNL     1      -1.405   3.863   4.132  1.00  0.00     0.077 A 
ATOM     74  C   UNL     1      -1.880   5.705   2.865  1.00  0.00     0.165 A 
ATOM     75  N   UNL     1      -2.170   4.948   3.933  1.00  0.00    -0.228 NA
BRANCH  73  76
ATOM     76  C   UNL     1      -1.584   3.230   5.440  1.00  0.00     0.003 A 
ATOM     77  C   UNL     1      -0.736   3.562   6.504  1.00  0.00     0.030 A 
ATOM     78  C   UNL     1      -2.639   2.360   5.702  1.00  0.00     0.030 A 
ATOM     79  C   UNL     1      -0.940   2.987   7.748  1.00  0.00     0.111 A 
ATOM     80  C   UNL     1      -2.783   1.863   6.989  1.00  0.00     0.111 A 
ATOM     81  N   UNL     1      -1.955   2.146   8.019  1.00  0.00    -0.265 NA
ENDBRANCH  73  76
BRANCH  74  82
ATOM     82  C   UNL     1      -2.869   6.692   2.472  1.00  0.00     0.055 A 
ATOM     83  C   UNL     1      -3.628   6.512   1.300  1.00  0.00     0.015 A 
ATOM     84  C   UNL     1      -3.127   7.814   3.260  1.00  0.00     0.134 A 
ATOM     85  C   UNL     1      -4.615   7.431   0.938  1.00  0.00     0.001 A 
ATOM     86  C   UNL     1      -4.104   8.740   2.900  1.00  0.00     0.040 A 
ATOM     87  F   UNL     1      -2.424   8.030   4.383  1.00  0.00    -0.206 F 
ATOM     88  C   UNL     1      -4.850   8.548   1.738  1.00  0.00     0.003 A 
ENDBRANCH  74  82
ENDBRANCH  69  70
ENDBRANCH  63  65
ENDBRANCH  62  63
ENDBRANCH  61  62
ENDBRANCH   1  61
TORSDOF 14
