REMARK SMILES O=C(OCCOC(=O)[C@H]1CSCN1C(=O)c1occc1-c1ccccc1)c1ccc(-c2c3nc(c(-c4c(F)cccc4F)c4ccc([nH]4)c(-c4c(F)cccc4F)c4nc(c(-c5c(F)cccc5F)c5ccc2[nH]5)C=C4)C=C3)cc1
REMARK SMILES IDX 5 1 4 2 3 3 2 4 1 5 27 6 28 7 80 8 29 9 79 10 30 11 31 12
REMARK SMILES IDX 32 13 73 14 33 15 78 16 72 17 74 18 34 19 77 20 71 21 70 22
REMARK SMILES IDX 35 24 61 25 44 26 60 27 45 28 48 29 59 30 75 31 46 32 47 33
REMARK SMILES IDX 58 35 76 36 49 37 36 38 37 39 42 40 38 41 39 42 41 43 43 44
REMARK SMILES IDX 40 45 62 46 63 47 68 48 64 49 65 50 67 51 69 52 66 53 50 54
REMARK SMILES IDX 51 55 56 56 52 57 53 58 55 59 57 60 54 61 6 62 7 63 8 64
REMARK SMILES IDX 9 65 10 66 13 67 11 68 12 69 14 70 15 71 16 72 17 73 20 74
REMARK SMILES IDX 18 75 19 76 21 77 22 78 26 79 23 80 25 81 24 82
REMARK H PARENT 74 23 48 34
REMARK Flexibility Score: inf
ROOT
ATOM      1  C   UNL     1       4.304  -2.374  -0.442  1.00  0.00     0.274 C 
ENDROOT
BRANCH   1   2
ATOM      2  C   UNL     1       4.186  -1.488   0.826  1.00  0.00     0.275 C 
BRANCH   2   3
ATOM      3  O   UNL     1       2.853  -0.980   1.063  1.00  0.00    -0.458 OA
BRANCH   3   4
ATOM      4  C   UNL     1       2.264   0.185   0.699  1.00  0.00     0.338 C 
ATOM      5  O   UNL     1       1.129   0.439   1.091  1.00  0.00    -0.246 OA
BRANCH   4   6
ATOM      6  C   UNL     1       2.865   1.138  -0.271  1.00  0.00     0.060 A 
ATOM      7  C   UNL     1       4.427   0.815  -1.181  1.00  0.00     0.016 A 
ATOM      8  C   UNL     1       1.925   2.664  -0.644  1.00  0.00     0.016 A 
ATOM      9  C   UNL     1       5.036   1.963  -2.409  1.00  0.00     0.010 A 
ATOM     10  C   UNL     1       2.587   3.867  -1.877  1.00  0.00     0.010 A 
ATOM     11  C   UNL     1       4.166   3.479  -2.756  1.00  0.00    -0.014 A 
BRANCH  11  12
ATOM     12  C   UNL     1       4.918   4.341  -3.696  1.00  0.00     0.031 A 
ATOM     13  C   UNL     1       5.981   5.270  -3.203  1.00  0.00     0.074 A 
ATOM     14  C   UNL     1       4.945   4.098  -5.015  1.00  0.00     0.049 A 
ATOM     15  N   UNL     1       6.301   6.450  -3.654  1.00  0.00    -0.248 NA
ATOM     16  C   UNL     1       6.777   4.840  -2.042  1.00  0.00     0.031 C 
ATOM     17  C   UNL     1       4.428   2.916  -5.692  1.00  0.00     0.029 A 
ATOM     18  N   UNL     1       5.453   4.861  -6.030  1.00  0.00    -0.354 N 
ATOM     19  C   UNL     1       7.099   7.012  -2.661  1.00  0.00     0.074 A 
ATOM     20  C   UNL     1       7.362   5.980  -1.690  1.00  0.00     0.031 C 
ATOM     21  C   UNL     1       4.523   3.085  -7.018  1.00  0.00     0.029 A 
ATOM     22  C   UNL     1       5.105   4.396  -7.272  1.00  0.00     0.049 A 
ATOM     23  H   UNL     1       6.010   5.660  -5.884  1.00  0.00     0.167 HD
ATOM     24  C   UNL     1       7.402   8.329  -2.578  1.00  0.00     0.037 A 
ATOM     25  C   UNL     1       5.207   5.000  -8.467  1.00  0.00     0.037 A 
ATOM     26  C   UNL     1       7.371   9.152  -3.765  1.00  0.00     0.049 A 
ATOM     27  C   UNL     1       5.808   6.375  -8.496  1.00  0.00     0.074 A 
ATOM     28  C   UNL     1       7.716  10.478  -3.937  1.00  0.00     0.029 A 
ATOM     29  N   UNL     1       7.053   8.654  -5.024  1.00  0.00    -0.354 N 
ATOM     30  N   UNL     1       6.165   7.131  -7.482  1.00  0.00    -0.248 NA
ATOM     31  C   UNL     1       6.035   6.979  -9.810  1.00  0.00     0.031 C 
ATOM     32  C   UNL     1       7.619  10.773  -5.305  1.00  0.00     0.029 A 
ATOM     33  C   UNL     1       7.261   9.616  -5.986  1.00  0.00     0.049 A 
ATOM     34  H   UNL     1       6.727   7.742  -5.202  1.00  0.00     0.167 HD
ATOM     35  C   UNL     1       6.677   8.296  -8.031  1.00  0.00     0.074 A 
ATOM     36  C   UNL     1       6.589   8.138  -9.472  1.00  0.00     0.031 C 
ATOM     37  C   UNL     1       7.173   9.395  -7.408  1.00  0.00     0.037 A 
BRANCH  24  38
ATOM     38  C   UNL     1       7.599   8.958  -1.223  1.00  0.00     0.057 A 
ATOM     39  C   UNL     1       8.602   8.627  -0.308  1.00  0.00     0.134 A 
ATOM     40  C   UNL     1       6.687   9.953  -0.813  1.00  0.00     0.134 A 
ATOM     41  F   UNL     1       9.536   7.714  -0.613  1.00  0.00    -0.206 F 
ATOM     42  C   UNL     1       8.667   9.217   0.963  1.00  0.00     0.040 A 
ATOM     43  C   UNL     1       6.769  10.583   0.431  1.00  0.00     0.040 A 
ATOM     44  F   UNL     1       5.679  10.327  -1.616  1.00  0.00    -0.206 F 
ATOM     45  C   UNL     1       7.754  10.204   1.332  1.00  0.00     0.006 A 
ENDBRANCH  24  38
BRANCH  25  46
ATOM     46  C   UNL     1       4.715   4.293  -9.673  1.00  0.00     0.057 A 
ATOM     47  C   UNL     1       5.603   3.721 -10.589  1.00  0.00     0.134 A 
ATOM     48  C   UNL     1       3.347   4.057  -9.867  1.00  0.00     0.134 A 
ATOM     49  F   UNL     1       6.924   3.907 -10.454  1.00  0.00    -0.206 F 
ATOM     50  C   UNL     1       5.150   2.933 -11.650  1.00  0.00     0.040 A 
ATOM     51  C   UNL     1       2.882   3.255 -10.911  1.00  0.00     0.040 A 
ATOM     52  F   UNL     1       2.446   4.555  -9.007  1.00  0.00    -0.206 F 
ATOM     53  C   UNL     1       3.787   2.688 -11.806  1.00  0.00     0.006 A 
ENDBRANCH  25  46
BRANCH  37  54
ATOM     54  C   UNL     1       7.722  10.476  -8.279  1.00  0.00     0.057 A 
ATOM     55  C   UNL     1       6.889  11.372  -8.954  1.00  0.00     0.134 A 
ATOM     56  C   UNL     1       9.106  10.669  -8.361  1.00  0.00     0.134 A 
ATOM     57  F   UNL     1       5.556  11.229  -8.910  1.00  0.00    -0.206 F 
ATOM     58  C   UNL     1       7.418  12.425  -9.698  1.00  0.00     0.040 A 
ATOM     59  C   UNL     1       9.645  11.730  -9.085  1.00  0.00     0.040 A 
ATOM     60  F   UNL     1       9.949   9.843  -7.723  1.00  0.00    -0.206 F 
ATOM     61  C   UNL     1       8.800  12.611  -9.756  1.00  0.00     0.006 A 
ENDBRANCH  37  54
ENDBRANCH  11  12
ENDBRANCH   4   6
ENDBRANCH   3   4
ENDBRANCH   2   3
ENDBRANCH   1   2
BRANCH   1  62
ATOM     62  O   UNL     1       4.110  -1.645  -1.673  1.00  0.00    -0.461 OA
BRANCH  62  63
ATOM     63  C   UNL     1       2.825  -1.238  -1.871  1.00  0.00     0.329 C 
ATOM     64  O   UNL     1       1.882  -1.880  -1.427  1.00  0.00    -0.250 OA
BRANCH  63  65
ATOM     65  C   UNL     1       2.730   0.157  -2.651  1.00  0.00     0.206 C 
ATOM     66  C   UNL     1       1.247  -0.008  -3.201  1.00  0.00     0.108 C 
ATOM     67  N   UNL     1       2.942   1.872  -2.196  1.00  0.00    -0.312 N 
ATOM     68  S   UNL     1       0.400   1.541  -3.385  1.00  0.00    -0.138 SA
ATOM     69  C   UNL     1       1.941   2.421  -3.454  1.00  0.00     0.191 C 
BRANCH  67  70
ATOM     70  C   UNL     1       3.974   2.837  -0.773  1.00  0.00     0.291 C 
ATOM     71  O   UNL     1       4.837   2.398   0.043  1.00  0.00    -0.265 OA
BRANCH  70  72
ATOM     72  C   UNL     1       3.915   4.426  -0.162  1.00  0.00     0.199 A 
ATOM     73  O   UNL     1       4.473   5.457  -0.880  1.00  0.00    -0.459 OA
ATOM     74  C   UNL     1       3.468   4.968   1.050  1.00  0.00     0.033 A 
ATOM     75  C   UNL     1       4.374   6.604  -0.173  1.00  0.00     0.196 A 
ATOM     76  C   UNL     1       3.785   6.360   1.035  1.00  0.00     0.051 A 
BRANCH  74  77
ATOM     77  C   UNL     1       2.546   4.315   1.945  1.00  0.00    -0.014 A 
ATOM     78  C   UNL     1       1.233   4.815   1.980  1.00  0.00     0.009 A 
ATOM     79  C   UNL     1       2.877   3.156   2.639  1.00  0.00     0.009 A 
ATOM     80  C   UNL     1       0.232   4.105   2.630  1.00  0.00     0.001 A 
ATOM     81  C   UNL     1       1.871   2.455   3.305  1.00  0.00     0.001 A 
ATOM     82  C   UNL     1       0.550   2.913   3.275  1.00  0.00     0.000 A 
ENDBRANCH  74  77
ENDBRANCH  70  72
ENDBRANCH  67  70
ENDBRANCH  63  65
ENDBRANCH  62  63
ENDBRANCH   1  62
TORSDOF 14
