REMARK SMILES C[C@H](C(=O)OCCOC(=O)c1ccc(-c2c3nc(c(-c4c(F)cccc4F)c4ccc([nH]4)c(-c4c(F)cccc4F)c4nc(c(-c5c(F)cccc5F)c5ccc2[nH]5)C=C4)C=C3)cc1)N1C(=O)/C(=C/c2ccccc2F)SC1=S
REMARK SMILES IDX 6 1 5 2 3 3 4 4 2 5 1 6 65 7 66 8 78 9 67 10 68 11 77 12
REMARK SMILES IDX 79 13 69 14 70 15 71 16 75 17 72 18 74 19 76 20 73 21 7 22
REMARK SMILES IDX 8 23 9 24 10 25 11 26 12 27 64 28 13 29 63 30 14 31 15 32
REMARK SMILES IDX 16 33 57 34 17 35 62 36 56 37 58 38 18 39 61 40 55 41 54 42
REMARK SMILES IDX 19 44 45 45 28 46 44 47 29 48 32 49 43 50 59 51 30 52 31 53
REMARK SMILES IDX 42 55 60 56 33 57 20 58 21 59 26 60 22 61 23 62 25 63 27 64
REMARK SMILES IDX 24 65 46 66 47 67 52 68 48 69 49 70 51 71 53 72 50 73 34 74
REMARK SMILES IDX 35 75 40 76 36 77 37 78 39 79 41 80 38 81
REMARK H PARENT 58 43 32 54
REMARK Flexibility Score: inf
ROOT
ATOM      1  C   UNL     1       0.668  -1.906  -0.655  1.00  0.00     0.274 C 
ENDROOT
BRANCH   1   2
ATOM      2  O   UNL     1       0.141  -0.657  -0.157  1.00  0.00    -0.461 OA
BRANCH   2   3
ATOM      3  C   UNL     1       0.780  -0.125   0.922  1.00  0.00     0.329 C 
ATOM      4  O   UNL     1       1.891  -0.481   1.309  1.00  0.00    -0.250 OA
BRANCH   3   5
ATOM      5  C   UNL     1       0.043   1.089   1.545  1.00  0.00     0.199 C 
ATOM      6  C   UNL     1       0.879   2.290   1.084  1.00  0.00     0.044 C 
BRANCH   5   7
ATOM      7  N   UNL     1      -1.414   1.161   1.252  1.00  0.00    -0.279 N 
ATOM      8  C   UNL     1      -2.125  -0.029   1.395  1.00  0.00     0.266 C 
ATOM      9  C   UNL     1      -2.226   2.282   1.255  1.00  0.00     0.149 C 
ATOM     10  O   UNL     1      -1.681  -1.085   1.829  1.00  0.00    -0.268 OA
ATOM     11  C   UNL     1      -3.558   0.161   1.070  1.00  0.00     0.081 C 
ATOM     12  S   UNL     1      -3.898   1.829   0.938  1.00  0.00    -0.054 SA
ATOM     13  S   UNL     1      -1.885   3.884   1.569  1.00  0.00    -0.052 S 
ATOM     14  C   UNL     1      -4.413  -0.866   0.969  1.00  0.00     0.032 C 
BRANCH  14  15
ATOM     15  C   UNL     1      -5.857  -0.721   0.756  1.00  0.00     0.012 A 
ATOM     16  C   UNL     1      -6.727  -1.119   1.778  1.00  0.00     0.011 A 
ATOM     17  C   UNL     1      -6.395  -0.163  -0.409  1.00  0.00     0.130 A 
ATOM     18  C   UNL     1      -8.104  -0.925   1.645  1.00  0.00     0.001 A 
ATOM     19  C   UNL     1      -7.766   0.040  -0.542  1.00  0.00     0.040 A 
ATOM     20  F   UNL     1      -5.592   0.202  -1.421  1.00  0.00    -0.206 F 
ATOM     21  C   UNL     1      -8.622  -0.337   0.491  1.00  0.00     0.003 A 
ENDBRANCH  14  15
ENDBRANCH   5   7
ENDBRANCH   3   5
ENDBRANCH   2   3
ENDBRANCH   1   2
BRANCH   1  22
ATOM     22  C   UNL     1       1.019  -1.784  -2.133  1.00  0.00     0.275 C 
BRANCH  22  23
ATOM     23  O   UNL     1       2.093  -0.841  -2.272  1.00  0.00    -0.458 OA
BRANCH  23  24
ATOM     24  C   UNL     1       1.780   0.311  -2.905  1.00  0.00     0.338 C 
ATOM     25  O   UNL     1       0.741   0.600  -3.470  1.00  0.00    -0.246 OA
BRANCH  24  26
ATOM     26  C   UNL     1       2.901   1.248  -2.762  1.00  0.00     0.060 A 
ATOM     27  C   UNL     1       3.257   1.685  -1.487  1.00  0.00     0.016 A 
ATOM     28  C   UNL     1       3.509   1.790  -3.891  1.00  0.00     0.016 A 
ATOM     29  C   UNL     1       4.149   2.744  -1.340  1.00  0.00     0.010 A 
ATOM     30  C   UNL     1       4.482   2.781  -3.735  1.00  0.00     0.010 A 
ATOM     31  C   UNL     1       4.783   3.299  -2.461  1.00  0.00    -0.014 A 
BRANCH  31  32
ATOM     32  C   UNL     1       5.724   4.444  -2.317  1.00  0.00     0.031 A 
ATOM     33  C   UNL     1       5.454   5.738  -3.042  1.00  0.00     0.074 A 
ATOM     34  C   UNL     1       6.824   4.338  -1.545  1.00  0.00     0.049 A 
ATOM     35  N   UNL     1       6.244   6.766  -3.226  1.00  0.00    -0.248 NA
ATOM     36  C   UNL     1       4.124   5.888  -3.654  1.00  0.00     0.031 C 
ATOM     37  C   UNL     1       7.194   3.169  -0.747  1.00  0.00     0.029 A 
ATOM     38  N   UNL     1       7.835   5.236  -1.304  1.00  0.00    -0.354 N 
ATOM     39  C   UNL     1       5.535   7.649  -4.031  1.00  0.00     0.074 A 
ATOM     40  C   UNL     1       4.247   7.043  -4.292  1.00  0.00     0.031 C 
ATOM     41  C   UNL     1       8.326   3.433  -0.077  1.00  0.00     0.029 A 
ATOM     42  C   UNL     1       8.809   4.754  -0.464  1.00  0.00     0.049 A 
ATOM     43  H   UNL     1       7.860   6.139  -1.696  1.00  0.00     0.167 HD
ATOM     44  C   UNL     1       5.926   8.853  -4.513  1.00  0.00     0.037 A 
ATOM     45  C   UNL     1       9.982   5.292  -0.080  1.00  0.00     0.037 A 
ATOM     46  C   UNL     1       7.178   9.489  -4.194  1.00  0.00     0.049 A 
ATOM     47  C   UNL     1      10.397   6.625  -0.631  1.00  0.00     0.074 A 
ATOM     48  C   UNL     1       7.654  10.718  -4.617  1.00  0.00     0.029 A 
ATOM     49  N   UNL     1       8.140   8.954  -3.352  1.00  0.00    -0.354 N 
ATOM     50  N   UNL     1       9.752   7.415  -1.452  1.00  0.00    -0.248 NA
ATOM     51  C   UNL     1      11.717   7.126  -0.223  1.00  0.00     0.031 C 
ATOM     52  C   UNL     1       8.916  10.918  -4.046  1.00  0.00     0.029 A 
ATOM     53  C   UNL     1       9.211   9.826  -3.246  1.00  0.00     0.049 A 
ATOM     54  H   UNL     1       8.073   8.084  -2.897  1.00  0.00     0.167 HD
ATOM     55  C   UNL     1      10.582   8.508  -1.657  1.00  0.00     0.074 A 
ATOM     56  C   UNL     1      11.770   8.289  -0.858  1.00  0.00     0.031 C 
ATOM     57  C   UNL     1      10.383   9.592  -2.445  1.00  0.00     0.037 A 
BRANCH  44  58
ATOM     58  C   UNL     1       5.003   9.552  -5.466  1.00  0.00     0.057 A 
ATOM     59  C   UNL     1       3.841  10.203  -5.038  1.00  0.00     0.134 A 
ATOM     60  C   UNL     1       5.309   9.604  -6.833  1.00  0.00     0.134 A 
ATOM     61  F   UNL     1       3.485  10.177  -3.745  1.00  0.00    -0.206 F 
ATOM     62  C   UNL     1       3.006  10.868  -5.938  1.00  0.00     0.040 A 
ATOM     63  C   UNL     1       4.494  10.283  -7.739  1.00  0.00     0.040 A 
ATOM     64  F   UNL     1       6.412   9.004  -7.307  1.00  0.00    -0.206 F 
ATOM     65  C   UNL     1       3.335  10.915  -7.292  1.00  0.00     0.006 A 
ENDBRANCH  44  58
BRANCH  45  66
ATOM     66  C   UNL     1      10.867   4.544   0.846  1.00  0.00     0.057 A 
ATOM     67  C   UNL     1      11.048   4.967   2.167  1.00  0.00     0.134 A 
ATOM     68  C   UNL     1      11.542   3.388   0.437  1.00  0.00     0.134 A 
ATOM     69  F   UNL     1      10.447   6.081   2.608  1.00  0.00    -0.206 F 
ATOM     70  C   UNL     1      11.872   4.267   3.050  1.00  0.00     0.040 A 
ATOM     71  C   UNL     1      12.350   2.665   1.316  1.00  0.00     0.040 A 
ATOM     72  F   UNL     1      11.408   2.933  -0.817  1.00  0.00    -0.206 F 
ATOM     73  C   UNL     1      12.520   3.107   2.626  1.00  0.00     0.006 A 
ENDBRANCH  45  66
BRANCH  57  74
ATOM     74  C   UNL     1      11.464  10.627  -2.460  1.00  0.00     0.057 A 
ATOM     75  C   UNL     1      12.650  10.437  -3.180  1.00  0.00     0.134 A 
ATOM     76  C   UNL     1      11.309  11.834  -1.768  1.00  0.00     0.134 A 
ATOM     77  F   UNL     1      12.862   9.294  -3.851  1.00  0.00    -0.206 F 
ATOM     78  C   UNL     1      13.653  11.407  -3.198  1.00  0.00     0.040 A 
ATOM     79  C   UNL     1      12.297  12.818  -1.793  1.00  0.00     0.040 A 
ATOM     80  F   UNL     1      10.193  12.075  -1.064  1.00  0.00    -0.206 F 
ATOM     81  C   UNL     1      13.475  12.604  -2.506  1.00  0.00     0.006 A 
ENDBRANCH  57  74
ENDBRANCH  31  32
ENDBRANCH  24  26
ENDBRANCH  23  24
ENDBRANCH  22  23
ENDBRANCH   1  22
TORSDOF 13
