REMARK SMILES C[C@H]1[C@H](C(=O)OCCOC(=O)c2ccc(-c3c4nc(c(-c5c(F)cccc5F)c5ccc([nH]5)c(-c5c(F)cccc5F)c5nc(c(-c6c(F)cccc6F)c6ccc3[nH]6)C=C5)C=C4)cc2)CCN1C(=O)NCc1ccncc1
REMARK SMILES IDX 7 1 6 2 4 3 5 4 3 5 1 6 2 7 68 8 66 9 67 10 69 11 70 12
REMARK SMILES IDX 71 13 72 15 73 16 74 17 78 18 75 19 77 20 76 21 8 22 9 23
REMARK SMILES IDX 10 24 11 25 12 26 13 27 65 28 14 29 64 30 15 31 16 32 17 33
REMARK SMILES IDX 58 34 18 35 63 36 57 37 59 38 19 39 62 40 56 41 55 42 20 44
REMARK SMILES IDX 46 45 29 46 45 47 30 48 33 49 44 50 60 51 31 52 32 53 43 55
REMARK SMILES IDX 61 56 34 57 21 58 22 59 27 60 23 61 24 62 26 63 28 64 25 65
REMARK SMILES IDX 47 66 48 67 53 68 49 69 50 70 52 71 54 72 51 73 35 74 36 75
REMARK SMILES IDX 41 76 37 77 38 78 40 79 42 80 39 81
REMARK H PARENT 71 14 59 43 33 54
REMARK Flexibility Score: inf
ROOT
ATOM      1  C   UNL     1      -0.459   2.834   3.335  1.00  0.00     0.274 C 
ENDROOT
BRANCH   1   2
ATOM      2  O   UNL     1      -0.409   1.774   2.358  1.00  0.00    -0.462 OA
BRANCH   2   3
ATOM      3  C   UNL     1      -0.769   2.104   1.093  1.00  0.00     0.311 C 
ATOM      4  O   UNL     1      -1.166   3.213   0.748  1.00  0.00    -0.252 OA
BRANCH   3   5
ATOM      5  C   UNL     1      -0.679   0.952   0.119  1.00  0.00     0.123 C 
ATOM      6  C   UNL     1       1.514   0.089  -0.791  1.00  0.00     0.032 C 
ATOM      7  C   UNL     1       0.491  -0.032   0.349  1.00  0.00     0.098 C 
ATOM      8  N   UNL     1      -0.124  -1.361   0.334  1.00  0.00    -0.321 N 
ATOM      9  C   UNL     1      -1.943   0.101   0.173  1.00  0.00     0.039 C 
ATOM     10  C   UNL     1      -1.456  -1.272  -0.240  1.00  0.00     0.122 C 
BRANCH   8  11
ATOM     11  C   UNL     1       0.319  -2.562   0.781  1.00  0.00     0.317 C 
ATOM     12  O   UNL     1      -0.367  -3.583   0.654  1.00  0.00    -0.249 OA
ATOM     13  N   UNL     1       1.499  -2.747   1.389  1.00  0.00    -0.334 N 
ATOM     14  H   UNL     1       1.604  -3.681   1.681  1.00  0.00     0.165 HD
BRANCH  13  15
ATOM     15  C   UNL     1       2.662  -1.958   1.737  1.00  0.00     0.153 C 
BRANCH  15  16
ATOM     16  C   UNL     1       2.833  -1.813   3.226  1.00  0.00    -0.026 A 
ATOM     17  C   UNL     1       3.024  -2.929   4.048  1.00  0.00     0.025 A 
ATOM     18  C   UNL     1       2.853  -0.548   3.820  1.00  0.00     0.025 A 
ATOM     19  C   UNL     1       3.220  -2.731   5.407  1.00  0.00     0.111 A 
ATOM     20  C   UNL     1       3.060  -0.452   5.186  1.00  0.00     0.111 A 
ATOM     21  N   UNL     1       3.244  -1.516   5.995  1.00  0.00    -0.265 NA
ENDBRANCH  15  16
ENDBRANCH  13  15
ENDBRANCH   8  11
ENDBRANCH   3   5
ENDBRANCH   2   3
ENDBRANCH   1   2
BRANCH   1  22
ATOM     22  C   UNL     1       0.923   3.451   3.572  1.00  0.00     0.275 C 
BRANCH  22  23
ATOM     23  O   UNL     1       1.392   4.174   2.419  1.00  0.00    -0.458 OA
BRANCH  23  24
ATOM     24  C   UNL     1       2.135   3.452   1.551  1.00  0.00     0.338 C 
ATOM     25  O   UNL     1       2.473   2.285   1.652  1.00  0.00    -0.246 OA
BRANCH  24  26
ATOM     26  C   UNL     1       2.412   4.250   0.351  1.00  0.00     0.060 A 
ATOM     27  C   UNL     1       1.784   3.891  -0.845  1.00  0.00     0.016 A 
ATOM     28  C   UNL     1       3.360   5.271   0.381  1.00  0.00     0.016 A 
ATOM     29  C   UNL     1       2.122   4.531  -2.031  1.00  0.00     0.010 A 
ATOM     30  C   UNL     1       3.684   5.928  -0.807  1.00  0.00     0.010 A 
ATOM     31  C   UNL     1       3.078   5.552  -2.020  1.00  0.00    -0.014 A 
BRANCH  31  32
ATOM     32  C   UNL     1       3.475   6.215  -3.280  1.00  0.00     0.031 A 
ATOM     33  C   UNL     1       4.824   5.936  -3.870  1.00  0.00     0.074 A 
ATOM     34  C   UNL     1       2.634   7.080  -3.873  1.00  0.00     0.049 A 
ATOM     35  N   UNL     1       5.444   6.553  -4.840  1.00  0.00    -0.248 NA
ATOM     36  C   UNL     1       5.575   4.813  -3.287  1.00  0.00     0.031 C 
ATOM     37  C   UNL     1       1.273   7.377  -3.426  1.00  0.00     0.029 A 
ATOM     38  N   UNL     1       2.811   7.882  -4.970  1.00  0.00    -0.354 N 
ATOM     39  C   UNL     1       6.673   5.919  -4.963  1.00  0.00     0.074 A 
ATOM     40  C   UNL     1       6.710   4.866  -3.970  1.00  0.00     0.031 C 
ATOM     41  C   UNL     1       0.744   8.313  -4.231  1.00  0.00     0.029 A 
ATOM     42  C   UNL     1       1.750   8.720  -5.208  1.00  0.00     0.049 A 
ATOM     43  H   UNL     1       3.620   7.861  -5.531  1.00  0.00     0.167 HD
ATOM     44  C   UNL     1       7.679   6.201  -5.823  1.00  0.00     0.037 A 
ATOM     45  C   UNL     1       1.624   9.735  -6.083  1.00  0.00     0.037 A 
ATOM     46  C   UNL     1       7.622   7.240  -6.817  1.00  0.00     0.049 A 
ATOM     47  C   UNL     1       2.778  10.073  -6.982  1.00  0.00     0.074 A 
ATOM     48  C   UNL     1       8.587   7.609  -7.738  1.00  0.00     0.029 A 
ATOM     49  N   UNL     1       6.533   8.073  -7.020  1.00  0.00    -0.354 N 
ATOM     50  N   UNL     1       3.953   9.496  -7.069  1.00  0.00    -0.248 NA
ATOM     51  C   UNL     1       2.598  11.210  -7.895  1.00  0.00     0.031 C 
ATOM     52  C   UNL     1       8.092   8.687  -8.479  1.00  0.00     0.029 A 
ATOM     53  C   UNL     1       6.806   8.965  -8.043  1.00  0.00     0.049 A 
ATOM     54  H   UNL     1       5.690   8.037  -6.513  1.00  0.00     0.167 HD
ATOM     55  C   UNL     1       4.643  10.183  -8.057  1.00  0.00     0.074 A 
ATOM     56  C   UNL     1       3.755  11.220  -8.544  1.00  0.00     0.031 C 
ATOM     57  C   UNL     1       5.898   9.975  -8.521  1.00  0.00     0.037 A 
BRANCH  44  58
ATOM     58  C   UNL     1       8.939   5.399  -5.700  1.00  0.00     0.057 A 
ATOM     59  C   UNL     1       9.024   4.079  -6.155  1.00  0.00     0.134 A 
ATOM     60  C   UNL     1      10.090   5.971  -5.144  1.00  0.00     0.134 A 
ATOM     61  F   UNL     1       7.951   3.470  -6.681  1.00  0.00    -0.206 F 
ATOM     62  C   UNL     1      10.209   3.348  -6.047  1.00  0.00     0.040 A 
ATOM     63  C   UNL     1      11.286   5.257  -5.049  1.00  0.00     0.040 A 
ATOM     64  F   UNL     1      10.073   7.233  -4.690  1.00  0.00    -0.206 F 
ATOM     65  C   UNL     1      11.346   3.939  -5.498  1.00  0.00     0.006 A 
ENDBRANCH  44  58
BRANCH  45  66
ATOM     66  C   UNL     1       0.372  10.528  -6.114  1.00  0.00     0.057 A 
ATOM     67  C   UNL     1      -0.522  10.425  -7.185  1.00  0.00     0.134 A 
ATOM     68  C   UNL     1       0.035  11.398  -5.070  1.00  0.00     0.134 A 
ATOM     69  F   UNL     1      -0.242   9.623  -8.223  1.00  0.00    -0.206 F 
ATOM     70  C   UNL     1      -1.705  11.164  -7.220  1.00  0.00     0.040 A 
ATOM     71  C   UNL     1      -1.155  12.127  -5.082  1.00  0.00     0.040 A 
ATOM     72  F   UNL     1       0.851  11.538  -4.015  1.00  0.00    -0.206 F 
ATOM     73  C   UNL     1      -2.027  12.013  -6.162  1.00  0.00     0.006 A 
ENDBRANCH  45  66
BRANCH  57  74
ATOM     74  C   UNL     1       6.370  10.854  -9.638  1.00  0.00     0.057 A 
ATOM     75  C   UNL     1       6.804  12.164  -9.411  1.00  0.00     0.134 A 
ATOM     76  C   UNL     1       6.449  10.357 -10.945  1.00  0.00     0.134 A 
ATOM     77  F   UNL     1       6.740  12.698  -8.181  1.00  0.00    -0.206 F 
ATOM     78  C   UNL     1       7.295  12.956 -10.449  1.00  0.00     0.040 A 
ATOM     79  C   UNL     1       6.955  11.133 -11.988  1.00  0.00     0.040 A 
ATOM     80  F   UNL     1       6.054   9.106 -11.223  1.00  0.00    -0.206 F 
ATOM     81  C   UNL     1       7.379  12.437 -11.741  1.00  0.00     0.006 A 
ENDBRANCH  57  74
ENDBRANCH  31  32
ENDBRANCH  24  26
ENDBRANCH  23  24
ENDBRANCH  22  23
ENDBRANCH   1  22
TORSDOF 14
