REMARK SMILES C[C@H](O)[C@@H](NC(=O)c1ccc(Cl)c(S(C)(=O)=O)c1)C(=O)OCCOC(=O)c1ccc(-c2c3nc(c(-c4c(F)cccc4F)c4ccc([nH]4)c(-c4c(F)cccc4F)c4nc(c(-c5c(F)cccc5F)c5ccc2[nH]5)C=C4)C=C3)cc1
REMARK SMILES IDX 22 1 21 2 19 3 20 4 4 5 2 6 1 7 3 8 5 10 6 11 7 13 8 14 9 15
REMARK SMILES IDX 18 16 10 17 13 18 11 19 12 20 14 21 15 22 16 23 17 24 23 25
REMARK SMILES IDX 24 26 25 27 26 28 27 29 28 30 80 31 29 32 79 33 30 34 31 35
REMARK SMILES IDX 32 36 73 37 33 38 78 39 72 40 74 41 34 42 77 43 71 44 70 45
REMARK SMILES IDX 35 47 61 48 44 49 60 50 45 51 48 52 59 53 75 54 46 55 47 56
REMARK SMILES IDX 58 58 76 59 49 60 36 61 37 62 42 63 38 64 39 65 41 66 43 67
REMARK SMILES IDX 40 68 62 69 63 70 68 71 64 72 65 73 67 74 69 75 66 76 50 77
REMARK SMILES IDX 51 78 56 79 52 80 53 81 55 82 57 83 54 84
REMARK H PARENT 3 9 5 12 74 46 48 57
REMARK Flexibility Score: inf
ROOT
ATOM      1  C   UNL     1      -0.555  -3.466   4.040  1.00  0.00     0.274 C 
ENDROOT
BRANCH   1   2
ATOM      2  O   UNL     1      -0.127  -2.751   2.858  1.00  0.00    -0.460 OA
BRANCH   2   3
ATOM      3  C   UNL     1      -1.066  -1.922   2.342  1.00  0.00     0.331 C 
ATOM      4  O   UNL     1      -2.121  -1.652   2.912  1.00  0.00    -0.250 OA
BRANCH   3   5
ATOM      5  C   UNL     1      -0.812  -1.440   0.916  1.00  0.00     0.221 C 
BRANCH   5   6
ATOM      6  C   UNL     1       0.659  -1.069   0.612  1.00  0.00     0.145 C 
ATOM      7  C   UNL     1       1.334  -0.182   1.651  1.00  0.00     0.041 C 
BRANCH   6   8
ATOM      8  O   UNL     1       0.673  -0.321  -0.620  1.00  0.00    -0.391 OA
ATOM      9  H   UNL     1       0.167   0.499  -0.506  1.00  0.00     0.211 HD
ENDBRANCH   6   8
ENDBRANCH   5   6
BRANCH   5  10
ATOM     10  N   UNL     1      -1.353  -2.300  -0.170  1.00  0.00    -0.336 N 
ATOM     11  C   UNL     1      -2.573  -2.919  -0.278  1.00  0.00     0.252 C 
ATOM     12  H   UNL     1      -0.743  -2.448  -0.928  1.00  0.00     0.164 HD
ATOM     13  O   UNL     1      -3.098  -3.089  -1.372  1.00  0.00    -0.269 OA
BRANCH  11  14
ATOM     14  C   UNL     1      -3.178  -3.559   0.897  1.00  0.00     0.041 A 
ATOM     15  C   UNL     1      -4.200  -2.942   1.612  1.00  0.00     0.015 A 
ATOM     16  C   UNL     1      -2.707  -4.818   1.273  1.00  0.00     0.035 A 
ATOM     17  C   UNL     1      -4.684  -3.556   2.773  1.00  0.00     0.023 A 
ATOM     18  C   UNL     1      -3.226  -5.451   2.414  1.00  0.00     0.086 A 
ATOM     19  C   UNL     1      -4.202  -4.809   3.184  1.00  0.00     0.059 A 
ATOM     20  Cl  UNL     1      -4.889  -5.445   4.630  1.00  0.00    -0.083 Cl
BRANCH  18  21
ATOM     21  S   UNL     1      -2.526  -7.031   2.827  1.00  0.00     0.177 S 
ATOM     22  C   UNL     1      -3.577  -8.169   1.962  1.00  0.00     0.164 C 
ATOM     23  O   UNL     1      -1.212  -7.079   2.200  1.00  0.00    -0.224 OA
ATOM     24  O   UNL     1      -2.636  -7.264   4.247  1.00  0.00    -0.224 OA
ENDBRANCH  18  21
ENDBRANCH  11  14
ENDBRANCH   5  10
ENDBRANCH   3   5
ENDBRANCH   2   3
ENDBRANCH   1   2
BRANCH   1  25
ATOM     25  C   UNL     1      -0.402  -2.726   5.377  1.00  0.00     0.275 C 
BRANCH  25  26
ATOM     26  O   UNL     1      -1.160  -1.504   5.452  1.00  0.00    -0.458 OA
BRANCH  26  27
ATOM     27  C   UNL     1      -0.475  -0.399   5.080  1.00  0.00     0.338 C 
ATOM     28  O   UNL     1       0.700  -0.344   4.753  1.00  0.00    -0.246 OA
BRANCH  27  29
ATOM     29  C   UNL     1      -1.353   0.777   4.993  1.00  0.00     0.060 A 
ATOM     30  C   UNL     1      -1.651   1.294   3.727  1.00  0.00     0.016 A 
ATOM     31  C   UNL     1      -1.713   1.479   6.140  1.00  0.00     0.016 A 
ATOM     32  C   UNL     1      -2.262   2.534   3.592  1.00  0.00     0.010 A 
ATOM     33  C   UNL     1      -2.342   2.721   6.007  1.00  0.00     0.010 A 
ATOM     34  C   UNL     1      -2.588   3.268   4.733  1.00  0.00    -0.014 A 
BRANCH  34  35
ATOM     35  C   UNL     1      -3.085   4.654   4.594  1.00  0.00     0.031 A 
ATOM     36  C   UNL     1      -2.185   5.795   4.965  1.00  0.00     0.074 A 
ATOM     37  C   UNL     1      -4.325   4.884   4.127  1.00  0.00     0.049 A 
ATOM     38  N   UNL     1      -2.462   7.068   5.078  1.00  0.00    -0.248 NA
ATOM     39  C   UNL     1      -0.782   5.455   5.254  1.00  0.00     0.031 C 
ATOM     40  C   UNL     1      -5.257   3.858   3.661  1.00  0.00     0.029 A 
ATOM     41  N   UNL     1      -5.017   6.059   3.985  1.00  0.00    -0.354 N 
ATOM     42  C   UNL     1      -1.281   7.675   5.486  1.00  0.00     0.074 A 
ATOM     43  C   UNL     1      -0.288   6.631   5.612  1.00  0.00     0.031 C 
ATOM     44  C   UNL     1      -6.410   4.447   3.304  1.00  0.00     0.029 A 
ATOM     45  C   UNL     1      -6.314   5.878   3.572  1.00  0.00     0.049 A 
ATOM     46  H   UNL     1      -4.623   6.944   4.161  1.00  0.00     0.167 HD
ATOM     47  C   UNL     1      -1.054   8.987   5.735  1.00  0.00     0.037 A 
ATOM     48  C   UNL     1      -7.322   6.764   3.471  1.00  0.00     0.037 A 
ATOM     49  C   UNL     1      -2.052  10.015   5.590  1.00  0.00     0.049 A 
ATOM     50  C   UNL     1      -7.068   8.202   3.830  1.00  0.00     0.074 A 
ATOM     51  C   UNL     1      -1.927  11.376   5.805  1.00  0.00     0.029 A 
ATOM     52  N   UNL     1      -3.363   9.791   5.192  1.00  0.00    -0.354 N 
ATOM     53  N   UNL     1      -5.958   8.771   4.235  1.00  0.00    -0.248 NA
ATOM     54  C   UNL     1      -8.209   9.122   3.723  1.00  0.00     0.031 C 
ATOM     55  C   UNL     1      -3.176  11.968   5.590  1.00  0.00     0.029 A 
ATOM     56  C   UNL     1      -4.064  10.985   5.181  1.00  0.00     0.049 A 
ATOM     57  H   UNL     1      -3.739   8.913   4.954  1.00  0.00     0.167 HD
ATOM     58  C   UNL     1      -6.257  10.117   4.401  1.00  0.00     0.074 A 
ATOM     59  C   UNL     1      -7.651  10.281   4.043  1.00  0.00     0.031 C 
ATOM     60  C   UNL     1      -5.451  11.127   4.811  1.00  0.00     0.037 A 
BRANCH  47  61
ATOM     61  C   UNL     1       0.308   9.374   6.233  1.00  0.00     0.057 A 
ATOM     62  C   UNL     1       1.444   9.335   5.414  1.00  0.00     0.134 A 
ATOM     63  C   UNL     1       0.480   9.815   7.552  1.00  0.00     0.134 A 
ATOM     64  F   UNL     1       1.353   8.909   4.145  1.00  0.00    -0.206 F 
ATOM     65  C   UNL     1       2.704   9.696   5.896  1.00  0.00     0.040 A 
ATOM     66  C   UNL     1       1.730  10.205   8.037  1.00  0.00     0.040 A 
ATOM     67  F   UNL     1      -0.565   9.880   8.391  1.00  0.00    -0.206 F 
ATOM     68  C   UNL     1       2.848  10.139   7.209  1.00  0.00     0.006 A 
ENDBRANCH  47  61
BRANCH  48  69
ATOM     69  C   UNL     1      -8.670   6.308   3.046  1.00  0.00     0.057 A 
ATOM     70  C   UNL     1      -9.215   6.705   1.820  1.00  0.00     0.134 A 
ATOM     71  C   UNL     1      -9.447   5.471   3.857  1.00  0.00     0.134 A 
ATOM     72  F   UNL     1      -8.529   7.523   1.009  1.00  0.00    -0.206 F 
ATOM     73  C   UNL     1     -10.491   6.300   1.423  1.00  0.00     0.040 A 
ATOM     74  C   UNL     1     -10.711   5.035   3.459  1.00  0.00     0.040 A 
ATOM     75  F   UNL     1      -8.981   5.051   5.042  1.00  0.00    -0.206 F 
ATOM     76  C   UNL     1     -11.240   5.456   2.241  1.00  0.00     0.006 A 
ENDBRANCH  48  69
BRANCH  60  77
ATOM     77  C   UNL     1      -6.043  12.506   4.847  1.00  0.00     0.057 A 
ATOM     78  C   UNL     1      -6.984  12.887   5.811  1.00  0.00     0.134 A 
ATOM     79  C   UNL     1      -5.633  13.478   3.924  1.00  0.00     0.134 A 
ATOM     80  F   UNL     1      -7.429  12.001   6.715  1.00  0.00    -0.206 F 
ATOM     81  C   UNL     1      -7.514  14.178   5.842  1.00  0.00     0.040 A 
ATOM     82  C   UNL     1      -6.133  14.780   3.964  1.00  0.00     0.040 A 
ATOM     83  F   UNL     1      -4.728  13.182   2.980  1.00  0.00    -0.206 F 
ATOM     84  C   UNL     1      -7.082  15.131   4.921  1.00  0.00     0.006 A 
ENDBRANCH  60  77
ENDBRANCH  34  35
ENDBRANCH  27  29
ENDBRANCH  26  27
ENDBRANCH  25  26
ENDBRANCH   1  25
TORSDOF 16
