REMARK SMILES CCCCCCCCNC(=O)Oc1cccc(-c2ccc([C@@H](C)C(=O)OCCOC(=O)c3ccc(-c4c5nc(c(-c6c(F)cccc6F)c6ccc([nH]6)c(-c6c(F)cccc6F)c6nc(c(-c7c(F)cccc7F)c7ccc4[nH]7)C=C6)C=C5)cc3)cc2F)c1
REMARK SMILES IDX 18 1 19 2 20 3 21 4 86 5 87 6 88 7 17 8 13 9 14 10 89 11
REMARK SMILES IDX 15 12 16 13 12 14 10 15 9 16 11 18 8 19 7 20 6 21 5 22 4 23
REMARK SMILES IDX 3 24 2 25 1 26 22 27 23 28 24 29 25 30 26 31 27 32 28 33
REMARK SMILES IDX 29 34 30 35 31 36 32 37 33 38 85 39 34 40 84 41 35 42 36 43
REMARK SMILES IDX 37 44 78 45 38 46 83 47 77 48 79 49 39 50 82 51 76 52 75 53
REMARK SMILES IDX 40 55 66 56 49 57 65 58 50 59 53 60 64 61 80 62 51 63 52 64
REMARK SMILES IDX 63 66 81 67 54 68 41 69 42 70 47 71 43 72 44 73 46 74 48 75
REMARK SMILES IDX 45 76 67 77 68 78 73 79 69 80 70 81 72 82 74 83 71 84 55 85
REMARK SMILES IDX 56 86 61 87 57 88 58 89 60 90 62 91 59 92
REMARK H PARENT 9 17 79 54 53 65
REMARK Flexibility Score: inf
ROOT
ATOM      1  C   UNL     1      -6.393   9.828   5.902  1.00  0.00     0.018 A 
ATOM      2  C   UNL     1      -7.554  10.585   5.677  1.00  0.00     0.012 A 
ATOM      3  C   UNL     1      -8.588  10.633   6.621  1.00  0.00     0.005 A 
ATOM      4  C   UNL     1      -8.498   9.919   7.823  1.00  0.00    -0.031 A 
ATOM      5  C   UNL     1      -7.343   9.155   8.047  1.00  0.00     0.044 A 
ATOM      6  C   UNL     1      -6.321   9.106   7.098  1.00  0.00     0.131 A 
ATOM      7  F   UNL     1      -5.235   8.369   7.384  1.00  0.00    -0.206 F 
ENDROOT
BRANCH   1   8
ATOM      8  C   UNL     1      -5.284   9.845   4.935  1.00  0.00    -0.012 A 
ATOM      9  C   UNL     1      -3.659   8.719   3.532  1.00  0.00     0.133 A 
ATOM     10  C   UNL     1      -3.123   9.938   3.122  1.00  0.00     0.047 A 
ATOM     11  C   UNL     1      -4.720   8.659   4.437  1.00  0.00     0.056 A 
ATOM     12  C   UNL     1      -3.672  11.120   3.606  1.00  0.00     0.004 A 
ATOM     13  C   UNL     1      -4.742  11.071   4.503  1.00  0.00     0.009 A 
BRANCH   9  14
ATOM     14  O   UNL     1      -2.993   7.564   3.095  1.00  0.00    -0.410 OA
BRANCH  14  15
ATOM     15  C   UNL     1      -3.729   6.586   2.446  1.00  0.00     0.412 C 
ATOM     16  N   UNL     1      -2.964   5.521   2.051  1.00  0.00    -0.321 N 
ATOM     17  H   UNL     1      -3.433   4.782   1.601  1.00  0.00     0.167 HD
ATOM     18  O   UNL     1      -4.929   6.622   2.204  1.00  0.00    -0.224 OA
BRANCH  16  19
ATOM     19  C   UNL     1      -1.533   5.371   2.228  1.00  0.00     0.119 C 
BRANCH  19  20
ATOM     20  C   UNL     1      -1.181   4.131   3.050  1.00  0.00     0.021 C 
BRANCH  20  21
ATOM     21  C   UNL     1      -1.580   2.797   2.405  1.00  0.00     0.002 C 
BRANCH  21  22
ATOM     22  C   UNL     1      -0.989   2.536   1.015  1.00  0.00     0.000 C 
BRANCH  22  23
ATOM     23  C   UNL     1       0.541   2.496   0.955  1.00  0.00    -0.000 C 
BRANCH  23  24
ATOM     24  C   UNL     1       1.196   1.373   1.766  1.00  0.00    -0.000 C 
BRANCH  24  25
ATOM     25  C   UNL     1       0.774  -0.048   1.380  1.00  0.00    -0.003 C 
ATOM     26  C   UNL     1       1.098  -0.405  -0.063  1.00  0.00     0.004 C 
ENDBRANCH  24  25
ENDBRANCH  23  24
ENDBRANCH  22  23
ENDBRANCH  21  22
ENDBRANCH  20  21
ENDBRANCH  19  20
ENDBRANCH  16  19
ENDBRANCH  14  15
ENDBRANCH   9  14
ENDBRANCH   1   8
BRANCH   4  27
ATOM     27  C   UNL     1      -9.597   9.967   8.874  1.00  0.00     0.126 C 
ATOM     28  C   UNL     1      -9.891  11.388   9.349  1.00  0.00     0.025 C 
BRANCH  27  29
ATOM     29  C   UNL     1     -10.899   9.258   8.513  1.00  0.00     0.313 C 
ATOM     30  O   UNL     1     -11.618   8.747   9.366  1.00  0.00    -0.252 OA
BRANCH  29  31
ATOM     31  O   UNL     1     -11.192   9.293   7.187  1.00  0.00    -0.462 OA
BRANCH  31  32
ATOM     32  C   UNL     1     -12.391   8.614   6.766  1.00  0.00     0.274 C 
BRANCH  32  33
ATOM     33  C   UNL     1     -12.077   7.244   6.158  1.00  0.00     0.275 C 
BRANCH  33  34
ATOM     34  O   UNL     1     -11.586   6.328   7.155  1.00  0.00    -0.458 OA
BRANCH  34  35
ATOM     35  C   UNL     1     -10.239   6.222   7.213  1.00  0.00     0.338 C 
ATOM     36  O   UNL     1      -9.422   6.768   6.492  1.00  0.00    -0.246 OA
BRANCH  35  37
ATOM     37  C   UNL     1      -9.845   5.446   8.397  1.00  0.00     0.060 A 
ATOM     38  C   UNL     1      -9.143   6.118   9.397  1.00  0.00     0.016 A 
ATOM     39  C   UNL     1     -10.053   4.069   8.484  1.00  0.00     0.016 A 
ATOM     40  C   UNL     1      -8.611   5.421  10.474  1.00  0.00     0.010 A 
ATOM     41  C   UNL     1      -9.534   3.367   9.581  1.00  0.00     0.010 A 
ATOM     42  C   UNL     1      -8.793   4.036  10.572  1.00  0.00    -0.014 A 
BRANCH  42  43
ATOM     43  C   UNL     1      -8.150   3.314  11.697  1.00  0.00     0.031 A 
ATOM     44  C   UNL     1      -6.931   2.469  11.455  1.00  0.00     0.074 A 
ATOM     45  C   UNL     1      -8.611   3.491  12.949  1.00  0.00     0.049 A 
ATOM     46  N   UNL     1      -6.214   1.788  12.313  1.00  0.00    -0.248 NA
ATOM     47  C   UNL     1      -6.454   2.380  10.066  1.00  0.00     0.031 C 
ATOM     48  C   UNL     1      -9.759   4.322  13.316  1.00  0.00     0.029 A 
ATOM     49  N   UNL     1      -8.156   3.002  14.147  1.00  0.00    -0.354 N 
ATOM     50  C   UNL     1      -5.208   1.183  11.570  1.00  0.00     0.074 A 
ATOM     51  C   UNL     1      -5.422   1.556  10.188  1.00  0.00     0.031 C 
ATOM     52  C   UNL     1      -9.903   4.303  14.651  1.00  0.00     0.029 A 
ATOM     53  C   UNL     1      -8.884   3.432  15.229  1.00  0.00     0.049 A 
ATOM     54  H   UNL     1      -7.381   2.399  14.224  1.00  0.00     0.167 HD
ATOM     55  C   UNL     1      -4.193   0.397  12.003  1.00  0.00     0.037 A 
ATOM     56  C   UNL     1      -8.751   3.149  16.538  1.00  0.00     0.037 A 
ATOM     57  C   UNL     1      -3.971   0.037  13.380  1.00  0.00     0.049 A 
ATOM     58  C   UNL     1      -7.641   2.238  16.983  1.00  0.00     0.074 A 
ATOM     59  C   UNL     1      -2.973  -0.760  13.915  1.00  0.00     0.029 A 
ATOM     60  N   UNL     1      -4.757   0.458  14.442  1.00  0.00    -0.354 N 
ATOM     61  N   UNL     1      -6.703   1.665  16.269  1.00  0.00    -0.248 NA
ATOM     62  C   UNL     1      -7.572   1.935  18.420  1.00  0.00     0.031 C 
ATOM     63  C   UNL     1      -3.175  -0.849  15.297  1.00  0.00     0.029 A 
ATOM     64  C   UNL     1      -4.274  -0.073  15.628  1.00  0.00     0.049 A 
ATOM     65  H   UNL     1      -5.542   1.047  14.366  1.00  0.00     0.167 HD
ATOM     66  C   UNL     1      -5.923   0.950  17.169  1.00  0.00     0.074 A 
ATOM     67  C   UNL     1      -6.484   1.182  18.484  1.00  0.00     0.031 C 
ATOM     68  C   UNL     1      -4.843   0.168  16.928  1.00  0.00     0.037 A 
BRANCH  55  69
ATOM     69  C   UNL     1      -3.251  -0.145  10.969  1.00  0.00     0.057 A 
ATOM     70  C   UNL     1      -2.292   0.665  10.347  1.00  0.00     0.134 A 
ATOM     71  C   UNL     1      -3.277  -1.501  10.620  1.00  0.00     0.134 A 
ATOM     72  F   UNL     1      -2.223   1.975  10.627  1.00  0.00    -0.206 F 
ATOM     73  C   UNL     1      -1.403   0.148   9.402  1.00  0.00     0.040 A 
ATOM     74  C   UNL     1      -2.379  -2.034   9.694  1.00  0.00     0.040 A 
ATOM     75  F   UNL     1      -4.167  -2.332  11.183  1.00  0.00    -0.206 F 
ATOM     76  C   UNL     1      -1.442  -1.207   9.078  1.00  0.00     0.006 A 
ENDBRANCH  55  69
BRANCH  56  77
ATOM     77  C   UNL     1      -9.696   3.725  17.526  1.00  0.00     0.057 A 
ATOM     78  C   UNL     1      -9.277   4.677  18.462  1.00  0.00     0.134 A 
ATOM     79  C   UNL     1     -11.034   3.316  17.576  1.00  0.00     0.134 A 
ATOM     80  F   UNL     1      -8.001   5.090  18.480  1.00  0.00    -0.206 F 
ATOM     81  C   UNL     1     -10.149   5.188  19.425  1.00  0.00     0.040 A 
ATOM     82  C   UNL     1     -11.923   3.837  18.516  1.00  0.00     0.040 A 
ATOM     83  F   UNL     1     -11.497   2.406  16.706  1.00  0.00    -0.206 F 
ATOM     84  C   UNL     1     -11.478   4.770  19.451  1.00  0.00     0.006 A 
ENDBRANCH  56  77
BRANCH  68  85
ATOM     85  C   UNL     1      -4.189  -0.469  18.119  1.00  0.00     0.057 A 
ATOM     86  C   UNL     1      -4.787  -1.533  18.807  1.00  0.00     0.134 A 
ATOM     87  C   UNL     1      -2.948  -0.015  18.580  1.00  0.00     0.134 A 
ATOM     88  F   UNL     1      -5.984  -2.004  18.424  1.00  0.00    -0.206 F 
ATOM     89  C   UNL     1      -4.187  -2.102  19.931  1.00  0.00     0.040 A 
ATOM     90  C   UNL     1      -2.326  -0.593  19.688  1.00  0.00     0.040 A 
ATOM     91  F   UNL     1      -2.318   0.995  17.962  1.00  0.00    -0.206 F 
ATOM     92  C   UNL     1      -2.951  -1.634  20.373  1.00  0.00     0.006 A 
ENDBRANCH  68  85
ENDBRANCH  42  43
ENDBRANCH  35  37
ENDBRANCH  34  35
ENDBRANCH  33  34
ENDBRANCH  32  33
ENDBRANCH  31  32
ENDBRANCH  29  31
ENDBRANCH  27  29
ENDBRANCH   4  27
TORSDOF 22
