REMARK SMILES O=C(OCCOC(=O)c1cc(Br)ccc1N1CC2(CCCCC2)C1)c1ccc(-c2c3nc(c(-c4c(F)cccc4F)c4ccc([nH]4)c(-c4c(F)cccc4F)c4nc(c(-c5c(F)cccc5F)c5ccc2[nH]5)C=C4)C=C3)cc1
REMARK SMILES IDX 4 1 3 2 2 3 1 4 25 5 26 6 78 7 27 8 77 9 28 10 29 11 30 12
REMARK SMILES IDX 71 13 31 14 76 15 70 16 72 17 32 18 75 19 69 20 68 21 33 23
REMARK SMILES IDX 59 24 42 25 58 26 43 27 46 28 57 29 73 30 44 31 45 32 56 34
REMARK SMILES IDX 74 35 47 36 34 37 35 38 40 39 36 40 37 41 39 42 41 43 38 44
REMARK SMILES IDX 60 45 61 46 66 47 62 48 63 49 65 50 67 51 64 52 48 53 49 54
REMARK SMILES IDX 54 55 50 56 51 57 53 58 55 59 52 60 5 61 6 62 7 63 8 64 9 65
REMARK SMILES IDX 10 66 15 67 11 68 14 69 12 70 13 71 16 72 17 73 24 74 18 75
REMARK SMILES IDX 19 76 23 77 20 78 22 79 21 80
REMARK H PARENT 72 22 46 33
REMARK Flexibility Score: inf
ROOT
ATOM      1  C   UNL     1       4.601  -1.981  -0.742  1.00  0.00     0.275 C 
ENDROOT
BRANCH   1   2
ATOM      2  O   UNL     1       5.330  -1.013   0.010  1.00  0.00    -0.458 OA
BRANCH   2   3
ATOM      3  C   UNL     1       4.583  -0.331   0.913  1.00  0.00     0.338 C 
ATOM      4  O   UNL     1       3.672  -0.780   1.594  1.00  0.00    -0.246 OA
BRANCH   3   5
ATOM      5  C   UNL     1       4.888   1.106   0.729  1.00  0.00     0.060 A 
ATOM      6  C   UNL     1       6.060   1.489   0.068  1.00  0.00     0.016 A 
ATOM      7  C   UNL     1       3.926   2.065   1.070  1.00  0.00     0.016 A 
ATOM      8  C   UNL     1       6.267   2.816  -0.254  1.00  0.00     0.010 A 
ATOM      9  C   UNL     1       4.111   3.397   0.704  1.00  0.00     0.010 A 
ATOM     10  C   UNL     1       5.298   3.773   0.066  1.00  0.00    -0.014 A 
BRANCH  10  11
ATOM     11  C   UNL     1       5.671   5.183  -0.130  1.00  0.00     0.031 A 
ATOM     12  C   UNL     1       6.162   5.942   1.061  1.00  0.00     0.074 A 
ATOM     13  C   UNL     1       5.754   5.686  -1.373  1.00  0.00     0.049 A 
ATOM     14  N   UNL     1       6.806   7.076   1.102  1.00  0.00    -0.248 NA
ATOM     15  C   UNL     1       5.938   5.323   2.379  1.00  0.00     0.031 C 
ATOM     16  C   UNL     1       5.359   4.984  -2.593  1.00  0.00     0.029 A 
ATOM     17  N   UNL     1       6.229   6.889  -1.817  1.00  0.00    -0.354 N 
ATOM     18  C   UNL     1       7.125   7.267   2.438  1.00  0.00     0.074 A 
ATOM     19  C   UNL     1       6.524   6.189   3.188  1.00  0.00     0.031 C 
ATOM     20  C   UNL     1       5.590   5.780  -3.651  1.00  0.00     0.029 A 
ATOM     21  C   UNL     1       6.155   7.037  -3.180  1.00  0.00     0.049 A 
ATOM     22  H   UNL     1       6.590   7.582  -1.218  1.00  0.00     0.167 HD
ATOM     23  C   UNL     1       7.902   8.230   2.980  1.00  0.00     0.037 A 
ATOM     24  C   UNL     1       6.517   8.074  -3.954  1.00  0.00     0.037 A 
ATOM     25  C   UNL     1       8.463   9.309   2.220  1.00  0.00     0.049 A 
ATOM     26  C   UNL     1       7.245   9.216  -3.308  1.00  0.00     0.074 A 
ATOM     27  C   UNL     1       9.248  10.360   2.654  1.00  0.00     0.029 A 
ATOM     28  N   UNL     1       8.277   9.478   0.854  1.00  0.00    -0.354 N 
ATOM     29  N   UNL     1       7.595   9.361  -2.052  1.00  0.00    -0.248 NA
ATOM     30  C   UNL     1       7.669  10.313  -4.185  1.00  0.00     0.031 C 
ATOM     31  C   UNL     1       9.502  11.189   1.555  1.00  0.00     0.029 A 
ATOM     32  C   UNL     1       8.908  10.633   0.430  1.00  0.00     0.049 A 
ATOM     33  H   UNL     1       7.770   8.866   0.273  1.00  0.00     0.167 HD
ATOM     34  C   UNL     1       8.317  10.543  -1.991  1.00  0.00     0.074 A 
ATOM     35  C   UNL     1       8.348  11.078  -3.340  1.00  0.00     0.031 C 
ATOM     36  C   UNL     1       8.916  11.127  -0.924  1.00  0.00     0.037 A 
BRANCH  23  37
ATOM     37  C   UNL     1       8.157   8.130   4.451  1.00  0.00     0.057 A 
ATOM     38  C   UNL     1       8.996   7.138   4.982  1.00  0.00     0.134 A 
ATOM     39  C   UNL     1       7.511   8.982   5.352  1.00  0.00     0.134 A 
ATOM     40  F   UNL     1       9.618   6.269   4.171  1.00  0.00    -0.206 F 
ATOM     41  C   UNL     1       9.158   6.979   6.359  1.00  0.00     0.040 A 
ATOM     42  C   UNL     1       7.681   8.846   6.731  1.00  0.00     0.040 A 
ATOM     43  F   UNL     1       6.685   9.941   4.909  1.00  0.00    -0.206 F 
ATOM     44  C   UNL     1       8.499   7.836   7.238  1.00  0.00     0.006 A 
ENDBRANCH  23  37
BRANCH  24  45
ATOM     45  C   UNL     1       6.210   8.060  -5.405  1.00  0.00     0.057 A 
ATOM     46  C   UNL     1       7.206   7.893  -6.373  1.00  0.00     0.134 A 
ATOM     47  C   UNL     1       4.892   8.213  -5.856  1.00  0.00     0.134 A 
ATOM     48  F   UNL     1       8.488   7.754  -6.005  1.00  0.00    -0.206 F 
ATOM     49  C   UNL     1       6.905   7.893  -7.737  1.00  0.00     0.040 A 
ATOM     50  C   UNL     1       4.575   8.196  -7.215  1.00  0.00     0.040 A 
ATOM     51  F   UNL     1       3.892   8.378  -4.977  1.00  0.00    -0.206 F 
ATOM     52  C   UNL     1       5.585   8.041  -8.161  1.00  0.00     0.006 A 
ENDBRANCH  24  45
BRANCH  36  53
ATOM     53  C   UNL     1       9.678  12.387  -1.188  1.00  0.00     0.057 A 
ATOM     54  C   UNL     1       9.028  13.606  -1.408  1.00  0.00     0.134 A 
ATOM     55  C   UNL     1      11.078  12.384  -1.173  1.00  0.00     0.134 A 
ATOM     56  F   UNL     1       7.688  13.665  -1.447  1.00  0.00    -0.206 F 
ATOM     57  C   UNL     1       9.747  14.781  -1.620  1.00  0.00     0.040 A 
ATOM     58  C   UNL     1      11.807  13.557  -1.361  1.00  0.00     0.040 A 
ATOM     59  F   UNL     1      11.755  11.246  -0.961  1.00  0.00    -0.206 F 
ATOM     60  C   UNL     1      11.141  14.759  -1.589  1.00  0.00     0.006 A 
ENDBRANCH  36  53
ENDBRANCH  10  11
ENDBRANCH   3   5
ENDBRANCH   2   3
ENDBRANCH   1   2
BRANCH   1  61
ATOM     61  C   UNL     1       3.829  -1.320  -1.899  1.00  0.00     0.275 C 
BRANCH  61  62
ATOM     62  O   UNL     1       3.237  -0.051  -1.536  1.00  0.00    -0.458 OA
BRANCH  62  63
ATOM     63  C   UNL     1       2.043   0.247  -2.104  1.00  0.00     0.340 C 
ATOM     64  O   UNL     1       1.375  -0.487  -2.813  1.00  0.00    -0.246 OA
BRANCH  63  65
ATOM     65  C   UNL     1       1.736   1.683  -1.913  1.00  0.00     0.084 A 
ATOM     66  C   UNL     1       2.193   2.561  -2.907  1.00  0.00     0.033 A 
ATOM     67  C   UNL     1       0.843   2.133  -0.920  1.00  0.00     0.051 A 
ATOM     68  C   UNL     1       1.777   3.891  -2.890  1.00  0.00     0.018 A 
ATOM     69  C   UNL     1       0.515   3.496  -0.877  1.00  0.00     0.028 A 
ATOM     70  Br  UNL     1       2.165   5.021  -4.356  1.00  0.00    -0.051 Br
ATOM     71  C   UNL     1       0.984   4.375  -1.854  1.00  0.00     0.018 A 
BRANCH  67  72
ATOM     72  N   UNL     1       0.189   1.237  -0.076  1.00  0.00    -0.370 N 
ATOM     73  C   UNL     1       0.574   0.691   1.181  1.00  0.00     0.125 C 
ATOM     74  C   UNL     1      -1.206   1.044   0.181  1.00  0.00     0.125 C 
ATOM     75  C   UNL     1      -0.751  -0.110   1.118  1.00  0.00     0.005 C 
ATOM     76  C   UNL     1      -1.479  -0.277   2.448  1.00  0.00     0.011 C 
ATOM     77  C   UNL     1      -0.646  -1.451   0.365  1.00  0.00     0.011 C 
ATOM     78  C   UNL     1      -0.746  -1.314   3.304  1.00  0.00     0.001 C 
ATOM     79  C   UNL     1       0.088  -2.478   1.219  1.00  0.00     0.001 C 
ATOM     80  C   UNL     1      -0.591  -2.649   2.574  1.00  0.00     0.000 C 
ENDBRANCH  67  72
ENDBRANCH  63  65
ENDBRANCH  62  63
ENDBRANCH  61  62
ENDBRANCH   1  61
TORSDOF 12
