REMARK SMILES Cc1ccc(C(=O)OCCOC(=O)c2ccc(-c3c4nc(c(-c5c(F)cccc5F)c5ccc([nH]5)c(-c5c(F)cccc5F)c5nc(c(-c6c(F)cccc6F)c6ccc3[nH]6)C=C5)C=C4)cc2)cc1N[C@@H]1CC(=O)N(c2ccccc2C)C1=O
REMARK SMILES IDX 9 1 8 2 6 3 7 4 5 5 1 6 2 7 3 8 69 9 4 10 68 11 70 12 71 14
REMARK SMILES IDX 72 15 83 16 73 17 75 18 84 19 74 20 76 21 77 22 81 23 78 24
REMARK SMILES IDX 80 25 82 26 79 27 10 28 11 29 12 30 13 31 14 32 15 33 67 34
REMARK SMILES IDX 16 35 66 36 17 37 18 38 19 39 60 40 20 41 65 42 59 43 61 44
REMARK SMILES IDX 21 45 64 46 58 47 57 48 22 50 48 51 31 52 47 53 32 54 35 55
REMARK SMILES IDX 46 56 62 57 33 58 34 59 45 61 63 62 36 63 23 64 24 65 29 66
REMARK SMILES IDX 25 67 26 68 28 69 30 70 27 71 49 72 50 73 55 74 51 75 52 76
REMARK SMILES IDX 54 77 56 78 53 79 37 80 38 81 43 82 39 83 40 84 42 85 44 86
REMARK SMILES IDX 41 87
REMARK H PARENT 70 13 61 49 35 60
REMARK Flexibility Score: inf
ROOT
ATOM      1  C   UNL     1      -4.585   1.640  -2.260  1.00  0.00     0.275 C 
ENDROOT
BRANCH   1   2
ATOM      2  O   UNL     1      -3.312   0.980  -2.330  1.00  0.00    -0.458 OA
BRANCH   2   3
ATOM      3  C   UNL     1      -2.563   1.222  -1.232  1.00  0.00     0.338 C 
ATOM      4  O   UNL     1      -2.892   1.899  -0.264  1.00  0.00    -0.246 OA
BRANCH   3   5
ATOM      5  C   UNL     1      -1.157   0.834  -1.364  1.00  0.00     0.062 A 
ATOM      6  C   UNL     1       2.913   0.415  -0.080  1.00  0.00     0.046 C 
ATOM      7  C   UNL     1       1.512   0.640  -0.584  1.00  0.00    -0.028 A 
ATOM      8  C   UNL     1       0.717  -0.519  -0.779  1.00  0.00     0.006 A 
ATOM      9  C   UNL     1       0.958   1.913  -0.815  1.00  0.00     0.038 A 
ATOM     10  C   UNL     1      -0.633  -0.424  -1.127  1.00  0.00     0.016 A 
ATOM     11  C   UNL     1      -0.338   1.951  -1.311  1.00  0.00     0.041 A 
BRANCH   9  12
ATOM     12  N   UNL     1       1.562   3.095  -0.416  1.00  0.00    -0.373 N 
ATOM     13  H   UNL     1       2.546   3.125  -0.415  1.00  0.00     0.161 HD
BRANCH  12  14
ATOM     14  C   UNL     1       0.839   4.316   0.009  1.00  0.00     0.179 C 
ATOM     15  C   UNL     1      -0.093   4.088   1.189  1.00  0.00     0.136 C 
ATOM     16  C   UNL     1      -0.036   4.988  -1.048  1.00  0.00     0.256 C 
ATOM     17  C   UNL     1      -1.331   4.855   0.831  1.00  0.00     0.236 C 
ATOM     18  N   UNL     1      -1.238   5.316  -0.457  1.00  0.00    -0.248 N 
ATOM     19  O   UNL     1       0.307   5.206  -2.204  1.00  0.00    -0.272 OA
ATOM     20  O   UNL     1      -2.274   4.978   1.601  1.00  0.00    -0.274 OA
BRANCH  18  21
ATOM     21  C   UNL     1      -2.304   5.976  -1.123  1.00  0.00     0.055 A 
ATOM     22  C   UNL     1      -2.756   5.476  -2.358  1.00  0.00     0.027 A 
ATOM     23  C   UNL     1      -2.933   7.115  -0.576  1.00  0.00    -0.027 A 
ATOM     24  C   UNL     1      -3.838   6.065  -3.019  1.00  0.00     0.002 A 
ATOM     25  C   UNL     1      -4.018   7.697  -1.258  1.00  0.00     0.005 A 
ATOM     26  C   UNL     1      -2.474   7.774   0.697  1.00  0.00     0.046 C 
ATOM     27  C   UNL     1      -4.467   7.176  -2.469  1.00  0.00     0.000 A 
ENDBRANCH  18  21
ENDBRANCH  12  14
ENDBRANCH   9  12
ENDBRANCH   3   5
ENDBRANCH   2   3
ENDBRANCH   1   2
BRANCH   1  28
ATOM     28  C   UNL     1      -5.710   0.853  -2.934  1.00  0.00     0.275 C 
BRANCH  28  29
ATOM     29  O   UNL     1      -5.612  -0.599  -3.011  1.00  0.00    -0.458 OA
BRANCH  29  30
ATOM     30  C   UNL     1      -5.055  -1.466  -2.136  1.00  0.00     0.338 C 
ATOM     31  O   UNL     1      -4.645  -2.573  -2.479  1.00  0.00    -0.246 OA
BRANCH  30  32
ATOM     32  C   UNL     1      -4.926  -1.046  -0.739  1.00  0.00     0.060 A 
ATOM     33  C   UNL     1      -3.789  -1.447  -0.015  1.00  0.00     0.016 A 
ATOM     34  C   UNL     1      -5.882  -0.204  -0.182  1.00  0.00     0.016 A 
ATOM     35  C   UNL     1      -3.559  -0.941   1.253  1.00  0.00     0.010 A 
ATOM     36  C   UNL     1      -5.595   0.411   1.006  1.00  0.00     0.010 A 
ATOM     37  C   UNL     1      -4.482  -0.026   1.745  1.00  0.00    -0.014 A 
BRANCH  37  38
ATOM     38  C   UNL     1      -4.666   0.185   3.166  1.00  0.00     0.031 A 
ATOM     39  C   UNL     1      -4.013   1.305   3.846  1.00  0.00     0.074 A 
ATOM     40  C   UNL     1      -5.685  -0.596   3.589  1.00  0.00     0.049 A 
ATOM     41  N   UNL     1      -3.812   1.381   5.114  1.00  0.00    -0.248 NA
ATOM     42  C   UNL     1      -3.453   2.444   3.123  1.00  0.00     0.031 C 
ATOM     43  C   UNL     1      -6.600  -0.504   4.704  1.00  0.00     0.029 A 
ATOM     44  N   UNL     1      -6.039  -1.814   2.976  1.00  0.00    -0.354 N 
ATOM     45  C   UNL     1      -3.547   2.713   5.378  1.00  0.00     0.074 A 
ATOM     46  C   UNL     1      -3.115   3.264   4.124  1.00  0.00     0.031 C 
ATOM     47  C   UNL     1      -7.160  -1.719   4.893  1.00  0.00     0.029 A 
ATOM     48  C   UNL     1      -6.504  -2.654   3.981  1.00  0.00     0.049 A 
ATOM     49  H   UNL     1      -5.970  -2.029   2.018  1.00  0.00     0.167 HD
ATOM     50  C   UNL     1      -4.014   3.255   6.543  1.00  0.00     0.037 A 
ATOM     51  C   UNL     1      -5.679  -3.683   4.341  1.00  0.00     0.037 A 
ATOM     52  C   UNL     1      -4.721   2.216   7.292  1.00  0.00     0.049 A 
ATOM     53  C   UNL     1      -5.127  -3.419   5.721  1.00  0.00     0.074 A 
ATOM     54  C   UNL     1      -6.069   1.897   7.345  1.00  0.00     0.029 A 
ATOM     55  N   UNL     1      -4.031   1.093   7.733  1.00  0.00    -0.354 N 
ATOM     56  N   UNL     1      -4.829  -2.232   6.184  1.00  0.00    -0.248 NA
ATOM     57  C   UNL     1      -5.005  -4.471   6.722  1.00  0.00     0.031 C 
ATOM     58  C   UNL     1      -6.179   0.540   7.743  1.00  0.00     0.029 A 
ATOM     59  C   UNL     1      -4.901   0.032   7.906  1.00  0.00     0.049 A 
ATOM     60  H   UNL     1      -3.061   1.058   7.900  1.00  0.00     0.167 HD
ATOM     61  C   UNL     1      -4.593  -2.330   7.530  1.00  0.00     0.074 A 
ATOM     62  C   UNL     1      -4.678  -3.754   7.810  1.00  0.00     0.031 C 
ATOM     63  C   UNL     1      -4.405  -1.257   8.354  1.00  0.00     0.037 A 
BRANCH  50  64
ATOM     64  C   UNL     1      -4.204   4.739   6.810  1.00  0.00     0.057 A 
ATOM     65  C   UNL     1      -5.187   5.179   7.725  1.00  0.00     0.134 A 
ATOM     66  C   UNL     1      -3.489   5.785   6.199  1.00  0.00     0.134 A 
ATOM     67  F   UNL     1      -5.883   4.321   8.482  1.00  0.00    -0.206 F 
ATOM     68  C   UNL     1      -5.506   6.529   7.929  1.00  0.00     0.040 A 
ATOM     69  C   UNL     1      -3.818   7.142   6.371  1.00  0.00     0.040 A 
ATOM     70  F   UNL     1      -2.399   5.554   5.458  1.00  0.00    -0.206 F 
ATOM     71  C   UNL     1      -4.840   7.519   7.229  1.00  0.00     0.006 A 
ENDBRANCH  50  64
BRANCH  51  72
ATOM     72  C   UNL     1      -4.929  -4.296   3.188  1.00  0.00     0.057 A 
ATOM     73  C   UNL     1      -5.661  -4.747   2.064  1.00  0.00     0.134 A 
ATOM     74  C   UNL     1      -3.544  -4.209   3.018  1.00  0.00     0.134 A 
ATOM     75  F   UNL     1      -6.997  -4.867   2.135  1.00  0.00    -0.206 F 
ATOM     76  C   UNL     1      -5.066  -4.994   0.820  1.00  0.00     0.040 A 
ATOM     77  C   UNL     1      -2.931  -4.479   1.780  1.00  0.00     0.040 A 
ATOM     78  F   UNL     1      -2.755  -3.790   4.017  1.00  0.00    -0.206 F 
ATOM     79  C   UNL     1      -3.695  -4.844   0.670  1.00  0.00     0.006 A 
ENDBRANCH  51  72
BRANCH  63  80
ATOM     80  C   UNL     1      -3.809  -1.335   9.731  1.00  0.00     0.057 A 
ATOM     81  C   UNL     1      -2.880  -2.312  10.108  1.00  0.00     0.134 A 
ATOM     82  C   UNL     1      -4.006  -0.290  10.663  1.00  0.00     0.134 A 
ATOM     83  F   UNL     1      -2.510  -3.292   9.272  1.00  0.00    -0.206 F 
ATOM     84  C   UNL     1      -2.240  -2.290  11.350  1.00  0.00     0.040 A 
ATOM     85  C   UNL     1      -3.317  -0.220  11.872  1.00  0.00     0.040 A 
ATOM     86  F   UNL     1      -4.846   0.728  10.425  1.00  0.00    -0.206 F 
ATOM     87  C   UNL     1      -2.444  -1.234  12.229  1.00  0.00     0.006 A 
ENDBRANCH  63  80
ENDBRANCH  37  38
ENDBRANCH  30  32
ENDBRANCH  29  30
ENDBRANCH  28  29
ENDBRANCH   1  28
TORSDOF 14
