REMARK SMILES C[C@H]1CC[C@H]([NH2+]Cc2c(C(=O)OCCOC(=O)c3ccc(-c4c5nc(c(-c6c(F)cccc6F)c6ccc([nH]6)c(-c6c(F)cccc6F)c6nc(c(-c7c(F)cccc7F)c7ccc4[nH]7)C=C6)C=C5)cc3)n(Cc3ccccc3F)c3ccccc23)CC1
REMARK SMILES IDX 13 1 12 2 10 3 11 4 9 5 8 6 86 7 72 8 81 9 85 10 82 11 84 12
REMARK SMILES IDX 83 13 7 14 6 15 5 18 1 19 2 20 3 21 88 22 4 23 87 24 73 25
REMARK SMILES IDX 74 26 75 27 79 28 76 29 78 30 80 31 77 32 14 33 15 34 16 35
REMARK SMILES IDX 17 36 18 37 19 38 71 39 20 40 70 41 21 42 22 43 23 44 64 45
REMARK SMILES IDX 24 46 69 47 63 48 65 49 25 50 68 51 62 52 61 53 26 55 52 56
REMARK SMILES IDX 35 57 51 58 36 59 39 60 50 61 66 62 37 63 38 64 49 66 67 67
REMARK SMILES IDX 40 68 27 69 28 70 33 71 29 72 30 73 32 74 34 75 31 76 53 77
REMARK SMILES IDX 54 78 59 79 55 80 56 81 58 82 60 83 57 84 41 85 42 86 47 87
REMARK SMILES IDX 43 88 44 89 46 90 48 91 45 92
REMARK H PARENT 6 16 6 17 65 54 39 65
REMARK Flexibility Score: inf
ROOT
ATOM      1  C   UNL     1      -2.050   0.760   2.893  1.00  0.00     0.275 C 
ENDROOT
BRANCH   1   2
ATOM      2  O   UNL     1      -3.018  -0.242   2.461  1.00  0.00    -0.457 OA
BRANCH   2   3
ATOM      3  C   UNL     1      -2.501  -1.451   2.125  1.00  0.00     0.355 C 
ATOM      4  O   UNL     1      -1.356  -1.780   2.397  1.00  0.00    -0.244 OA
BRANCH   3   5
ATOM      5  C   UNL     1      -3.364  -2.277   1.305  1.00  0.00     0.137 A 
ATOM      6  C   UNL     1      -4.055  -1.933   0.130  1.00  0.00     0.047 A 
ATOM      7  C   UNL     1      -4.617  -3.162  -0.384  1.00  0.00     0.009 A 
ATOM      8  N   UNL     1      -3.410  -3.684   1.427  1.00  0.00    -0.330 N 
ATOM      9  C   UNL     1      -4.077  -4.222   0.337  1.00  0.00     0.050 A 
ATOM     10  C   UNL     1      -5.437  -3.460  -1.499  1.00  0.00     0.011 A 
ATOM     11  C   UNL     1      -4.197  -5.546  -0.122  1.00  0.00     0.027 A 
ATOM     12  C   UNL     1      -5.648  -4.787  -1.889  1.00  0.00     0.001 A 
ATOM     13  C   UNL     1      -5.005  -5.817  -1.224  1.00  0.00     0.002 A 
BRANCH   6  14
ATOM     14  C   UNL     1      -4.192  -0.638  -0.664  1.00  0.00     0.300 C 
BRANCH  14  15
ATOM     15  N   UNL     1      -3.305   0.473  -0.331  1.00  0.00    -0.340 N 
ATOM     16  H   UNL     1      -3.839   1.332  -0.462  1.00  0.00     0.346 HD
ATOM     17  H   UNL     1      -3.002   0.268   0.622  1.00  0.00     0.346 HD
BRANCH  15  18
ATOM     18  C   UNL     1      -2.044   0.626  -1.080  1.00  0.00     0.182 C 
ATOM     19  C   UNL     1       2.393   0.963  -0.683  1.00  0.00     0.007 C 
ATOM     20  C   UNL     1       0.882   0.838  -0.509  1.00  0.00    -0.014 C 
ATOM     21  C   UNL     1       0.335  -0.354  -1.287  1.00  0.00     0.009 C 
ATOM     22  C   UNL     1       0.124   2.080  -0.980  1.00  0.00     0.009 C 
ATOM     23  C   UNL     1      -1.123  -0.578  -0.916  1.00  0.00     0.065 C 
ATOM     24  C   UNL     1      -1.379   1.967  -0.682  1.00  0.00     0.065 C 
ENDBRANCH  15  18
ENDBRANCH  14  15
ENDBRANCH   6  14
BRANCH   8  25
ATOM     25  C   UNL     1      -2.538  -4.496   2.296  1.00  0.00     0.161 C 
BRANCH  25  26
ATOM     26  C   UNL     1      -3.111  -5.365   3.398  1.00  0.00     0.008 A 
ATOM     27  C   UNL     1      -3.589  -6.665   3.171  1.00  0.00     0.008 A 
ATOM     28  C   UNL     1      -2.910  -4.991   4.736  1.00  0.00     0.128 A 
ATOM     29  C   UNL     1      -3.810  -7.560   4.227  1.00  0.00     0.001 A 
ATOM     30  C   UNL     1      -3.115  -5.880   5.794  1.00  0.00     0.039 A 
ATOM     31  F   UNL     1      -2.423  -3.775   5.022  1.00  0.00    -0.207 F 
ATOM     32  C   UNL     1      -3.554  -7.175   5.538  1.00  0.00     0.003 A 
ENDBRANCH  25  26
ENDBRANCH   8  25
ENDBRANCH   3   5
ENDBRANCH   2   3
ENDBRANCH   1   2
BRANCH   1  33
ATOM     33  C   UNL     1      -1.237   0.479   4.170  1.00  0.00     0.275 C 
BRANCH  33  34
ATOM     34  O   UNL     1       0.059  -0.029   3.779  1.00  0.00    -0.458 OA
BRANCH  34  35
ATOM     35  C   UNL     1       0.558  -1.027   4.555  1.00  0.00     0.338 C 
ATOM     36  O   UNL     1       0.353  -1.176   5.747  1.00  0.00    -0.246 OA
BRANCH  35  37
ATOM     37  C   UNL     1       1.095  -2.079   3.647  1.00  0.00     0.060 A 
ATOM     38  C   UNL     1       1.641  -1.775   2.394  1.00  0.00     0.016 A 
ATOM     39  C   UNL     1       0.731  -3.394   3.942  1.00  0.00     0.016 A 
ATOM     40  C   UNL     1       1.634  -2.744   1.382  1.00  0.00     0.010 A 
ATOM     41  C   UNL     1       0.735  -4.352   2.928  1.00  0.00     0.010 A 
ATOM     42  C   UNL     1       1.078  -4.010   1.611  1.00  0.00    -0.014 A 
BRANCH  42  43
ATOM     43  C   UNL     1       0.957  -4.994   0.520  1.00  0.00     0.031 A 
ATOM     44  C   UNL     1       1.390  -6.371   0.804  1.00  0.00     0.074 A 
ATOM     45  C   UNL     1       0.373  -4.893  -0.694  1.00  0.00     0.049 A 
ATOM     46  N   UNL     1       2.584  -6.836   0.679  1.00  0.00    -0.248 NA
ATOM     47  C   UNL     1       0.402  -7.331   1.310  1.00  0.00     0.031 C 
ATOM     48  C   UNL     1      -0.611  -3.933  -1.153  1.00  0.00     0.029 A 
ATOM     49  N   UNL     1       0.542  -5.713  -1.785  1.00  0.00    -0.354 N 
ATOM     50  C   UNL     1       2.477  -8.194   0.914  1.00  0.00     0.074 A 
ATOM     51  C   UNL     1       1.164  -8.413   1.474  1.00  0.00     0.031 C 
ATOM     52  C   UNL     1      -1.003  -4.238  -2.414  1.00  0.00     0.029 A 
ATOM     53  C   UNL     1      -0.212  -5.359  -2.898  1.00  0.00     0.049 A 
ATOM     54  H   UNL     1       1.149  -6.489  -1.778  1.00  0.00     0.167 HD
ATOM     55  C   UNL     1       3.393  -9.074   0.433  1.00  0.00     0.037 A 
ATOM     56  C   UNL     1      -0.171  -5.920  -4.134  1.00  0.00     0.037 A 
ATOM     57  C   UNL     1       4.507  -8.414  -0.201  1.00  0.00     0.049 A 
ATOM     58  C   UNL     1       1.115  -6.649  -4.263  1.00  0.00     0.074 A 
ATOM     59  C   UNL     1       5.445  -7.477   0.188  1.00  0.00     0.029 A 
ATOM     60  N   UNL     1       4.535  -8.419  -1.575  1.00  0.00    -0.354 N 
ATOM     61  N   UNL     1       2.278  -6.075  -4.382  1.00  0.00    -0.248 NA
ATOM     62  C   UNL     1       1.157  -8.079  -3.990  1.00  0.00     0.031 C 
ATOM     63  C   UNL     1       5.670  -6.661  -0.963  1.00  0.00     0.029 A 
ATOM     64  C   UNL     1       4.865  -7.152  -1.992  1.00  0.00     0.049 A 
ATOM     65  H   UNL     1       4.351  -9.192  -2.157  1.00  0.00     0.167 HD
ATOM     66  C   UNL     1       3.168  -6.955  -3.792  1.00  0.00     0.074 A 
ATOM     67  C   UNL     1       2.459  -8.224  -3.733  1.00  0.00     0.031 C 
ATOM     68  C   UNL     1       4.276  -6.497  -3.141  1.00  0.00     0.037 A 
BRANCH  55  69
ATOM     69  C   UNL     1       3.141 -10.540   0.278  1.00  0.00     0.057 A 
ATOM     70  C   UNL     1       1.890 -11.092  -0.056  1.00  0.00     0.134 A 
ATOM     71  C   UNL     1       4.222 -11.432   0.282  1.00  0.00     0.134 A 
ATOM     72  F   UNL     1       0.808 -10.322  -0.244  1.00  0.00    -0.206 F 
ATOM     73  C   UNL     1       1.711 -12.456  -0.292  1.00  0.00     0.040 A 
ATOM     74  C   UNL     1       4.066 -12.790  -0.009  1.00  0.00     0.040 A 
ATOM     75  F   UNL     1       5.468 -10.997   0.524  1.00  0.00    -0.206 F 
ATOM     76  C   UNL     1       2.804 -13.309  -0.280  1.00  0.00     0.006 A 
ENDBRANCH  55  69
BRANCH  56  77
ATOM     77  C   UNL     1      -1.145  -5.890  -5.249  1.00  0.00     0.057 A 
ATOM     78  C   UNL     1      -2.527  -5.880  -5.008  1.00  0.00     0.134 A 
ATOM     79  C   UNL     1      -0.759  -6.098  -6.584  1.00  0.00     0.134 A 
ATOM     80  F   UNL     1      -3.003  -5.779  -3.760  1.00  0.00    -0.206 F 
ATOM     81  C   UNL     1      -3.470  -6.059  -6.027  1.00  0.00     0.040 A 
ATOM     82  C   UNL     1      -1.691  -6.289  -7.613  1.00  0.00     0.040 A 
ATOM     83  F   UNL     1       0.537  -6.174  -6.919  1.00  0.00    -0.206 F 
ATOM     84  C   UNL     1      -3.054  -6.274  -7.335  1.00  0.00     0.006 A 
ENDBRANCH  56  77
BRANCH  68  85
ATOM     85  C   UNL     1       4.721  -5.093  -3.448  1.00  0.00     0.057 A 
ATOM     86  C   UNL     1       6.009  -4.886  -3.954  1.00  0.00     0.134 A 
ATOM     87  C   UNL     1       3.957  -3.947  -3.174  1.00  0.00     0.134 A 
ATOM     88  F   UNL     1       6.818  -5.931  -4.193  1.00  0.00    -0.206 F 
ATOM     89  C   UNL     1       6.511  -3.604  -4.194  1.00  0.00     0.040 A 
ATOM     90  C   UNL     1       4.433  -2.661  -3.446  1.00  0.00     0.040 A 
ATOM     91  F   UNL     1       2.751  -4.038  -2.600  1.00  0.00    -0.206 F 
ATOM     92  C   UNL     1       5.717  -2.486  -3.953  1.00  0.00     0.006 A 
ENDBRANCH  68  85
ENDBRANCH  42  43
ENDBRANCH  35  37
ENDBRANCH  34  35
ENDBRANCH  33  34
ENDBRANCH   1  33
TORSDOF 16
