REMARK SMILES CC(=O)Nc1ccc(/N=C2\C(=O)N(c3ccc(NC(C)=O)cc3)[C@H](c3ccccc3)[C@H]2CC(=O)OCCOC(=O)c2ccc(-c3c4nc(c(-c5c(F)cccc5F)c5ccc([nH]5)c(-c5c(F)cccc5F)c5nc(c(-c6c(F)cccc6F)c6ccc3[nH]6)C=C5)C=C4)cc2)cc1
REMARK SMILES IDX 36 1 35 2 33 3 34 4 32 5 31 6 9 7 10 8 11 9 12 10 13 11
REMARK SMILES IDX 24 12 8 13 5 14 6 15 96 16 7 17 95 18 4 19 1 20 2 21 3 22
REMARK SMILES IDX 14 24 15 25 23 26 16 27 22 28 17 29 18 30 19 31 20 33 21 34
REMARK SMILES IDX 25 35 26 36 30 37 27 38 29 39 28 40 37 41 38 42 39 43 40 44
REMARK SMILES IDX 41 45 42 46 94 47 43 48 93 49 44 50 45 51 46 52 87 53 47 54
REMARK SMILES IDX 92 55 86 56 88 57 48 58 91 59 85 60 84 61 49 63 75 64 58 65
REMARK SMILES IDX 74 66 59 67 62 68 73 69 89 70 60 71 61 72 72 74 90 75 63 76
REMARK SMILES IDX 50 77 51 78 56 79 52 80 53 81 55 82 57 83 54 84 76 85 77 86
REMARK SMILES IDX 82 87 78 88 79 89 81 90 83 91 80 92 64 93 65 94 70 95 66 96
REMARK SMILES IDX 67 97 69 98 71 99 68 100
REMARK H PARENT 4 23 18 32 88 62 62 73
REMARK Flexibility Score: inf
ROOT
ATOM      1  C   UNL     1       6.282   7.719  -0.194  1.00  0.00     0.274 C 
ENDROOT
BRANCH   1   2
ATOM      2  O   UNL     1       6.522   6.408   0.350  1.00  0.00    -0.462 OA
BRANCH   2   3
ATOM      3  C   UNL     1       7.632   6.234   1.107  1.00  0.00     0.306 C 
ATOM      4  O   UNL     1       8.469   7.092   1.352  1.00  0.00    -0.252 OA
BRANCH   3   5
ATOM      5  C   UNL     1       7.734   4.809   1.599  1.00  0.00     0.135 C 
BRANCH   5   6
ATOM      6  C   UNL     1       6.585   4.469   2.549  1.00  0.00     0.083 C 
ATOM      7  N   UNL     1       4.536   4.366   1.223  1.00  0.00    -0.247 NA
ATOM      8  C   UNL     1       5.506   3.735   1.810  1.00  0.00     0.112 C 
ATOM      9  C   UNL     1       5.696   2.259   2.013  1.00  0.00     0.273 C 
ATOM     10  O   UNL     1       5.318   1.417   1.220  1.00  0.00    -0.267 OA
ATOM     11  N   UNL     1       6.314   2.144   3.246  1.00  0.00    -0.299 N 
ATOM     12  C   UNL     1       6.951   3.408   3.633  1.00  0.00     0.131 C 
BRANCH   7  13
ATOM     13  C   UNL     1       3.454   3.722   0.608  1.00  0.00     0.064 A 
ATOM     14  C   UNL     1       1.245   2.561  -0.738  1.00  0.00     0.041 A 
ATOM     15  C   UNL     1       1.934   3.650  -1.290  1.00  0.00     0.028 A 
ATOM     16  C   UNL     1       1.634   2.097   0.520  1.00  0.00     0.028 A 
ATOM     17  C   UNL     1       3.033   4.214  -0.631  1.00  0.00     0.030 A 
ATOM     18  C   UNL     1       2.710   2.693   1.198  1.00  0.00     0.030 A 
BRANCH  14  19
ATOM     19  N   UNL     1       0.177   2.050  -1.499  1.00  0.00    -0.326 N 
ATOM     20  C   UNL     1      -0.186  -0.221  -0.515  1.00  0.00     0.114 C 
ATOM     21  C   UNL     1      -0.560   0.908  -1.430  1.00  0.00     0.221 C 
ATOM     22  O   UNL     1      -1.544   0.804  -2.169  1.00  0.00    -0.275 OA
ATOM     23  H   UNL     1      -0.093   2.643  -2.236  1.00  0.00     0.169 HD
ENDBRANCH  14  19
ENDBRANCH   7  13
BRANCH  11  24
ATOM     24  C   UNL     1       6.407   0.908   3.943  1.00  0.00     0.045 A 
ATOM     25  C   UNL     1       6.527  -0.298   3.238  1.00  0.00     0.028 A 
ATOM     26  C   UNL     1       6.228   0.828   5.328  1.00  0.00     0.028 A 
ATOM     27  C   UNL     1       6.434  -1.541   3.884  1.00  0.00     0.028 A 
ATOM     28  C   UNL     1       6.111  -0.411   5.974  1.00  0.00     0.028 A 
ATOM     29  C   UNL     1       6.190  -1.605   5.254  1.00  0.00     0.041 A 
BRANCH  29  30
ATOM     30  N   UNL     1       5.949  -2.798   5.964  1.00  0.00    -0.326 N 
ATOM     31  C   UNL     1       5.950  -4.085   5.461  1.00  0.00     0.221 C 
ATOM     32  H   UNL     1       5.758  -2.704   6.925  1.00  0.00     0.169 HD
ATOM     33  C   UNL     1       5.487  -5.111   6.465  1.00  0.00     0.114 C 
ATOM     34  O   UNL     1       6.284  -4.432   4.333  1.00  0.00    -0.275 OA
ENDBRANCH  29  30
ENDBRANCH  11  24
BRANCH  12  35
ATOM     35  C   UNL     1       6.690   3.933   5.034  1.00  0.00    -0.024 A 
ATOM     36  C   UNL     1       7.724   3.896   5.991  1.00  0.00     0.006 A 
ATOM     37  C   UNL     1       5.446   4.467   5.410  1.00  0.00     0.006 A 
ATOM     38  C   UNL     1       7.517   4.371   7.288  1.00  0.00     0.000 A 
ATOM     39  C   UNL     1       5.247   4.955   6.704  1.00  0.00     0.000 A 
ATOM     40  C   UNL     1       6.278   4.902   7.642  1.00  0.00     0.000 A 
ENDBRANCH  12  35
ENDBRANCH   5   6
ENDBRANCH   3   5
ENDBRANCH   2   3
ENDBRANCH   1   2
BRANCH   1  41
ATOM     41  C   UNL     1       5.383   8.553   0.718  1.00  0.00     0.275 C 
BRANCH  41  42
ATOM     42  O   UNL     1       6.165   9.151   1.767  1.00  0.00    -0.458 OA
BRANCH  42  43
ATOM     43  C   UNL     1       6.108   8.541   2.973  1.00  0.00     0.338 C 
ATOM     44  O   UNL     1       5.377   7.620   3.295  1.00  0.00    -0.246 OA
BRANCH  43  45
ATOM     45  C   UNL     1       7.178   9.066   3.847  1.00  0.00     0.060 A 
ATOM     46  C   UNL     1       7.814   8.173   4.717  1.00  0.00     0.016 A 
ATOM     47  C   UNL     1       7.559  10.412   3.816  1.00  0.00     0.016 A 
ATOM     48  C   UNL     1       8.847   8.620   5.539  1.00  0.00     0.010 A 
ATOM     49  C   UNL     1       8.576  10.863   4.659  1.00  0.00     0.010 A 
ATOM     50  C   UNL     1       9.226   9.970   5.524  1.00  0.00    -0.014 A 
BRANCH  50  51
ATOM     51  C   UNL     1      10.276  10.445   6.451  1.00  0.00     0.031 A 
ATOM     52  C   UNL     1       9.952  10.657   7.901  1.00  0.00     0.074 A 
ATOM     53  C   UNL     1      11.525  10.660   6.001  1.00  0.00     0.049 A 
ATOM     54  N   UNL     1      10.752  10.966   8.889  1.00  0.00    -0.248 NA
ATOM     55  C   UNL     1       8.544  10.486   8.292  1.00  0.00     0.031 C 
ATOM     56  C   UNL     1      11.973  10.478   4.620  1.00  0.00     0.029 A 
ATOM     57  N   UNL     1      12.648  11.076   6.669  1.00  0.00    -0.354 N 
ATOM     58  C   UNL     1       9.955  10.988  10.023  1.00  0.00     0.074 A 
ATOM     59  C   UNL     1       8.602  10.687   9.601  1.00  0.00     0.031 C 
ATOM     60  C   UNL     1      13.277  10.794   4.542  1.00  0.00     0.029 A 
ATOM     61  C   UNL     1      13.754  11.188   5.865  1.00  0.00     0.049 A 
ATOM     62  H   UNL     1      12.659  11.276   7.633  1.00  0.00     0.167 HD
ATOM     63  C   UNL     1      10.319  11.227  11.304  1.00  0.00     0.037 A 
ATOM     64  C   UNL     1      15.010  11.561   6.168  1.00  0.00     0.037 A 
ATOM     65  C   UNL     1      11.648  11.567  11.730  1.00  0.00     0.049 A 
ATOM     66  C   UNL     1      15.368  11.910   7.582  1.00  0.00     0.074 A 
ATOM     67  C   UNL     1      12.111  11.808  13.012  1.00  0.00     0.029 A 
ATOM     68  N   UNL     1      12.725  11.735  10.875  1.00  0.00    -0.354 N 
ATOM     69  N   UNL     1      14.617  11.873   8.655  1.00  0.00    -0.248 NA
ATOM     70  C   UNL     1      16.749  12.351   7.825  1.00  0.00     0.031 C 
ATOM     71  C   UNL     1      13.470  12.143  12.929  1.00  0.00     0.029 A 
ATOM     72  C   UNL     1      13.848  12.102  11.597  1.00  0.00     0.049 A 
ATOM     73  H   UNL     1      12.695  11.613   9.899  1.00  0.00     0.167 HD
ATOM     74  C   UNL     1      15.435  12.271   9.702  1.00  0.00     0.074 A 
ATOM     75  C   UNL     1      16.739  12.553   9.136  1.00  0.00     0.031 C 
ATOM     76  C   UNL     1      15.132  12.385  11.017  1.00  0.00     0.037 A 
BRANCH  63  77
ATOM     77  C   UNL     1       9.245  11.116  12.336  1.00  0.00     0.057 A 
ATOM     78  C   UNL     1       8.956   9.886  12.938  1.00  0.00     0.134 A 
ATOM     79  C   UNL     1       8.498  12.230  12.728  1.00  0.00     0.134 A 
ATOM     80  F   UNL     1       9.633   8.781  12.588  1.00  0.00    -0.206 F 
ATOM     81  C   UNL     1       7.953   9.768  13.899  1.00  0.00     0.040 A 
ATOM     82  C   UNL     1       7.492  12.125  13.688  1.00  0.00     0.040 A 
ATOM     83  F   UNL     1       8.723  13.430  12.172  1.00  0.00    -0.206 F 
ATOM     84  C   UNL     1       7.217  10.891  14.277  1.00  0.00     0.006 A 
ENDBRANCH  63  77
BRANCH  64  85
ATOM     85  C   UNL     1      16.032  11.618   5.102  1.00  0.00     0.057 A 
ATOM     86  C   UNL     1      16.892  10.541   4.870  1.00  0.00     0.134 A 
ATOM     87  C   UNL     1      16.169  12.752   4.295  1.00  0.00     0.134 A 
ATOM     88  F   UNL     1      16.809   9.436   5.625  1.00  0.00    -0.206 F 
ATOM     89  C   UNL     1      17.860  10.589   3.867  1.00  0.00     0.040 A 
ATOM     90  C   UNL     1      17.130  12.813   3.286  1.00  0.00     0.040 A 
ATOM     91  F   UNL     1      15.374  13.815   4.484  1.00  0.00    -0.206 F 
ATOM     92  C   UNL     1      17.979  11.728   3.071  1.00  0.00     0.006 A 
ENDBRANCH  64  85
BRANCH  76  93
ATOM     93  C   UNL     1      16.231  12.829  11.926  1.00  0.00     0.057 A 
ATOM     94  C   UNL     1      16.483  14.188  12.144  1.00  0.00     0.134 A 
ATOM     95  C   UNL     1      17.023  11.898  12.605  1.00  0.00     0.134 A 
ATOM     96  F   UNL     1      15.761  15.124  11.510  1.00  0.00    -0.206 F 
ATOM     97  C   UNL     1      17.495  14.607  13.008  1.00  0.00     0.040 A 
ATOM     98  C   UNL     1      18.035  12.304  13.475  1.00  0.00     0.040 A 
ATOM     99  F   UNL     1      16.828  10.582  12.429  1.00  0.00    -0.206 F 
ATOM    100  C   UNL     1      18.272  13.663  13.678  1.00  0.00     0.006 A 
ENDBRANCH  76  93
ENDBRANCH  50  51
ENDBRANCH  43  45
ENDBRANCH  42  43
ENDBRANCH  41  42
ENDBRANCH   1  41
TORSDOF 17
