REMARK SMILES O=C(OCCOC(=O)C1CCN(C(=O)COc2ccc(Cl)cc2Cl)CC1)c1ccc(-c2c3nc(c(-c4c(F)cccc4F)c4ccc([nH]4)c(-c4c(F)cccc4F)c4nc(c(-c5c(F)cccc5F)c5ccc2[nH]5)C=C4)C=C3)cc1
REMARK SMILES IDX 5 1 4 2 3 3 2 4 1 5 27 6 28 7 80 8 29 9 79 10 30 11 31 12
REMARK SMILES IDX 32 13 73 14 33 15 78 16 72 17 74 18 34 19 77 20 71 21 70 22
REMARK SMILES IDX 35 24 61 25 44 26 60 27 45 28 48 29 59 30 75 31 46 32 47 33
REMARK SMILES IDX 58 35 76 36 49 37 36 38 37 39 42 40 38 41 39 42 41 43 43 44
REMARK SMILES IDX 40 45 62 46 63 47 68 48 64 49 65 50 67 51 69 52 66 53 50 54
REMARK SMILES IDX 51 55 56 56 52 57 53 58 55 59 57 60 54 61 6 62 7 63 8 64
REMARK SMILES IDX 9 65 10 66 26 67 11 68 25 69 12 70 13 71 14 72 15 73 16 74
REMARK SMILES IDX 17 75 18 76 23 77 19 78 22 79 24 80 20 81 21 82
REMARK H PARENT 74 23 48 34
REMARK Flexibility Score: inf
ROOT
ATOM      1  C   UNL     1       3.805  -0.988  -2.258  1.00  0.00     0.274 C 
ENDROOT
BRANCH   1   2
ATOM      2  C   UNL     1       4.332  -1.646  -0.976  1.00  0.00     0.275 C 
BRANCH   2   3
ATOM      3  O   UNL     1       3.629  -1.299   0.218  1.00  0.00    -0.458 OA
BRANCH   3   4
ATOM      4  C   UNL     1       3.730  -0.185   0.973  1.00  0.00     0.338 C 
ATOM      5  O   UNL     1       3.020  -0.099   1.974  1.00  0.00    -0.246 OA
BRANCH   4   6
ATOM      6  C   UNL     1       4.555   1.015   0.603  1.00  0.00     0.060 A 
ATOM      7  C   UNL     1       5.602   1.102  -0.324  1.00  0.00     0.016 A 
ATOM      8  C   UNL     1       4.170   2.199   1.238  1.00  0.00     0.016 A 
ATOM      9  C   UNL     1       6.159   2.339  -0.693  1.00  0.00     0.010 A 
ATOM     10  C   UNL     1       4.667   3.429   0.822  1.00  0.00     0.010 A 
ATOM     11  C   UNL     1       5.664   3.525  -0.159  1.00  0.00    -0.014 A 
BRANCH  11  12
ATOM     12  C   UNL     1       6.168   4.871  -0.557  1.00  0.00     0.031 A 
ATOM     13  C   UNL     1       6.616   5.816   0.529  1.00  0.00     0.074 A 
ATOM     14  C   UNL     1       6.101   5.309  -1.834  1.00  0.00     0.049 A 
ATOM     15  N   UNL     1       6.945   7.080   0.454  1.00  0.00    -0.248 NA
ATOM     16  C   UNL     1       6.628   5.280   1.903  1.00  0.00     0.031 C 
ATOM     17  C   UNL     1       5.596   4.554  -2.985  1.00  0.00     0.029 A 
ATOM     18  N   UNL     1       6.426   6.532  -2.374  1.00  0.00    -0.354 N 
ATOM     19  C   UNL     1       7.160   7.474   1.767  1.00  0.00     0.074 A 
ATOM     20  C   UNL     1       6.751   6.383   2.617  1.00  0.00     0.031 C 
ATOM     21  C   UNL     1       5.617   5.336  -4.079  1.00  0.00     0.029 A 
ATOM     22  C   UNL     1       6.156   6.642  -3.719  1.00  0.00     0.049 A 
ATOM     23  H   UNL     1       6.817   7.264  -1.845  1.00  0.00     0.167 HD
ATOM     24  C   UNL     1       7.764   8.591   2.234  1.00  0.00     0.037 A 
ATOM     25  C   UNL     1       6.343   7.675  -4.564  1.00  0.00     0.037 A 
ATOM     26  C   UNL     1       8.258   9.631   1.382  1.00  0.00     0.049 A 
ATOM     27  C   UNL     1       7.019   8.918  -4.046  1.00  0.00     0.074 A 
ATOM     28  C   UNL     1       9.005  10.744   1.714  1.00  0.00     0.029 A 
ATOM     29  N   UNL     1       8.055   9.668   0.011  1.00  0.00    -0.354 N 
ATOM     30  N   UNL     1       7.391   9.210  -2.823  1.00  0.00    -0.248 NA
ATOM     31  C   UNL     1       7.354   9.954  -5.035  1.00  0.00     0.031 C 
ATOM     32  C   UNL     1       9.240  11.468   0.540  1.00  0.00     0.029 A 
ATOM     33  C   UNL     1       8.665  10.787  -0.523  1.00  0.00     0.049 A 
ATOM     34  H   UNL     1       7.552   8.997  -0.505  1.00  0.00     0.167 HD
ATOM     35  C   UNL     1       8.061  10.423  -2.905  1.00  0.00     0.074 A 
ATOM     36  C   UNL     1       8.033  10.821  -4.298  1.00  0.00     0.031 C 
ATOM     37  C   UNL     1       8.661  11.136  -1.921  1.00  0.00     0.037 A 
BRANCH  24  38
ATOM     38  C   UNL     1       7.994   8.655   3.716  1.00  0.00     0.057 A 
ATOM     39  C   UNL     1       8.849   7.743   4.358  1.00  0.00     0.134 A 
ATOM     40  C   UNL     1       7.307   9.570   4.519  1.00  0.00     0.134 A 
ATOM     41  F   UNL     1       9.525   6.828   3.646  1.00  0.00    -0.206 F 
ATOM     42  C   UNL     1       8.951   7.688   5.747  1.00  0.00     0.040 A 
ATOM     43  C   UNL     1       7.433   9.550   5.910  1.00  0.00     0.040 A 
ATOM     44  F   UNL     1       6.483  10.476   3.973  1.00  0.00    -0.206 F 
ATOM     45  C   UNL     1       8.240   8.594   6.528  1.00  0.00     0.006 A 
ENDBRANCH  24  38
BRANCH  25  46
ATOM     46  C   UNL     1       5.993   7.556  -6.005  1.00  0.00     0.057 A 
ATOM     47  C   UNL     1       6.992   7.412  -6.976  1.00  0.00     0.134 A 
ATOM     48  C   UNL     1       4.670   7.629  -6.453  1.00  0.00     0.134 A 
ATOM     49  F   UNL     1       8.281   7.350  -6.611  1.00  0.00    -0.206 F 
ATOM     50  C   UNL     1       6.694   7.383  -8.340  1.00  0.00     0.040 A 
ATOM     51  C   UNL     1       4.355   7.583  -7.815  1.00  0.00     0.040 A 
ATOM     52  F   UNL     1       3.663   7.755  -5.577  1.00  0.00    -0.206 F 
ATOM     53  C   UNL     1       5.370   7.470  -8.763  1.00  0.00     0.006 A 
ENDBRANCH  25  46
BRANCH  37  54
ATOM     54  C   UNL     1       9.407  12.373  -2.315  1.00  0.00     0.057 A 
ATOM     55  C   UNL     1       8.748  13.550  -2.684  1.00  0.00     0.134 A 
ATOM     56  C   UNL     1      10.806  12.404  -2.240  1.00  0.00     0.134 A 
ATOM     57  F   UNL     1       7.411  13.578  -2.788  1.00  0.00    -0.206 F 
ATOM     58  C   UNL     1       9.457  14.717  -2.973  1.00  0.00     0.040 A 
ATOM     59  C   UNL     1      11.523  13.572  -2.499  1.00  0.00     0.040 A 
ATOM     60  F   UNL     1      11.495  11.309  -1.885  1.00  0.00    -0.206 F 
ATOM     61  C   UNL     1      10.847  14.732  -2.868  1.00  0.00     0.006 A 
ENDBRANCH  37  54
ENDBRANCH  11  12
ENDBRANCH   4   6
ENDBRANCH   3   4
ENDBRANCH   2   3
ENDBRANCH   1   2
BRANCH   1  62
ATOM     62  O   UNL     1       3.239   0.335  -2.112  1.00  0.00    -0.462 OA
BRANCH  62  63
ATOM     63  C   UNL     1       1.888   0.355  -1.941  1.00  0.00     0.309 C 
ATOM     64  O   UNL     1       1.222  -0.654  -1.747  1.00  0.00    -0.252 OA
BRANCH  63  65
ATOM     65  C   UNL     1       1.223   1.724  -2.125  1.00  0.00     0.103 C 
ATOM     66  C   UNL     1       2.073   2.913  -2.564  1.00  0.00     0.037 C 
ATOM     67  C   UNL     1       0.276   2.051  -0.969  1.00  0.00     0.037 C 
ATOM     68  C   UNL     1       2.316   4.039  -1.565  1.00  0.00     0.120 C 
ATOM     69  C   UNL     1       0.938   2.841   0.140  1.00  0.00     0.120 C 
ATOM     70  N   UNL     1       1.534   4.078  -0.339  1.00  0.00    -0.340 N 
ATOM     71  C   UNL     1       1.702   5.221   0.445  1.00  0.00     0.260 C 
ATOM     72  O   UNL     1       2.510   6.102   0.129  1.00  0.00    -0.271 OA
BRANCH  71  73
ATOM     73  C   UNL     1       0.878   5.419   1.733  1.00  0.00     0.329 C 
BRANCH  73  74
ATOM     74  O   UNL     1      -0.491   5.100   1.841  1.00  0.00    -0.482 OA
BRANCH  74  75
ATOM     75  C   UNL     1      -1.379   5.476   0.873  1.00  0.00     0.138 A 
ATOM     76  C   UNL     1      -1.063   6.200  -0.279  1.00  0.00     0.049 A 
ATOM     77  C   UNL     1      -2.703   5.039   1.052  1.00  0.00     0.084 A 
ATOM     78  C   UNL     1      -2.023   6.394  -1.277  1.00  0.00     0.024 A 
ATOM     79  C   UNL     1      -3.672   5.260   0.072  1.00  0.00     0.045 A 
ATOM     80  Cl  UNL     1      -3.184   4.198   2.487  1.00  0.00    -0.080 Cl
ATOM     81  C   UNL     1      -3.318   5.916  -1.101  1.00  0.00     0.042 A 
ATOM     82  Cl  UNL     1      -4.485   6.140  -2.343  1.00  0.00    -0.084 Cl
ENDBRANCH  74  75
ENDBRANCH  73  74
ENDBRANCH  71  73
ENDBRANCH  63  65
ENDBRANCH  62  63
ENDBRANCH   1  62
TORSDOF 14
