REMARK SMILES C[N@@H+]1CCC[C@@H](C[NH2+]CC(=O)OCCOC(=O)c2ccc(-c3c4nc(c(-c5c(F)cccc5F)c5ccc([nH]5)c(-c5c(F)cccc5F)c5nc(c(-c6c(F)cccc6F)c6ccc3[nH]6)C=C5)C=C4)cc2)C1
REMARK SMILES IDX 13 1 12 2 10 3 11 4 9 5 8 6 7 9 6 10 1 11 2 12 3 13 72 14
REMARK SMILES IDX 4 16 5 17 14 18 15 19 16 20 17 21 18 22 19 23 71 24 20 25
REMARK SMILES IDX 70 26 21 27 22 28 23 29 64 30 24 31 69 32 63 33 65 34 25 35
REMARK SMILES IDX 68 36 62 37 61 38 26 40 52 41 35 42 51 43 36 44 39 45 50 46
REMARK SMILES IDX 66 47 37 48 38 49 49 51 67 52 40 53 27 54 28 55 33 56 29 57
REMARK SMILES IDX 30 58 32 59 34 60 31 61 53 62 54 63 59 64 55 65 56 66 58 67
REMARK SMILES IDX 60 68 57 69 41 70 42 71 47 72 43 73 44 74 46 75 48 76 45 77
REMARK H PARENT 8 7 8 8 2 15 65 39 39 50
REMARK Flexibility Score: inf
ROOT
ATOM      1  C   UNL     1      -0.221   0.931   4.906  1.00  0.00     0.274 C 
ENDROOT
BRANCH   1   2
ATOM      2  O   UNL     1       0.632   0.007   4.208  1.00  0.00    -0.458 OA
BRANCH   2   3
ATOM      3  C   UNL     1       0.751  -1.248   4.715  1.00  0.00     0.361 C 
ATOM      4  O   UNL     1       0.308  -1.601   5.803  1.00  0.00    -0.245 OA
BRANCH   3   5
ATOM      5  C   UNL     1       1.518  -2.186   3.778  1.00  0.00     0.384 C 
BRANCH   5   6
ATOM      6  N   UNL     1       1.047  -2.177   2.373  1.00  0.00    -0.337 N 
ATOM      7  H   UNL     1       1.301  -3.062   1.935  1.00  0.00     0.346 HD
ATOM      8  H   UNL     1       0.035  -2.045   2.382  1.00  0.00     0.346 HD
BRANCH   6   9
ATOM      9  C   UNL     1       1.638  -1.081   1.600  1.00  0.00     0.270 C 
BRANCH   9  10
ATOM     10  C   UNL     1       1.285  -1.121   0.096  1.00  0.00     0.099 C 
ATOM     11  C   UNL     1      -2.298   0.115  -0.126  1.00  0.00     0.332 C 
ATOM     12  N   UNL     1      -0.861   0.177   0.141  1.00  0.00    -0.337 N 
ATOM     13  C   UNL     1      -0.250   1.302  -0.574  1.00  0.00     0.262 C 
ATOM     14  C   UNL     1      -0.224  -1.101  -0.216  1.00  0.00     0.271 C 
ATOM     15  H   UNL     1      -0.715   0.334   1.138  1.00  0.00     0.347 HD
ATOM     16  C   UNL     1       1.254   1.386  -0.311  1.00  0.00     0.062 C 
ATOM     17  C   UNL     1       1.955   0.064  -0.626  1.00  0.00     0.021 C 
ENDBRANCH   9  10
ENDBRANCH   6   9
ENDBRANCH   5   6
ENDBRANCH   3   5
ENDBRANCH   2   3
ENDBRANCH   1   2
BRANCH   1  18
ATOM     18  C   UNL     1      -1.619   0.972   4.277  1.00  0.00     0.275 C 
BRANCH  18  19
ATOM     19  O   UNL     1      -2.416  -0.156   4.688  1.00  0.00    -0.458 OA
BRANCH  19  20
ATOM     20  C   UNL     1      -2.295  -1.253   3.908  1.00  0.00     0.338 C 
ATOM     21  O   UNL     1      -1.646  -1.366   2.883  1.00  0.00    -0.246 OA
BRANCH  20  22
ATOM     22  C   UNL     1      -2.954  -2.412   4.522  1.00  0.00     0.060 A 
ATOM     23  C   UNL     1      -2.242  -3.617   4.536  1.00  0.00     0.016 A 
ATOM     24  C   UNL     1      -4.268  -2.350   4.988  1.00  0.00     0.016 A 
ATOM     25  C   UNL     1      -2.850  -4.776   4.997  1.00  0.00     0.010 A 
ATOM     26  C   UNL     1      -4.879  -3.517   5.452  1.00  0.00     0.010 A 
ATOM     27  C   UNL     1      -4.178  -4.736   5.439  1.00  0.00    -0.014 A 
BRANCH  27  28
ATOM     28  C   UNL     1      -4.848  -5.996   5.819  1.00  0.00     0.031 A 
ATOM     29  C   UNL     1      -5.793  -6.651   4.857  1.00  0.00     0.074 A 
ATOM     30  C   UNL     1      -4.573  -6.564   7.006  1.00  0.00     0.049 A 
ATOM     31  N   UNL     1      -6.505  -7.738   5.006  1.00  0.00    -0.248 NA
ATOM     32  C   UNL     1      -5.960  -5.994   3.550  1.00  0.00     0.031 C 
ATOM     33  C   UNL     1      -3.638  -6.035   7.998  1.00  0.00     0.029 A 
ATOM     34  N   UNL     1      -5.054  -7.714   7.574  1.00  0.00    -0.354 N 
ATOM     35  C   UNL     1      -7.212  -7.890   3.822  1.00  0.00     0.074 A 
ATOM     36  C   UNL     1      -6.860  -6.775   2.969  1.00  0.00     0.031 C 
ATOM     37  C   UNL     1      -3.612  -6.861   9.056  1.00  0.00     0.029 A 
ATOM     38  C   UNL     1      -4.553  -7.955   8.829  1.00  0.00     0.049 A 
ATOM     39  H   UNL     1      -5.697  -8.310   7.127  1.00  0.00     0.167 HD
ATOM     40  C   UNL     1      -8.072  -8.877   3.477  1.00  0.00     0.037 A 
ATOM     41  C   UNL     1      -4.837  -8.939   9.701  1.00  0.00     0.037 A 
ATOM     42  C   UNL     1      -8.410  -9.988   4.327  1.00  0.00     0.049 A 
ATOM     43  C   UNL     1      -5.831  -9.997   9.311  1.00  0.00     0.074 A 
ATOM     44  C   UNL     1      -9.268 -11.043   4.071  1.00  0.00     0.029 A 
ATOM     45  N   UNL     1      -7.899 -10.187   5.601  1.00  0.00    -0.354 N 
ATOM     46  N   UNL     1      -6.496 -10.133   8.189  1.00  0.00    -0.248 NA
ATOM     47  C   UNL     1      -6.114 -11.038  10.308  1.00  0.00     0.031 C 
ATOM     48  C   UNL     1      -9.303 -11.863   5.205  1.00  0.00     0.029 A 
ATOM     49  C   UNL     1      -8.436 -11.339   6.151  1.00  0.00     0.049 A 
ATOM     50  H   UNL     1      -7.251  -9.596   6.049  1.00  0.00     0.167 HD
ATOM     51  C   UNL     1      -7.258 -11.285   8.335  1.00  0.00     0.074 A 
ATOM     52  C   UNL     1      -6.964 -11.815   9.651  1.00  0.00     0.031 C 
ATOM     53  C   UNL     1      -8.122 -11.852   7.460  1.00  0.00     0.037 A 
BRANCH  40  54
ATOM     54  C   UNL     1      -8.727  -8.780   2.132  1.00  0.00     0.057 A 
ATOM     55  C   UNL     1      -8.027  -9.044   0.948  1.00  0.00     0.134 A 
ATOM     56  C   UNL     1     -10.081  -8.439   2.022  1.00  0.00     0.134 A 
ATOM     57  F   UNL     1      -6.723  -9.359   0.985  1.00  0.00    -0.206 F 
ATOM     58  C   UNL     1      -8.646  -8.953  -0.300  1.00  0.00     0.040 A 
ATOM     59  C   UNL     1     -10.716  -8.366   0.781  1.00  0.00     0.040 A 
ATOM     60  F   UNL     1     -10.808  -8.176   3.118  1.00  0.00    -0.206 F 
ATOM     61  C   UNL     1      -9.996  -8.618  -0.385  1.00  0.00     0.006 A 
ENDBRANCH  40  54
BRANCH  41  62
ATOM     62  C   UNL     1      -4.178  -8.963  11.028  1.00  0.00     0.057 A 
ATOM     63  C   UNL     1      -3.219  -9.932  11.344  1.00  0.00     0.134 A 
ATOM     64  C   UNL     1      -4.492  -8.019  12.013  1.00  0.00     0.134 A 
ATOM     65  F   UNL     1      -2.892 -10.875  10.448  1.00  0.00    -0.206 F 
ATOM     66  C   UNL     1      -2.605  -9.969  12.596  1.00  0.00     0.040 A 
ATOM     67  C   UNL     1      -3.870  -8.030  13.261  1.00  0.00     0.040 A 
ATOM     68  F   UNL     1      -5.402  -7.064  11.769  1.00  0.00    -0.206 F 
ATOM     69  C   UNL     1      -2.926  -9.012  13.557  1.00  0.00     0.006 A 
ENDBRANCH  41  62
BRANCH  53  70
ATOM     70  C   UNL     1      -8.783 -13.128   7.886  1.00  0.00     0.057 A 
ATOM     71  C   UNL     1      -9.822 -13.142   8.825  1.00  0.00     0.134 A 
ATOM     72  C   UNL     1      -8.399 -14.351   7.323  1.00  0.00     0.134 A 
ATOM     73  F   UNL     1     -10.225 -12.004   9.409  1.00  0.00    -0.206 F 
ATOM     74  C   UNL     1     -10.442 -14.333   9.204  1.00  0.00     0.040 A 
ATOM     75  C   UNL     1      -9.026 -15.546   7.678  1.00  0.00     0.040 A 
ATOM     76  F   UNL     1      -7.415 -14.403   6.412  1.00  0.00    -0.206 F 
ATOM     77  C   UNL     1     -10.048 -15.539   8.626  1.00  0.00     0.006 A 
ENDBRANCH  53  70
ENDBRANCH  27  28
ENDBRANCH  20  22
ENDBRANCH  19  20
ENDBRANCH  18  19
ENDBRANCH   1  18
TORSDOF 14
