REMARK SMILES O=C(OCCOC(=O)c1ccc(-c2c3nc(c(-c4c(F)cccc4F)c4ccc([nH]4)c(-c4c(F)cccc4F)c4nc(c(-c5c(F)cccc5F)c5ccc2[nH]5)C=C4)C=C3)cc1)C1=Cc2cc(C(F)(F)F)ccc2O[C@@H]1C(F)(F)F
REMARK SMILES IDX 5 1 4 2 3 3 2 4 1 5 63 6 64 7 76 8 65 9 75 10 66 11 74 12
REMARK SMILES IDX 67 13 73 14 72 15 77 16 78 17 79 18 80 19 68 20 69 21 70 22
REMARK SMILES IDX 71 23 6 24 7 25 8 26 9 27 10 28 62 29 11 30 61 31 12 32
REMARK SMILES IDX 13 33 14 34 55 35 15 36 60 37 54 38 56 39 16 40 59 41 53 42
REMARK SMILES IDX 52 43 17 45 43 46 26 47 42 48 27 49 30 50 41 51 57 52 28 53
REMARK SMILES IDX 29 54 40 56 58 57 31 58 18 59 19 60 24 61 20 62 21 63 23 64
REMARK SMILES IDX 25 65 22 66 44 67 45 68 50 69 46 70 47 71 49 72 51 73 48 74
REMARK SMILES IDX 32 75 33 76 38 77 34 78 35 79 37 80 39 81 36 82
REMARK H PARENT 56 44 30 55
REMARK Flexibility Score: inf
ROOT
ATOM      1  C   UNL     1       4.742  -0.848   0.015  1.00  0.00     0.275 C 
ENDROOT
BRANCH   1   2
ATOM      2  C   UNL     1       3.765   1.101  -0.202  1.00  0.00     0.275 C 
BRANCH   2   3
ATOM      3  O   UNL     1       2.682   1.475  -1.180  1.00  0.00    -0.459 OA
BRANCH   3   4
ATOM      4  C   UNL     1       2.871   0.889  -2.363  1.00  0.00     0.338 C 
ATOM      5  O   UNL     1       2.112   0.847  -3.302  1.00  0.00    -0.246 OA
BRANCH   4   6
ATOM      6  C   UNL     1       3.930  -0.040  -1.970  1.00  0.00     0.087 C 
ATOM      7  C   UNL     1       5.237   0.509  -1.841  1.00  0.00     0.027 C 
ATOM      8  C   UNL     1       2.871  -0.704  -0.537  1.00  0.00     0.316 C 
ATOM      9  C   UNL     1       6.005   0.879  -0.317  1.00  0.00     0.018 A 
ATOM     10  O   UNL     1       3.586  -0.117   1.200  1.00  0.00    -0.475 OA
ATOM     11  C   UNL     1       7.286   1.305  -0.401  1.00  0.00     0.025 A 
ATOM     12  C   UNL     1       5.211   0.775   1.211  1.00  0.00     0.128 A 
ATOM     13  C   UNL     1       7.853   1.725   0.806  1.00  0.00     0.056 A 
ATOM     14  C   UNL     1       5.806   1.207   2.359  1.00  0.00     0.048 A 
ATOM     15  C   UNL     1       7.133   1.706   2.103  1.00  0.00     0.017 A 
BRANCH   8  16
ATOM     16  C   UNL     1       2.962  -2.147  -1.466  1.00  0.00     0.430 C 
ATOM     17  F   UNL     1       1.875  -2.886  -1.362  1.00  0.00    -0.167 F 
ATOM     18  F   UNL     1       2.939  -1.872  -2.813  1.00  0.00    -0.167 F 
ATOM     19  F   UNL     1       4.059  -2.931  -1.345  1.00  0.00    -0.167 F 
ENDBRANCH   8  16
BRANCH  13  20
ATOM     20  C   UNL     1       9.299   2.174   0.652  1.00  0.00     0.416 C 
ATOM     21  F   UNL     1      10.134   1.114   0.455  1.00  0.00    -0.166 F 
ATOM     22  F   UNL     1       9.469   2.970  -0.446  1.00  0.00    -0.166 F 
ATOM     23  F   UNL     1       9.791   2.870   1.704  1.00  0.00    -0.166 F 
ENDBRANCH  13  20
ENDBRANCH   4   6
ENDBRANCH   3   4
ENDBRANCH   2   3
ENDBRANCH   1   2
BRANCH   1  24
ATOM     24  O   UNL     1       3.905  -2.222   0.785  1.00  0.00    -0.458 OA
BRANCH  24  25
ATOM     25  C   UNL     1       2.821  -2.496   1.622  1.00  0.00     0.338 C 
ATOM     26  O   UNL     1       2.193  -1.749   2.352  1.00  0.00    -0.246 OA
BRANCH  25  27
ATOM     27  C   UNL     1       2.213  -3.778   1.142  1.00  0.00     0.060 A 
ATOM     28  C   UNL     1       0.920  -3.760   0.560  1.00  0.00     0.016 A 
ATOM     29  C   UNL     1       3.077  -4.835   0.889  1.00  0.00     0.016 A 
ATOM     30  C   UNL     1       0.619  -4.665  -0.485  1.00  0.00     0.010 A 
ATOM     31  C   UNL     1       2.781  -5.714  -0.149  1.00  0.00     0.010 A 
ATOM     32  C   UNL     1       1.595  -5.588  -0.904  1.00  0.00    -0.014 A 
BRANCH  32  33
ATOM     33  C   UNL     1       1.294  -6.678  -1.866  1.00  0.00     0.031 A 
ATOM     34  C   UNL     1       0.798  -7.919  -1.196  1.00  0.00     0.074 A 
ATOM     35  C   UNL     1       1.580  -6.673  -3.187  1.00  0.00     0.049 A 
ATOM     36  N   UNL     1       0.700  -9.136  -1.645  1.00  0.00    -0.248 NA
ATOM     37  C   UNL     1       0.458  -7.761   0.232  1.00  0.00     0.031 C 
ATOM     38  C   UNL     1       2.079  -5.542  -3.970  1.00  0.00     0.029 A 
ATOM     39  N   UNL     1       1.510  -7.698  -4.109  1.00  0.00    -0.354 N 
ATOM     40  C   UNL     1       0.328  -9.884  -0.539  1.00  0.00     0.074 A 
ATOM     41  C   UNL     1       0.336  -9.014   0.609  1.00  0.00     0.031 C 
ATOM     42  C   UNL     1       2.268  -5.936  -5.247  1.00  0.00     0.029 A 
ATOM     43  C   UNL     1       1.944  -7.358  -5.373  1.00  0.00     0.049 A 
ATOM     44  H   UNL     1       1.177  -8.597  -3.883  1.00  0.00     0.167 HD
ATOM     45  C   UNL     1      -0.033 -11.181  -0.481  1.00  0.00     0.037 A 
ATOM     46  C   UNL     1       2.072  -8.120  -6.484  1.00  0.00     0.037 A 
ATOM     47  C   UNL     1      -0.025 -12.040  -1.622  1.00  0.00     0.049 A 
ATOM     48  C   UNL     1       1.713  -9.592  -6.403  1.00  0.00     0.074 A 
ATOM     49  C   UNL     1      -0.381 -13.369  -1.699  1.00  0.00     0.029 A 
ATOM     50  N   UNL     1       0.382 -11.645  -2.889  1.00  0.00    -0.354 N 
ATOM     51  N   UNL     1       1.299 -10.289  -5.369  1.00  0.00    -0.248 NA
ATOM     52  C   UNL     1       1.838 -10.386  -7.637  1.00  0.00     0.031 C 
ATOM     53  C   UNL     1      -0.122 -13.801  -3.002  1.00  0.00     0.029 A 
ATOM     54  C   UNL     1       0.309 -12.716  -3.755  1.00  0.00     0.049 A 
ATOM     55  H   UNL     1       0.678 -10.738  -3.133  1.00  0.00     0.167 HD
ATOM     56  C   UNL     1       1.070 -11.580  -5.835  1.00  0.00     0.074 A 
ATOM     57  C   UNL     1       1.400 -11.576  -7.245  1.00  0.00     0.031 C 
ATOM     58  C   UNL     1       0.618 -12.669  -5.163  1.00  0.00     0.037 A 
BRANCH  45  59
ATOM     59  C   UNL     1      -0.407 -11.697   0.874  1.00  0.00     0.057 A 
ATOM     60  C   UNL     1      -1.511 -11.194   1.583  1.00  0.00     0.134 A 
ATOM     61  C   UNL     1       0.423 -12.610   1.531  1.00  0.00     0.134 A 
ATOM     62  F   UNL     1      -2.321 -10.280   1.024  1.00  0.00    -0.206 F 
ATOM     63  C   UNL     1      -1.730 -11.524   2.919  1.00  0.00     0.040 A 
ATOM     64  C   UNL     1       0.184 -12.986   2.852  1.00  0.00     0.040 A 
ATOM     65  F   UNL     1       1.502 -13.118   0.917  1.00  0.00    -0.206 F 
ATOM     66  C   UNL     1      -0.881 -12.426   3.556  1.00  0.00     0.006 A 
ENDBRANCH  45  59
BRANCH  46  67
ATOM     67  C   UNL     1       2.545  -7.536  -7.776  1.00  0.00     0.057 A 
ATOM     68  C   UNL     1       1.693  -7.434  -8.887  1.00  0.00     0.134 A 
ATOM     69  C   UNL     1       3.865  -7.105  -7.955  1.00  0.00     0.134 A 
ATOM     70  F   UNL     1       0.426  -7.864  -8.806  1.00  0.00    -0.206 F 
ATOM     71  C   UNL     1       2.135  -6.938 -10.119  1.00  0.00     0.040 A 
ATOM     72  C   UNL     1       4.315  -6.584  -9.174  1.00  0.00     0.040 A 
ATOM     73  F   UNL     1       4.746  -7.187  -6.947  1.00  0.00    -0.206 F 
ATOM     74  C   UNL     1       3.450  -6.503 -10.262  1.00  0.00     0.006 A 
ENDBRANCH  46  67
BRANCH  58  75
ATOM     75  C   UNL     1       0.367 -13.931  -5.937  1.00  0.00     0.057 A 
ATOM     76  C   UNL     1       1.406 -14.737  -6.415  1.00  0.00     0.134 A 
ATOM     77  C   UNL     1      -0.944 -14.409  -6.080  1.00  0.00     0.134 A 
ATOM     78  F   UNL     1       2.682 -14.338  -6.310  1.00  0.00    -0.206 F 
ATOM     79  C   UNL     1       1.149 -15.972  -7.014  1.00  0.00     0.040 A 
ATOM     80  C   UNL     1      -1.210 -15.656  -6.643  1.00  0.00     0.040 A 
ATOM     81  F   UNL     1      -1.983 -13.694  -5.623  1.00  0.00    -0.206 F 
ATOM     82  C   UNL     1      -0.161 -16.441  -7.114  1.00  0.00     0.006 A 
ENDBRANCH  58  75
ENDBRANCH  32  33
ENDBRANCH  25  27
ENDBRANCH  24  25
ENDBRANCH   1  24
TORSDOF 13
