REMARK SMILES C[C@H]1C[N@H+]2CCCC[C@@H]2CN1C(=O)[C@H]([NH3+])CC(=O)OCCOC(=O)c1ccc(-c2c3nc(c(-c4c(F)cccc4F)c4ccc([nH]4)c(-c4c(F)cccc4F)c4nc(c(-c5c(F)cccc5F)c5ccc2[nH]5)C=C4)C=C3)cc1
REMARK SMILES IDX 20 1 19 2 17 3 18 4 16 5 14 6 12 7 13 8 11 9 1 10 2 11 3 12
REMARK SMILES IDX 4 13 10 14 5 15 9 16 6 18 8 19 7 20 15 21 21 25 22 26 23 27
REMARK SMILES IDX 24 28 25 29 26 30 78 31 27 32 77 33 28 34 29 35 30 36 71 37
REMARK SMILES IDX 31 38 76 39 70 40 72 41 32 42 75 43 69 44 68 45 33 47 59 48
REMARK SMILES IDX 42 49 58 50 43 51 46 52 57 53 73 54 44 55 45 56 56 58 74 59
REMARK SMILES IDX 47 60 34 61 35 62 40 63 36 64 37 65 39 66 41 67 38 68 60 69
REMARK SMILES IDX 61 70 66 71 62 72 63 73 65 74 67 75 64 76 48 77 49 78 54 79
REMARK SMILES IDX 50 80 51 81 53 82 55 83 52 84
REMARK H PARENT 4 17 15 22 15 23 15 24 72 46 46 57
REMARK Flexibility Score: inf
ROOT
ATOM      1  C   UNL     1       5.572   2.125   0.252  1.00  0.00     0.274 C 
ENDROOT
BRANCH   1   2
ATOM      2  O   UNL     1       4.388   2.703  -0.323  1.00  0.00    -0.462 OA
BRANCH   2   3
ATOM      3  C   UNL     1       4.332   4.053  -0.310  1.00  0.00     0.312 C 
ATOM      4  O   UNL     1       5.201   4.782   0.163  1.00  0.00    -0.252 OA
BRANCH   3   5
ATOM      5  C   UNL     1       3.046   4.629  -0.827  1.00  0.00     0.198 C 
BRANCH   5   6
ATOM      6  C   UNL     1       2.197   3.799  -1.793  1.00  0.00     0.282 C 
BRANCH   6   7
ATOM      7  C   UNL     1       1.191   4.692  -2.603  1.00  0.00     0.282 C 
ATOM      8  O   UNL     1       1.343   4.777  -3.824  1.00  0.00    -0.268 OA
BRANCH   7   9
ATOM      9  N   UNL     1       0.128   5.322  -1.929  1.00  0.00    -0.323 N 
ATOM     10  C   UNL     1      -1.202   5.833  -4.066  1.00  0.00     0.037 C 
ATOM     11  C   UNL     1      -0.814   6.240  -2.637  1.00  0.00     0.137 C 
ATOM     12  C   UNL     1      -2.152   6.431  -1.842  1.00  0.00     0.287 C 
ATOM     13  N   UNL     1      -1.978   6.758  -0.412  1.00  0.00    -0.329 N 
ATOM     14  C   UNL     1       0.184   5.549  -0.486  1.00  0.00     0.185 C 
ATOM     15  C   UNL     1      -3.279   6.860   0.270  1.00  0.00     0.262 C 
ATOM     16  C   UNL     1      -1.161   5.713   0.220  1.00  0.00     0.203 C 
ATOM     17  H   UNL     1      -1.511   7.662  -0.333  1.00  0.00     0.348 HD
ATOM     18  C   UNL     1      -3.108   7.190   1.757  1.00  0.00     0.062 C 
ATOM     19  C   UNL     1      -0.888   6.052   1.694  1.00  0.00     0.067 C 
ATOM     20  C   UNL     1      -2.190   6.198   2.462  1.00  0.00     0.012 C 
ENDBRANCH   7   9
ENDBRANCH   6   7
BRANCH   6  21
ATOM     21  N   UNL     1       1.464   2.656  -1.192  1.00  0.00    -0.347 N 
ATOM     22  H   UNL     1       0.751   3.009  -0.553  1.00  0.00     0.345 HD
ATOM     23  H   UNL     1       2.118   2.066  -0.678  1.00  0.00     0.345 HD
ATOM     24  H   UNL     1       1.020   2.111  -1.930  1.00  0.00     0.345 HD
ENDBRANCH   6  21
ENDBRANCH   5   6
ENDBRANCH   3   5
ENDBRANCH   2   3
ENDBRANCH   1   2
BRANCH   1  25
ATOM     25  C   UNL     1       6.645   1.848  -0.805  1.00  0.00     0.275 C 
BRANCH  25  26
ATOM     26  O   UNL     1       7.185   3.054  -1.376  1.00  0.00    -0.458 OA
BRANCH  26  27
ATOM     27  C   UNL     1       6.515   3.523  -2.456  1.00  0.00     0.338 C 
ATOM     28  O   UNL     1       5.543   3.025  -2.998  1.00  0.00    -0.246 OA
BRANCH  27  29
ATOM     29  C   UNL     1       7.050   4.830  -2.857  1.00  0.00     0.060 A 
ATOM     30  C   UNL     1       6.215   5.947  -2.762  1.00  0.00     0.016 A 
ATOM     31  C   UNL     1       8.310   4.933  -3.443  1.00  0.00     0.016 A 
ATOM     32  C   UNL     1       6.622   7.175  -3.272  1.00  0.00     0.010 A 
ATOM     33  C   UNL     1       8.721   6.166  -3.954  1.00  0.00     0.010 A 
ATOM     34  C   UNL     1       7.872   7.287  -3.888  1.00  0.00    -0.014 A 
BRANCH  34  35
ATOM     35  C   UNL     1       8.267   8.551  -4.545  1.00  0.00     0.031 A 
ATOM     36  C   UNL     1       8.309   8.611  -6.043  1.00  0.00     0.074 A 
ATOM     37  C   UNL     1       8.594   9.627  -3.809  1.00  0.00     0.049 A 
ATOM     38  N   UNL     1       8.845   9.514  -6.821  1.00  0.00    -0.248 NA
ATOM     39  C   UNL     1       7.666   7.498  -6.762  1.00  0.00     0.031 C 
ATOM     40  C   UNL     1       8.509   9.715  -2.351  1.00  0.00     0.029 A 
ATOM     41  N   UNL     1       9.084  10.850  -4.192  1.00  0.00    -0.354 N 
ATOM     42  C   UNL     1       8.652   9.054  -8.117  1.00  0.00     0.074 A 
ATOM     43  C   UNL     1       7.935   7.801  -8.024  1.00  0.00     0.031 C 
ATOM     44  C   UNL     1       8.949  10.923  -1.961  1.00  0.00     0.029 A 
ATOM     45  C   UNL     1       9.406  11.662  -3.134  1.00  0.00     0.049 A 
ATOM     46  H   UNL     1       9.193  11.118  -5.133  1.00  0.00     0.167 HD
ATOM     47  C   UNL     1       9.053   9.628  -9.275  1.00  0.00     0.037 A 
ATOM     48  C   UNL     1      10.048  12.845  -3.113  1.00  0.00     0.037 A 
ATOM     49  C   UNL     1       9.729  10.895  -9.352  1.00  0.00     0.049 A 
ATOM     50  C   UNL     1      10.525  13.440  -4.409  1.00  0.00     0.074 A 
ATOM     51  C   UNL     1      10.181  11.566 -10.475  1.00  0.00     0.029 A 
ATOM     52  N   UNL     1      10.036  11.688  -8.257  1.00  0.00    -0.354 N 
ATOM     53  N   UNL     1      10.394  12.975  -5.628  1.00  0.00    -0.248 NA
ATOM     54  C   UNL     1      11.257  14.712  -4.326  1.00  0.00     0.031 C 
ATOM     55  C   UNL     1      10.784  12.757 -10.055  1.00  0.00     0.029 A 
ATOM     56  C   UNL     1      10.678  12.840  -8.676  1.00  0.00     0.049 A 
ATOM     57  H   UNL     1       9.829  11.464  -7.321  1.00  0.00     0.167 HD
ATOM     58  C   UNL     1      11.000  13.909  -6.458  1.00  0.00     0.074 A 
ATOM     59  C   UNL     1      11.497  14.968  -5.605  1.00  0.00     0.031 C 
ATOM     60  C   UNL     1      11.134  13.892  -7.806  1.00  0.00     0.037 A 
BRANCH  47  61
ATOM     61  C   UNL     1       8.810   8.873 -10.545  1.00  0.00     0.057 A 
ATOM     62  C   UNL     1       7.545   8.803 -11.139  1.00  0.00     0.134 A 
ATOM     63  C   UNL     1       9.873   8.243 -11.205  1.00  0.00     0.134 A 
ATOM     64  F   UNL     1       6.484   9.373 -10.547  1.00  0.00    -0.206 F 
ATOM     65  C   UNL     1       7.343   8.123 -12.341  1.00  0.00     0.040 A 
ATOM     66  C   UNL     1       9.687   7.577 -12.417  1.00  0.00     0.040 A 
ATOM     67  F   UNL     1      11.110   8.274 -10.688  1.00  0.00    -0.206 F 
ATOM     68  C   UNL     1       8.418   7.514 -12.988  1.00  0.00     0.006 A 
ENDBRANCH  47  61
BRANCH  48  69
ATOM     69  C   UNL     1      10.323  13.521  -1.821  1.00  0.00     0.057 A 
ATOM     70  C   UNL     1       9.670  14.708  -1.473  1.00  0.00     0.134 A 
ATOM     71  C   UNL     1      11.253  13.004  -0.912  1.00  0.00     0.134 A 
ATOM     72  F   UNL     1       8.786  15.264  -2.315  1.00  0.00    -0.206 F 
ATOM     73  C   UNL     1       9.943  15.366  -0.272  1.00  0.00     0.040 A 
ATOM     74  C   UNL     1      11.518  13.638   0.303  1.00  0.00     0.040 A 
ATOM     75  F   UNL     1      11.912  11.869  -1.187  1.00  0.00    -0.206 F 
ATOM     76  C   UNL     1      10.866  14.827   0.622  1.00  0.00     0.006 A 
ENDBRANCH  48  69
BRANCH  60  77
ATOM     77  C   UNL     1      11.791  15.076  -8.443  1.00  0.00     0.057 A 
ATOM     78  C   UNL     1      13.179  15.247  -8.427  1.00  0.00     0.134 A 
ATOM     79  C   UNL     1      11.024  16.025  -9.131  1.00  0.00     0.134 A 
ATOM     80  F   UNL     1      13.964  14.377  -7.774  1.00  0.00    -0.206 F 
ATOM     81  C   UNL     1      13.784  16.330  -9.066  1.00  0.00     0.040 A 
ATOM     82  C   UNL     1      11.618  17.101  -9.789  1.00  0.00     0.040 A 
ATOM     83  F   UNL     1       9.688  15.910  -9.186  1.00  0.00    -0.206 F 
ATOM     84  C   UNL     1      13.002  17.256  -9.756  1.00  0.00     0.006 A 
ENDBRANCH  60  77
ENDBRANCH  34  35
ENDBRANCH  27  29
ENDBRANCH  26  27
ENDBRANCH  25  26
ENDBRANCH   1  25
TORSDOF 15
