REMARK SMILES Cc1ccc(Cn2c(C)c(C[NH2+]C[C@@H]3CCCO3)c(C(=O)OCCOC(=O)c3ccc(-c4c5nc(c(-c6c(F)cccc6F)c6ccc([nH]6)c(-c6c(F)cccc6F)c6nc(c(-c7c(F)cccc7F)c7ccc4[nH]7)C=C6)C=C5)cc3)c2C)cc1
REMARK SMILES IDX 23 1 22 2 20 3 21 4 19 5 7 6 8 7 82 8 9 9 10 10 83 11 6 12
REMARK SMILES IDX 5 13 1 14 2 15 3 16 85 17 4 18 84 19 11 20 12 21 13 24 14 25
REMARK SMILES IDX 15 26 18 27 16 28 17 29 24 30 25 31 26 32 27 33 28 34 29 35
REMARK SMILES IDX 81 36 30 37 80 38 31 39 32 40 33 41 74 42 34 43 79 44 73 45
REMARK SMILES IDX 75 46 35 47 78 48 72 49 71 50 36 52 62 53 45 54 61 55 46 56
REMARK SMILES IDX 49 57 60 58 76 59 47 60 48 61 59 63 77 64 50 65 37 66 38 67
REMARK SMILES IDX 43 68 39 69 40 70 42 71 44 72 41 73 63 74 64 75 69 76 65 77
REMARK SMILES IDX 66 78 68 79 70 80 67 81 51 82 52 83 57 84 53 85 54 86 56 87
REMARK SMILES IDX 58 88 55 89
REMARK H PARENT 12 22 12 23 75 51 49 62
REMARK Flexibility Score: inf
ROOT
ATOM      1  C   UNL     1      -3.928  -6.010  -1.379  1.00  0.00     0.275 C 
ENDROOT
BRANCH   1   2
ATOM      2  O   UNL     1      -4.668  -4.766  -1.294  1.00  0.00    -0.458 OA
BRANCH   2   3
ATOM      3  C   UNL     1      -4.090  -3.697  -1.934  1.00  0.00     0.340 C 
ATOM      4  O   UNL     1      -3.010  -3.786  -2.501  1.00  0.00    -0.246 OA
BRANCH   3   5
ATOM      5  C   UNL     1      -4.602  -2.377  -1.581  1.00  0.00     0.089 A 
ATOM      6  N   UNL     1      -4.056  -0.499  -0.524  1.00  0.00    -0.343 N 
ATOM      7  C   UNL     1      -4.920  -0.140  -1.553  1.00  0.00     0.025 A 
ATOM      8  C   UNL     1      -4.138  -1.865  -0.375  1.00  0.00     0.030 A 
ATOM      9  C   UNL     1      -5.319   1.266  -1.873  1.00  0.00     0.065 C 
ATOM     10  C   UNL     1      -5.281  -1.297  -2.272  1.00  0.00     0.042 A 
ATOM     11  C   UNL     1      -3.590  -2.675   0.750  1.00  0.00     0.065 C 
BRANCH   6  12
ATOM     12  C   UNL     1      -3.267   0.394   0.344  1.00  0.00     0.157 C 
BRANCH  12  13
ATOM     13  C   UNL     1      -1.753   0.376   0.145  1.00  0.00    -0.028 A 
ATOM     14  C   UNL     1       2.598   0.443  -0.087  1.00  0.00     0.044 C 
ATOM     15  C   UNL     1       1.101   0.445  -0.000  1.00  0.00    -0.051 A 
ATOM     16  C   UNL     1       0.435  -0.716   0.377  1.00  0.00     0.004 A 
ATOM     17  C   UNL     1       0.337   1.572  -0.319  1.00  0.00     0.004 A 
ATOM     18  C   UNL     1      -0.960  -0.733   0.472  1.00  0.00     0.006 A 
ATOM     19  C   UNL     1      -1.069   1.537  -0.252  1.00  0.00     0.006 A 
ENDBRANCH  12  13
ENDBRANCH   6  12
BRANCH  10  20
ATOM     20  C   UNL     1      -6.106  -1.249  -3.567  1.00  0.00     0.300 C 
BRANCH  20  21
ATOM     21  N   UNL     1      -7.454  -1.814  -3.389  1.00  0.00    -0.340 N 
ATOM     22  H   UNL     1      -7.892  -1.348  -2.595  1.00  0.00     0.346 HD
ATOM     23  H   UNL     1      -7.331  -2.816  -3.248  1.00  0.00     0.346 HD
BRANCH  21  24
ATOM     24  C   UNL     1      -8.349  -1.660  -4.569  1.00  0.00     0.293 C 
BRANCH  24  25
ATOM     25  C   UNL     1      -8.564  -2.921  -5.451  1.00  0.00     0.173 C 
ATOM     26  C   UNL     1      -9.976  -3.444  -5.702  1.00  0.00     0.040 C 
ATOM     27  O   UNL     1      -7.835  -4.038  -4.931  1.00  0.00    -0.372 OA
ATOM     28  C   UNL     1      -9.736  -4.923  -5.949  1.00  0.00     0.031 C 
ATOM     29  C   UNL     1      -8.652  -5.213  -4.952  1.00  0.00     0.161 C 
ENDBRANCH  24  25
ENDBRANCH  21  24
ENDBRANCH  20  21
ENDBRANCH  10  20
ENDBRANCH   3   5
ENDBRANCH   2   3
ENDBRANCH   1   2
BRANCH   1  30
ATOM     30  C   UNL     1      -4.838  -7.234  -1.628  1.00  0.00     0.275 C 
BRANCH  30  31
ATOM     31  O   UNL     1      -5.498  -7.315  -2.906  1.00  0.00    -0.458 OA
BRANCH  31  32
ATOM     32  C   UNL     1      -5.898  -6.127  -3.400  1.00  0.00     0.338 C 
ATOM     33  O   UNL     1      -6.763  -5.431  -2.876  1.00  0.00    -0.246 OA
BRANCH  32  34
ATOM     34  C   UNL     1      -4.907  -5.689  -4.414  1.00  0.00     0.060 A 
ATOM     35  C   UNL     1      -4.842  -4.331  -4.751  1.00  0.00     0.016 A 
ATOM     36  C   UNL     1      -3.839  -6.537  -4.695  1.00  0.00     0.016 A 
ATOM     37  C   UNL     1      -3.673  -3.766  -5.238  1.00  0.00     0.010 A 
ATOM     38  C   UNL     1      -2.647  -5.973  -5.058  1.00  0.00     0.010 A 
ATOM     39  C   UNL     1      -2.574  -4.596  -5.337  1.00  0.00    -0.014 A 
BRANCH  39  40
ATOM     40  C   UNL     1      -1.354  -4.218  -6.007  1.00  0.00     0.031 A 
ATOM     41  C   UNL     1      -0.204  -3.653  -5.287  1.00  0.00     0.074 A 
ATOM     42  C   UNL     1      -1.361  -4.802  -7.223  1.00  0.00     0.049 A 
ATOM     43  N   UNL     1       0.841  -3.207  -5.889  1.00  0.00    -0.248 NA
ATOM     44  C   UNL     1      -0.116  -3.474  -3.837  1.00  0.00     0.031 C 
ATOM     45  C   UNL     1      -0.299  -5.341  -8.040  1.00  0.00     0.029 A 
ATOM     46  N   UNL     1      -2.510  -5.035  -7.985  1.00  0.00    -0.354 N 
ATOM     47  C   UNL     1       1.835  -3.078  -4.940  1.00  0.00     0.074 A 
ATOM     48  C   UNL     1       1.152  -3.068  -3.675  1.00  0.00     0.031 C 
ATOM     49  C   UNL     1      -0.793  -5.587  -9.273  1.00  0.00     0.029 A 
ATOM     50  C   UNL     1      -2.151  -5.056  -9.330  1.00  0.00     0.049 A 
ATOM     51  H   UNL     1      -3.420  -5.163  -7.630  1.00  0.00     0.167 HD
ATOM     52  C   UNL     1       3.130  -3.212  -5.348  1.00  0.00     0.037 A 
ATOM     53  C   UNL     1      -2.567  -3.984 -10.079  1.00  0.00     0.037 A 
ATOM     54  C   UNL     1       3.154  -3.445  -6.791  1.00  0.00     0.049 A 
ATOM     55  C   UNL     1      -1.444  -3.003 -10.322  1.00  0.00     0.074 A 
ATOM     56  C   UNL     1       3.160  -4.589  -7.570  1.00  0.00     0.029 A 
ATOM     57  N   UNL     1       2.728  -2.427  -7.614  1.00  0.00    -0.354 N 
ATOM     58  N   UNL     1      -0.278  -3.072  -9.743  1.00  0.00    -0.248 NA
ATOM     59  C   UNL     1      -1.562  -1.845 -11.202  1.00  0.00     0.031 C 
ATOM     60  C   UNL     1       2.684  -4.235  -8.870  1.00  0.00     0.029 A 
ATOM     61  C   UNL     1       2.386  -2.883  -8.868  1.00  0.00     0.049 A 
ATOM     62  H   UNL     1       2.673  -1.483  -7.338  1.00  0.00     0.167 HD
ATOM     63  C   UNL     1       0.512  -2.055 -10.174  1.00  0.00     0.074 A 
ATOM     64  C   UNL     1      -0.351  -1.282 -11.053  1.00  0.00     0.031 C 
ATOM     65  C   UNL     1       1.817  -1.924  -9.801  1.00  0.00     0.037 A 
BRANCH  52  66
ATOM     66  C   UNL     1       4.346  -3.398  -4.475  1.00  0.00     0.057 A 
ATOM     67  C   UNL     1       5.482  -4.060  -4.990  1.00  0.00     0.134 A 
ATOM     68  C   UNL     1       4.487  -2.952  -3.150  1.00  0.00     0.134 A 
ATOM     69  F   UNL     1       5.531  -4.500  -6.254  1.00  0.00    -0.206 F 
ATOM     70  C   UNL     1       6.636  -4.308  -4.239  1.00  0.00     0.040 A 
ATOM     71  C   UNL     1       5.633  -3.215  -2.377  1.00  0.00     0.040 A 
ATOM     72  F   UNL     1       3.551  -2.203  -2.553  1.00  0.00    -0.206 F 
ATOM     73  C   UNL     1       6.711  -3.900  -2.920  1.00  0.00     0.006 A 
ENDBRANCH  52  66
BRANCH  53  74
ATOM     74  C   UNL     1      -3.976  -3.591  -9.732  1.00  0.00     0.057 A 
ATOM     75  C   UNL     1      -4.951  -4.609  -9.816  1.00  0.00     0.134 A 
ATOM     76  C   UNL     1      -4.234  -2.523  -8.862  1.00  0.00     0.134 A 
ATOM     77  F   UNL     1      -4.787  -5.638 -10.662  1.00  0.00    -0.206 F 
ATOM     78  C   UNL     1      -5.975  -4.706  -8.884  1.00  0.00     0.040 A 
ATOM     79  C   UNL     1      -5.287  -2.588  -7.951  1.00  0.00     0.040 A 
ATOM     80  F   UNL     1      -3.391  -1.485  -8.769  1.00  0.00    -0.206 F 
ATOM     81  C   UNL     1      -6.088  -3.728  -7.912  1.00  0.00     0.006 A 
ENDBRANCH  53  74
BRANCH  65  82
ATOM     82  C   UNL     1       2.681  -0.832 -10.334  1.00  0.00     0.057 A 
ATOM     83  C   UNL     1       2.729  -0.546 -11.701  1.00  0.00     0.134 A 
ATOM     84  C   UNL     1       3.575  -0.116  -9.515  1.00  0.00     0.134 A 
ATOM     85  F   UNL     1       1.982  -1.233 -12.579  1.00  0.00    -0.206 F 
ATOM     86  C   UNL     1       3.558   0.450 -12.214  1.00  0.00     0.040 A 
ATOM     87  C   UNL     1       4.463   0.824 -10.027  1.00  0.00     0.040 A 
ATOM     88  F   UNL     1       3.609  -0.273  -8.184  1.00  0.00    -0.206 F 
ATOM     89  C   UNL     1       4.438   1.129 -11.378  1.00  0.00     0.006 A 
ENDBRANCH  65  82
ENDBRANCH  39  40
ENDBRANCH  32  34
ENDBRANCH  31  32
ENDBRANCH  30  31
ENDBRANCH   1  30
TORSDOF 17
