REMARK SMILES C[C@@H](C(=O)OCCOC(=O)c1ccc(-c2c3nc(c(-c4c(F)cccc4F)c4ccc([nH]4)c(-c4c(F)cccc4F)c4nc(c(-c5c(F)cccc5F)c5ccc2[nH]5)C=C4)C=C3)cc1)c1ccc(C[SiH](C)C)cc1
REMARK SMILES IDX 6 1 5 2 3 3 4 4 2 5 1 6 65 7 66 8 74 9 67 10 73 11 68 12
REMARK SMILES IDX 69 13 70 14 71 15 72 16 7 18 8 19 9 20 10 21 11 22 12 23
REMARK SMILES IDX 64 24 13 25 63 26 14 27 15 28 16 29 57 30 17 31 62 32 56 33
REMARK SMILES IDX 58 34 18 35 61 36 55 37 54 38 19 40 45 41 28 42 44 43 29 44
REMARK SMILES IDX 32 45 43 46 59 47 30 48 31 49 42 51 60 52 33 53 20 54 21 55
REMARK SMILES IDX 26 56 22 57 23 58 25 59 27 60 24 61 46 62 47 63 52 64 48 65
REMARK SMILES IDX 49 66 51 67 53 68 50 69 34 70 35 71 40 72 36 73 37 74 39 75
REMARK SMILES IDX 41 76 38 77
REMARK H PARENT 70 17 58 39 32 50
REMARK Flexibility Score: inf
ROOT
ATOM      1  C   UNL     1       2.581   2.682   2.459  1.00  0.00     0.274 C 
ENDROOT
BRANCH   1   2
ATOM      2  O   UNL     1       2.278   1.514   1.667  1.00  0.00    -0.462 OA
BRANCH   2   3
ATOM      3  C   UNL     1       1.343   0.659   2.163  1.00  0.00     0.313 C 
ATOM      4  O   UNL     1       0.788   0.803   3.248  1.00  0.00    -0.252 OA
BRANCH   3   5
ATOM      5  C   UNL     1       1.091  -0.535   1.228  1.00  0.00     0.126 C 
ATOM      6  C   UNL     1       1.694  -0.379  -0.170  1.00  0.00     0.025 C 
BRANCH   5   7
ATOM      7  C   UNL     1      -0.398  -0.840   1.162  1.00  0.00    -0.034 A 
ATOM      8  C   UNL     1      -1.290   0.066   0.574  1.00  0.00     0.005 A 
ATOM      9  C   UNL     1      -0.917  -1.982   1.788  1.00  0.00     0.005 A 
ATOM     10  C   UNL     1      -2.668  -0.108   0.706  1.00  0.00     0.004 A 
ATOM     11  C   UNL     1      -2.297  -2.157   1.916  1.00  0.00     0.004 A 
ATOM     12  C   UNL     1      -3.183  -1.191   1.425  1.00  0.00    -0.051 A 
BRANCH  12  13
ATOM     13  C   UNL     1      -4.663  -1.274   1.710  1.00  0.00     0.021 C 
BRANCH  13  14
ATOM     14  Si  UNL     1      -5.219  -0.755   3.445  1.00  0.00     0.035 Si
ATOM     15  C   UNL     1      -4.176   0.559   4.245  1.00  0.00    -0.013 C 
ATOM     16  C   UNL     1      -6.990  -0.187   3.357  1.00  0.00    -0.013 C 
ATOM     17  H   UNL     1      -5.069  -1.901   4.271  1.00  0.00     0.014 H 
ENDBRANCH  13  14
ENDBRANCH  12  13
ENDBRANCH   5   7
ENDBRANCH   3   5
ENDBRANCH   2   3
ENDBRANCH   1   2
BRANCH   1  18
ATOM     18  C   UNL     1       2.072   3.928   1.742  1.00  0.00     0.275 C 
BRANCH  18  19
ATOM     19  O   UNL     1       0.637   3.973   1.845  1.00  0.00    -0.458 OA
BRANCH  19  20
ATOM     20  C   UNL     1      -0.015   4.484   0.778  1.00  0.00     0.338 C 
ATOM     21  O   UNL     1       0.481   4.909  -0.258  1.00  0.00    -0.246 OA
BRANCH  20  22
ATOM     22  C   UNL     1      -1.470   4.478   1.029  1.00  0.00     0.060 A 
ATOM     23  C   UNL     1      -2.076   3.364   1.605  1.00  0.00     0.016 A 
ATOM     24  C   UNL     1      -2.256   5.551   0.590  1.00  0.00     0.016 A 
ATOM     25  C   UNL     1      -3.466   3.291   1.652  1.00  0.00     0.010 A 
ATOM     26  C   UNL     1      -3.651   5.504   0.718  1.00  0.00     0.010 A 
ATOM     27  C   UNL     1      -4.273   4.354   1.221  1.00  0.00    -0.014 A 
BRANCH  27  28
ATOM     28  C   UNL     1      -5.752   4.177   1.227  1.00  0.00     0.031 A 
ATOM     29  C   UNL     1      -6.491   3.997  -0.070  1.00  0.00     0.074 A 
ATOM     30  C   UNL     1      -6.414   4.016   2.392  1.00  0.00     0.049 A 
ATOM     31  N   UNL     1      -7.773   3.822  -0.273  1.00  0.00    -0.248 NA
ATOM     32  C   UNL     1      -5.684   4.003  -1.300  1.00  0.00     0.031 C 
ATOM     33  C   UNL     1      -5.797   4.054   3.716  1.00  0.00     0.029 A 
ATOM     34  N   UNL     1      -7.726   3.695   2.647  1.00  0.00    -0.354 N 
ATOM     35  C   UNL     1      -7.936   3.789  -1.651  1.00  0.00     0.074 A 
ATOM     36  C   UNL     1      -6.617   3.893  -2.236  1.00  0.00     0.031 C 
ATOM     37  C   UNL     1      -6.686   3.622   4.624  1.00  0.00     0.029 A 
ATOM     38  C   UNL     1      -7.963   3.366   3.963  1.00  0.00     0.049 A 
ATOM     39  H   UNL     1      -8.428   3.701   1.956  1.00  0.00     0.167 HD
ATOM     40  C   UNL     1      -9.089   3.727  -2.360  1.00  0.00     0.037 A 
ATOM     41  C   UNL     1      -9.076   2.886   4.556  1.00  0.00     0.037 A 
ATOM     42  C   UNL     1     -10.396   3.585  -1.772  1.00  0.00     0.049 A 
ATOM     43  C   UNL     1     -10.337   2.765   3.743  1.00  0.00     0.074 A 
ATOM     44  C   UNL     1     -11.636   3.647  -2.385  1.00  0.00     0.029 A 
ATOM     45  N   UNL     1     -10.626   3.321  -0.432  1.00  0.00    -0.354 N 
ATOM     46  N   UNL     1     -10.508   2.901   2.451  1.00  0.00    -0.248 NA
ATOM     47  C   UNL     1     -11.574   2.478   4.486  1.00  0.00     0.031 C 
ATOM     48  C   UNL     1     -12.618   3.446  -1.408  1.00  0.00     0.029 A 
ATOM     49  C   UNL     1     -11.987   3.222  -0.196  1.00  0.00     0.049 A 
ATOM     50  H   UNL     1      -9.925   3.219   0.252  1.00  0.00     0.167 HD
ATOM     51  C   UNL     1     -11.873   2.759   2.233  1.00  0.00     0.074 A 
ATOM     52  C   UNL     1     -12.473   2.444   3.513  1.00  0.00     0.031 C 
ATOM     53  C   UNL     1     -12.573   2.926   1.085  1.00  0.00     0.037 A 
BRANCH  40  54
ATOM     54  C   UNL     1      -8.991   3.941  -3.839  1.00  0.00     0.057 A 
ATOM     55  C   UNL     1      -8.552   2.950  -4.723  1.00  0.00     0.134 A 
ATOM     56  C   UNL     1      -9.348   5.183  -4.383  1.00  0.00     0.134 A 
ATOM     57  F   UNL     1      -8.171   1.749  -4.263  1.00  0.00    -0.206 F 
ATOM     58  C   UNL     1      -8.456   3.192  -6.096  1.00  0.00     0.040 A 
ATOM     59  C   UNL     1      -9.276   5.431  -5.753  1.00  0.00     0.040 A 
ATOM     60  F   UNL     1      -9.774   6.176  -3.587  1.00  0.00    -0.206 F 
ATOM     61  C   UNL     1      -8.823   4.434  -6.614  1.00  0.00     0.006 A 
ENDBRANCH  40  54
BRANCH  41  62
ATOM     62  C   UNL     1      -9.063   2.455   5.981  1.00  0.00     0.057 A 
ATOM     63  C   UNL     1      -9.316   1.118   6.319  1.00  0.00     0.134 A 
ATOM     64  C   UNL     1      -8.823   3.343   7.035  1.00  0.00     0.134 A 
ATOM     65  F   UNL     1      -9.597   0.221   5.363  1.00  0.00    -0.206 F 
ATOM     66  C   UNL     1      -9.324   0.681   7.645  1.00  0.00     0.040 A 
ATOM     67  C   UNL     1      -8.801   2.915   8.364  1.00  0.00     0.040 A 
ATOM     68  F   UNL     1      -8.595   4.642   6.790  1.00  0.00    -0.206 F 
ATOM     69  C   UNL     1      -9.055   1.580   8.672  1.00  0.00     0.006 A 
ENDBRANCH  41  62
BRANCH  53  70
ATOM     70  C   UNL     1     -14.067   2.833   1.176  1.00  0.00     0.057 A 
ATOM     71  C   UNL     1     -14.818   3.851   1.779  1.00  0.00     0.134 A 
ATOM     72  C   UNL     1     -14.765   1.752   0.627  1.00  0.00     0.134 A 
ATOM     73  F   UNL     1     -14.206   4.911   2.331  1.00  0.00    -0.206 F 
ATOM     74  C   UNL     1     -16.209   3.787   1.853  1.00  0.00     0.040 A 
ATOM     75  C   UNL     1     -16.159   1.687   0.676  1.00  0.00     0.040 A 
ATOM     76  F   UNL     1     -14.107   0.749   0.027  1.00  0.00    -0.206 F 
ATOM     77  C   UNL     1     -16.884   2.704   1.294  1.00  0.00     0.006 A 
ENDBRANCH  53  70
ENDBRANCH  27  28
ENDBRANCH  20  22
ENDBRANCH  19  20
ENDBRANCH  18  19
ENDBRANCH   1  18
TORSDOF 14
