REMARK SMILES CCC(CC)(CC(=O)Nc1ccc(NC(C)=O)cc1)C(=O)OCCOC(=O)c1ccc(-c2c3nc(c(-c4c(F)cccc4F)c4ccc([nH]4)c(-c4c(F)cccc4F)c4nc(c(-c5c(F)cccc5F)c5ccc2[nH]5)C=C4)C=C3)cc1
REMARK SMILES IDX 23 1 22 2 20 3 21 4 3 5 2 6 1 7 4 8 5 9 6 10 7 11 8 12 9 13
REMARK SMILES IDX 10 15 11 16 19 17 12 18 18 19 13 20 14 21 15 22 16 24 17 25
REMARK SMILES IDX 24 26 25 27 26 28 27 29 28 30 29 31 81 32 30 33 80 34 31 35
REMARK SMILES IDX 32 36 33 37 74 38 34 39 79 40 73 41 75 42 35 43 78 44 72 45
REMARK SMILES IDX 71 46 36 48 62 49 45 50 61 51 46 52 49 53 60 54 76 55 47 56
REMARK SMILES IDX 48 57 59 59 77 60 50 61 37 62 38 63 43 64 39 65 40 66 42 67
REMARK SMILES IDX 44 68 41 69 63 70 64 71 69 72 65 73 66 74 68 75 70 76 67 77
REMARK SMILES IDX 51 78 52 79 57 80 53 81 54 82 56 83 58 84 55 85
REMARK H PARENT 9 14 14 23 75 47 49 58
REMARK Flexibility Score: inf
ROOT
ATOM      1  C   UNL     1       4.569  -3.233   2.190  1.00  0.00     0.274 C 
ENDROOT
BRANCH   1   2
ATOM      2  O   UNL     1       3.128  -3.174   2.142  1.00  0.00    -0.462 OA
BRANCH   2   3
ATOM      3  C   UNL     1       2.613  -1.946   1.875  1.00  0.00     0.312 C 
ATOM      4  O   UNL     1       3.302  -0.936   1.783  1.00  0.00    -0.252 OA
BRANCH   3   5
ATOM      5  C   UNL     1       1.071  -1.919   1.832  1.00  0.00     0.076 C 
BRANCH   5   6
ATOM      6  C   UNL     1       0.583  -0.820   0.842  1.00  0.00     0.016 C 
ATOM      7  C   UNL     1       1.071   0.618   0.997  1.00  0.00     0.005 C 
ENDBRANCH   5   6
BRANCH   5   8
ATOM      8  C   UNL     1       0.647  -1.562   3.292  1.00  0.00     0.016 C 
ATOM      9  C   UNL     1      -0.852  -1.408   3.541  1.00  0.00     0.005 C 
ENDBRANCH   5   8
BRANCH   5  10
ATOM     10  C   UNL     1       0.465  -3.316   1.468  1.00  0.00     0.119 C 
BRANCH  10  11
ATOM     11  C   UNL     1       0.774  -3.924   0.108  1.00  0.00     0.225 C 
ATOM     12  O   UNL     1       1.757  -4.668  -0.004  1.00  0.00    -0.275 OA
ATOM     13  N   UNL     1       0.047  -3.723  -1.028  1.00  0.00    -0.326 N 
ATOM     14  H   UNL     1       0.346  -4.296  -1.771  1.00  0.00     0.169 HD
BRANCH  13  15
ATOM     15  C   UNL     1      -1.029  -2.893  -1.392  1.00  0.00     0.041 A 
ATOM     16  C   UNL     1      -1.199  -2.644  -2.760  1.00  0.00     0.028 A 
ATOM     17  C   UNL     1      -1.864  -2.229  -0.508  1.00  0.00     0.028 A 
ATOM     18  C   UNL     1      -2.037  -1.611  -3.210  1.00  0.00     0.028 A 
ATOM     19  C   UNL     1      -2.653  -1.159  -0.942  1.00  0.00     0.028 A 
ATOM     20  C   UNL     1      -2.712  -0.814  -2.290  1.00  0.00     0.041 A 
BRANCH  20  21
ATOM     21  N   UNL     1      -3.417   0.359  -2.612  1.00  0.00    -0.326 N 
ATOM     22  C   UNL     1      -3.786   0.795  -3.869  1.00  0.00     0.221 C 
ATOM     23  H   UNL     1      -3.676   0.934  -1.857  1.00  0.00     0.169 HD
ATOM     24  C   UNL     1      -4.398   2.174  -3.829  1.00  0.00     0.114 C 
ATOM     25  O   UNL     1      -3.706   0.156  -4.911  1.00  0.00    -0.275 OA
ENDBRANCH  20  21
ENDBRANCH  13  15
ENDBRANCH  10  11
ENDBRANCH   5  10
ENDBRANCH   3   5
ENDBRANCH   2   3
ENDBRANCH   1   2
BRANCH   1  26
ATOM     26  C   UNL     1       5.151  -3.641   0.836  1.00  0.00     0.275 C 
BRANCH  26  27
ATOM     27  O   UNL     1       4.637  -2.783  -0.194  1.00  0.00    -0.458 OA
BRANCH  27  28
ATOM     28  C   UNL     1       4.509  -3.353  -1.417  1.00  0.00     0.338 C 
ATOM     29  O   UNL     1       4.916  -4.452  -1.753  1.00  0.00    -0.246 OA
BRANCH  28  30
ATOM     30  C   UNL     1       3.811  -2.423  -2.342  1.00  0.00     0.060 A 
ATOM     31  C   UNL     1       2.975  -1.407  -1.878  1.00  0.00     0.016 A 
ATOM     32  C   UNL     1       3.971  -2.591  -3.718  1.00  0.00     0.016 A 
ATOM     33  C   UNL     1       2.265  -0.598  -2.772  1.00  0.00     0.010 A 
ATOM     34  C   UNL     1       3.342  -1.714  -4.610  1.00  0.00     0.010 A 
ATOM     35  C   UNL     1       2.474  -0.706  -4.152  1.00  0.00    -0.014 A 
BRANCH  35  36
ATOM     36  C   UNL     1       1.842   0.234  -5.128  1.00  0.00     0.031 A 
ATOM     37  C   UNL     1       1.078  -0.301  -6.312  1.00  0.00     0.074 A 
ATOM     38  C   UNL     1       2.017   1.568  -5.016  1.00  0.00     0.049 A 
ATOM     39  N   UNL     1       0.746   0.300  -7.427  1.00  0.00    -0.248 NA
ATOM     40  C   UNL     1       0.651  -1.707  -6.240  1.00  0.00     0.031 C 
ATOM     41  C   UNL     1       2.700   2.254  -3.918  1.00  0.00     0.029 A 
ATOM     42  N   UNL     1       1.659   2.591  -5.867  1.00  0.00    -0.354 N 
ATOM     43  C   UNL     1       0.129  -0.667  -8.212  1.00  0.00     0.074 A 
ATOM     44  C   UNL     1       0.118  -1.892  -7.440  1.00  0.00     0.031 C 
ATOM     45  C   UNL     1       2.709   3.574  -4.156  1.00  0.00     0.029 A 
ATOM     46  C   UNL     1       2.130   3.821  -5.471  1.00  0.00     0.049 A 
ATOM     47  H   UNL     1       1.120   2.455  -6.679  1.00  0.00     0.167 HD
ATOM     48  C   UNL     1      -0.367  -0.547  -9.466  1.00  0.00     0.037 A 
ATOM     49  C   UNL     1       2.173   5.004  -6.114  1.00  0.00     0.037 A 
ATOM     50  C   UNL     1      -0.417   0.685 -10.209  1.00  0.00     0.049 A 
ATOM     51  C   UNL     1       1.660   5.105  -7.521  1.00  0.00     0.074 A 
ATOM     52  C   UNL     1      -0.962   0.913 -11.462  1.00  0.00     0.029 A 
ATOM     53  N   UNL     1       0.084   1.897  -9.764  1.00  0.00    -0.354 N 
ATOM     54  N   UNL     1       1.115   4.178  -8.269  1.00  0.00    -0.248 NA
ATOM     55  C   UNL     1       1.798   6.409  -8.186  1.00  0.00     0.031 C 
ATOM     56  C   UNL     1      -0.751   2.256 -11.793  1.00  0.00     0.029 A 
ATOM     57  C   UNL     1      -0.109   2.869 -10.731  1.00  0.00     0.049 A 
ATOM     58  H   UNL     1       0.513   2.044  -8.890  1.00  0.00     0.167 HD
ATOM     59  C   UNL     1       0.847   4.783  -9.489  1.00  0.00     0.074 A 
ATOM     60  C   UNL     1       1.264   6.165  -9.375  1.00  0.00     0.031 C 
ATOM     61  C   UNL     1       0.313   4.239 -10.608  1.00  0.00     0.037 A 
BRANCH  48  62
ATOM     62  C   UNL     1      -0.867  -1.785 -10.150  1.00  0.00     0.057 A 
ATOM     63  C   UNL     1      -2.105  -2.360  -9.845  1.00  0.00     0.134 A 
ATOM     64  C   UNL     1      -0.128  -2.355 -11.197  1.00  0.00     0.134 A 
ATOM     65  F   UNL     1      -2.856  -1.868  -8.849  1.00  0.00    -0.206 F 
ATOM     66  C   UNL     1      -2.590  -3.462 -10.553  1.00  0.00     0.040 A 
ATOM     67  C   UNL     1      -0.611  -3.443 -11.925  1.00  0.00     0.040 A 
ATOM     68  F   UNL     1       1.063  -1.846 -11.544  1.00  0.00    -0.206 F 
ATOM     69  C   UNL     1      -1.846  -4.000 -11.603  1.00  0.00     0.006 A 
ENDBRANCH  48  62
BRANCH  49  70
ATOM     70  C   UNL     1       2.816   6.175  -5.465  1.00  0.00     0.057 A 
ATOM     71  C   UNL     1       2.066   7.282  -5.056  1.00  0.00     0.134 A 
ATOM     72  C   UNL     1       4.200   6.216  -5.246  1.00  0.00     0.134 A 
ATOM     73  F   UNL     1       0.741   7.315  -5.265  1.00  0.00    -0.206 F 
ATOM     74  C   UNL     1       2.668   8.392  -4.459  1.00  0.00     0.040 A 
ATOM     75  C   UNL     1       4.810   7.305  -4.624  1.00  0.00     0.040 A 
ATOM     76  F   UNL     1       4.975   5.187  -5.618  1.00  0.00    -0.206 F 
ATOM     77  C   UNL     1       4.043   8.400  -4.234  1.00  0.00     0.006 A 
ENDBRANCH  49  70
BRANCH  61  78
ATOM     78  C   UNL     1       0.137   5.140 -11.791  1.00  0.00     0.057 A 
ATOM     79  C   UNL     1       1.224   5.523 -12.586  1.00  0.00     0.134 A 
ATOM     80  C   UNL     1      -1.132   5.603 -12.158  1.00  0.00     0.134 A 
ATOM     81  F   UNL     1       2.467   5.125 -12.276  1.00  0.00    -0.206 F 
ATOM     82  C   UNL     1       1.056   6.348 -13.699  1.00  0.00     0.040 A 
ATOM     83  C   UNL     1      -1.316   6.411 -13.280  1.00  0.00     0.040 A 
ATOM     84  F   UNL     1      -2.214   5.268 -11.439  1.00  0.00    -0.206 F 
ATOM     85  C   UNL     1      -0.218   6.789 -14.053  1.00  0.00     0.006 A 
ENDBRANCH  61  78
ENDBRANCH  35  36
ENDBRANCH  28  30
ENDBRANCH  27  28
ENDBRANCH  26  27
ENDBRANCH   1  26
TORSDOF 17
