REMARK SMILES O=C(CSc1ccc2ccccc2n1)NCc1ccc(C(=O)OCCOC(=O)c2ccc(-c3c4nc(c(-c5c(F)cccc5F)c5ccc([nH]5)c(-c5c(F)cccc5F)c5nc(c(-c6c(F)cccc6F)c6ccc3[nH]6)C=C5)C=C4)cc2)cc1
REMARK SMILES IDX 23 1 21 2 22 3 20 4 17 5 18 6 84 7 19 8 83 9 16 10 15 11
REMARK SMILES IDX 1 12 2 13 3 15 4 16 5 17 6 18 14 19 7 20 13 21 8 22 12 23
REMARK SMILES IDX 9 24 11 25 10 26 24 27 25 28 26 29 27 30 28 31 29 32 30 33
REMARK SMILES IDX 82 34 31 35 81 36 32 37 33 38 34 39 75 40 35 41 80 42 74 43
REMARK SMILES IDX 76 44 36 45 79 46 73 47 72 48 37 50 63 51 46 52 62 53 47 54
REMARK SMILES IDX 50 55 61 56 77 57 48 58 49 59 60 61 78 62 51 63 38 64 39 65
REMARK SMILES IDX 44 66 40 67 41 68 43 69 45 70 42 71 64 72 65 73 70 74 66 75
REMARK SMILES IDX 67 76 69 77 71 78 68 79 52 80 53 81 58 82 54 83 55 84 57 85
REMARK SMILES IDX 59 86 56 87
REMARK H PARENT 15 14 76 49 50 60
REMARK Flexibility Score: inf
ROOT
ATOM      1  O   UNL     1       4.703  -7.336  -0.321  1.00  0.00    -0.458 OA
ENDROOT
BRANCH   1   2
ATOM      2  C   UNL     1       3.432  -6.878  -0.449  1.00  0.00     0.338 C 
ATOM      3  O   UNL     1       2.480  -7.495  -0.900  1.00  0.00    -0.246 OA
BRANCH   2   4
ATOM      4  C   UNL     1       3.301  -5.522   0.137  1.00  0.00     0.060 A 
ATOM      5  C   UNL     1       2.938  -2.967   1.259  1.00  0.00    -0.029 A 
ATOM      6  C   UNL     1       1.882  -3.887   1.231  1.00  0.00     0.006 A 
ATOM      7  C   UNL     1       4.180  -3.344   0.722  1.00  0.00     0.006 A 
ATOM      8  C   UNL     1       2.057  -5.145   0.657  1.00  0.00     0.016 A 
ATOM      9  C   UNL     1       4.365  -4.616   0.167  1.00  0.00     0.016 A 
BRANCH   5  10
ATOM     10  C   UNL     1       2.729  -1.611   1.885  1.00  0.00     0.151 C 
BRANCH  10  11
ATOM     11  N   UNL     1       3.129  -0.537   1.013  1.00  0.00    -0.351 N 
ATOM     12  O   UNL     1       1.102  -0.327  -0.033  1.00  0.00    -0.274 OA
ATOM     13  C   UNL     1       2.253   0.072   0.145  1.00  0.00     0.230 C 
ATOM     14  H   UNL     1       4.063  -0.228   1.038  1.00  0.00     0.163 HD
BRANCH  13  15
ATOM     15  C   UNL     1       2.830   1.204  -0.691  1.00  0.00     0.176 C 
BRANCH  15  16
ATOM     16  S   UNL     1       4.155   2.152   0.128  1.00  0.00    -0.096 SA
BRANCH  16  17
ATOM     17  C   UNL     1       3.179   3.051   1.316  1.00  0.00     0.097 A 
ATOM     18  C   UNL     1       3.327   4.424   1.426  1.00  0.00     0.036 A 
ATOM     19  N   UNL     1       2.354   2.333   2.104  1.00  0.00    -0.241 NA
ATOM     20  C   UNL     1       2.569   5.096   2.380  1.00  0.00     0.013 A 
ATOM     21  C   UNL     1       1.622   2.981   3.027  1.00  0.00     0.072 A 
ATOM     22  C   UNL     1       1.695   4.378   3.204  1.00  0.00     0.000 A 
ATOM     23  C   UNL     1       0.759   2.262   3.844  1.00  0.00     0.029 A 
ATOM     24  C   UNL     1       0.911   5.012   4.183  1.00  0.00     0.010 A 
ATOM     25  C   UNL     1      -0.021   2.888   4.821  1.00  0.00     0.002 A 
ATOM     26  C   UNL     1       0.055   4.266   4.990  1.00  0.00     0.001 A 
ENDBRANCH  16  17
ENDBRANCH  15  16
ENDBRANCH  13  15
ENDBRANCH  10  11
ENDBRANCH   5  10
ENDBRANCH   2   4
ENDBRANCH   1   2
BRANCH   1  27
ATOM     27  C   UNL     1       4.912  -8.704  -0.727  1.00  0.00     0.275 C 
BRANCH  27  28
ATOM     28  C   UNL     1       4.862  -9.637   0.483  1.00  0.00     0.275 C 
BRANCH  28  29
ATOM     29  O   UNL     1       3.551  -9.585   1.071  1.00  0.00    -0.458 OA
BRANCH  29  30
ATOM     30  C   UNL     1       3.507  -9.634   2.422  1.00  0.00     0.338 C 
ATOM     31  O   UNL     1       4.444  -9.796   3.185  1.00  0.00    -0.246 OA
BRANCH  30  32
ATOM     32  C   UNL     1       2.111  -9.477   2.879  1.00  0.00     0.060 A 
ATOM     33  C   UNL     1       1.296  -8.476   2.350  1.00  0.00     0.016 A 
ATOM     34  C   UNL     1       1.636 -10.281   3.916  1.00  0.00     0.016 A 
ATOM     35  C   UNL     1       0.036  -8.229   2.898  1.00  0.00     0.010 A 
ATOM     36  C   UNL     1       0.340 -10.086   4.408  1.00  0.00     0.010 A 
ATOM     37  C   UNL     1      -0.464  -9.035   3.931  1.00  0.00    -0.014 A 
BRANCH  37  38
ATOM     38  C   UNL     1      -1.788  -8.751   4.558  1.00  0.00     0.031 A 
ATOM     39  C   UNL     1      -1.878  -8.472   6.038  1.00  0.00     0.074 A 
ATOM     40  C   UNL     1      -2.918  -8.733   3.823  1.00  0.00     0.049 A 
ATOM     41  N   UNL     1      -2.935  -8.406   6.809  1.00  0.00    -0.248 NA
ATOM     42  C   UNL     1      -0.607  -8.255   6.747  1.00  0.00     0.031 C 
ATOM     43  C   UNL     1      -2.997  -8.940   2.377  1.00  0.00     0.029 A 
ATOM     44  N   UNL     1      -4.224  -8.523   4.199  1.00  0.00    -0.354 N 
ATOM     45  C   UNL     1      -2.454  -8.213   8.098  1.00  0.00     0.074 A 
ATOM     46  C   UNL     1      -1.010  -8.162   8.006  1.00  0.00     0.031 C 
ATOM     47  C   UNL     1      -4.273  -8.803   1.982  1.00  0.00     0.029 A 
ATOM     48  C   UNL     1      -5.114  -8.583   3.154  1.00  0.00     0.049 A 
ATOM     49  H   UNL     1      -4.495  -8.347   5.129  1.00  0.00     0.167 HD
ATOM     50  C   UNL     1      -3.150  -8.094   9.254  1.00  0.00     0.037 A 
ATOM     51  C   UNL     1      -6.459  -8.506   3.139  1.00  0.00     0.037 A 
ATOM     52  C   UNL     1      -4.586  -8.065   9.344  1.00  0.00     0.049 A 
ATOM     53  C   UNL     1      -7.211  -8.364   4.431  1.00  0.00     0.074 A 
ATOM     54  C   UNL     1      -5.378  -7.931  10.472  1.00  0.00     0.029 A 
ATOM     55  N   UNL     1      -5.445  -8.143   8.260  1.00  0.00    -0.354 N 
ATOM     56  N   UNL     1      -6.745  -8.266   5.651  1.00  0.00    -0.248 NA
ATOM     57  C   UNL     1      -8.679  -8.351   4.345  1.00  0.00     0.031 C 
ATOM     58  C   UNL     1      -6.719  -7.946  10.072  1.00  0.00     0.029 A 
ATOM     59  C   UNL     1      -6.759  -8.061   8.693  1.00  0.00     0.049 A 
ATOM     60  H   UNL     1      -5.164  -8.243   7.322  1.00  0.00     0.167 HD
ATOM     61  C   UNL     1      -7.858  -8.181   6.477  1.00  0.00     0.074 A 
ATOM     62  C   UNL     1      -9.023  -8.213   5.618  1.00  0.00     0.031 C 
ATOM     63  C   UNL     1      -7.908  -8.095   7.828  1.00  0.00     0.037 A 
BRANCH  50  64
ATOM     64  C   UNL     1      -2.364  -8.014  10.529  1.00  0.00     0.057 A 
ATOM     65  C   UNL     1      -1.691  -6.851  10.919  1.00  0.00     0.134 A 
ATOM     66  C   UNL     1      -2.316  -9.113  11.397  1.00  0.00     0.134 A 
ATOM     67  F   UNL     1      -1.687  -5.770  10.125  1.00  0.00    -0.206 F 
ATOM     68  C   UNL     1      -0.981  -6.789  12.120  1.00  0.00     0.040 A 
ATOM     69  C   UNL     1      -1.628  -9.056  12.610  1.00  0.00     0.040 A 
ATOM     70  F   UNL     1      -2.946 -10.256  11.085  1.00  0.00    -0.206 F 
ATOM     71  C   UNL     1      -0.954  -7.892  12.972  1.00  0.00     0.006 A 
ENDBRANCH  50  64
BRANCH  51  72
ATOM     72  C   UNL     1      -7.188  -8.601   1.850  1.00  0.00     0.057 A 
ATOM     73  C   UNL     1      -7.819  -7.483   1.294  1.00  0.00     0.134 A 
ATOM     74  C   UNL     1      -7.264  -9.806   1.141  1.00  0.00     0.134 A 
ATOM     75  F   UNL     1      -7.804  -6.309   1.942  1.00  0.00    -0.206 F 
ATOM     76  C   UNL     1      -8.502  -7.560   0.080  1.00  0.00     0.040 A 
ATOM     77  C   UNL     1      -7.923  -9.892  -0.085  1.00  0.00     0.040 A 
ATOM     78  F   UNL     1      -6.681 -10.914   1.624  1.00  0.00    -0.206 F 
ATOM     79  C   UNL     1      -8.548  -8.766  -0.617  1.00  0.00     0.006 A 
ENDBRANCH  51  72
BRANCH  63  80
ATOM     80  C   UNL     1      -9.266  -8.017   8.455  1.00  0.00     0.057 A 
ATOM     81  C   UNL     1     -10.077  -9.150   8.589  1.00  0.00     0.134 A 
ATOM     82  C   UNL     1      -9.756  -6.803   8.952  1.00  0.00     0.134 A 
ATOM     83  F   UNL     1      -9.667 -10.338   8.120  1.00  0.00    -0.206 F 
ATOM     84  C   UNL     1     -11.338  -9.076   9.182  1.00  0.00     0.040 A 
ATOM     85  C   UNL     1     -11.008  -6.720   9.562  1.00  0.00     0.040 A 
ATOM     86  F   UNL     1      -9.024  -5.683   8.857  1.00  0.00    -0.206 F 
ATOM     87  C   UNL     1     -11.805  -7.858   9.675  1.00  0.00     0.006 A 
ENDBRANCH  63  80
ENDBRANCH  37  38
ENDBRANCH  30  32
ENDBRANCH  29  30
ENDBRANCH  28  29
ENDBRANCH  27  28
ENDBRANCH   1  27
TORSDOF 16
