REMARK SMILES COc1ccc(-n2c(SCC(=O)OCCOC(=O)c3ccc(-c4c5nc(c(-c6c(F)cccc6F)c6ccc([nH]6)c(-c6c(F)cccc6F)c6nc(c(-c7c(F)cccc7F)c7ccc4[nH]7)C=C6)C=C5)cc3)nc3sc4c(c3c2=O)CC[N@H+](C)C4)cc1
REMARK SMILES IDX 14 1 13 2 11 3 12 4 10 5 9 6 8 7 7 8 79 9 73 10 78 11 80 12
REMARK SMILES IDX 74 13 77 14 75 15 76 16 81 17 85 18 82 19 83 20 84 21 6 23
REMARK SMILES IDX 3 24 4 25 87 26 5 27 86 28 2 29 1 30 15 31 16 32 17 33 18 34
REMARK SMILES IDX 19 35 20 36 72 37 21 38 71 39 22 40 23 41 24 42 65 43 25 44
REMARK SMILES IDX 70 45 64 46 66 47 26 48 69 49 63 50 62 51 27 53 53 54 36 55
REMARK SMILES IDX 52 56 37 57 40 58 51 59 67 60 38 61 39 62 50 64 68 65 41 66
REMARK SMILES IDX 28 67 29 68 34 69 30 70 31 71 33 72 35 73 32 74 54 75 55 76
REMARK SMILES IDX 60 77 56 78 57 79 59 80 61 81 58 82 42 83 43 84 48 85 44 86
REMARK SMILES IDX 45 87 47 88 49 89 46 90
REMARK H PARENT 83 22 66 52 40 63
REMARK Flexibility Score: inf
ROOT
ATOM      1  C   UNL     1       5.205   0.502  -3.197  1.00  0.00     0.274 C 
ENDROOT
BRANCH   1   2
ATOM      2  O   UNL     1       5.321  -0.498  -4.261  1.00  0.00    -0.461 OA
BRANCH   2   3
ATOM      3  C   UNL     1       5.412  -1.807  -3.873  1.00  0.00     0.316 C 
ATOM      4  O   UNL     1       5.645  -2.153  -2.716  1.00  0.00    -0.251 OA
BRANCH   3   5
ATOM      5  C   UNL     1       4.880  -2.811  -4.898  1.00  0.00     0.200 C 
BRANCH   5   6
ATOM      6  S   UNL     1       4.896  -2.455  -6.630  1.00  0.00    -0.076 SA
BRANCH   6   7
ATOM      7  C   UNL     1       3.843  -1.226  -7.300  1.00  0.00     0.177 A 
ATOM      8  N   UNL     1       2.624  -0.726  -6.805  1.00  0.00    -0.255 N 
ATOM      9  C   UNL     1       2.115   0.437  -7.407  1.00  0.00     0.267 A 
ATOM     10  N   UNL     1       4.325  -0.874  -8.475  1.00  0.00    -0.212 NA
ATOM     11  C   UNL     1       2.581   0.753  -8.707  1.00  0.00     0.081 A 
ATOM     12  O   UNL     1       1.338   1.230  -6.899  1.00  0.00    -0.268 OA
ATOM     13  C   UNL     1       3.632   0.044  -9.193  1.00  0.00     0.132 A 
ATOM     14  C   UNL     1       2.114   1.790  -9.550  1.00  0.00    -0.008 A 
ATOM     15  S   UNL     1       3.953   0.519 -10.812  1.00  0.00    -0.114 S 
ATOM     16  C   UNL     1       2.734   1.731 -10.774  1.00  0.00     0.065 A 
ATOM     17  C   UNL     1       1.067   2.819  -9.226  1.00  0.00     0.099 C 
ATOM     18  C   UNL     1       2.422   2.679 -11.894  1.00  0.00     0.310 C 
ATOM     19  C   UNL     1       1.005   3.916 -10.308  1.00  0.00     0.267 C 
ATOM     20  N   UNL     1       1.144   3.418 -11.694  1.00  0.00    -0.333 N 
ATOM     21  C   UNL     1      -0.025   2.621 -12.053  1.00  0.00     0.333 C 
ATOM     22  H   UNL     1       1.185   4.218 -12.325  1.00  0.00     0.348 HD
BRANCH   8  23
ATOM     23  C   UNL     1       1.775  -1.174  -5.732  1.00  0.00     0.052 A 
ATOM     24  C   UNL     1      -0.395  -0.983  -2.670  1.00  0.00     0.119 A 
ATOM     25  C   UNL     1      -1.172  -0.810  -4.274  1.00  0.00     0.048 A 
ATOM     26  C   UNL     1       1.315  -1.286  -2.624  1.00  0.00     0.048 A 
ATOM     27  C   UNL     1       0.010  -0.890  -5.923  1.00  0.00     0.030 A 
ATOM     28  C   UNL     1       2.324  -1.391  -4.094  1.00  0.00     0.030 A 
BRANCH  24  29
ATOM     29  O   UNL     1      -1.132  -0.712  -1.555  1.00  0.00    -0.497 OA
ATOM     30  C   UNL     1      -0.345  -0.134  -0.510  1.00  0.00     0.278 C 
ENDBRANCH  24  29
ENDBRANCH   8  23
ENDBRANCH   6   7
ENDBRANCH   5   6
ENDBRANCH   3   5
ENDBRANCH   2   3
ENDBRANCH   1   2
BRANCH   1  31
ATOM     31  C   UNL     1       4.031   1.462  -3.507  1.00  0.00     0.275 C 
BRANCH  31  32
ATOM     32  O   UNL     1       2.779   0.792  -3.198  1.00  0.00    -0.458 OA
BRANCH  32  33
ATOM     33  C   UNL     1       1.684   1.160  -3.926  1.00  0.00     0.338 C 
ATOM     34  O   UNL     1       1.601   2.312  -4.340  1.00  0.00    -0.246 OA
BRANCH  33  35
ATOM     35  C   UNL     1       0.561   0.021  -4.337  1.00  0.00     0.060 A 
ATOM     36  C   UNL     1       0.281  -1.999  -4.429  1.00  0.00     0.016 A 
ATOM     37  C   UNL     1      -0.662   1.027  -5.213  1.00  0.00     0.016 A 
ATOM     38  C   UNL     1      -1.086  -2.657  -5.402  1.00  0.00     0.010 A 
ATOM     39  C   UNL     1      -1.926   0.234  -6.135  1.00  0.00     0.010 A 
ATOM     40  C   UNL     1      -2.128  -1.534  -6.250  1.00  0.00    -0.014 A 
BRANCH  40  41
ATOM     41  C   UNL     1      -3.212  -2.086  -7.134  1.00  0.00     0.031 A 
ATOM     42  C   UNL     1      -4.340  -1.087  -7.210  1.00  0.00     0.074 A 
ATOM     43  C   UNL     1      -2.967  -2.710  -8.320  1.00  0.00     0.049 A 
ATOM     44  N   UNL     1      -4.364  -0.079  -8.034  1.00  0.00    -0.248 NA
ATOM     45  C   UNL     1      -5.292  -0.960  -6.107  1.00  0.00     0.031 C 
ATOM     46  C   UNL     1      -1.986  -2.257  -9.315  1.00  0.00     0.029 A 
ATOM     47  N   UNL     1      -3.748  -3.626  -9.024  1.00  0.00    -0.354 N 
ATOM     48  C   UNL     1      -5.225   0.873  -7.496  1.00  0.00     0.074 A 
ATOM     49  C   UNL     1      -5.798   0.265  -6.317  1.00  0.00     0.031 C 
ATOM     50  C   UNL     1      -2.306  -2.781 -10.517  1.00  0.00     0.029 A 
ATOM     51  C   UNL     1      -3.461  -3.671 -10.387  1.00  0.00     0.049 A 
ATOM     52  H   UNL     1      -4.437  -4.187  -8.600  1.00  0.00     0.167 HD
ATOM     53  C   UNL     1      -5.389   2.113  -8.040  1.00  0.00     0.037 A 
ATOM     54  C   UNL     1      -4.336  -3.954 -11.397  1.00  0.00     0.037 A 
ATOM     55  C   UNL     1      -4.698   2.403  -9.279  1.00  0.00     0.049 A 
ATOM     56  C   UNL     1      -4.864  -2.600 -11.777  1.00  0.00     0.074 A 
ATOM     57  C   UNL     1      -4.113   3.463  -9.940  1.00  0.00     0.029 A 
ATOM     58  N   UNL     1      -4.572   1.346 -10.129  1.00  0.00    -0.354 N 
ATOM     59  N   UNL     1      -4.360  -1.761 -12.637  1.00  0.00    -0.248 NA
ATOM     60  C   UNL     1      -5.947  -2.050 -10.941  1.00  0.00     0.031 C 
ATOM     61  C   UNL     1      -3.781   3.007 -11.267  1.00  0.00     0.029 A 
ATOM     62  C   UNL     1      -4.196   1.690 -11.391  1.00  0.00     0.049 A 
ATOM     63  H   UNL     1      -4.738   0.415  -9.855  1.00  0.00     0.167 HD
ATOM     64  C   UNL     1      -4.849  -0.524 -12.226  1.00  0.00     0.074 A 
ATOM     65  C   UNL     1      -5.956  -0.782 -11.331  1.00  0.00     0.031 C 
ATOM     66  C   UNL     1      -4.132   0.625 -12.360  1.00  0.00     0.037 A 
BRANCH  53  67
ATOM     67  C   UNL     1      -6.466   3.030  -7.595  1.00  0.00     0.057 A 
ATOM     68  C   UNL     1      -7.630   3.080  -8.379  1.00  0.00     0.134 A 
ATOM     69  C   UNL     1      -6.361   3.932  -6.537  1.00  0.00     0.134 A 
ATOM     70  F   UNL     1      -7.794   2.220  -9.397  1.00  0.00    -0.206 F 
ATOM     71  C   UNL     1      -8.635   4.017  -8.150  1.00  0.00     0.040 A 
ATOM     72  C   UNL     1      -7.370   4.873  -6.289  1.00  0.00     0.040 A 
ATOM     73  F   UNL     1      -5.279   3.936  -5.746  1.00  0.00    -0.206 F 
ATOM     74  C   UNL     1      -8.502   4.926  -7.105  1.00  0.00     0.006 A 
ENDBRANCH  53  67
BRANCH  54  75
ATOM     75  C   UNL     1      -5.227  -5.151 -11.382  1.00  0.00     0.057 A 
ATOM     76  C   UNL     1      -4.652  -6.423 -11.228  1.00  0.00     0.134 A 
ATOM     77  C   UNL     1      -6.615  -5.141 -11.594  1.00  0.00     0.134 A 
ATOM     78  F   UNL     1      -3.318  -6.562 -11.181  1.00  0.00    -0.206 F 
ATOM     79  C   UNL     1      -5.423  -7.590 -11.147  1.00  0.00     0.040 A 
ATOM     80  C   UNL     1      -7.403  -6.290 -11.473  1.00  0.00     0.040 A 
ATOM     81  F   UNL     1      -7.267  -4.024 -11.939  1.00  0.00    -0.206 F 
ATOM     82  C   UNL     1      -6.809  -7.519 -11.225  1.00  0.00     0.006 A 
ENDBRANCH  54  75
BRANCH  66  83
ATOM     83  C   UNL     1      -3.141   0.597 -13.445  1.00  0.00     0.057 A 
ATOM     84  C   UNL     1      -3.540   0.916 -14.744  1.00  0.00     0.134 A 
ATOM     85  C   UNL     1      -1.828   0.178 -13.241  1.00  0.00     0.134 A 
ATOM     86  F   UNL     1      -4.809   1.273 -14.996  1.00  0.00    -0.206 F 
ATOM     87  C   UNL     1      -2.642   0.870 -15.806  1.00  0.00     0.040 A 
ATOM     88  C   UNL     1      -0.921   0.118 -14.299  1.00  0.00     0.040 A 
ATOM     89  F   UNL     1      -1.395  -0.145 -12.013  1.00  0.00    -0.206 F 
ATOM     90  C   UNL     1      -1.322   0.484 -15.582  1.00  0.00     0.006 A 
ENDBRANCH  66  83
ENDBRANCH  40  41
ENDBRANCH  33  35
ENDBRANCH  32  33
ENDBRANCH  31  32
ENDBRANCH   1  31
TORSDOF 15
