REMARK SMILES COc1ccc(CCN2/C(=[NH+]/C(=O)CCC(=O)OCCOC(=O)c3ccc(-c4c5nc(c(-c6c(F)cccc6F)c6ccc([nH]6)c(-c6c(F)cccc6F)c6nc(c(-c7c(F)cccc7F)c7ccc4[nH]7)C=C6)C=C5)cc3)S[C@@H]3CS(=O)(=O)C[C@@H]32)cc1
REMARK SMILES IDX 16 1 17 2 15 3 14 4 12 5 9 6 10 7 85 8 11 9 78 10 79 11
REMARK SMILES IDX 84 12 80 14 81 15 13 16 82 17 83 18 8 19 7 20 6 21 3 22 4 23
REMARK SMILES IDX 87 24 5 25 86 26 2 27 1 28 18 29 19 30 20 31 21 32 22 33
REMARK SMILES IDX 23 34 24 35 25 36 77 37 26 38 76 39 27 40 28 41 29 42 70 43
REMARK SMILES IDX 30 44 75 45 69 46 71 47 31 48 74 49 68 50 67 51 32 53 58 54
REMARK SMILES IDX 41 55 57 56 42 57 45 58 56 59 72 60 43 61 44 62 55 64 73 65
REMARK SMILES IDX 46 66 33 67 34 68 39 69 35 70 36 71 38 72 40 73 37 74 59 75
REMARK SMILES IDX 60 76 65 77 61 78 62 79 64 80 66 81 63 82 47 83 48 84 53 85
REMARK SMILES IDX 49 86 50 87 52 88 54 89 51 90
REMARK H PARENT 11 13 71 52 45 63
REMARK Flexibility Score: inf
ROOT
ATOM      1  C   UNL     1       0.754   2.464  -2.967  1.00  0.00     0.306 C 
ATOM      2  O   UNL     1       1.315   2.431  -1.877  1.00  0.00    -0.252 OA
ENDROOT
BRANCH   1   3
ATOM      3  C   UNL     1      -0.755   2.399  -3.117  1.00  0.00     0.135 C 
BRANCH   3   4
ATOM      4  C   UNL     1      -1.348   3.002  -4.391  1.00  0.00     0.139 C 
BRANCH   4   5
ATOM      5  C   UNL     1      -1.924   1.947  -5.320  1.00  0.00     0.308 C 
ATOM      6  N   UNL     1      -0.265  -0.467  -7.469  1.00  0.00    -0.251 N 
ATOM      7  C   UNL     1      -1.243   0.358  -6.917  1.00  0.00     0.314 C 
ATOM      8  C   UNL     1      -0.750  -1.525  -8.366  1.00  0.00     0.206 C 
ATOM      9  N   UNL     1      -0.981   1.333  -6.108  1.00  0.00    -0.205 N 
ATOM     10  S   UNL     1      -2.835  -0.242  -7.396  1.00  0.00    -0.030 SA
ATOM     11  C   UNL     1      -2.174  -1.853  -7.902  1.00  0.00     0.120 C 
ATOM     12  C   UNL     1       0.031  -2.833  -8.355  1.00  0.00     0.187 C 
ATOM     13  H   UNL     1      -0.051   1.654  -6.054  1.00  0.00     0.316 HD
ATOM     14  C   UNL     1      -2.081  -2.810  -6.720  1.00  0.00     0.156 C 
ATOM     15  S   UNL     1      -0.694  -3.852  -7.100  1.00  0.00     0.155 S 
ATOM     16  O   UNL     1      -3.111   1.649  -5.215  1.00  0.00    -0.247 OA
ATOM     17  O   UNL     1       0.207  -3.899  -5.970  1.00  0.00    -0.229 OA
ATOM     18  O   UNL     1      -1.185  -5.053  -7.741  1.00  0.00    -0.229 OA
BRANCH   6  19
ATOM     19  C   UNL     1       1.154  -0.151  -7.446  1.00  0.00     0.242 C 
BRANCH  19  20
ATOM     20  C   UNL     1       1.811   0.034  -6.072  1.00  0.00     0.081 C 
BRANCH  20  21
ATOM     21  C   UNL     1       1.504  -0.686  -4.767  1.00  0.00    -0.044 A 
ATOM     22  C   UNL     1       0.984  -1.238  -2.035  1.00  0.00     0.118 A 
ATOM     23  C   UNL     1      -0.055  -1.205  -2.947  1.00  0.00     0.046 A 
ATOM     24  C   UNL     1       2.293  -1.128  -2.487  1.00  0.00     0.046 A 
ATOM     25  C   UNL     1       0.211  -0.918  -4.291  1.00  0.00     0.007 A 
ATOM     26  C   UNL     1       2.549  -0.869  -3.842  1.00  0.00     0.007 A 
BRANCH  22  27
ATOM     27  O   UNL     1       0.676  -1.419  -0.716  1.00  0.00    -0.497 OA
ATOM     28  C   UNL     1       1.016  -0.267   0.061  1.00  0.00     0.278 C 
ENDBRANCH  22  27
ENDBRANCH  20  21
ENDBRANCH  19  20
ENDBRANCH   6  19
ENDBRANCH   4   5
ENDBRANCH   3   4
ENDBRANCH   1   3
BRANCH   1  29
ATOM     29  O   UNL     1       1.401   2.572  -4.146  1.00  0.00    -0.462 OA
BRANCH  29  30
ATOM     30  C   UNL     1       2.844   2.646  -4.122  1.00  0.00     0.274 C 
BRANCH  30  31
ATOM     31  C   UNL     1       3.303   3.443  -5.349  1.00  0.00     0.275 C 
BRANCH  31  32
ATOM     32  O   UNL     1       3.320   4.833  -5.008  1.00  0.00    -0.458 OA
BRANCH  32  33
ATOM     33  C   UNL     1       2.080   5.363  -4.852  1.00  0.00     0.338 C 
ATOM     34  O   UNL     1       1.089   5.121  -5.500  1.00  0.00    -0.246 OA
BRANCH  33  35
ATOM     35  C   UNL     1       2.094   6.070  -3.558  1.00  0.00     0.060 A 
ATOM     36  C   UNL     1       1.035   5.859  -2.666  1.00  0.00     0.016 A 
ATOM     37  C   UNL     1       3.174   6.885  -3.218  1.00  0.00     0.016 A 
ATOM     38  C   UNL     1       1.031   6.502  -1.435  1.00  0.00     0.010 A 
ATOM     39  C   UNL     1       3.165   7.539  -1.996  1.00  0.00     0.010 A 
ATOM     40  C   UNL     1       2.072   7.382  -1.127  1.00  0.00    -0.014 A 
BRANCH  40  41
ATOM     41  C   UNL     1       1.918   8.347  -0.026  1.00  0.00     0.031 A 
ATOM     42  C   UNL     1       1.509   9.742  -0.399  1.00  0.00     0.074 A 
ATOM     43  C   UNL     1       2.168   7.988   1.242  1.00  0.00     0.049 A 
ATOM     44  N   UNL     1       1.485  10.824   0.330  1.00  0.00    -0.248 NA
ATOM     45  C   UNL     1       1.089   9.949  -1.798  1.00  0.00     0.031 C 
ATOM     46  C   UNL     1       2.526   6.642   1.688  1.00  0.00     0.029 A 
ATOM     47  N   UNL     1       2.182   8.740   2.385  1.00  0.00    -0.354 N 
ATOM     48  C   UNL     1       1.063  11.836  -0.523  1.00  0.00     0.074 A 
ATOM     49  C   UNL     1       0.882  11.255  -1.832  1.00  0.00     0.031 C 
ATOM     50  C   UNL     1       2.751   6.670   3.014  1.00  0.00     0.029 A 
ATOM     51  C   UNL     1       2.594   8.041   3.492  1.00  0.00     0.049 A 
ATOM     52  H   UNL     1       1.923   9.690   2.411  1.00  0.00     0.167 HD
ATOM     53  C   UNL     1       0.835  13.135  -0.226  1.00  0.00     0.037 A 
ATOM     54  C   UNL     1       2.847   8.484   4.737  1.00  0.00     0.037 A 
ATOM     55  C   UNL     1       1.024  13.683   1.088  1.00  0.00     0.049 A 
ATOM     56  C   UNL     1       2.650   9.951   5.024  1.00  0.00     0.074 A 
ATOM     57  C   UNL     1       0.848  14.985   1.517  1.00  0.00     0.029 A 
ATOM     58  N   UNL     1       1.428  12.943   2.191  1.00  0.00    -0.354 N 
ATOM     59  N   UNL     1       2.260  10.910   4.215  1.00  0.00    -0.248 NA
ATOM     60  C   UNL     1       2.924  10.399   6.395  1.00  0.00     0.031 C 
ATOM     61  C   UNL     1       1.178  15.039   2.874  1.00  0.00     0.029 A 
ATOM     62  C   UNL     1       1.511  13.761   3.301  1.00  0.00     0.049 A 
ATOM     63  H   UNL     1       1.627  11.979   2.182  1.00  0.00     0.167 HD
ATOM     64  C   UNL     1       2.206  12.063   4.986  1.00  0.00     0.074 A 
ATOM     65  C   UNL     1       2.590  11.680   6.330  1.00  0.00     0.031 C 
ATOM     66  C   UNL     1       1.874  13.328   4.626  1.00  0.00     0.037 A 
BRANCH  53  67
ATOM     67  C   UNL     1       0.368  14.032  -1.334  1.00  0.00     0.057 A 
ATOM     68  C   UNL     1      -0.918  13.920  -1.880  1.00  0.00     0.134 A 
ATOM     69  C   UNL     1       1.199  15.037  -1.843  1.00  0.00     0.134 A 
ATOM     70  F   UNL     1      -1.756  12.962  -1.455  1.00  0.00    -0.206 F 
ATOM     71  C   UNL     1      -1.355  14.766  -2.900  1.00  0.00     0.040 A 
ATOM     72  C   UNL     1       0.763  15.907  -2.845  1.00  0.00     0.040 A 
ATOM     73  F   UNL     1       2.445  15.197  -1.371  1.00  0.00    -0.206 F 
ATOM     74  C   UNL     1      -0.516  15.770  -3.379  1.00  0.00     0.006 A 
ENDBRANCH  53  67
BRANCH  54  75
ATOM     75  C   UNL     1       3.332   7.555   5.790  1.00  0.00     0.057 A 
ATOM     76  C   UNL     1       2.555   7.271   6.920  1.00  0.00     0.134 A 
ATOM     77  C   UNL     1       4.597   6.959   5.716  1.00  0.00     0.134 A 
ATOM     78  F   UNL     1       1.341   7.822   7.060  1.00  0.00    -0.206 F 
ATOM     79  C   UNL     1       3.031   6.459   7.952  1.00  0.00     0.040 A 
ATOM     80  C   UNL     1       5.073   6.120   6.725  1.00  0.00     0.040 A 
ATOM     81  F   UNL     1       5.391   7.182   4.658  1.00  0.00    -0.206 F 
ATOM     82  C   UNL     1       4.294   5.879   7.854  1.00  0.00     0.006 A 
ENDBRANCH  54  75
BRANCH  66  83
ATOM     83  C   UNL     1       1.856  14.361   5.712  1.00  0.00     0.057 A 
ATOM     84  C   UNL     1       3.034  14.854   6.285  1.00  0.00     0.134 A 
ATOM     85  C   UNL     1       0.641  14.896   6.157  1.00  0.00     0.134 A 
ATOM     86  F   UNL     1       4.228  14.373   5.908  1.00  0.00    -0.206 F 
ATOM     87  C   UNL     1       3.002  15.826   7.285  1.00  0.00     0.040 A 
ATOM     88  C   UNL     1       0.598  15.890   7.134  1.00  0.00     0.040 A 
ATOM     89  F   UNL     1      -0.522  14.475   5.637  1.00  0.00    -0.206 F 
ATOM     90  C   UNL     1       1.782  16.352   7.706  1.00  0.00     0.006 A 
ENDBRANCH  66  83
ENDBRANCH  40  41
ENDBRANCH  33  35
ENDBRANCH  32  33
ENDBRANCH  31  32
ENDBRANCH  30  31
ENDBRANCH  29  30
ENDBRANCH   1  29
TORSDOF 17
