REMARK SMILES CN(CC(F)(F)F)C(=O)N[C@@H]1CCCCC[C@@H]1C(=O)OCCOC(=O)c1ccc(-c2c3nc(c(-c4c(F)cccc4F)c4ccc([nH]4)c(-c4c(F)cccc4F)c4nc(c(-c5c(F)cccc5F)c5ccc2[nH]5)C=C4)C=C3)cc1
REMARK SMILES IDX 20 1 18 2 19 3 17 4 11 5 10 6 8 7 9 8 2 10 1 11 3 12 4 13
REMARK SMILES IDX 5 14 6 15 7 16 12 17 13 18 14 19 16 21 15 22 21 24 22 25
REMARK SMILES IDX 23 26 24 27 25 28 26 29 27 30 79 31 28 32 78 33 29 34 30 35
REMARK SMILES IDX 31 36 72 37 32 38 77 39 71 40 73 41 33 42 76 43 70 44 69 45
REMARK SMILES IDX 34 47 60 48 43 49 59 50 44 51 47 52 58 53 74 54 45 55 46 56
REMARK SMILES IDX 57 58 75 59 48 60 35 61 36 62 41 63 37 64 38 65 40 66 42 67
REMARK SMILES IDX 39 68 61 69 62 70 67 71 63 72 64 73 66 74 68 75 65 76 49 77
REMARK SMILES IDX 50 78 55 79 51 80 52 81 54 82 56 83 53 84
REMARK H PARENT 10 9 73 46 47 57
REMARK Flexibility Score: 100.00
ROOT
ATOM      1  O   UNL     1      -2.306  -0.231   3.050  1.00  0.00    -0.462 OA
ENDROOT
BRANCH   1   2
ATOM      2  C   UNL     1      -1.642   0.683   3.802  1.00  0.00     0.311 C 
ATOM      3  O   UNL     1      -0.968   0.414   4.784  1.00  0.00    -0.252 OA
BRANCH   2   4
ATOM      4  C   UNL     1      -1.973   2.054   3.324  1.00  0.00     0.121 C 
BRANCH   4   5
ATOM      5  C   UNL     1      -0.707   2.842   2.947  1.00  0.00     0.098 C 
BRANCH   5   6
ATOM      6  N   UNL     1       0.602   2.093   2.468  1.00  0.00    -0.334 N 
ATOM      7  C   UNL     1       1.423   1.426   1.607  1.00  0.00     0.317 C 
ATOM      8  O   UNL     1       2.550   1.320   2.131  1.00  0.00    -0.249 OA
ATOM      9  H   UNL     1       1.158   2.130   3.280  1.00  0.00     0.165 HD
BRANCH   7  10
ATOM     10  N   UNL     1       1.209   0.772   0.360  1.00  0.00    -0.319 N 
ATOM     11  C   UNL     1       2.185  -0.333   0.289  1.00  0.00     0.149 C 
BRANCH  10  12
ATOM     12  C   UNL     1       1.094   1.273  -1.161  1.00  0.00     0.236 C 
BRANCH  12  13
ATOM     13  C   UNL     1      -0.139   1.438  -2.125  1.00  0.00     0.406 C 
ATOM     14  F   UNL     1      -0.595   2.704  -2.198  1.00  0.00    -0.169 F 
ATOM     15  F   UNL     1       0.263   1.153  -3.399  1.00  0.00    -0.169 F 
ATOM     16  F   UNL     1      -1.178   0.620  -1.904  1.00  0.00    -0.169 F 
ENDBRANCH  12  13
ENDBRANCH  10  12
ENDBRANCH   7  10
ENDBRANCH   5   6
BRANCH   5  17
ATOM     17  C   UNL     1      -0.408   3.976   3.977  1.00  0.00     0.026 C 
BRANCH  17  18
ATOM     18  C   UNL     1      -1.302   5.238   3.812  1.00  0.00     0.002 C 
BRANCH  18  19
ATOM     19  C   UNL     1      -2.764   5.191   4.261  1.00  0.00     0.000 CG0
ATOM     20  G   UNL     1      -3.566   3.992   3.786  1.00  0.00     0.000 G0
ENDBRANCH  18  19
ENDBRANCH  17  18
ENDBRANCH   5  17
ENDBRANCH   4   5
BRANCH   4  21
ATOM     21  C   UNL     1      -2.985   2.680   4.301  1.00  0.00     0.017 C 
BRANCH  21  22
ATOM     22  C   UNL     1      -3.566   3.992   3.786  1.00  0.00     0.001 CG0
ATOM     23  G   UNL     1      -2.764   5.191   4.261  1.00  0.00     0.000 G0
ENDBRANCH  21  22
ENDBRANCH   4  21
ENDBRANCH   2   4
ENDBRANCH   1   2
BRANCH   1  24
ATOM     24  C   UNL     1      -1.565  -0.587   1.883  1.00  0.00     0.274 C 
BRANCH  24  25
ATOM     25  C   UNL     1      -1.863   0.260   0.613  1.00  0.00     0.275 C 
BRANCH  25  26
ATOM     26  O   UNL     1      -1.218   1.594   0.522  1.00  0.00    -0.458 OA
BRANCH  26  27
ATOM     27  C   UNL     1      -1.826   2.731   0.024  1.00  0.00     0.338 C 
ATOM     28  O   UNL     1      -2.981   2.775  -0.296  1.00  0.00    -0.246 OA
BRANCH  27  29
ATOM     29  C   UNL     1      -0.897   4.003   0.023  1.00  0.00     0.060 A 
ATOM     30  C   UNL     1      -1.504   5.252   0.109  1.00  0.00     0.016 A 
ATOM     31  C   UNL     1       0.509   4.020   0.125  1.00  0.00     0.016 A 
ATOM     32  C   UNL     1      -0.737   6.414   0.377  1.00  0.00     0.010 A 
ATOM     33  C   UNL     1       1.290   5.154   0.366  1.00  0.00     0.010 A 
ATOM     34  C   UNL     1       0.660   6.366   0.546  1.00  0.00    -0.014 A 
BRANCH  34  35
ATOM     35  C   UNL     1       1.461   7.585   0.802  1.00  0.00     0.031 A 
ATOM     36  C   UNL     1       1.649   8.530  -0.336  1.00  0.00     0.074 A 
ATOM     37  C   UNL     1       2.019   7.851   2.000  1.00  0.00     0.049 A 
ATOM     38  N   UNL     1       2.037   9.774  -0.321  1.00  0.00    -0.248 NA
ATOM     39  C   UNL     1       1.355   7.991  -1.674  1.00  0.00     0.031 C 
ATOM     40  C   UNL     1       2.040   6.946   3.144  1.00  0.00     0.029 A 
ATOM     41  N   UNL     1       2.665   8.973   2.465  1.00  0.00    -0.354 N 
ATOM     42  C   UNL     1       1.952  10.195  -1.638  1.00  0.00     0.074 A 
ATOM     43  C   UNL     1       1.544   9.058  -2.434  1.00  0.00     0.031 C 
ATOM     44  C   UNL     1       2.601   7.563   4.199  1.00  0.00     0.029 A 
ATOM     45  C   UNL     1       2.993   8.911   3.802  1.00  0.00     0.049 A 
ATOM     46  H   UNL     1       2.874   9.748   1.895  1.00  0.00     0.167 HD
ATOM     47  C   UNL     1       2.179  11.432  -2.130  1.00  0.00     0.037 A 
ATOM     48  C   UNL     1       3.528   9.848   4.612  1.00  0.00     0.037 A 
ATOM     49  C   UNL     1       2.700  12.514  -1.343  1.00  0.00     0.049 A 
ATOM     50  C   UNL     1       3.826  11.207   4.030  1.00  0.00     0.074 A 
ATOM     51  C   UNL     1       2.998  13.804  -1.738  1.00  0.00     0.029 A 
ATOM     52  N   UNL     1       3.047  12.410  -0.002  1.00  0.00    -0.354 N 
ATOM     53  N   UNL     1       3.603  11.651   2.816  1.00  0.00    -0.248 NA
ATOM     54  C   UNL     1       4.446  12.194   4.925  1.00  0.00     0.031 C 
ATOM     55  C   UNL     1       3.580  14.464  -0.649  1.00  0.00     0.029 A 
ATOM     56  C   UNL     1       3.589  13.604   0.439  1.00  0.00     0.049 A 
ATOM     57  H   UNL     1       2.925  11.606   0.552  1.00  0.00     0.167 HD
ATOM     58  C   UNL     1       4.043  12.968   2.803  1.00  0.00     0.074 A 
ATOM     59  C   UNL     1       4.520  13.259   4.140  1.00  0.00     0.031 C 
ATOM     60  C   UNL     1       4.059  13.857   1.779  1.00  0.00     0.037 A 
BRANCH  47  61
ATOM     61  C   UNL     1       1.887  11.636  -3.583  1.00  0.00     0.057 A 
ATOM     62  C   UNL     1       0.570  11.647  -4.065  1.00  0.00     0.134 A 
ATOM     63  C   UNL     1       2.920  11.785  -4.512  1.00  0.00     0.134 A 
ATOM     64  F   UNL     1      -0.464  11.479  -3.226  1.00  0.00    -0.206 F 
ATOM     65  C   UNL     1       0.293  11.775  -5.426  1.00  0.00     0.040 A 
ATOM     66  C   UNL     1       2.655  11.936  -5.874  1.00  0.00     0.040 A 
ATOM     67  F   UNL     1       4.201  11.769  -4.116  1.00  0.00    -0.206 F 
ATOM     68  C   UNL     1       1.339  11.924  -6.335  1.00  0.00     0.006 A 
ENDBRANCH  47  61
BRANCH  48  69
ATOM     69  C   UNL     1       3.798   9.561   6.049  1.00  0.00     0.057 A 
ATOM     70  C   UNL     1       3.100  10.217   7.072  1.00  0.00     0.134 A 
ATOM     71  C   UNL     1       4.789   8.651   6.439  1.00  0.00     0.134 A 
ATOM     72  F   UNL     1       2.154  11.119   6.773  1.00  0.00    -0.206 F 
ATOM     73  C   UNL     1       3.391   9.998   8.422  1.00  0.00     0.040 A 
ATOM     74  C   UNL     1       5.073   8.402   7.784  1.00  0.00     0.040 A 
ATOM     75  F   UNL     1       5.499   7.988   5.515  1.00  0.00    -0.206 F 
ATOM     76  C   UNL     1       4.378   9.083   8.781  1.00  0.00     0.006 A 
ENDBRANCH  48  69
BRANCH  60  77
ATOM     77  C   UNL     1       4.599  15.226   2.072  1.00  0.00     0.057 A 
ATOM     78  C   UNL     1       5.966  15.454   2.268  1.00  0.00     0.134 A 
ATOM     79  C   UNL     1       3.744  16.334   2.101  1.00  0.00     0.134 A 
ATOM     80  F   UNL     1       6.835  14.431   2.263  1.00  0.00    -0.206 F 
ATOM     81  C   UNL     1       6.463  16.736   2.502  1.00  0.00     0.040 A 
ATOM     82  C   UNL     1       4.232  17.624   2.306  1.00  0.00     0.040 A 
ATOM     83  F   UNL     1       2.425  16.183   1.910  1.00  0.00    -0.206 F 
ATOM     84  C   UNL     1       5.596  17.827   2.513  1.00  0.00     0.006 A 
ENDBRANCH  60  77
ENDBRANCH  34  35
ENDBRANCH  27  29
ENDBRANCH  26  27
ENDBRANCH  25  26
ENDBRANCH  24  25
ENDBRANCH   1  24
TORSDOF 15
