REMARK SMILES [NH3+][C@H]1CN(C(=O)OCC2c3ccccc3-c3ccccc32)C[C@@H]1C(=O)OCCOC(=O)c1ccc(-c2c3nc(c(-c4c(F)cccc4F)c4ccc([nH]4)c(-c4c(F)cccc4F)c4nc(c(-c5c(F)cccc5F)c5ccc2[nH]5)C=C4)C=C3)cc1
REMARK SMILES IDX 27 1 26 2 24 3 25 4 23 5 2 6 3 7 4 8 22 9 1 10 5 14 6 15
REMARK SMILES IDX 7 16 8 17 9 18 10 19 21 20 11 21 15 22 16 23 20 24 12 25
REMARK SMILES IDX 14 26 17 27 19 28 13 29 18 30 28 31 29 32 30 33 31 34 32 35
REMARK SMILES IDX 33 36 85 37 34 38 84 39 35 40 36 41 37 42 78 43 38 44 83 45
REMARK SMILES IDX 77 46 79 47 39 48 82 49 76 50 75 51 40 53 66 54 49 55 65 56
REMARK SMILES IDX 50 57 53 58 64 59 80 60 51 61 52 62 63 64 81 65 54 66 41 67
REMARK SMILES IDX 42 68 47 69 43 70 44 71 46 72 48 73 45 74 67 75 68 76 73 77
REMARK SMILES IDX 69 78 70 79 72 80 74 81 71 82 55 83 56 84 61 85 57 86 58 87
REMARK SMILES IDX 60 88 62 89 59 90
REMARK H PARENT 1 11 1 12 1 13 79 52 53 63
REMARK Flexibility Score: inf
ROOT
ATOM      1  C   UNL     1       1.740   0.185   3.298  1.00  0.00     0.274 C 
ENDROOT
BRANCH   1   2
ATOM      2  O   UNL     1       1.468   0.798   2.019  1.00  0.00    -0.462 OA
BRANCH   2   3
ATOM      3  C   UNL     1       0.164   0.787   1.641  1.00  0.00     0.317 C 
ATOM      4  O   UNL     1      -0.753   0.332   2.320  1.00  0.00    -0.252 OA
BRANCH   3   5
ATOM      5  C   UNL     1      -0.097   1.454   0.313  1.00  0.00     0.178 C 
ATOM      6  C   UNL     1       0.993   1.311  -0.756  1.00  0.00     0.216 C 
ATOM      7  C   UNL     1       1.860   2.581  -0.590  1.00  0.00     0.188 C 
ATOM      8  N   UNL     1       1.013   3.529   0.102  1.00  0.00    -0.301 N 
ATOM      9  C   UNL     1      -0.247   2.949   0.495  1.00  0.00     0.145 C 
BRANCH   6  10
ATOM     10  N   UNL     1       0.360   1.263  -2.089  1.00  0.00    -0.353 N 
ATOM     11  H   UNL     1       1.081   1.167  -2.804  1.00  0.00     0.344 HD
ATOM     12  H   UNL     1      -0.165   2.123  -2.248  1.00  0.00     0.344 HD
ATOM     13  H   UNL     1      -0.274   0.465  -2.136  1.00  0.00     0.344 HD
ENDBRANCH   6  10
BRANCH   8  14
ATOM     14  C   UNL     1       1.362   4.788   0.517  1.00  0.00     0.410 C 
ATOM     15  O   UNL     1       0.772   5.376   1.417  1.00  0.00    -0.224 OA
BRANCH  14  16
ATOM     16  O   UNL     1       2.339   5.339  -0.255  1.00  0.00    -0.448 OA
BRANCH  16  17
ATOM     17  C   UNL     1       2.592   6.732   0.021  1.00  0.00     0.248 C 
BRANCH  17  18
ATOM     18  C   UNL     1       1.737   7.706  -0.827  1.00  0.00     0.088 C 
ATOM     19  C   UNL     1       0.231   7.630  -0.583  1.00  0.00    -0.029 A 
ATOM     20  C   UNL     1       2.028   9.149  -0.398  1.00  0.00    -0.029 A 
ATOM     21  C   UNL     1      -0.660   6.626  -0.937  1.00  0.00     0.005 A 
ATOM     22  C   UNL     1      -0.220   8.790   0.078  1.00  0.00    -0.014 A 
ATOM     23  C   UNL     1       0.875   9.729   0.176  1.00  0.00    -0.014 A 
ATOM     24  C   UNL     1       3.210   9.866  -0.508  1.00  0.00     0.005 A 
ATOM     25  C   UNL     1      -1.987   6.732  -0.516  1.00  0.00     0.000 A 
ATOM     26  C   UNL     1      -1.542   8.909   0.473  1.00  0.00     0.009 A 
ATOM     27  C   UNL     1       0.902  11.023   0.669  1.00  0.00     0.009 A 
ATOM     28  C   UNL     1       3.233  11.176  -0.022  1.00  0.00     0.000 A 
ATOM     29  C   UNL     1      -2.422   7.859   0.196  1.00  0.00     0.001 A 
ATOM     30  C   UNL     1       2.093  11.747   0.568  1.00  0.00     0.001 A 
ENDBRANCH  17  18
ENDBRANCH  16  17
ENDBRANCH  14  16
ENDBRANCH   8  14
ENDBRANCH   3   5
ENDBRANCH   2   3
ENDBRANCH   1   2
BRANCH   1  31
ATOM     31  C   UNL     1       1.820   1.221   4.416  1.00  0.00     0.275 C 
BRANCH  31  32
ATOM     32  O   UNL     1       0.577   1.938   4.523  1.00  0.00    -0.458 OA
BRANCH  32  33
ATOM     33  C   UNL     1       0.670   3.276   4.340  1.00  0.00     0.338 C 
ATOM     34  O   UNL     1       1.690   3.914   4.141  1.00  0.00    -0.246 OA
BRANCH  33  35
ATOM     35  C   UNL     1      -0.660   3.908   4.461  1.00  0.00     0.060 A 
ATOM     36  C   UNL     1      -1.733   3.491   3.674  1.00  0.00     0.016 A 
ATOM     37  C   UNL     1      -0.795   5.027   5.282  1.00  0.00     0.016 A 
ATOM     38  C   UNL     1      -2.878   4.282   3.588  1.00  0.00     0.010 A 
ATOM     39  C   UNL     1      -2.003   5.732   5.304  1.00  0.00     0.010 A 
ATOM     40  C   UNL     1      -3.043   5.402   4.419  1.00  0.00    -0.014 A 
BRANCH  40  41
ATOM     41  C   UNL     1      -4.298   6.207   4.371  1.00  0.00     0.031 A 
ATOM     42  C   UNL     1      -4.264   7.691   4.093  1.00  0.00     0.074 A 
ATOM     43  C   UNL     1      -5.488   5.607   4.580  1.00  0.00     0.049 A 
ATOM     44  N   UNL     1      -5.253   8.553   4.087  1.00  0.00    -0.248 NA
ATOM     45  C   UNL     1      -2.955   8.287   3.784  1.00  0.00     0.031 C 
ATOM     46  C   UNL     1      -5.684   4.180   4.848  1.00  0.00     0.029 A 
ATOM     47  N   UNL     1      -6.762   6.122   4.607  1.00  0.00    -0.354 N 
ATOM     48  C   UNL     1      -4.689   9.782   3.765  1.00  0.00     0.074 A 
ATOM     49  C   UNL     1      -3.263   9.570   3.649  1.00  0.00     0.031 C 
ATOM     50  C   UNL     1      -6.994   3.930   4.984  1.00  0.00     0.029 A 
ATOM     51  C   UNL     1      -7.726   5.188   4.899  1.00  0.00     0.049 A 
ATOM     52  H   UNL     1      -6.964   7.070   4.433  1.00  0.00     0.167 HD
ATOM     53  C   UNL     1      -5.299  10.973   3.555  1.00  0.00     0.037 A 
ATOM     54  C   UNL     1      -9.046   5.323   5.122  1.00  0.00     0.037 A 
ATOM     55  C   UNL     1      -6.713  11.207   3.698  1.00  0.00     0.049 A 
ATOM     56  C   UNL     1      -9.672   6.685   5.052  1.00  0.00     0.074 A 
ATOM     57  C   UNL     1      -7.416  12.386   3.516  1.00  0.00     0.029 A 
ATOM     58  N   UNL     1      -7.636  10.245   4.073  1.00  0.00    -0.354 N 
ATOM     59  N   UNL     1      -9.126   7.828   4.720  1.00  0.00    -0.248 NA
ATOM     60  C   UNL     1     -11.096   6.776   5.404  1.00  0.00     0.031 C 
ATOM     61  C   UNL     1      -8.759  12.149   3.832  1.00  0.00     0.029 A 
ATOM     62  C   UNL     1      -8.898  10.812   4.167  1.00  0.00     0.049 A 
ATOM     63  H   UNL     1      -7.428   9.299   4.248  1.00  0.00     0.167 HD
ATOM     64  C   UNL     1     -10.143   8.770   4.800  1.00  0.00     0.074 A 
ATOM     65  C   UNL     1     -11.341   8.062   5.199  1.00  0.00     0.031 C 
ATOM     66  C   UNL     1     -10.086  10.102   4.561  1.00  0.00     0.037 A 
BRANCH  53  67
ATOM     67  C   UNL     1      -4.436  12.127   3.136  1.00  0.00     0.057 A 
ATOM     68  C   UNL     1      -3.933  12.224   1.832  1.00  0.00     0.134 A 
ATOM     69  C   UNL     1      -4.147  13.172   4.021  1.00  0.00     0.134 A 
ATOM     70  F   UNL     1      -4.168  11.251   0.940  1.00  0.00    -0.206 F 
ATOM     71  C   UNL     1      -3.161  13.314   1.426  1.00  0.00     0.040 A 
ATOM     72  C   UNL     1      -3.392  14.277   3.622  1.00  0.00     0.040 A 
ATOM     73  F   UNL     1      -4.605  13.144   5.281  1.00  0.00    -0.206 F 
ATOM     74  C   UNL     1      -2.895  14.348   2.321  1.00  0.00     0.006 A 
ENDBRANCH  53  67
BRANCH  54  75
ATOM     75  C   UNL     1      -9.861   4.136   5.485  1.00  0.00     0.057 A 
ATOM     76  C   UNL     1     -10.839   3.635   4.621  1.00  0.00     0.134 A 
ATOM     77  C   UNL     1      -9.688   3.484   6.713  1.00  0.00     0.134 A 
ATOM     78  F   UNL     1     -11.069   4.232   3.442  1.00  0.00    -0.206 F 
ATOM     79  C   UNL     1     -11.625   2.535   4.968  1.00  0.00     0.040 A 
ATOM     80  C   UNL     1     -10.446   2.366   7.061  1.00  0.00     0.040 A 
ATOM     81  F   UNL     1      -8.766   3.916   7.586  1.00  0.00    -0.206 F 
ATOM     82  C   UNL     1     -11.424   1.893   6.189  1.00  0.00     0.006 A 
ENDBRANCH  54  75
BRANCH  66  83
ATOM     83  C   UNL     1     -11.365  10.873   4.694  1.00  0.00     0.057 A 
ATOM     84  C   UNL     1     -11.929  11.156   5.944  1.00  0.00     0.134 A 
ATOM     85  C   UNL     1     -12.031  11.351   3.558  1.00  0.00     0.134 A 
ATOM     86  F   UNL     1     -11.349  10.711   7.068  1.00  0.00    -0.206 F 
ATOM     87  C   UNL     1     -13.125  11.868   6.059  1.00  0.00     0.040 A 
ATOM     88  C   UNL     1     -13.214  12.084   3.662  1.00  0.00     0.040 A 
ATOM     89  F   UNL     1     -11.541  11.118   2.332  1.00  0.00    -0.206 F 
ATOM     90  C   UNL     1     -13.767  12.338   4.915  1.00  0.00     0.006 A 
ENDBRANCH  66  83
ENDBRANCH  40  41
ENDBRANCH  33  35
ENDBRANCH  32  33
ENDBRANCH  31  32
ENDBRANCH   1  31
TORSDOF 16
