REMARK SMILES O=C(OCCOC(=O)c1ccc(OCc2sccc2Br)cn1)c1ccc(-c2c3nc(c(-c4c(F)cccc4F)c4ccc([nH]4)c(-c4c(F)cccc4F)c4nc(c(-c5c(F)cccc5F)c5ccc2[nH]5)C=C4)C=C3)cc1
REMARK SMILES IDX 5 1 4 2 3 3 2 4 1 5 23 6 24 7 76 8 25 9 75 10 26 11 27 12
REMARK SMILES IDX 28 13 69 14 29 15 74 16 68 17 70 18 30 19 73 20 67 21 66 22
REMARK SMILES IDX 31 24 57 25 40 26 56 27 41 28 44 29 55 30 71 31 42 32 43 33
REMARK SMILES IDX 54 35 72 36 45 37 32 38 33 39 38 40 34 41 35 42 37 43 39 44
REMARK SMILES IDX 36 45 58 46 59 47 64 48 60 49 61 50 63 51 65 52 62 53 46 54
REMARK SMILES IDX 47 55 52 56 48 57 49 58 51 59 53 60 50 61 6 62 7 63 8 64
REMARK SMILES IDX 9 65 10 66 22 67 11 68 21 69 12 70 13 71 14 72 15 73 16 74
REMARK SMILES IDX 19 75 17 76 18 77 20 78
REMARK H PARENT 70 23 44 34
REMARK Flexibility Score: inf
ROOT
ATOM      1  C   UNL     1       3.854   0.144  -2.397  1.00  0.00     0.275 C 
ENDROOT
BRANCH   1   2
ATOM      2  C   UNL     1       3.903  -1.001  -1.383  1.00  0.00     0.275 C 
BRANCH   2   3
ATOM      3  O   UNL     1       2.803  -1.010  -0.459  1.00  0.00    -0.458 OA
BRANCH   3   4
ATOM      4  C   UNL     1       2.811  -0.555   0.817  1.00  0.00     0.338 C 
ATOM      5  O   UNL     1       2.064  -1.058   1.653  1.00  0.00    -0.246 OA
BRANCH   4   6
ATOM      6  C   UNL     1       3.566   0.672   1.208  1.00  0.00     0.060 A 
ATOM      7  C   UNL     1       4.898   0.946   0.889  1.00  0.00     0.016 A 
ATOM      8  C   UNL     1       2.884   1.578   2.036  1.00  0.00     0.016 A 
ATOM      9  C   UNL     1       5.523   2.113   1.344  1.00  0.00     0.010 A 
ATOM     10  C   UNL     1       3.507   2.742   2.494  1.00  0.00     0.010 A 
ATOM     11  C   UNL     1       4.837   3.014   2.161  1.00  0.00    -0.014 A 
BRANCH  11  12
ATOM     12  C   UNL     1       5.564   4.146   2.785  1.00  0.00     0.031 A 
ATOM     13  C   UNL     1       5.976   4.026   4.225  1.00  0.00     0.074 A 
ATOM     14  C   UNL     1       5.897   5.232   2.062  1.00  0.00     0.049 A 
ATOM     15  N   UNL     1       6.661   4.859   4.964  1.00  0.00    -0.248 NA
ATOM     16  C   UNL     1       5.578   2.791   4.921  1.00  0.00     0.031 C 
ATOM     17  C   UNL     1       5.586   5.425   0.647  1.00  0.00     0.029 A 
ATOM     18  N   UNL     1       6.568   6.378   2.409  1.00  0.00    -0.354 N 
ATOM     19  C   UNL     1       6.804   4.234   6.197  1.00  0.00     0.074 A 
ATOM     20  C   UNL     1       6.072   2.990   6.133  1.00  0.00     0.031 C 
ATOM     21  C   UNL     1       6.036   6.628   0.253  1.00  0.00     0.029 A 
ATOM     22  C   UNL     1       6.667   7.295   1.386  1.00  0.00     0.049 A 
ATOM     23  H   UNL     1       6.944   6.530   3.306  1.00  0.00     0.167 HD
ATOM     24  C   UNL     1       7.516   4.643   7.273  1.00  0.00     0.037 A 
ATOM     25  C   UNL     1       7.203   8.531   1.377  1.00  0.00     0.037 A 
ATOM     26  C   UNL     1       8.234   5.886   7.326  1.00  0.00     0.049 A 
ATOM     27  C   UNL     1       7.857   9.028   2.646  1.00  0.00     0.074 A 
ATOM     28  C   UNL     1       8.999   6.404   8.354  1.00  0.00     0.029 A 
ATOM     29  N   UNL     1       8.261   6.814   6.294  1.00  0.00    -0.354 N 
ATOM     30  N   UNL     1       8.025   8.405   3.790  1.00  0.00    -0.248 NA
ATOM     31  C   UNL     1       8.402  10.392   2.627  1.00  0.00     0.031 C 
ATOM     32  C   UNL     1       9.460   7.665   7.957  1.00  0.00     0.029 A 
ATOM     33  C   UNL     1       9.012   7.914   6.668  1.00  0.00     0.049 A 
ATOM     34  H   UNL     1       7.813   6.705   5.424  1.00  0.00     0.167 HD
ATOM     35  C   UNL     1       8.766   9.265   4.591  1.00  0.00     0.074 A 
ATOM     36  C   UNL     1       8.984  10.469   3.815  1.00  0.00     0.031 C 
ATOM     37  C   UNL     1       9.245   9.075   5.846  1.00  0.00     0.037 A 
BRANCH  24  38
ATOM     38  C   UNL     1       7.536   3.728   8.463  1.00  0.00     0.057 A 
ATOM     39  C   UNL     1       8.230   2.510   8.441  1.00  0.00     0.134 A 
ATOM     40  C   UNL     1       6.831   4.049   9.629  1.00  0.00     0.134 A 
ATOM     41  F   UNL     1       8.912   2.136   7.348  1.00  0.00    -0.206 F 
ATOM     42  C   UNL     1       8.188   1.625   9.521  1.00  0.00     0.040 A 
ATOM     43  C   UNL     1       6.802   3.183  10.724  1.00  0.00     0.040 A 
ATOM     44  F   UNL     1       6.150   5.200   9.718  1.00  0.00    -0.206 F 
ATOM     45  C   UNL     1       7.472   1.962  10.667  1.00  0.00     0.006 A 
ENDBRANCH  24  38
BRANCH  25  46
ATOM     46  C   UNL     1       7.161   9.389   0.154  1.00  0.00     0.057 A 
ATOM     47  C   UNL     1       8.328   9.809  -0.493  1.00  0.00     0.134 A 
ATOM     48  C   UNL     1       5.953   9.866  -0.372  1.00  0.00     0.134 A 
ATOM     49  F   UNL     1       9.526   9.392  -0.060  1.00  0.00    -0.206 F 
ATOM     50  C   UNL     1       8.294  10.706  -1.568  1.00  0.00     0.040 A 
ATOM     51  C   UNL     1       5.899  10.753  -1.448  1.00  0.00     0.040 A 
ATOM     52  F   UNL     1       4.788   9.462   0.138  1.00  0.00    -0.206 F 
ATOM     53  C   UNL     1       7.076  11.188  -2.042  1.00  0.00     0.006 A 
ENDBRANCH  25  46
BRANCH  37  54
ATOM     54  C   UNL     1      10.130  10.146   6.411  1.00  0.00     0.057 A 
ATOM     55  C   UNL     1       9.622  11.360   6.884  1.00  0.00     0.134 A 
ATOM     56  C   UNL     1      11.509   9.929   6.524  1.00  0.00     0.134 A 
ATOM     57  F   UNL     1       8.311  11.632   6.790  1.00  0.00    -0.206 F 
ATOM     58  C   UNL     1      10.459  12.331   7.436  1.00  0.00     0.040 A 
ATOM     59  C   UNL     1      12.353  10.881   7.095  1.00  0.00     0.040 A 
ATOM     60  F   UNL     1      12.055   8.781   6.095  1.00  0.00    -0.206 F 
ATOM     61  C   UNL     1      11.828  12.089   7.549  1.00  0.00     0.006 A 
ENDBRANCH  37  54
ENDBRANCH  11  12
ENDBRANCH   4   6
ENDBRANCH   3   4
ENDBRANCH   2   3
ENDBRANCH   1   2
BRANCH   1  62
ATOM     62  O   UNL     1       3.453   1.396  -1.815  1.00  0.00    -0.457 OA
BRANCH  62  63
ATOM     63  C   UNL     1       2.126   1.684  -1.948  1.00  0.00     0.357 C 
ATOM     64  O   UNL     1       1.316   1.046  -2.602  1.00  0.00    -0.244 OA
BRANCH  63  65
ATOM     65  C   UNL     1       1.779   2.858  -1.099  1.00  0.00     0.148 A 
ATOM     66  C   UNL     1       2.503   4.045  -1.162  1.00  0.00     0.040 A 
ATOM     67  N   UNL     1       0.724   2.681  -0.268  1.00  0.00    -0.245 NA
ATOM     68  C   UNL     1       2.139   5.102  -0.313  1.00  0.00     0.050 A 
ATOM     69  C   UNL     1       0.414   3.715   0.547  1.00  0.00     0.158 A 
ATOM     70  C   UNL     1       1.077   4.939   0.570  1.00  0.00     0.138 A 
BRANCH  70  71
ATOM     71  O   UNL     1       0.625   5.820   1.503  1.00  0.00    -0.486 OA
BRANCH  71  72
ATOM     72  C   UNL     1       0.970   7.201   1.416  1.00  0.00     0.277 C 
BRANCH  72  73
ATOM     73  C   UNL     1       2.022   7.548   2.429  1.00  0.00     0.056 A 
ATOM     74  S   UNL     1       2.888   9.017   2.191  1.00  0.00    -0.144 S 
ATOM     75  C   UNL     1       2.408   6.979   3.626  1.00  0.00     0.035 A 
ATOM     76  C   UNL     1       3.932   8.714   3.504  1.00  0.00     0.066 A 
ATOM     77  C   UNL     1       3.550   7.595   4.206  1.00  0.00     0.028 A 
ATOM     78  Br  UNL     1       1.580   5.538   4.524  1.00  0.00    -0.049 Br
ENDBRANCH  72  73
ENDBRANCH  71  72
ENDBRANCH  70  71
ENDBRANCH  63  65
ENDBRANCH  62  63
ENDBRANCH   1  62
TORSDOF 14
