REMARK SMILES O=C(CCCN1C(=O)/C(=C/c2ccccc2Cl)SC1=S)Nc1cccc(C(=O)OCCOC(=O)c2ccc(-c3c4nc(c(-c5c(F)cccc5F)c5ccc([nH]5)c(-c5c(F)cccc5F)c5nc(c(-c6c(F)cccc6F)c6ccc3[nH]6)C=C5)C=C4)cc2)c1
REMARK SMILES IDX 27 1 28 2 26 3 22 4 23 5 89 6 24 7 25 8 21 9 1 10 2 11 3 13
REMARK SMILES IDX 4 14 5 15 6 16 7 17 19 18 8 19 9 20 18 21 20 22 10 23 11 24
REMARK SMILES IDX 12 25 16 26 13 27 15 28 17 29 14 30 29 31 30 32 31 33 32 34
REMARK SMILES IDX 33 35 34 36 35 37 36 38 88 39 37 40 87 41 38 42 39 43 40 44
REMARK SMILES IDX 81 45 41 46 86 47 80 48 82 49 42 50 85 51 79 52 78 53 43 55
REMARK SMILES IDX 69 56 52 57 68 58 53 59 56 60 67 61 83 62 54 63 55 64 66 66
REMARK SMILES IDX 84 67 57 68 44 69 45 70 50 71 46 72 47 73 49 74 51 75 48 76
REMARK SMILES IDX 70 77 71 78 76 79 72 80 73 81 75 82 77 83 74 84 58 85 59 86
REMARK SMILES IDX 64 87 60 88 61 89 63 90 65 91 62 92
REMARK H PARENT 21 12 82 54 56 65
REMARK Flexibility Score: inf
ROOT
ATOM      1  C   UNL     1      -1.165   3.074  -2.386  1.00  0.00     0.338 C 
ATOM      2  O   UNL     1      -2.106   3.092  -3.160  1.00  0.00    -0.246 OA
ENDROOT
BRANCH   1   3
ATOM      3  C   UNL     1       0.082   2.312  -2.621  1.00  0.00     0.062 A 
ATOM      4  C   UNL     1       1.992   1.143  -1.766  1.00  0.00     0.042 A 
ATOM      5  C   UNL     1       2.609   1.219  -3.020  1.00  0.00     0.026 A 
ATOM      6  C   UNL     1       0.746   1.718  -1.553  1.00  0.00     0.041 A 
ATOM      7  C   UNL     1       1.906   1.723  -4.106  1.00  0.00     0.003 A 
ATOM      8  C   UNL     1       0.622   2.221  -3.912  1.00  0.00     0.016 A 
BRANCH   4   9
ATOM      9  N   UNL     1       2.689   0.477  -0.757  1.00  0.00    -0.326 N 
ATOM     10  O   UNL     1       0.928  -0.367   0.489  1.00  0.00    -0.275 OA
ATOM     11  C   UNL     1       2.130  -0.250   0.268  1.00  0.00     0.224 C 
ATOM     12  H   UNL     1       3.671   0.531  -0.781  1.00  0.00     0.169 HD
BRANCH  11  13
ATOM     13  C   UNL     1       3.148  -0.961   1.137  1.00  0.00     0.102 C 
BRANCH  13  14
ATOM     14  C   UNL     1       4.004  -2.003   0.403  1.00  0.00     0.032 C 
BRANCH  14  15
ATOM     15  C   UNL     1       5.256  -1.492  -0.334  1.00  0.00     0.128 C 
BRANCH  15  16
ATOM     16  N   UNL     1       6.052  -0.546   0.455  1.00  0.00    -0.293 N 
ATOM     17  C   UNL     1       5.913   0.809   0.218  1.00  0.00     0.266 C 
ATOM     18  C   UNL     1       6.956  -0.897   1.436  1.00  0.00     0.148 C 
ATOM     19  O   UNL     1       5.218   1.299  -0.662  1.00  0.00    -0.268 OA
ATOM     20  C   UNL     1       6.697   1.604   1.190  1.00  0.00     0.081 C 
ATOM     21  S   UNL     1       7.583   0.551   2.216  1.00  0.00    -0.054 SA
ATOM     22  S   UNL     1       7.432  -2.428   1.890  1.00  0.00    -0.052 S 
ATOM     23  C   UNL     1       6.656   2.943   1.200  1.00  0.00     0.031 C 
BRANCH  23  24
ATOM     24  C   UNL     1       7.462   3.800   2.082  1.00  0.00    -0.006 A 
ATOM     25  C   UNL     1       6.819   4.491   3.119  1.00  0.00     0.010 A 
ATOM     26  C   UNL     1       8.850   3.954   1.920  1.00  0.00     0.048 A 
ATOM     27  C   UNL     1       7.554   5.291   3.998  1.00  0.00     0.001 A 
ATOM     28  C   UNL     1       9.582   4.744   2.809  1.00  0.00     0.021 A 
ATOM     29  Cl  UNL     1       9.710   3.212   0.613  1.00  0.00    -0.084 Cl
ATOM     30  C   UNL     1       8.935   5.408   3.850  1.00  0.00     0.002 A 
ENDBRANCH  23  24
ENDBRANCH  15  16
ENDBRANCH  14  15
ENDBRANCH  13  14
ENDBRANCH  11  13
ENDBRANCH   4   9
ENDBRANCH   1   3
BRANCH   1  31
ATOM     31  O   UNL     1      -1.005   3.834  -1.271  1.00  0.00    -0.458 OA
BRANCH  31  32
ATOM     32  C   UNL     1      -2.074   4.737  -0.928  1.00  0.00     0.275 C 
BRANCH  32  33
ATOM     33  C   UNL     1      -1.690   6.188  -1.223  1.00  0.00     0.275 C 
BRANCH  33  34
ATOM     34  O   UNL     1      -1.582   6.393  -2.644  1.00  0.00    -0.458 OA
BRANCH  34  35
ATOM     35  C   UNL     1      -0.331   6.607  -3.107  1.00  0.00     0.338 C 
ATOM     36  O   UNL     1       0.699   6.722  -2.466  1.00  0.00    -0.246 OA
BRANCH  35  37
ATOM     37  C   UNL     1      -0.343   6.569  -4.576  1.00  0.00     0.060 A 
ATOM     38  C   UNL     1      -0.371   5.319  -5.177  1.00  0.00     0.016 A 
ATOM     39  C   UNL     1      -0.154   7.707  -5.350  1.00  0.00     0.016 A 
ATOM     40  C   UNL     1      -0.090   5.171  -6.529  1.00  0.00     0.010 A 
ATOM     41  C   UNL     1       0.002   7.570  -6.737  1.00  0.00     0.010 A 
ATOM     42  C   UNL     1       0.079   6.297  -7.340  1.00  0.00    -0.014 A 
BRANCH  42  43
ATOM     43  C   UNL     1       0.368   6.136  -8.795  1.00  0.00     0.031 A 
ATOM     44  C   UNL     1       1.595   6.771  -9.397  1.00  0.00     0.074 A 
ATOM     45  C   UNL     1      -0.450   5.408  -9.584  1.00  0.00     0.049 A 
ATOM     46  N   UNL     1       1.920   6.922 -10.657  1.00  0.00    -0.248 NA
ATOM     47  C   UNL     1       2.583   7.324  -8.456  1.00  0.00     0.031 C 
ATOM     48  C   UNL     1      -1.640   4.680  -9.136  1.00  0.00     0.029 A 
ATOM     49  N   UNL     1      -0.404   5.155 -10.934  1.00  0.00    -0.354 N 
ATOM     50  C   UNL     1       3.110   7.640 -10.660  1.00  0.00     0.074 A 
ATOM     51  C   UNL     1       3.448   7.901  -9.277  1.00  0.00     0.031 C 
ATOM     52  C   UNL     1      -2.187   4.038 -10.178  1.00  0.00     0.029 A 
ATOM     53  C   UNL     1      -1.456   4.394 -11.387  1.00  0.00     0.049 A 
ATOM     54  H   UNL     1       0.313   5.488 -11.521  1.00  0.00     0.167 HD
ATOM     55  C   UNL     1       3.851   8.045 -11.720  1.00  0.00     0.037 A 
ATOM     56  C   UNL     1      -1.832   4.064 -12.637  1.00  0.00     0.037 A 
ATOM     57  C   UNL     1       3.537   7.735 -13.092  1.00  0.00     0.049 A 
ATOM     58  C   UNL     1      -1.029   4.574 -13.799  1.00  0.00     0.074 A 
ATOM     59  C   UNL     1       4.233   8.085 -14.236  1.00  0.00     0.029 A 
ATOM     60  N   UNL     1       2.440   6.992 -13.504  1.00  0.00    -0.354 N 
ATOM     61  N   UNL     1       0.064   5.297 -13.794  1.00  0.00    -0.248 NA
ATOM     62  C   UNL     1      -1.522   4.238 -15.142  1.00  0.00     0.031 C 
ATOM     63  C   UNL     1       3.531   7.595 -15.343  1.00  0.00     0.029 A 
ATOM     64  C   UNL     1       2.430   6.890 -14.886  1.00  0.00     0.049 A 
ATOM     65  H   UNL     1       1.768   6.596 -12.903  1.00  0.00     0.167 HD
ATOM     66  C   UNL     1       0.401   5.486 -15.128  1.00  0.00     0.074 A 
ATOM     67  C   UNL     1      -0.594   4.785 -15.913  1.00  0.00     0.031 C 
ATOM     68  C   UNL     1       1.438   6.181 -15.654  1.00  0.00     0.037 A 
BRANCH  55  69
ATOM     69  C   UNL     1       5.053   8.904 -11.444  1.00  0.00     0.057 A 
ATOM     70  C   UNL     1       6.214   8.401 -10.843  1.00  0.00     0.134 A 
ATOM     71  C   UNL     1       5.056  10.255 -11.820  1.00  0.00     0.134 A 
ATOM     72  F   UNL     1       6.275   7.121 -10.447  1.00  0.00    -0.206 F 
ATOM     73  C   UNL     1       7.322   9.216 -10.600  1.00  0.00     0.040 A 
ATOM     74  C   UNL     1       6.169  11.072 -11.609  1.00  0.00     0.040 A 
ATOM     75  F   UNL     1       3.982  10.801 -12.408  1.00  0.00    -0.206 F 
ATOM     76  C   UNL     1       7.304  10.554 -10.990  1.00  0.00     0.006 A 
ENDBRANCH  55  69
BRANCH  56  77
ATOM     77  C   UNL     1      -3.059   3.255 -12.857  1.00  0.00     0.057 A 
ATOM     78  C   UNL     1      -2.990   1.958 -13.378  1.00  0.00     0.134 A 
ATOM     79  C   UNL     1      -4.331   3.759 -12.554  1.00  0.00     0.134 A 
ATOM     80  F   UNL     1      -1.805   1.427 -13.712  1.00  0.00    -0.206 F 
ATOM     81  C   UNL     1      -4.140   1.198 -13.602  1.00  0.00     0.040 A 
ATOM     82  C   UNL     1      -5.486   2.998 -12.742  1.00  0.00     0.040 A 
ATOM     83  F   UNL     1      -4.468   4.995 -12.051  1.00  0.00    -0.206 F 
ATOM     84  C   UNL     1      -5.392   1.715 -13.275  1.00  0.00     0.006 A 
ENDBRANCH  56  77
BRANCH  68  85
ATOM     85  C   UNL     1       1.577   6.176 -17.148  1.00  0.00     0.057 A 
ATOM     86  C   UNL     1       0.702   6.889 -17.977  1.00  0.00     0.134 A 
ATOM     87  C   UNL     1       2.620   5.471 -17.762  1.00  0.00     0.134 A 
ATOM     88  F   UNL     1      -0.327   7.572 -17.453  1.00  0.00    -0.206 F 
ATOM     89  C   UNL     1       0.846   6.880 -19.366  1.00  0.00     0.040 A 
ATOM     90  C   UNL     1       2.791   5.478 -19.146  1.00  0.00     0.040 A 
ATOM     91  F   UNL     1       3.498   4.773 -17.024  1.00  0.00    -0.206 F 
ATOM     92  C   UNL     1       1.897   6.179 -19.953  1.00  0.00     0.006 A 
ENDBRANCH  68  85
ENDBRANCH  42  43
ENDBRANCH  35  37
ENDBRANCH  34  35
ENDBRANCH  33  34
ENDBRANCH  32  33
ENDBRANCH  31  32
ENDBRANCH   1  31
TORSDOF 17
