REMARK SMILES Cc1c(CC(=O)N[C@H](CO)C(=O)OCCOC(=O)c2ccc(-c3c4nc(c(-c5c(F)cccc5F)c5ccc([nH]5)c(-c5c(F)cccc5F)c5nc(c(-c6c(F)cccc6F)c6ccc3[nH]6)C=C5)C=C4)cc2)cc(-c2ccc(S(C)(=O)=O)cc2)n1-c1cccc(F)c1
REMARK SMILES IDX 13 1 11 2 12 3 8 4 7 5 5 6 6 7 4 9 3 10 1 11 2 12 85 13
REMARK SMILES IDX 73 14 74 15 86 16 87 17 92 18 88 19 90 20 89 21 91 22 75 23
REMARK SMILES IDX 76 24 84 25 77 26 83 27 78 28 79 29 80 30 81 31 82 32 9 33
REMARK SMILES IDX 10 34 14 36 15 37 16 38 17 39 18 40 19 41 20 42 72 43 21 44
REMARK SMILES IDX 71 45 22 46 23 47 24 48 65 49 25 50 70 51 64 52 66 53 26 54
REMARK SMILES IDX 69 55 63 56 62 57 27 59 53 60 36 61 52 62 37 63 40 64 51 65
REMARK SMILES IDX 67 66 38 67 39 68 50 70 68 71 41 72 28 73 29 74 34 75 30 76
REMARK SMILES IDX 31 77 33 78 35 79 32 80 54 81 55 82 60 83 56 84 57 85 59 86
REMARK SMILES IDX 61 87 58 88 42 89 43 90 48 91 44 92 45 93 47 94 49 95 46 96
REMARK H PARENT 7 8 10 35 66 58 40 69
REMARK Flexibility Score: inf
ROOT
ATOM      1  O   UNL     1      -1.475  -6.238  -0.530  1.00  0.00    -0.460 OA
ENDROOT
BRANCH   1   2
ATOM      2  C   UNL     1      -1.897  -5.410   0.462  1.00  0.00     0.331 C 
ATOM      3  O   UNL     1      -2.474  -5.795   1.476  1.00  0.00    -0.250 OA
BRANCH   2   4
ATOM      4  C   UNL     1      -1.568  -3.914   0.215  1.00  0.00     0.218 C 
BRANCH   4   5
ATOM      5  N   UNL     1      -2.744  -3.074   0.534  1.00  0.00    -0.341 N 
ATOM      6  C   UNL     1      -2.817  -1.732   0.787  1.00  0.00     0.225 C 
ATOM      7  O   UNL     1      -3.931  -1.251   1.015  1.00  0.00    -0.275 OA
ATOM      8  H   UNL     1      -3.603  -3.554   0.570  1.00  0.00     0.164 HD
BRANCH   6   9
ATOM      9  C   UNL     1      -1.573  -0.855   0.758  1.00  0.00     0.137 C 
BRANCH   9  10
ATOM     10  C   UNL     1      -0.606  -1.181   1.857  1.00  0.00    -0.017 A 
ATOM     11  C   UNL     1      -2.082  -0.709   3.930  1.00  0.00     0.065 C 
ATOM     12  C   UNL     1      -0.847  -1.179   3.225  1.00  0.00     0.024 A 
ATOM     13  N   UNL     1       0.304  -1.611   3.874  1.00  0.00    -0.313 N 
ATOM     14  C   UNL     1       0.761  -1.518   1.685  1.00  0.00     0.033 A 
ATOM     15  C   UNL     1       1.306  -1.808   2.922  1.00  0.00     0.053 A 
BRANCH  13  16
ATOM     16  C   UNL     1       0.447  -1.834   5.269  1.00  0.00     0.049 A 
ATOM     17  C   UNL     1       1.526  -1.262   5.958  1.00  0.00     0.027 A 
ATOM     18  C   UNL     1      -0.442  -2.690   5.925  1.00  0.00     0.065 A 
ATOM     19  C   UNL     1       1.718  -1.550   7.309  1.00  0.00     0.005 A 
ATOM     20  C   UNL     1      -0.225  -2.977   7.267  1.00  0.00     0.125 A 
ATOM     21  C   UNL     1       0.843  -2.417   7.963  1.00  0.00     0.039 A 
ATOM     22  F   UNL     1      -1.045  -3.827   7.899  1.00  0.00    -0.207 F 
ENDBRANCH  13  16
BRANCH  15  23
ATOM     23  C   UNL     1       2.648  -2.329   3.206  1.00  0.00    -0.001 A 
ATOM     24  C   UNL     1       2.817  -3.560   3.860  1.00  0.00     0.011 A 
ATOM     25  C   UNL     1       3.780  -1.595   2.827  1.00  0.00     0.011 A 
ATOM     26  C   UNL     1       4.092  -4.027   4.176  1.00  0.00     0.021 A 
ATOM     27  C   UNL     1       5.062  -2.059   3.136  1.00  0.00     0.021 A 
ATOM     28  C   UNL     1       5.207  -3.266   3.825  1.00  0.00     0.067 A 
BRANCH  28  29
ATOM     29  S   UNL     1       6.829  -3.894   4.186  1.00  0.00     0.175 S 
ATOM     30  C   UNL     1       6.946  -3.832   5.952  1.00  0.00     0.163 C 
ATOM     31  O   UNL     1       6.802  -5.309   3.808  1.00  0.00    -0.224 OA
ATOM     32  O   UNL     1       7.792  -2.980   3.643  1.00  0.00    -0.224 OA
ENDBRANCH  28  29
ENDBRANCH  15  23
ENDBRANCH   9  10
ENDBRANCH   6   9
ENDBRANCH   4   5
BRANCH   4  33
ATOM     33  C   UNL     1      -0.991  -3.587  -1.177  1.00  0.00     0.193 C 
BRANCH  33  34
ATOM     34  O   UNL     1      -1.936  -2.978  -2.063  1.00  0.00    -0.394 OA
ATOM     35  H   UNL     1      -2.671  -3.590  -2.223  1.00  0.00     0.210 HD
ENDBRANCH  33  34
ENDBRANCH   4  33
ENDBRANCH   2   4
ENDBRANCH   1   2
BRANCH   1  36
ATOM     36  C   UNL     1      -1.748  -7.664  -0.415  1.00  0.00     0.274 C 
BRANCH  36  37
ATOM     37  C   UNL     1      -0.560  -8.488  -0.991  1.00  0.00     0.275 C 
BRANCH  37  38
ATOM     38  O   UNL     1       0.268  -9.303  -0.075  1.00  0.00    -0.458 OA
BRANCH  38  39
ATOM     39  C   UNL     1       1.560  -8.896   0.153  1.00  0.00     0.338 C 
ATOM     40  O   UNL     1       1.930  -7.745  -0.048  1.00  0.00    -0.246 OA
BRANCH  39  41
ATOM     41  C   UNL     1       2.522  -9.955   0.744  1.00  0.00     0.060 A 
ATOM     42  C   UNL     1       3.117  -9.688   1.962  1.00  0.00     0.016 A 
ATOM     43  C   UNL     1       3.055 -11.100   0.101  1.00  0.00     0.016 A 
ATOM     44  C   UNL     1       4.125 -10.562   2.520  1.00  0.00     0.010 A 
ATOM     45  C   UNL     1       4.164 -11.953   0.658  1.00  0.00     0.010 A 
ATOM     46  C   UNL     1       4.765 -11.723   1.911  1.00  0.00    -0.014 A 
BRANCH  46  47
ATOM     47  C   UNL     1       6.188 -12.323   2.650  1.00  0.00     0.031 A 
ATOM     48  C   UNL     1       6.691 -11.091   3.315  1.00  0.00     0.074 A 
ATOM     49  C   UNL     1       7.155 -13.364   2.785  1.00  0.00     0.049 A 
ATOM     50  N   UNL     1       6.936 -10.056   2.562  1.00  0.00    -0.248 NA
ATOM     51  C   UNL     1       6.535 -10.785   4.738  1.00  0.00     0.031 C 
ATOM     52  C   UNL     1       7.260 -14.641   2.045  1.00  0.00     0.029 A 
ATOM     53  N   UNL     1       8.349 -13.532   3.629  1.00  0.00    -0.354 N 
ATOM     54  C   UNL     1       7.297  -9.040   3.401  1.00  0.00     0.074 A 
ATOM     55  C   UNL     1       6.802  -9.470   4.705  1.00  0.00     0.031 C 
ATOM     56  C   UNL     1       8.244 -15.466   2.533  1.00  0.00     0.029 A 
ATOM     57  C   UNL     1       8.997 -14.851   3.634  1.00  0.00     0.049 A 
ATOM     58  H   UNL     1       8.700 -12.789   4.171  1.00  0.00     0.167 HD
ATOM     59  C   UNL     1       8.482  -8.451   3.073  1.00  0.00     0.037 A 
ATOM     60  C   UNL     1      10.093 -15.391   4.352  1.00  0.00     0.037 A 
ATOM     61  C   UNL     1       9.554  -8.930   3.897  1.00  0.00     0.049 A 
ATOM     62  C   UNL     1      10.997 -14.271   4.625  1.00  0.00     0.074 A 
ATOM     63  C   UNL     1       9.637  -9.280   5.231  1.00  0.00     0.029 A 
ATOM     64  N   UNL     1      10.597  -9.552   3.256  1.00  0.00    -0.354 N 
ATOM     65  N   UNL     1      11.784 -13.824   3.697  1.00  0.00    -0.248 NA
ATOM     66  C   UNL     1      11.243 -13.748   5.963  1.00  0.00     0.031 C 
ATOM     67  C   UNL     1      10.365 -10.483   5.233  1.00  0.00     0.029 A 
ATOM     68  C   UNL     1      11.046 -10.593   4.029  1.00  0.00     0.049 A 
ATOM     69  H   UNL     1      10.965  -9.293   2.380  1.00  0.00     0.167 HD
ATOM     70  C   UNL     1      12.217 -12.643   4.197  1.00  0.00     0.074 A 
ATOM     71  C   UNL     1      12.099 -12.773   5.641  1.00  0.00     0.031 C 
ATOM     72  C   UNL     1      11.883 -11.589   3.419  1.00  0.00     0.037 A 
BRANCH  59  73
ATOM     73  C   UNL     1       8.617  -8.165   1.593  1.00  0.00     0.057 A 
ATOM     74  C   UNL     1       8.594  -6.848   1.142  1.00  0.00     0.134 A 
ATOM     75  C   UNL     1       8.620  -9.170   0.601  1.00  0.00     0.134 A 
ATOM     76  F   UNL     1       8.741  -5.833   2.003  1.00  0.00    -0.206 F 
ATOM     77  C   UNL     1       8.444  -6.542  -0.215  1.00  0.00     0.040 A 
ATOM     78  C   UNL     1       8.412  -8.882  -0.748  1.00  0.00     0.040 A 
ATOM     79  F   UNL     1       8.824 -10.459   0.919  1.00  0.00    -0.206 F 
ATOM     80  C   UNL     1       8.302  -7.560  -1.157  1.00  0.00     0.006 A 
ENDBRANCH  59  73
BRANCH  60  81
ATOM     81  C   UNL     1      10.931 -16.690   4.788  1.00  0.00     0.057 A 
ATOM     82  C   UNL     1      12.375 -16.669   4.922  1.00  0.00     0.134 A 
ATOM     83  C   UNL     1      10.365 -17.728   5.542  1.00  0.00     0.134 A 
ATOM     84  F   UNL     1      13.136 -15.803   4.240  1.00  0.00    -0.206 F 
ATOM     85  C   UNL     1      13.132 -17.479   5.806  1.00  0.00     0.040 A 
ATOM     86  C   UNL     1      11.129 -18.585   6.400  1.00  0.00     0.040 A 
ATOM     87  F   UNL     1       9.038 -17.904   5.549  1.00  0.00    -0.206 F 
ATOM     88  C   UNL     1      12.504 -18.435   6.571  1.00  0.00     0.006 A 
ENDBRANCH  60  81
BRANCH  72  89
ATOM     89  C   UNL     1      12.210 -11.687   1.942  1.00  0.00     0.057 A 
ATOM     90  C   UNL     1      11.889 -12.734   1.050  1.00  0.00     0.134 A 
ATOM     91  C   UNL     1      12.970 -10.642   1.401  1.00  0.00     0.134 A 
ATOM     92  F   UNL     1      11.086 -13.755   1.384  1.00  0.00    -0.206 F 
ATOM     93  C   UNL     1      12.366 -12.763  -0.268  1.00  0.00     0.040 A 
ATOM     94  C   UNL     1      13.404 -10.634   0.074  1.00  0.00     0.040 A 
ATOM     95  F   UNL     1      13.293  -9.585   2.162  1.00  0.00    -0.206 F 
ATOM     96  C   UNL     1      13.124 -11.709  -0.761  1.00  0.00     0.006 A 
ENDBRANCH  72  89
ENDBRANCH  46  47
ENDBRANCH  39  41
ENDBRANCH  38  39
ENDBRANCH  37  38
ENDBRANCH  36  37
ENDBRANCH   1  36
TORSDOF 19
