REMARK SMILES CC[NH2+][C@@]1(C(=O)OCCOC(=O)c2ccc(-c3c4nc(c(-c5c(F)cccc5F)c5ccc([nH]5)c(-c5c(F)cccc5F)c5nc(c(-c6c(F)cccc6F)c6ccc3[nH]6)C=C5)C=C4)cc2)CC[C@H](Oc2ccc3c(c2)OCO3)C1
REMARK SMILES IDX 8 1 7 2 5 3 6 4 4 5 67 6 80 7 68 8 69 9 3 10 2 13 1 14 70 15
REMARK SMILES IDX 71 16 72 17 76 18 73 19 75 20 74 21 77 22 79 23 78 24 9 25
REMARK SMILES IDX 10 26 11 27 12 28 13 29 14 30 66 31 15 32 65 33 16 34 17 35
REMARK SMILES IDX 18 36 59 37 19 38 64 39 58 40 60 41 20 42 63 43 57 44 56 45
REMARK SMILES IDX 21 47 47 48 30 49 46 50 31 51 34 52 45 53 61 54 32 55 33 56
REMARK SMILES IDX 44 58 62 59 35 60 22 61 23 62 28 63 24 64 25 65 27 66 29 67
REMARK SMILES IDX 26 68 48 69 49 70 54 71 50 72 51 73 53 74 55 75 52 76 36 77
REMARK SMILES IDX 37 78 42 79 38 80 39 81 41 82 43 83 40 84
REMARK H PARENT 3 11 3 12 60 46 34 57
REMARK Flexibility Score: inf
ROOT
ATOM      1  C   UNL     1      -3.001  -0.678  -4.393  1.00  0.00     0.274 C 
ENDROOT
BRANCH   1   2
ATOM      2  O   UNL     1      -1.563  -0.615  -4.431  1.00  0.00    -0.457 OA
BRANCH   2   3
ATOM      3  C   UNL     1      -0.948   0.087  -3.441  1.00  0.00     0.368 C 
ATOM      4  O   UNL     1      -1.567   0.652  -2.545  1.00  0.00    -0.245 OA
BRANCH   3   5
ATOM      5  C   UNL     1       0.615   0.162  -3.631  1.00  0.00     0.198 C 
ATOM      6  C   UNL     1       0.999   1.401  -4.442  1.00  0.00     0.085 C 
ATOM      7  C   UNL     1       1.186  -0.976  -4.508  1.00  0.00     0.126 C 
ATOM      8  C   UNL     1       0.750   0.998  -5.888  1.00  0.00     0.052 C 
ATOM      9  C   UNL     1       1.060  -0.504  -5.971  1.00  0.00     0.180 C 
BRANCH   5  10
ATOM     10  N   UNL     1       1.277   0.109  -2.297  1.00  0.00    -0.332 N 
ATOM     11  H   UNL     1       0.854  -0.652  -1.765  1.00  0.00     0.347 HD
ATOM     12  H   UNL     1       2.271  -0.025  -2.479  1.00  0.00     0.347 HD
BRANCH  10  13
ATOM     13  C   UNL     1       1.171   1.333  -1.499  1.00  0.00     0.257 C 
ATOM     14  C   UNL     1       1.550   1.023  -0.059  1.00  0.00     0.071 C 
ENDBRANCH  10  13
ENDBRANCH   5  10
BRANCH   9  15
ATOM     15  O   UNL     1       0.019  -1.275  -6.565  1.00  0.00    -0.490 OA
BRANCH  15  16
ATOM     16  C   UNL     1      -0.397  -1.018  -7.835  1.00  0.00     0.123 A 
ATOM     17  C   UNL     1       0.283  -0.241  -8.787  1.00  0.00     0.050 A 
ATOM     18  C   UNL     1      -1.623  -1.612  -8.154  1.00  0.00     0.097 A 
ATOM     19  C   UNL     1      -0.276  -0.024 -10.053  1.00  0.00     0.054 A 
ATOM     20  C   UNL     1      -2.142  -1.395  -9.409  1.00  0.00     0.169 A 
ATOM     21  C   UNL     1      -1.488  -0.618 -10.334  1.00  0.00     0.166 A 
ATOM     22  O   UNL     1      -3.312  -1.897  -9.883  1.00  0.00    -0.453 OA
ATOM     23  O   UNL     1      -2.166  -0.535 -11.509  1.00  0.00    -0.454 OA
ATOM     24  C   UNL     1      -3.261  -1.440 -11.250  1.00  0.00     0.468 C 
ENDBRANCH  15  16
ENDBRANCH   9  15
ENDBRANCH   3   5
ENDBRANCH   2   3
ENDBRANCH   1   2
BRANCH   1  25
ATOM     25  C   UNL     1      -3.490  -2.052  -3.934  1.00  0.00     0.275 C 
BRANCH  25  26
ATOM     26  O   UNL     1      -3.025  -2.350  -2.604  1.00  0.00    -0.458 OA
BRANCH  26  27
ATOM     27  C   UNL     1      -1.922  -3.131  -2.549  1.00  0.00     0.338 C 
ATOM     28  O   UNL     1      -1.358  -3.685  -3.484  1.00  0.00    -0.246 OA
BRANCH  27  29
ATOM     29  C   UNL     1      -1.368  -3.117  -1.187  1.00  0.00     0.060 A 
ATOM     30  C   UNL     1      -0.033  -2.733  -1.045  1.00  0.00     0.016 A 
ATOM     31  C   UNL     1      -2.110  -3.519  -0.074  1.00  0.00     0.016 A 
ATOM     32  C   UNL     1       0.565  -2.723   0.210  1.00  0.00     0.010 A 
ATOM     33  C   UNL     1      -1.500  -3.537   1.187  1.00  0.00     0.010 A 
ATOM     34  C   UNL     1      -0.159  -3.140   1.333  1.00  0.00    -0.014 A 
BRANCH  34  35
ATOM     35  C   UNL     1       0.538  -3.235   2.636  1.00  0.00     0.031 A 
ATOM     36  C   UNL     1       1.206  -4.522   3.018  1.00  0.00     0.074 A 
ATOM     37  C   UNL     1       0.637  -2.158   3.434  1.00  0.00     0.049 A 
ATOM     38  N   UNL     1       1.871  -4.820   4.105  1.00  0.00    -0.248 NA
ATOM     39  C   UNL     1       1.124  -5.617   2.039  1.00  0.00     0.031 C 
ATOM     40  C   UNL     1       0.091  -0.835   3.138  1.00  0.00     0.029 A 
ATOM     41  N   UNL     1       1.245  -2.006   4.655  1.00  0.00    -0.354 N 
ATOM     42  C   UNL     1       2.294  -6.132   3.939  1.00  0.00     0.074 A 
ATOM     43  C   UNL     1       1.794  -6.580   2.656  1.00  0.00     0.031 C 
ATOM     44  C   UNL     1       0.394  -0.002   4.149  1.00  0.00     0.029 A 
ATOM     45  C   UNL     1       1.117  -0.744   5.180  1.00  0.00     0.049 A 
ATOM     46  H   UNL     1       1.727  -2.733   5.112  1.00  0.00     0.167 HD
ATOM     47  C   UNL     1       3.032  -6.894   4.781  1.00  0.00     0.037 A 
ATOM     48  C   UNL     1       1.517  -0.254   6.369  1.00  0.00     0.037 A 
ATOM     49  C   UNL     1       3.501  -6.459   6.070  1.00  0.00     0.049 A 
ATOM     50  C   UNL     1       2.239  -1.158   7.334  1.00  0.00     0.074 A 
ATOM     51  C   UNL     1       4.213  -7.175   7.016  1.00  0.00     0.029 A 
ATOM     52  N   UNL     1       3.295  -5.194   6.598  1.00  0.00    -0.354 N 
ATOM     53  N   UNL     1       2.622  -2.402   7.176  1.00  0.00    -0.248 NA
ATOM     54  C   UNL     1       2.574  -0.591   8.649  1.00  0.00     0.031 C 
ATOM     55  C   UNL     1       4.404  -6.355   8.134  1.00  0.00     0.029 A 
ATOM     56  C   UNL     1       3.850  -5.114   7.865  1.00  0.00     0.049 A 
ATOM     57  H   UNL     1       2.825  -4.460   6.140  1.00  0.00     0.167 HD
ATOM     58  C   UNL     1       3.263  -2.756   8.357  1.00  0.00     0.074 A 
ATOM     59  C   UNL     1       3.232  -1.591   9.216  1.00  0.00     0.031 C 
ATOM     60  C   UNL     1       3.823  -3.942   8.702  1.00  0.00     0.037 A 
BRANCH  47  61
ATOM     61  C   UNL     1       3.338  -8.293   4.341  1.00  0.00     0.057 A 
ATOM     62  C   UNL     1       4.281  -8.562   3.342  1.00  0.00     0.134 A 
ATOM     63  C   UNL     1       2.689  -9.385   4.932  1.00  0.00     0.134 A 
ATOM     64  F   UNL     1       4.924  -7.559   2.726  1.00  0.00    -0.206 F 
ATOM     65  C   UNL     1       4.553  -9.868   2.930  1.00  0.00     0.040 A 
ATOM     66  C   UNL     1       2.969 -10.695   4.544  1.00  0.00     0.040 A 
ATOM     67  F   UNL     1       1.776  -9.194   5.896  1.00  0.00    -0.206 F 
ATOM     68  C   UNL     1       3.899 -10.939   3.536  1.00  0.00     0.006 A 
ENDBRANCH  47  61
BRANCH  48  69
ATOM     69  C   UNL     1       1.216   1.152   6.744  1.00  0.00     0.057 A 
ATOM     70  C   UNL     1       2.237   2.093   6.917  1.00  0.00     0.134 A 
ATOM     71  C   UNL     1      -0.096   1.572   6.994  1.00  0.00     0.134 A 
ATOM     72  F   UNL     1       3.517   1.745   6.720  1.00  0.00    -0.206 F 
ATOM     73  C   UNL     1       1.967   3.394   7.348  1.00  0.00     0.040 A 
ATOM     74  C   UNL     1      -0.383   2.876   7.399  1.00  0.00     0.040 A 
ATOM     75  F   UNL     1      -1.120   0.717   6.854  1.00  0.00    -0.206 F 
ATOM     76  C   UNL     1       0.652   3.789   7.587  1.00  0.00     0.006 A 
ENDBRANCH  48  69
BRANCH  60  77
ATOM     77  C   UNL     1       4.480  -4.026  10.049  1.00  0.00     0.057 A 
ATOM     78  C   UNL     1       3.736  -4.070  11.235  1.00  0.00     0.134 A 
ATOM     79  C   UNL     1       5.875  -4.102  10.157  1.00  0.00     0.134 A 
ATOM     80  F   UNL     1       2.398  -3.988  11.201  1.00  0.00    -0.206 F 
ATOM     81  C   UNL     1       4.357  -4.165  12.482  1.00  0.00     0.040 A 
ATOM     82  C   UNL     1       6.506  -4.222  11.396  1.00  0.00     0.040 A 
ATOM     83  F   UNL     1       6.646  -4.073   9.059  1.00  0.00    -0.206 F 
ATOM     84  C   UNL     1       5.746  -4.248  12.563  1.00  0.00     0.006 A 
ENDBRANCH  60  77
ENDBRANCH  34  35
ENDBRANCH  27  29
ENDBRANCH  26  27
ENDBRANCH  25  26
ENDBRANCH   1  25
TORSDOF 15
