REMARK SMILES O=C(OCCOC(=O)c1ccc(-c2c3nc(c(-c4c(F)cccc4F)c4ccc([nH]4)c(-c4c(F)cccc4F)c4nc(c(-c5c(F)cccc5F)c5ccc2[nH]5)C=C4)C=C3)cc1)c1ccc(NC(=O)[C@@H]2CC=CC[C@@H]2C(=O)Nc2ccc(Br)cc2)cc1
REMARK SMILES IDX 4 1 3 2 2 3 1 4 63 5 64 6 87 7 65 8 86 9 66 10 67 11 68 12
REMARK SMILES IDX 69 14 70 15 71 16 75 17 72 18 74 19 73 20 76 21 77 22 78 23
REMARK SMILES IDX 79 25 80 26 85 27 81 28 84 29 82 30 83 31 5 32 6 33 7 34
REMARK SMILES IDX 8 35 9 36 10 37 62 38 11 39 61 40 12 41 13 42 14 43 55 44
REMARK SMILES IDX 15 45 60 46 54 47 56 48 16 49 59 50 53 51 52 52 17 54 43 55
REMARK SMILES IDX 26 56 42 57 27 58 30 59 41 60 57 61 28 62 29 63 40 65 58 66
REMARK SMILES IDX 31 67 18 68 19 69 24 70 20 71 21 72 23 73 25 74 22 75 44 76
REMARK SMILES IDX 45 77 50 78 46 79 47 80 49 81 51 82 48 83 32 84 33 85 38 86
REMARK SMILES IDX 34 87 35 88 37 89 39 90 36 91
REMARK H PARENT 67 13 78 24 56 53 30 64
REMARK Flexibility Score: inf
ROOT
ATOM      1  C   UNL     1      12.363  -4.174  -3.281  1.00  0.00     0.275 C 
ENDROOT
BRANCH   1   2
ATOM      2  O   UNL     1      11.976  -5.517  -2.921  1.00  0.00    -0.458 OA
BRANCH   2   3
ATOM      3  C   UNL     1      10.776  -6.022  -2.548  1.00  0.00     0.338 C 
ATOM      4  O   UNL     1      10.618  -7.243  -2.588  1.00  0.00    -0.246 OA
BRANCH   3   5
ATOM      5  C   UNL     1       9.591  -5.195  -2.143  1.00  0.00     0.060 A 
ATOM      6  C   UNL     1       9.625  -3.940  -1.534  1.00  0.00     0.018 A 
ATOM      7  C   UNL     1       8.323  -5.770  -2.316  1.00  0.00     0.018 A 
ATOM      8  C   UNL     1       8.438  -3.192  -1.318  1.00  0.00     0.027 A 
ATOM      9  C   UNL     1       7.153  -5.017  -2.124  1.00  0.00     0.027 A 
ATOM     10  C   UNL     1       7.219  -3.659  -1.790  1.00  0.00     0.041 A 
BRANCH  10  11
ATOM     11  N   UNL     1       6.079  -2.893  -2.130  1.00  0.00    -0.326 N 
ATOM     12  C   UNL     1       5.648  -1.667  -2.529  1.00  0.00     0.228 C 
ATOM     13  H   UNL     1       5.290  -3.475  -2.044  1.00  0.00     0.169 HD
ATOM     14  O   UNL     1       4.412  -1.681  -2.721  1.00  0.00    -0.274 OA
BRANCH  12  15
ATOM     15  C   UNL     1       6.341  -0.324  -2.917  1.00  0.00     0.095 C 
ATOM     16  C   UNL     1       6.003   0.089  -4.399  1.00  0.00     0.041 C 
ATOM     17  C   UNL     1       7.735   0.145  -2.447  1.00  0.00     0.095 C 
ATOM     18  C   UNL     1       6.989   1.009  -5.076  1.00  0.00    -0.030 C 
ATOM     19  C   UNL     1       7.939   1.621  -2.887  1.00  0.00     0.041 C 
ATOM     20  C   UNL     1       7.878   1.733  -4.383  1.00  0.00    -0.030 C 
BRANCH  17  21
ATOM     21  C   UNL     1       8.977  -0.596  -2.970  1.00  0.00     0.228 C 
ATOM     22  O   UNL     1      10.120  -0.273  -2.659  1.00  0.00    -0.274 OA
ATOM     23  N   UNL     1       8.688  -1.728  -3.676  1.00  0.00    -0.326 N 
ATOM     24  H   UNL     1       8.508  -2.544  -3.155  1.00  0.00     0.169 HD
BRANCH  23  25
ATOM     25  C   UNL     1       8.626  -1.837  -5.057  1.00  0.00     0.041 A 
ATOM     26  C   UNL     1       7.537  -2.584  -5.517  1.00  0.00     0.027 A 
ATOM     27  C   UNL     1       9.435  -1.128  -5.927  1.00  0.00     0.027 A 
ATOM     28  C   UNL     1       7.123  -2.442  -6.827  1.00  0.00     0.018 A 
ATOM     29  C   UNL     1       9.103  -1.121  -7.281  1.00  0.00     0.018 A 
ATOM     30  C   UNL     1       7.927  -1.741  -7.716  1.00  0.00     0.018 A 
ATOM     31  Br  UNL     1       7.421  -1.676  -9.531  1.00  0.00    -0.051 Br
ENDBRANCH  23  25
ENDBRANCH  17  21
ENDBRANCH  12  15
ENDBRANCH  10  11
ENDBRANCH   3   5
ENDBRANCH   2   3
ENDBRANCH   1   2
BRANCH   1  32
ATOM     32  C   UNL     1      11.957  -3.731  -4.685  1.00  0.00     0.275 C 
BRANCH  32  33
ATOM     33  O   UNL     1      10.758  -4.368  -5.134  1.00  0.00    -0.458 OA
BRANCH  33  34
ATOM     34  C   UNL     1      10.928  -5.407  -5.990  1.00  0.00     0.338 C 
ATOM     35  O   UNL     1      11.974  -5.855  -6.433  1.00  0.00    -0.246 OA
BRANCH  34  36
ATOM     36  C   UNL     1       9.588  -5.901  -6.332  1.00  0.00     0.060 A 
ATOM     37  C   UNL     1       9.053  -7.038  -5.734  1.00  0.00     0.016 A 
ATOM     38  C   UNL     1       8.818  -5.161  -7.213  1.00  0.00     0.016 A 
ATOM     39  C   UNL     1       7.708  -7.387  -5.967  1.00  0.00     0.010 A 
ATOM     40  C   UNL     1       7.465  -5.478  -7.374  1.00  0.00     0.010 A 
ATOM     41  C   UNL     1       6.860  -6.580  -6.747  1.00  0.00    -0.014 A 
BRANCH  41  42
ATOM     42  C   UNL     1       5.379  -6.847  -6.920  1.00  0.00     0.031 A 
ATOM     43  C   UNL     1       4.711  -6.745  -8.284  1.00  0.00     0.074 A 
ATOM     44  C   UNL     1       4.561  -7.076  -5.864  1.00  0.00     0.049 A 
ATOM     45  N   UNL     1       3.437  -6.835  -8.595  1.00  0.00    -0.248 NA
ATOM     46  C   UNL     1       5.568  -6.432  -9.437  1.00  0.00     0.031 C 
ATOM     47  C   UNL     1       4.961  -7.100  -4.459  1.00  0.00     0.029 A 
ATOM     48  N   UNL     1       3.202  -7.324  -5.806  1.00  0.00    -0.354 N 
ATOM     49  C   UNL     1       3.353  -6.538  -9.950  1.00  0.00     0.074 A 
ATOM     50  C   UNL     1       4.676  -6.138 -10.369  1.00  0.00     0.031 C 
ATOM     51  C   UNL     1       3.897  -7.378  -3.687  1.00  0.00     0.029 A 
ATOM     52  C   UNL     1       2.720  -7.544  -4.533  1.00  0.00     0.049 A 
ATOM     53  H   UNL     1       2.628  -7.342  -6.605  1.00  0.00     0.167 HD
ATOM     54  C   UNL     1       2.309  -6.661 -10.807  1.00  0.00     0.037 A 
ATOM     55  C   UNL     1       1.487  -7.864  -4.085  1.00  0.00     0.037 A 
ATOM     56  C   UNL     1       1.014  -7.175 -10.457  1.00  0.00     0.049 A 
ATOM     57  C   UNL     1       0.348  -8.062  -5.055  1.00  0.00     0.074 A 
ATOM     58  C   UNL     1      -0.043  -7.484 -11.297  1.00  0.00     0.029 A 
ATOM     59  N   UNL     1       0.599  -7.466  -9.170  1.00  0.00    -0.354 N 
ATOM     60  N   UNL     1       0.340  -7.938  -6.358  1.00  0.00    -0.248 NA
ATOM     61  C   UNL     1      -0.952  -8.467  -4.490  1.00  0.00     0.031 C 
ATOM     62  C   UNL     1      -1.114  -7.923 -10.515  1.00  0.00     0.029 A 
ATOM     63  C   UNL     1      -0.706  -7.931  -9.192  1.00  0.00     0.049 A 
ATOM     64  H   UNL     1       1.148  -7.360  -8.360  1.00  0.00     0.167 HD
ATOM     65  C   UNL     1      -0.942  -8.294  -6.768  1.00  0.00     0.074 A 
ATOM     66  C   UNL     1      -1.685  -8.647  -5.581  1.00  0.00     0.031 C 
ATOM     67  C   UNL     1      -1.449  -8.323  -8.024  1.00  0.00     0.037 A 
BRANCH  54  68
ATOM     68  C   UNL     1       2.550  -6.300 -12.247  1.00  0.00     0.057 A 
ATOM     69  C   UNL     1       3.418  -7.045 -13.058  1.00  0.00     0.134 A 
ATOM     70  C   UNL     1       1.883  -5.220 -12.839  1.00  0.00     0.134 A 
ATOM     71  F   UNL     1       4.087  -8.095 -12.554  1.00  0.00    -0.206 F 
ATOM     72  C   UNL     1       3.660  -6.696 -14.386  1.00  0.00     0.040 A 
ATOM     73  C   UNL     1       2.085  -4.886 -14.180  1.00  0.00     0.040 A 
ATOM     74  F   UNL     1       1.018  -4.479 -12.131  1.00  0.00    -0.206 F 
ATOM     75  C   UNL     1       2.987  -5.616 -14.952  1.00  0.00     0.006 A 
ENDBRANCH  54  68
BRANCH  55  76
ATOM     76  C   UNL     1       1.243  -8.091  -2.633  1.00  0.00     0.057 A 
ATOM     77  C   UNL     1       0.965  -9.376  -2.144  1.00  0.00     0.134 A 
ATOM     78  C   UNL     1       1.203  -7.034  -1.718  1.00  0.00     0.134 A 
ATOM     79  F   UNL     1       0.964 -10.428  -2.977  1.00  0.00    -0.206 F 
ATOM     80  C   UNL     1       0.614  -9.595  -0.811  1.00  0.00     0.040 A 
ATOM     81  C   UNL     1       0.878  -7.242  -0.374  1.00  0.00     0.040 A 
ATOM     82  F   UNL     1       1.471  -5.783  -2.116  1.00  0.00    -0.206 F 
ATOM     83  C   UNL     1       0.568  -8.524   0.079  1.00  0.00     0.006 A 
ENDBRANCH  55  76
BRANCH  67  84
ATOM     84  C   UNL     1      -2.859  -8.805  -8.216  1.00  0.00     0.057 A 
ATOM     85  C   UNL     1      -3.966  -8.043  -7.825  1.00  0.00     0.134 A 
ATOM     86  C   UNL     1      -3.112 -10.014  -8.880  1.00  0.00     0.134 A 
ATOM     87  F   UNL     1      -3.797  -6.881  -7.175  1.00  0.00    -0.206 F 
ATOM     88  C   UNL     1      -5.272  -8.467  -8.079  1.00  0.00     0.040 A 
ATOM     89  C   UNL     1      -4.412 -10.435  -9.164  1.00  0.00     0.040 A 
ATOM     90  F   UNL     1      -2.098 -10.791  -9.290  1.00  0.00    -0.206 F 
ATOM     91  C   UNL     1      -5.498  -9.661  -8.762  1.00  0.00     0.006 A 
ENDBRANCH  67  84
ENDBRANCH  41  42
ENDBRANCH  34  36
ENDBRANCH  33  34
ENDBRANCH  32  33
ENDBRANCH   1  32
TORSDOF 15
