REMARK SMILES O=C(OCCOC(=O)c1c(S(=O)(=O)N2CCO[C@@H](CCO)C2)sc2c1CC[NH2+]C2)c1ccc(-c2c3nc(c(-c4c(F)cccc4F)c4ccc([nH]4)c(-c4c(F)cccc4F)c4nc(c(-c5c(F)cccc5F)c5ccc2[nH]5)C=C4)C=C3)cc1
REMARK SMILES IDX 6 1 5 2 4 3 3 4 2 5 1 6 30 7 31 8 83 9 32 10 82 11 33 12
REMARK SMILES IDX 34 13 35 14 76 15 36 16 81 17 75 18 77 19 37 20 80 21 74 22
REMARK SMILES IDX 73 23 38 25 64 26 47 27 63 28 48 29 51 30 62 31 78 32 49 33
REMARK SMILES IDX 50 34 61 36 79 37 52 38 39 39 40 40 45 41 41 42 42 43 44 44
REMARK SMILES IDX 46 45 43 46 65 47 66 48 71 49 67 50 68 51 70 52 72 53 69 54
REMARK SMILES IDX 53 55 54 56 59 57 55 58 56 59 58 60 60 61 57 62 7 63 8 64
REMARK SMILES IDX 9 65 10 66 25 67 23 68 24 69 26 70 29 71 27 72 28 73 11 76
REMARK SMILES IDX 12 77 13 78 14 79 15 80 22 81 16 82 18 83 17 84 19 85 20 86
REMARK SMILES IDX 21 87
REMARK H PARENT 77 24 51 35 28 74 28 75 21 88
REMARK Flexibility Score: inf
ROOT
ATOM      1  O   UNL     1       3.793  -1.571   0.451  1.00  0.00    -0.458 OA
ENDROOT
BRANCH   1   2
ATOM      2  C   UNL     1       4.195  -0.727   1.543  1.00  0.00     0.275 C 
BRANCH   2   3
ATOM      3  C   UNL     1       4.699   0.616   1.000  1.00  0.00     0.275 C 
BRANCH   3   4
ATOM      4  O   UNL     1       3.730   1.525   0.444  1.00  0.00    -0.458 OA
BRANCH   4   5
ATOM      5  C   UNL     1       2.598   1.018  -0.075  1.00  0.00     0.338 C 
ATOM      6  O   UNL     1       1.577   0.798   0.556  1.00  0.00    -0.246 OA
BRANCH   5   7
ATOM      7  C   UNL     1       2.648   0.970  -1.549  1.00  0.00     0.060 A 
ATOM      8  C   UNL     1       3.779   0.571  -2.270  1.00  0.00     0.016 A 
ATOM      9  C   UNL     1       1.460   1.259  -2.216  1.00  0.00     0.016 A 
ATOM     10  C   UNL     1       3.730   0.519  -3.662  1.00  0.00     0.010 A 
ATOM     11  C   UNL     1       1.392   1.119  -3.591  1.00  0.00     0.010 A 
ATOM     12  C   UNL     1       2.537   0.816  -4.333  1.00  0.00    -0.014 A 
BRANCH  12  13
ATOM     13  C   UNL     1       2.477   0.718  -5.800  1.00  0.00     0.031 A 
ATOM     14  C   UNL     1       3.037  -0.528  -6.425  1.00  0.00     0.074 A 
ATOM     15  C   UNL     1       1.766   1.577  -6.563  1.00  0.00     0.049 A 
ATOM     16  N   UNL     1       3.911  -0.670  -7.370  1.00  0.00    -0.248 NA
ATOM     17  C   UNL     1       2.572  -1.806  -5.884  1.00  0.00     0.031 C 
ATOM     18  C   UNL     1       0.923   2.708  -6.152  1.00  0.00     0.029 A 
ATOM     19  N   UNL     1       1.574   1.546  -7.911  1.00  0.00    -0.354 N 
ATOM     20  C   UNL     1       3.987  -2.042  -7.644  1.00  0.00     0.074 A 
ATOM     21  C   UNL     1       3.194  -2.703  -6.646  1.00  0.00     0.031 C 
ATOM     22  C   UNL     1       0.143   3.095  -7.184  1.00  0.00     0.029 A 
ATOM     23  C   UNL     1       0.562   2.377  -8.370  1.00  0.00     0.049 A 
ATOM     24  H   UNL     1       2.110   0.979  -8.511  1.00  0.00     0.167 HD
ATOM     25  C   UNL     1       4.586  -2.538  -8.763  1.00  0.00     0.037 A 
ATOM     26  C   UNL     1       0.098   2.478  -9.638  1.00  0.00     0.037 A 
ATOM     27  C   UNL     1       5.509  -1.591  -9.322  1.00  0.00     0.049 A 
ATOM     28  C   UNL     1       1.141   1.928 -10.534  1.00  0.00     0.074 A 
ATOM     29  C   UNL     1       6.644  -0.966  -8.841  1.00  0.00     0.029 A 
ATOM     30  N   UNL     1       5.112  -0.843 -10.401  1.00  0.00    -0.354 N 
ATOM     31  N   UNL     1       2.305   2.484 -10.717  1.00  0.00    -0.248 NA
ATOM     32  C   UNL     1       1.057   0.518 -10.878  1.00  0.00     0.031 C 
ATOM     33  C   UNL     1       6.518   0.384  -9.283  1.00  0.00     0.029 A 
ATOM     34  C   UNL     1       5.369   0.464 -10.072  1.00  0.00     0.049 A 
ATOM     35  H   UNL     1       4.721  -1.176 -11.241  1.00  0.00     0.167 HD
ATOM     36  C   UNL     1       3.196   1.425 -10.786  1.00  0.00     0.074 A 
ATOM     37  C   UNL     1       2.360   0.238 -10.966  1.00  0.00     0.031 C 
ATOM     38  C   UNL     1       4.504   1.567 -10.419  1.00  0.00     0.037 A 
BRANCH  25  39
ATOM     39  C   UNL     1       4.127  -3.766  -9.510  1.00  0.00     0.057 A 
ATOM     40  C   UNL     1       4.914  -4.290 -10.552  1.00  0.00     0.134 A 
ATOM     41  C   UNL     1       2.814  -4.272  -9.440  1.00  0.00     0.134 A 
ATOM     42  F   UNL     1       6.179  -3.881 -10.733  1.00  0.00    -0.206 F 
ATOM     43  C   UNL     1       4.409  -5.196 -11.495  1.00  0.00     0.040 A 
ATOM     44  C   UNL     1       2.312  -5.208 -10.350  1.00  0.00     0.040 A 
ATOM     45  F   UNL     1       1.924  -3.817  -8.548  1.00  0.00    -0.206 F 
ATOM     46  C   UNL     1       3.099  -5.651 -11.401  1.00  0.00     0.006 A 
ENDBRANCH  25  39
BRANCH  26  47
ATOM     47  C   UNL     1      -1.271   2.785 -10.100  1.00  0.00     0.057 A 
ATOM     48  C   UNL     1      -1.520   3.220 -11.407  1.00  0.00     0.134 A 
ATOM     49  C   UNL     1      -2.395   2.393  -9.351  1.00  0.00     0.134 A 
ATOM     50  F   UNL     1      -0.506   3.580 -12.208  1.00  0.00    -0.206 F 
ATOM     51  C   UNL     1      -2.811   3.240 -11.951  1.00  0.00     0.040 A 
ATOM     52  C   UNL     1      -3.689   2.411  -9.880  1.00  0.00     0.040 A 
ATOM     53  F   UNL     1      -2.262   1.897  -8.112  1.00  0.00    -0.206 F 
ATOM     54  C   UNL     1      -3.899   2.822 -11.191  1.00  0.00     0.006 A 
ENDBRANCH  26  47
BRANCH  38  55
ATOM     55  C   UNL     1       5.014   2.950 -10.108  1.00  0.00     0.057 A 
ATOM     56  C   UNL     1       4.521   3.759  -9.071  1.00  0.00     0.134 A 
ATOM     57  C   UNL     1       6.159   3.412 -10.766  1.00  0.00     0.134 A 
ATOM     58  F   UNL     1       3.499   3.364  -8.307  1.00  0.00    -0.206 F 
ATOM     59  C   UNL     1       5.110   4.983  -8.736  1.00  0.00     0.040 A 
ATOM     60  C   UNL     1       6.778   4.616 -10.418  1.00  0.00     0.040 A 
ATOM     61  F   UNL     1       6.731   2.670 -11.727  1.00  0.00    -0.206 F 
ATOM     62  C   UNL     1       6.248   5.412  -9.407  1.00  0.00     0.006 A 
ENDBRANCH  38  55
ENDBRANCH  12  13
ENDBRANCH   5   7
ENDBRANCH   4   5
ENDBRANCH   3   4
ENDBRANCH   2   3
ENDBRANCH   1   2
BRANCH   1  63
ATOM     63  C   UNL     1       2.557  -2.149   0.480  1.00  0.00     0.340 C 
ATOM     64  O   UNL     1       1.738  -2.072   1.387  1.00  0.00    -0.246 OA
BRANCH  63  65
ATOM     65  C   UNL     1       2.320  -2.821  -0.782  1.00  0.00     0.095 A 
ATOM     66  C   UNL     1       3.197  -3.808  -1.220  1.00  0.00     0.150 A 
ATOM     67  C   UNL     1       1.220  -2.707  -1.710  1.00  0.00    -0.007 A 
ATOM     68  S   UNL     1       3.095  -3.914  -2.916  1.00  0.00    -0.120 S 
ATOM     69  C   UNL     1       1.454  -3.483  -2.827  1.00  0.00     0.064 A 
ATOM     70  C   UNL     1      -0.052  -1.921  -1.619  1.00  0.00     0.099 C 
ATOM     71  C   UNL     1       0.433  -3.840  -3.853  1.00  0.00     0.308 C 
ATOM     72  C   UNL     1      -1.056  -2.252  -2.764  1.00  0.00     0.265 C 
ATOM     73  N   UNL     1      -0.501  -2.726  -4.048  1.00  0.00    -0.342 N 
ATOM     74  H   UNL     1      -0.009  -1.956  -4.501  1.00  0.00     0.346 HD
ATOM     75  H   UNL     1      -1.274  -3.054  -4.628  1.00  0.00     0.346 HD
BRANCH  66  76
ATOM     76  S   UNL     1       4.375  -4.825  -0.369  1.00  0.00     0.253 S 
ATOM     77  O   UNL     1       5.668  -4.278  -0.714  1.00  0.00    -0.206 OA
ATOM     78  O   UNL     1       3.897  -4.806   0.999  1.00  0.00    -0.206 OA
BRANCH  76  79
ATOM     79  N   UNL     1       4.293  -6.434  -0.888  1.00  0.00    -0.192 NA
ATOM     80  C   UNL     1       5.022  -6.895  -2.092  1.00  0.00     0.131 C 
ATOM     81  C   UNL     1       3.053  -7.220  -0.650  1.00  0.00     0.134 C 
ATOM     82  C   UNL     1       4.105  -7.139  -3.304  1.00  0.00     0.177 C 
ATOM     83  C   UNL     1       2.169  -7.152  -1.902  1.00  0.00     0.135 C 
ATOM     84  O   UNL     1       2.857  -7.787  -2.998  1.00  0.00    -0.375 OA
BRANCH  83  85
ATOM     85  C   UNL     1       0.770  -7.753  -1.758  1.00  0.00     0.061 C 
BRANCH  85  86
ATOM     86  C   UNL     1       0.028  -7.274  -0.515  1.00  0.00     0.159 C 
BRANCH  86  87
ATOM     87  O   UNL     1       0.194  -5.870  -0.371  1.00  0.00    -0.396 OA
ATOM     88  H   UNL     1       1.137  -5.663  -0.281  1.00  0.00     0.210 HD
ENDBRANCH  86  87
ENDBRANCH  85  86
ENDBRANCH  83  85
ENDBRANCH  76  79
ENDBRANCH  66  76
ENDBRANCH  63  65
ENDBRANCH   1  63
TORSDOF 16
