REMARK SMILES Cc1ccc(N2C(=O)C[C@H](Sc3ccccc3C(=O)OCCOC(=O)c3ccc(-c4c5nc(c(-c6c(F)cccc6F)c6ccc([nH]6)c(-c6c(F)cccc6F)c6nc(c(-c7c(F)cccc7F)c7ccc4[nH]7)C=C6)C=C5)cc3)C2=O)cc1
REMARK SMILES IDX 21 1 20 2 18 3 19 4 17 5 12 6 13 7 14 8 16 9 15 10 11 11
REMARK SMILES IDX 10 12 6 13 7 14 80 15 8 16 9 17 81 18 5 19 1 20 2 21 3 22
REMARK SMILES IDX 83 23 4 24 82 25 22 26 23 27 24 28 25 29 26 30 27 31 79 32
REMARK SMILES IDX 28 33 78 34 29 35 30 36 31 37 72 38 32 39 77 40 71 41 73 42
REMARK SMILES IDX 33 43 76 44 70 45 69 46 34 48 60 49 43 50 59 51 44 52 47 53
REMARK SMILES IDX 58 54 74 55 45 56 46 57 57 59 75 60 48 61 35 62 36 63 41 64
REMARK SMILES IDX 37 65 38 66 40 67 42 68 39 69 61 70 62 71 67 72 63 73 64 74
REMARK SMILES IDX 66 75 68 76 65 77 49 78 50 79 55 80 51 81 52 82 54 83 56 84
REMARK SMILES IDX 53 85
REMARK H PARENT 73 47 47 58
REMARK Flexibility Score: inf
ROOT
ATOM      1  C   UNL     1      -4.310   4.129  -2.148  1.00  0.00     0.275 C 
ENDROOT
BRANCH   1   2
ATOM      2  O   UNL     1      -3.938   3.579  -0.859  1.00  0.00    -0.458 OA
BRANCH   2   3
ATOM      3  C   UNL     1      -4.864   3.730   0.129  1.00  0.00     0.339 C 
ATOM      4  O   UNL     1      -5.933   4.313   0.023  1.00  0.00    -0.246 OA
BRANCH   3   5
ATOM      5  C   UNL     1      -4.303   3.426   1.461  1.00  0.00     0.073 A 
ATOM      6  C   UNL     1      -4.477   2.235   2.208  1.00  0.00     0.023 A 
ATOM      7  C   UNL     1      -4.135   2.276   3.573  1.00  0.00     0.016 A 
ATOM      8  C   UNL     1      -3.687   3.454   4.184  1.00  0.00     0.001 A 
ATOM      9  C   UNL     1      -3.812   4.594   2.080  1.00  0.00     0.017 A 
ATOM     10  C   UNL     1      -3.529   4.615   3.439  1.00  0.00     0.001 A 
BRANCH   6  11
ATOM     11  S   UNL     1      -5.514   0.845   1.739  1.00  0.00    -0.111 SA
BRANCH  11  12
ATOM     12  C   UNL     1      -4.502  -0.665   1.460  1.00  0.00     0.151 C 
ATOM     13  N   UNL     1      -2.510  -0.569   0.271  1.00  0.00    -0.250 N 
ATOM     14  C   UNL     1      -3.375  -1.174  -0.601  1.00  0.00     0.235 C 
ATOM     15  C   UNL     1      -3.021  -0.434   1.546  1.00  0.00     0.247 C 
ATOM     16  O   UNL     1      -3.144  -1.601  -1.726  1.00  0.00    -0.274 OA
ATOM     17  C   UNL     1      -4.701  -1.330   0.093  1.00  0.00     0.126 C 
ATOM     18  O   UNL     1      -2.427  -0.283   2.576  1.00  0.00    -0.273 OA
BRANCH  13  19
ATOM     19  C   UNL     1      -1.147  -0.395   0.032  1.00  0.00     0.052 A 
ATOM     20  C   UNL     1       3.099   0.176  -0.082  1.00  0.00     0.044 C 
ATOM     21  C   UNL     1       1.613  -0.013  -0.087  1.00  0.00    -0.051 A 
ATOM     22  C   UNL     1       1.079  -1.309  -0.066  1.00  0.00     0.005 A 
ATOM     23  C   UNL     1       0.750   1.089  -0.088  1.00  0.00     0.005 A 
ATOM     24  C   UNL     1      -0.300  -1.504  -0.022  1.00  0.00     0.027 A 
ATOM     25  C   UNL     1      -0.628   0.900  -0.012  1.00  0.00     0.027 A 
ENDBRANCH  13  19
ENDBRANCH  11  12
ENDBRANCH   6  11
ENDBRANCH   3   5
ENDBRANCH   2   3
ENDBRANCH   1   2
BRANCH   1  26
ATOM     26  C   UNL     1      -3.954   3.193  -3.327  1.00  0.00     0.275 C 
BRANCH  26  27
ATOM     27  O   UNL     1      -4.742   1.998  -3.499  1.00  0.00    -0.458 OA
BRANCH  27  28
ATOM     28  C   UNL     1      -5.222   1.453  -2.369  1.00  0.00     0.338 C 
ATOM     29  O   UNL     1      -4.535   1.018  -1.456  1.00  0.00    -0.246 OA
BRANCH  28  30
ATOM     30  C   UNL     1      -6.645   1.811  -2.227  1.00  0.00     0.060 A 
ATOM     31  C   UNL     1      -7.240   1.628  -0.976  1.00  0.00     0.016 A 
ATOM     32  C   UNL     1      -7.211   2.662  -3.173  1.00  0.00     0.016 A 
ATOM     33  C   UNL     1      -8.249   2.460  -0.552  1.00  0.00     0.010 A 
ATOM     34  C   UNL     1      -8.207   3.505  -2.769  1.00  0.00     0.010 A 
ATOM     35  C   UNL     1      -8.701   3.402  -1.462  1.00  0.00    -0.014 A 
BRANCH  35  36
ATOM     36  C   UNL     1      -9.965   4.059  -1.264  1.00  0.00     0.031 A 
ATOM     37  C   UNL     1     -10.030   5.347  -0.567  1.00  0.00     0.074 A 
ATOM     38  C   UNL     1     -10.943   3.346  -1.859  1.00  0.00     0.049 A 
ATOM     39  N   UNL     1     -11.043   5.743   0.119  1.00  0.00    -0.248 NA
ATOM     40  C   UNL     1      -8.899   6.278  -0.499  1.00  0.00     0.031 C 
ATOM     41  C   UNL     1     -12.296   3.681  -2.239  1.00  0.00     0.029 A 
ATOM     42  N   UNL     1     -10.865   1.984  -2.146  1.00  0.00    -0.354 N 
ATOM     43  C   UNL     1     -10.857   7.092   0.346  1.00  0.00     0.074 A 
ATOM     44  C   UNL     1      -9.453   7.331   0.116  1.00  0.00     0.031 C 
ATOM     45  C   UNL     1     -12.973   2.529  -2.443  1.00  0.00     0.029 A 
ATOM     46  C   UNL     1     -12.112   1.419  -2.023  1.00  0.00     0.049 A 
ATOM     47  H   UNL     1     -10.044   1.503  -2.399  1.00  0.00     0.167 HD
ATOM     48  C   UNL     1     -11.959   7.894   0.428  1.00  0.00     0.037 A 
ATOM     49  C   UNL     1     -12.358   0.608  -0.946  1.00  0.00     0.037 A 
ATOM     50  C   UNL     1     -13.161   7.081   0.254  1.00  0.00     0.049 A 
ATOM     51  C   UNL     1     -13.349   1.260  -0.016  1.00  0.00     0.074 A 
ATOM     52  C   UNL     1     -13.832   6.733  -0.909  1.00  0.00     0.029 A 
ATOM     53  N   UNL     1     -13.531   6.151   1.219  1.00  0.00    -0.354 N 
ATOM     54  N   UNL     1     -13.384   2.540   0.235  1.00  0.00    -0.248 NA
ATOM     55  C   UNL     1     -14.392   0.505   0.667  1.00  0.00     0.031 C 
ATOM     56  C   UNL     1     -14.547   5.539  -0.660  1.00  0.00     0.029 A 
ATOM     57  C   UNL     1     -14.313   5.160   0.649  1.00  0.00     0.049 A 
ATOM     58  H   UNL     1     -13.274   6.190   2.169  1.00  0.00     0.167 HD
ATOM     59  C   UNL     1     -14.456   2.795   1.044  1.00  0.00     0.074 A 
ATOM     60  C   UNL     1     -15.044   1.491   1.302  1.00  0.00     0.031 C 
ATOM     61  C   UNL     1     -14.812   4.050   1.438  1.00  0.00     0.037 A 
BRANCH  48  62
ATOM     62  C   UNL     1     -11.918   9.389   0.199  1.00  0.00     0.057 A 
ATOM     63  C   UNL     1     -12.958  10.037  -0.500  1.00  0.00     0.134 A 
ATOM     64  C   UNL     1     -10.870  10.235   0.597  1.00  0.00     0.134 A 
ATOM     65  F   UNL     1     -14.073   9.393  -0.868  1.00  0.00    -0.206 F 
ATOM     66  C   UNL     1     -12.910  11.387  -0.869  1.00  0.00     0.040 A 
ATOM     67  C   UNL     1     -10.795  11.585   0.210  1.00  0.00     0.040 A 
ATOM     68  F   UNL     1      -9.890   9.798   1.401  1.00  0.00    -0.206 F 
ATOM     69  C   UNL     1     -11.811  12.162  -0.540  1.00  0.00     0.006 A 
ENDBRANCH  48  62
BRANCH  49  70
ATOM     70  C   UNL     1     -11.212  -0.220  -0.438  1.00  0.00     0.057 A 
ATOM     71  C   UNL     1     -10.528  -1.093  -1.306  1.00  0.00     0.134 A 
ATOM     72  C   UNL     1     -10.646  -0.050   0.833  1.00  0.00     0.134 A 
ATOM     73  F   UNL     1     -11.003  -1.329  -2.539  1.00  0.00    -0.206 F 
ATOM     74  C   UNL     1      -9.315  -1.704  -0.959  1.00  0.00     0.040 A 
ATOM     75  C   UNL     1      -9.434  -0.660   1.195  1.00  0.00     0.040 A 
ATOM     76  F   UNL     1     -11.221   0.749   1.741  1.00  0.00    -0.206 F 
ATOM     77  C   UNL     1      -8.757  -1.477   0.293  1.00  0.00     0.006 A 
ENDBRANCH  49  70
BRANCH  61  78
ATOM     78  C   UNL     1     -15.782   4.324   2.542  1.00  0.00     0.057 A 
ATOM     79  C   UNL     1     -15.887   3.512   3.679  1.00  0.00     0.134 A 
ATOM     80  C   UNL     1     -16.532   5.516   2.563  1.00  0.00     0.134 A 
ATOM     81  F   UNL     1     -15.133   2.413   3.828  1.00  0.00    -0.206 F 
ATOM     82  C   UNL     1     -16.744   3.824   4.736  1.00  0.00     0.040 A 
ATOM     83  C   UNL     1     -17.345   5.867   3.639  1.00  0.00     0.040 A 
ATOM     84  F   UNL     1     -16.486   6.397   1.552  1.00  0.00    -0.206 F 
ATOM     85  C   UNL     1     -17.469   5.009   4.722  1.00  0.00     0.006 A 
ENDBRANCH  61  78
ENDBRANCH  35  36
ENDBRANCH  28  30
ENDBRANCH  27  28
ENDBRANCH  26  27
ENDBRANCH   1  26
TORSDOF 14
