REMARK SMILES O=C1O[C@@H](c2ccc(O)c(O)c2)[C@H](C(=O)OCCOC(=O)c2ccc(-c3c4nc(c(-c5c(F)cccc5F)c5ccc([nH]5)c(-c5c(F)cccc5F)c5nc(c(-c6c(F)cccc6F)c6ccc3[nH]6)C=C5)C=C4)cc2)/C1=C\c1ccc(O)c(O)c1
REMARK SMILES IDX 17 1 16 2 14 3 15 4 13 5 1 6 2 7 3 8 76 9 4 10 77 11 5 12
REMARK SMILES IDX 6 13 12 14 7 15 10 16 8 17 11 18 9 20 78 22 79 23 85 24
REMARK SMILES IDX 80 25 83 26 81 27 84 28 82 30 18 32 19 33 20 34 21 35 22 36
REMARK SMILES IDX 23 37 75 38 24 39 74 40 25 41 26 42 27 43 68 44 28 45 73 46
REMARK SMILES IDX 67 47 69 48 29 49 72 50 66 51 65 52 30 54 56 55 39 56 55 57
REMARK SMILES IDX 40 58 43 59 54 60 70 61 41 62 42 63 53 65 71 66 44 67 31 68
REMARK SMILES IDX 32 69 37 70 33 71 34 72 36 73 38 74 35 75 57 76 58 77 63 78
REMARK SMILES IDX 59 79 60 80 62 81 64 82 61 83 45 84 46 85 51 86 47 87 48 88
REMARK SMILES IDX 50 89 52 90 49 91
REMARK H PARENT 11 19 9 21 84 29 82 31 69 53 43 64
REMARK Flexibility Score: inf
ROOT
ATOM      1  C   UNL     1       2.973   1.562   3.626  1.00  0.00     0.274 C 
ENDROOT
BRANCH   1   2
ATOM      2  O   UNL     1       2.870   1.537   2.183  1.00  0.00    -0.461 OA
BRANCH   2   3
ATOM      3  C   UNL     1       1.708   1.042   1.669  1.00  0.00     0.318 C 
ATOM      4  O   UNL     1       0.815   0.552   2.347  1.00  0.00    -0.251 OA
BRANCH   3   5
ATOM      5  C   UNL     1       1.721   1.088   0.145  1.00  0.00     0.182 C 
ATOM      6  O   UNL     1      -1.486  -0.229  -0.543  1.00  0.00    -0.247 OA
ATOM      7  C   UNL     1      -0.302  -0.023  -0.441  1.00  0.00     0.335 C 
ATOM      8  O   UNL     1       0.672  -0.968  -0.278  1.00  0.00    -0.453 OA
ATOM      9  C   UNL     1       0.376   1.300  -0.464  1.00  0.00     0.056 C 
ATOM     10  C   UNL     1       1.974  -0.346  -0.315  1.00  0.00     0.226 C 
ATOM     11  C   UNL     1      -0.204   2.336  -1.093  1.00  0.00     0.020 C 
BRANCH  10  12
ATOM     12  C   UNL     1       2.584  -0.462  -1.706  1.00  0.00    -0.002 A 
ATOM     13  C   UNL     1       3.730   0.284  -2.042  1.00  0.00     0.012 A 
ATOM     14  C   UNL     1       2.033  -1.318  -2.676  1.00  0.00     0.057 A 
ATOM     15  C   UNL     1       4.273   0.233  -3.329  1.00  0.00     0.050 A 
ATOM     16  C   UNL     1       2.581  -1.367  -3.949  1.00  0.00     0.157 A 
ATOM     17  C   UNL     1       3.685  -0.589  -4.280  1.00  0.00     0.157 A 
BRANCH  16  18
ATOM     18  O   UNL     1       2.017  -2.186  -4.884  1.00  0.00    -0.504 OA
ATOM     19  H   UNL     1       2.377  -2.229  -5.748  1.00  0.00     0.293 HD
ENDBRANCH  16  18
BRANCH  17  20
ATOM     20  O   UNL     1       4.160  -0.670  -5.559  1.00  0.00    -0.504 OA
ATOM     21  H   UNL     1       4.903  -0.159  -5.816  1.00  0.00     0.293 HD
ENDBRANCH  17  20
ENDBRANCH  10  12
BRANCH  11  22
ATOM     22  C   UNL     1       0.349   3.686  -1.252  1.00  0.00    -0.021 A 
ATOM     23  C   UNL     1       1.228   4.045  -2.276  1.00  0.00     0.012 A 
ATOM     24  C   UNL     1      -0.066   4.679  -0.368  1.00  0.00     0.058 A 
ATOM     25  C   UNL     1       1.692   5.370  -2.383  1.00  0.00     0.051 A 
ATOM     26  C   UNL     1       0.436   5.967  -0.429  1.00  0.00     0.157 A 
ATOM     27  C   UNL     1       1.300   6.321  -1.445  1.00  0.00     0.157 A 
BRANCH  26  28
ATOM     28  O   UNL     1       0.064   6.877   0.519  1.00  0.00    -0.504 OA
ATOM     29  H   UNL     1       0.399   7.751   0.486  1.00  0.00     0.293 HD
ENDBRANCH  26  28
BRANCH  27  30
ATOM     30  O   UNL     1       1.717   7.621  -1.481  1.00  0.00    -0.504 OA
ATOM     31  H   UNL     1       2.304   7.907  -2.153  1.00  0.00     0.293 HD
ENDBRANCH  27  30
ENDBRANCH  11  22
ENDBRANCH   3   5
ENDBRANCH   2   3
ENDBRANCH   1   2
BRANCH   1  32
ATOM     32  C   UNL     1       2.579   2.924   4.214  1.00  0.00     0.275 C 
BRANCH  32  33
ATOM     33  O   UNL     1       1.149   3.130   4.205  1.00  0.00    -0.458 OA
BRANCH  33  34
ATOM     34  C   UNL     1       0.711   3.712   3.068  1.00  0.00     0.338 C 
ATOM     35  O   UNL     1       1.416   4.031   2.122  1.00  0.00    -0.246 OA
BRANCH  34  36
ATOM     36  C   UNL     1      -0.756   3.860   3.003  1.00  0.00     0.060 A 
ATOM     37  C   UNL     1      -1.462   2.888   2.296  1.00  0.00     0.016 A 
ATOM     38  C   UNL     1      -1.323   5.124   3.193  1.00  0.00     0.016 A 
ATOM     39  C   UNL     1      -2.635   3.241   1.627  1.00  0.00     0.010 A 
ATOM     40  C   UNL     1      -2.564   5.438   2.607  1.00  0.00     0.010 A 
ATOM     41  C   UNL     1      -3.206   4.524   1.755  1.00  0.00    -0.014 A 
BRANCH  41  42
ATOM     42  C   UNL     1      -4.441   4.877   0.980  1.00  0.00     0.031 A 
ATOM     43  C   UNL     1      -4.521   6.064   0.038  1.00  0.00     0.074 A 
ATOM     44  C   UNL     1      -5.514   4.067   1.073  1.00  0.00     0.049 A 
ATOM     45  N   UNL     1      -5.556   6.552  -0.609  1.00  0.00    -0.248 NA
ATOM     46  C   UNL     1      -3.277   6.793  -0.230  1.00  0.00     0.031 C 
ATOM     47  C   UNL     1      -5.582   2.848   1.881  1.00  0.00     0.029 A 
ATOM     48  N   UNL     1      -6.748   4.138   0.477  1.00  0.00    -0.354 N 
ATOM     49  C   UNL     1      -5.090   7.649  -1.333  1.00  0.00     0.074 A 
ATOM     50  C   UNL     1      -3.675   7.755  -1.054  1.00  0.00     0.031 C 
ATOM     51  C   UNL     1      -6.767   2.260   1.692  1.00  0.00     0.029 A 
ATOM     52  C   UNL     1      -7.595   3.134   0.873  1.00  0.00     0.049 A 
ATOM     53  H   UNL     1      -7.000   4.838  -0.169  1.00  0.00     0.167 HD
ATOM     54  C   UNL     1      -5.778   8.495  -2.142  1.00  0.00     0.037 A 
ATOM     55  C   UNL     1      -8.914   2.962   0.686  1.00  0.00     0.037 A 
ATOM     56  C   UNL     1      -7.189   8.381  -2.429  1.00  0.00     0.049 A 
ATOM     57  C   UNL     1      -9.682   3.966  -0.109  1.00  0.00     0.074 A 
ATOM     58  C   UNL     1      -7.977   9.188  -3.235  1.00  0.00     0.029 A 
ATOM     59  N   UNL     1      -8.024   7.398  -1.919  1.00  0.00    -0.354 N 
ATOM     60  N   UNL     1      -9.247   5.040  -0.720  1.00  0.00    -0.248 NA
ATOM     61  C   UNL     1     -11.127   3.744  -0.225  1.00  0.00     0.031 C 
ATOM     62  C   UNL     1      -9.297   8.730  -3.163  1.00  0.00     0.029 A 
ATOM     63  C   UNL     1      -9.322   7.600  -2.365  1.00  0.00     0.049 A 
ATOM     64  H   UNL     1      -7.737   6.665  -1.328  1.00  0.00     0.167 HD
ATOM     65  C   UNL     1     -10.363   5.622  -1.300  1.00  0.00     0.074 A 
ATOM     66  C   UNL     1     -11.491   4.768  -0.984  1.00  0.00     0.031 C 
ATOM     67  C   UNL     1     -10.443   6.762  -2.028  1.00  0.00     0.037 A 
BRANCH  54  68
ATOM     68  C   UNL     1      -5.048   9.664  -2.755  1.00  0.00     0.057 A 
ATOM     69  C   UNL     1      -4.161   9.519  -3.828  1.00  0.00     0.134 A 
ATOM     70  C   UNL     1      -5.335  10.973  -2.335  1.00  0.00     0.134 A 
ATOM     71  F   UNL     1      -3.839   8.300  -4.286  1.00  0.00    -0.206 F 
ATOM     72  C   UNL     1      -3.584  10.628  -4.458  1.00  0.00     0.040 A 
ATOM     73  C   UNL     1      -4.783  12.088  -2.970  1.00  0.00     0.040 A 
ATOM     74  F   UNL     1      -6.188  11.191  -1.323  1.00  0.00    -0.206 F 
ATOM     75  C   UNL     1      -3.904  11.918  -4.036  1.00  0.00     0.006 A 
ENDBRANCH  54  68
BRANCH  55  76
ATOM     76  C   UNL     1      -9.580   1.824   1.365  1.00  0.00     0.057 A 
ATOM     77  C   UNL     1     -10.064   0.728   0.649  1.00  0.00     0.134 A 
ATOM     78  C   UNL     1      -9.660   1.775   2.765  1.00  0.00     0.134 A 
ATOM     79  F   UNL     1     -10.037   0.730  -0.691  1.00  0.00    -0.206 F 
ATOM     80  C   UNL     1     -10.588  -0.389   1.302  1.00  0.00     0.040 A 
ATOM     81  C   UNL     1     -10.145   0.652   3.430  1.00  0.00     0.040 A 
ATOM     82  F   UNL     1      -9.204   2.797   3.506  1.00  0.00    -0.206 F 
ATOM     83  C   UNL     1     -10.612  -0.436   2.696  1.00  0.00     0.006 A 
ENDBRANCH  55  76
BRANCH  67  84
ATOM     84  C   UNL     1     -11.800   7.128  -2.550  1.00  0.00     0.057 A 
ATOM     85  C   UNL     1     -12.816   7.591  -1.704  1.00  0.00     0.134 A 
ATOM     86  C   UNL     1     -12.102   6.990  -3.910  1.00  0.00     0.134 A 
ATOM     87  F   UNL     1     -12.595   7.729  -0.388  1.00  0.00    -0.206 F 
ATOM     88  C   UNL     1     -14.097   7.863  -2.186  1.00  0.00     0.040 A 
ATOM     89  C   UNL     1     -13.372   7.285  -4.408  1.00  0.00     0.040 A 
ATOM     90  F   UNL     1     -11.172   6.559  -4.776  1.00  0.00    -0.206 F 
ATOM     91  C   UNL     1     -14.377   7.711  -3.542  1.00  0.00     0.006 A 
ENDBRANCH  67  84
ENDBRANCH  41  42
ENDBRANCH  34  36
ENDBRANCH  33  34
ENDBRANCH  32  33
ENDBRANCH   1  32
TORSDOF 17
