REMARK SMILES O=C(C[C@@H]1C(=O)O[C@H]2[C@@H]3OC(=O)c4cc(O)c(O)c(O)c4-c4ccccc4C(=O)OC[C@H]2O[C@@H](OC(=O)c2cc(O)c(O)c(O)c2)[C@@H]3OC(=O)c2cc(O)c(O)c3c2[C@H]1[C@H](O)C(=O)O3)OCCOC(=O)c1ccc(-c2c3nc(c(-c4c(F)cccc4F)c4ccc([nH]4)c(-c4c(F)cccc4F)c4nc(c(-c5c(F)cccc5F)c5ccc2[nH]5)C=C4)C=C3)cc1
REMARK SMILES IDX 4 1 3 3 2 4 1 5 65 6 66 7 67 8 68 9 69 10 70 11 71 12 72 13
REMARK SMILES IDX 124 14 73 15 123 16 74 17 75 18 76 19 117 20 77 21 122 22
REMARK SMILES IDX 116 23 118 24 78 25 121 26 115 27 114 28 79 30 105 31 88 32
REMARK SMILES IDX 104 33 89 34 92 35 103 36 119 37 90 38 91 39 102 41 120 42
REMARK SMILES IDX 93 43 80 44 81 45 86 46 82 47 83 48 85 49 87 50 84 51 106 52
REMARK SMILES IDX 107 53 112 54 108 55 109 56 111 57 113 58 110 59 94 60 95 61
REMARK SMILES IDX 100 62 96 63 97 64 99 65 101 66 98 67 5 68 6 69 7 70 8 71
REMARK SMILES IDX 9 72 32 73 47 74 33 75 34 77 10 78 11 79 12 80 13 81 14 82
REMARK SMILES IDX 21 83 15 84 19 85 17 86 22 87 23 88 27 89 24 90 26 91 25 92
REMARK SMILES IDX 28 93 29 94 30 95 31 96 16 98 20 100 18 102 48 104 49 105
REMARK SMILES IDX 50 106 51 107 52 108 58 109 53 110 57 111 59 112 55 113
REMARK SMILES IDX 64 114 60 115 62 117 63 118 54 119 56 121 61 123 35 125
REMARK SMILES IDX 36 126 37 127 38 128 39 129 46 130 40 131 44 132 42 133
REMARK SMILES IDX 41 134 45 136 43 138
REMARK H PARENT 118 29 92 40 16 99 20 101 18 103 54 120 56 122 61 124 41 135
REMARK H PARENT 45 137 43 139
REMARK Flexibility Score: 170.00
ROOT
ATOM      1  C   UNL     1       3.535   2.030   0.445  1.00  0.00     0.121 CG0
ATOM      2  G   UNL     1       5.690   2.452   0.302  1.00  0.00     0.000 G0
ENDROOT
BRANCH   1   3
ATOM      3  C   UNL     1       2.700   0.917   1.576  1.00  0.00     0.138 C 
BRANCH   3   4
ATOM      4  C   UNL     1       3.131   0.319   2.926  1.00  0.00     0.306 C 
ATOM      5  O   UNL     1       3.715   0.973   3.784  1.00  0.00    -0.252 OA
BRANCH   4   6
ATOM      6  O   UNL     1       2.702  -0.927   3.232  1.00  0.00    -0.462 OA
BRANCH   6   7
ATOM      7  C   UNL     1       1.531  -1.524   2.648  1.00  0.00     0.274 C 
BRANCH   7   8
ATOM      8  C   UNL     1       0.213  -0.865   3.102  1.00  0.00     0.275 C 
BRANCH   8   9
ATOM      9  O   UNL     1       0.118   0.550   2.786  1.00  0.00    -0.458 OA
BRANCH   9  10
ATOM     10  C   UNL     1       0.199   1.440   3.820  1.00  0.00     0.338 C 
ATOM     11  O   UNL     1       0.265   1.142   5.001  1.00  0.00    -0.246 OA
BRANCH  10  12
ATOM     12  C   UNL     1       0.373   2.859   3.333  1.00  0.00     0.060 A 
ATOM     13  C   UNL     1      -0.157   3.330   2.127  1.00  0.00     0.016 A 
ATOM     14  C   UNL     1       1.146   3.748   4.095  1.00  0.00     0.016 A 
ATOM     15  C   UNL     1       0.069   4.662   1.700  1.00  0.00     0.010 A 
ATOM     16  C   UNL     1       1.363   5.080   3.669  1.00  0.00     0.010 A 
ATOM     17  C   UNL     1       0.825   5.570   2.463  1.00  0.00    -0.014 A 
BRANCH  17  18
ATOM     18  C   UNL     1       0.815   7.046   2.176  1.00  0.00     0.031 A 
ATOM     19  C   UNL     1       1.629   7.782   1.144  1.00  0.00     0.074 A 
ATOM     20  C   UNL     1      -0.163   7.802   2.700  1.00  0.00     0.049 A 
ATOM     21  N   UNL     1       2.101   9.011   1.148  1.00  0.00    -0.248 NA
ATOM     22  C   UNL     1       1.865   7.077  -0.105  1.00  0.00     0.031 C 
ATOM     23  C   UNL     1      -1.273   7.312   3.506  1.00  0.00     0.029 A 
ATOM     24  N   UNL     1      -0.411   9.142   2.538  1.00  0.00    -0.354 N 
ATOM     25  C   UNL     1       2.899   9.125   0.006  1.00  0.00     0.074 A 
ATOM     26  C   UNL     1       2.670   7.922  -0.743  1.00  0.00     0.031 C 
ATOM     27  C   UNL     1      -2.121   8.330   3.720  1.00  0.00     0.029 A 
ATOM     28  C   UNL     1      -1.572   9.552   3.127  1.00  0.00     0.049 A 
ATOM     29  H   UNL     1       0.189   9.747   2.046  1.00  0.00     0.167 HD
ATOM     30  C   UNL     1       3.744  10.135  -0.338  1.00  0.00     0.037 A 
ATOM     31  C   UNL     1      -2.127  10.775   3.182  1.00  0.00     0.037 A 
ATOM     32  C   UNL     1       3.380  11.513  -0.103  1.00  0.00     0.049 A 
ATOM     33  C   UNL     1      -1.470  11.953   2.513  1.00  0.00     0.074 A 
ATOM     34  C   UNL     1       3.962  12.669  -0.599  1.00  0.00     0.029 A 
ATOM     35  N   UNL     1       2.213  11.896   0.530  1.00  0.00    -0.354 N 
ATOM     36  N   UNL     1      -0.338  12.016   1.855  1.00  0.00    -0.248 NA
ATOM     37  C   UNL     1      -2.185  13.235   2.590  1.00  0.00     0.031 C 
ATOM     38  C   UNL     1       3.098  13.741  -0.336  1.00  0.00     0.029 A 
ATOM     39  C   UNL     1       1.987  13.243   0.324  1.00  0.00     0.049 A 
ATOM     40  H   UNL     1       1.629  11.298   1.050  1.00  0.00     0.167 HD
ATOM     41  C   UNL     1      -0.220  13.335   1.423  1.00  0.00     0.074 A 
ATOM     42  C   UNL     1      -1.405  14.030   1.871  1.00  0.00     0.031 C 
ATOM     43  C   UNL     1       0.788  13.921   0.729  1.00  0.00     0.037 A 
BRANCH  30  44
ATOM     44  C   UNL     1       5.069   9.877  -1.035  1.00  0.00     0.057 A 
ATOM     45  C   UNL     1       6.251  10.348  -0.414  1.00  0.00     0.134 A 
ATOM     46  C   UNL     1       5.243   9.299  -2.295  1.00  0.00     0.134 A 
ATOM     47  F   UNL     1       6.197  10.969   0.776  1.00  0.00    -0.206 F 
ATOM     48  C   UNL     1       7.515  10.244  -1.006  1.00  0.00     0.040 A 
ATOM     49  C   UNL     1       6.514   9.118  -2.864  1.00  0.00     0.040 A 
ATOM     50  F   UNL     1       4.190   8.933  -3.039  1.00  0.00    -0.206 F 
ATOM     51  C   UNL     1       7.654   9.598  -2.226  1.00  0.00     0.006 A 
ENDBRANCH  30  44
BRANCH  31  52
ATOM     52  C   UNL     1      -3.418  10.925   3.887  1.00  0.00     0.057 A 
ATOM     53  C   UNL     1      -3.503  10.783   5.277  1.00  0.00     0.134 A 
ATOM     54  C   UNL     1      -4.600  11.165   3.180  1.00  0.00     0.134 A 
ATOM     55  F   UNL     1      -2.403  10.528   6.000  1.00  0.00    -0.206 F 
ATOM     56  C   UNL     1      -4.725  10.863   5.940  1.00  0.00     0.040 A 
ATOM     57  C   UNL     1      -5.824  11.281   3.835  1.00  0.00     0.040 A 
ATOM     58  F   UNL     1      -4.572  11.314   1.847  1.00  0.00    -0.206 F 
ATOM     59  C   UNL     1      -5.889  11.120   5.218  1.00  0.00     0.006 A 
ENDBRANCH  31  52
BRANCH  43  60
ATOM     60  C   UNL     1       0.636  15.362   0.347  1.00  0.00     0.057 A 
ATOM     61  C   UNL     1       0.401  15.730  -0.984  1.00  0.00     0.134 A 
ATOM     62  C   UNL     1       0.774  16.388   1.288  1.00  0.00     0.134 A 
ATOM     63  F   UNL     1       0.271  14.795  -1.938  1.00  0.00    -0.206 F 
ATOM     64  C   UNL     1       0.307  17.070  -1.364  1.00  0.00     0.040 A 
ATOM     65  C   UNL     1       0.662  17.730   0.924  1.00  0.00     0.040 A 
ATOM     66  F   UNL     1       0.996  16.099   2.579  1.00  0.00    -0.206 F 
ATOM     67  C   UNL     1       0.432  18.075  -0.407  1.00  0.00     0.006 A 
ENDBRANCH  43  60
ENDBRANCH  17  18
ENDBRANCH  10  12
ENDBRANCH   9  10
ENDBRANCH   8   9
ENDBRANCH   7   8
ENDBRANCH   6   7
ENDBRANCH   4   6
ENDBRANCH   3   4
ENDBRANCH   1   3
BRANCH   1  68
ATOM     68  C   UNL     1       2.314   1.930  -0.600  1.00  0.00     0.310 C 
ATOM     69  O   UNL     1       1.147   2.187  -0.355  1.00  0.00    -0.252 OA
BRANCH  68  70
ATOM     70  O   UNL     1       2.687   1.387  -1.742  1.00  0.00    -0.455 OA
BRANCH  70  71
ATOM     71  C   UNL     1       4.061   1.525  -1.661  1.00  0.00     0.254 C 
ATOM     72  C   UNL     1       4.406   2.992  -1.660  1.00  0.00     0.267 C 
ATOM     73  C   UNL     1       4.605   0.408  -0.713  1.00  0.00     0.205 CG1
ATOM     74  C   UNL     1       4.358   3.716  -0.085  1.00  0.00     0.290 C 
ATOM     75  O   UNL     1       4.814   0.772   1.034  1.00  0.00    -0.329 OA
ATOM     76  G   UNL     1       5.110  -0.745  -1.808  1.00  0.00     0.000 G1
ATOM     77  C   UNL     1       4.806   2.586   1.702  1.00  0.00     0.357 C 
BRANCH  72  78
ATOM     78  O   UNL     1       5.673   3.159  -2.541  1.00  0.00    -0.450 OA
BRANCH  78  79
ATOM     79  C   UNL     1       6.590   2.142  -2.796  1.00  0.00     0.339 C 
ATOM     80  O   UNL     1       7.047   1.385  -1.946  1.00  0.00    -0.246 OA
BRANCH  79  81
ATOM     81  C   UNL     1       6.910   1.860  -4.228  1.00  0.00     0.075 A 
ATOM     82  C   UNL     1       8.055   1.097  -4.524  1.00  0.00     0.066 A 
ATOM     83  C   UNL     1       6.006   2.130  -5.266  1.00  0.00     0.043 A 
ATOM     84  C   UNL     1       8.347   0.766  -5.844  1.00  0.00     0.162 A 
ATOM     85  C   UNL     1       6.412   1.950  -6.598  1.00  0.00     0.170 A 
ATOM     86  C   UNL     1       7.572   1.255  -6.880  1.00  0.00     0.200 A 
BRANCH  83  87
ATOM     87  C   UNL     1       4.622   2.467  -4.999  1.00  0.00     0.001 A 
ATOM     88  C   UNL     1       4.310   3.859  -5.056  1.00  0.00     0.010 A 
ATOM     89  C   UNL     1       3.636   1.488  -4.678  1.00  0.00     0.068 A 
ATOM     90  C   UNL     1       3.027   4.318  -4.821  1.00  0.00     0.001 A 
ATOM     91  C   UNL     1       2.320   1.997  -4.542  1.00  0.00     0.016 A 
ATOM     92  C   UNL     1       2.027   3.384  -4.593  1.00  0.00     0.001 A 
BRANCH  89  93
ATOM     93  C   UNL     1       3.870  -0.019  -4.123  1.00  0.00     0.338 C 
ATOM     94  O   UNL     1       2.932  -0.805  -4.095  1.00  0.00    -0.246 OA
BRANCH  93  95
ATOM     95  O   UNL     1       5.036  -0.240  -3.357  1.00  0.00    -0.459 OA
BRANCH  95  96
ATOM     96  C   UNL     1       5.110  -0.745  -1.808  1.00  0.00     0.269 CG1
ATOM     97  G   UNL     1       4.605   0.408  -0.713  1.00  0.00     0.000 G1
ENDBRANCH  95  96
ENDBRANCH  93  95
ENDBRANCH  89  93
ENDBRANCH  83  87
BRANCH  84  98
ATOM     98  O   UNL     1       9.391  -0.066  -6.121  1.00  0.00    -0.504 OA
ATOM     99  H   UNL     1       9.920  -0.401  -5.424  1.00  0.00     0.293 HD
ENDBRANCH  84  98
BRANCH  85 100
ATOM    100  O   UNL     1       5.689   2.393  -7.678  1.00  0.00    -0.504 OA
ATOM    101  H   UNL     1       6.008   2.246  -8.547  1.00  0.00     0.293 HD
ENDBRANCH  85 100
BRANCH  86 102
ATOM    102  O   UNL     1       7.926   1.003  -8.176  1.00  0.00    -0.502 OA
ATOM    103  H   UNL     1       8.713   0.531  -8.363  1.00  0.00     0.293 HD
ENDBRANCH  86 102
ENDBRANCH  79  81
ENDBRANCH  78  79
ENDBRANCH  72  78
BRANCH  74 104
ATOM    104  O   UNL     1       3.642   4.928  -0.091  1.00  0.00    -0.448 OA
BRANCH 104 105
ATOM    105  C   UNL     1       4.656   5.833  -0.314  1.00  0.00     0.339 C 
ATOM    106  O   UNL     1       4.978   6.328  -1.371  1.00  0.00    -0.246 OA
BRANCH 105 107
ATOM    107  C   UNL     1       5.438   5.641   0.907  1.00  0.00     0.071 A 
ATOM    108  C   UNL     1       5.086   6.655   1.847  1.00  0.00     0.066 A 
ATOM    109  C   UNL     1       5.750   4.298   1.324  1.00  0.00     0.021 A 
ATOM    110  C   UNL     1       4.841   6.413   3.226  1.00  0.00     0.162 A 
ATOM    111  C   UNL     1       5.479   4.205   2.992  1.00  0.00     0.180 A 
ATOM    112  C   UNL     1       5.690   2.452   0.302  1.00  0.00     0.079 CG0
ATOM    113  C   UNL     1       5.004   5.178   3.841  1.00  0.00     0.201 A 
ATOM    114  O   UNL     1       5.848   2.663   3.696  1.00  0.00    -0.420 OA
ATOM    115  C   UNL     1       6.772   1.097   1.272  1.00  0.00     0.232 C 
ATOM    116  G   UNL     1       3.535   2.030   0.445  1.00  0.00     0.000 G0
ATOM    117  C   UNL     1       6.425   1.175   3.135  1.00  0.00     0.341 C 
ATOM    118  O   UNL     1       6.683   0.302   3.956  1.00  0.00    -0.249 OA
BRANCH 110 119
ATOM    119  O   UNL     1       4.393   7.488   3.946  1.00  0.00    -0.504 OA
ATOM    120  H   UNL     1       4.284   8.320   3.528  1.00  0.00     0.293 HD
ENDBRANCH 110 119
BRANCH 113 121
ATOM    121  O   UNL     1       4.745   4.999   5.154  1.00  0.00    -0.502 OA
ATOM    122  H   UNL     1       4.423   5.712   5.669  1.00  0.00     0.293 HD
ENDBRANCH 113 121
BRANCH 115 123
ATOM    123  O   UNL     1       6.903  -0.145   0.565  1.00  0.00    -0.381 OA
ATOM    124  H   UNL     1       6.028  -0.547   0.453  1.00  0.00     0.211 HD
ENDBRANCH 115 123
ENDBRANCH 105 107
ENDBRANCH 104 105
ENDBRANCH  74 104
BRANCH  77 125
ATOM    125  O   UNL     1       6.754   2.872   1.984  1.00  0.00    -0.428 OA
BRANCH 125 126
ATOM    126  C   UNL     1       8.008   3.551   2.229  1.00  0.00     0.340 C 
ATOM    127  O   UNL     1       9.067   2.990   1.955  1.00  0.00    -0.246 OA
BRANCH 126 128
ATOM    128  C   UNL     1       8.168   4.960   2.736  1.00  0.00     0.067 A 
ATOM    129  C   UNL     1       8.494   5.994   1.839  1.00  0.00     0.066 A 
ATOM    130  C   UNL     1       7.969   5.259   4.097  1.00  0.00     0.066 A 
ATOM    131  C   UNL     1       8.467   7.317   2.281  1.00  0.00     0.162 A 
ATOM    132  C   UNL     1       7.884   6.596   4.498  1.00  0.00     0.162 A 
ATOM    133  C   UNL     1       8.135   7.620   3.595  1.00  0.00     0.200 A 
BRANCH 131 134
ATOM    134  O   UNL     1       8.680   8.333   1.394  1.00  0.00    -0.504 OA
ATOM    135  H   UNL     1       8.905   8.140   0.505  1.00  0.00     0.293 HD
ENDBRANCH 131 134
BRANCH 132 136
ATOM    136  O   UNL     1       7.418   6.944   5.737  1.00  0.00    -0.504 OA
ATOM    137  H   UNL     1       7.371   7.846   5.984  1.00  0.00     0.293 HD
ENDBRANCH 132 136
BRANCH 133 138
ATOM    138  O   UNL     1       7.983   8.933   3.950  1.00  0.00    -0.502 OA
ATOM    139  H   UNL     1       8.157   9.610   3.327  1.00  0.00     0.293 HD
ENDBRANCH 133 138
ENDBRANCH 126 128
ENDBRANCH 125 126
ENDBRANCH  77 125
ENDBRANCH  70  71
ENDBRANCH  68  70
ENDBRANCH   1  68
TORSDOF 24
