REMARK SMILES Cc1cccc(N2CCN(c3ncc(NC(=O)c4ccccc4F)cc3C(=O)OCCOC(=O)c3ccc(-c4c5nc(c(-c6c(F)cccc6F)c6ccc([nH]6)c(-c6c(F)cccc6F)c6nc(c(-c7c(F)cccc7F)c7ccc4[nH]7)C=C6)C=C5)cc3)C[C@@H]2C)c1
REMARK SMILES IDX 30 1 29 2 27 3 28 4 26 5 11 6 12 7 13 8 25 9 14 10 10 11
REMARK SMILES IDX 7 12 8 13 90 14 9 15 89 16 91 17 6 18 1 19 2 20 3 21 92 22
REMARK SMILES IDX 4 23 5 24 15 25 16 26 17 28 18 29 19 30 23 31 20 32 22 33
REMARK SMILES IDX 24 34 21 35 31 36 32 37 33 38 34 39 35 40 36 41 88 42 37 43
REMARK SMILES IDX 87 44 38 45 39 46 40 47 81 48 41 49 86 50 80 51 82 52 42 53
REMARK SMILES IDX 85 54 79 55 78 56 43 58 69 59 52 60 68 61 53 62 56 63 67 64
REMARK SMILES IDX 83 65 54 66 55 67 66 69 84 70 57 71 44 72 45 73 50 74 46 75
REMARK SMILES IDX 47 76 49 77 51 78 48 79 70 80 71 81 76 82 72 83 73 84 75 85
REMARK SMILES IDX 77 86 74 87 58 88 59 89 64 90 60 91 61 92 63 93 65 94 62 95
REMARK H PARENT 15 27 82 57 56 68
REMARK Flexibility Score: inf
ROOT
ATOM      1  C   UNL     1      -5.208   6.981  -3.651  1.00  0.00     0.275 C 
ENDROOT
BRANCH   1   2
ATOM      2  O   UNL     1      -4.447   7.221  -2.430  1.00  0.00    -0.458 OA
BRANCH   2   3
ATOM      3  C   UNL     1      -5.066   6.726  -1.316  1.00  0.00     0.342 C 
ATOM      4  O   UNL     1      -6.189   6.217  -1.352  1.00  0.00    -0.246 OA
BRANCH   3   5
ATOM      5  C   UNL     1      -4.567   7.125   0.024  1.00  0.00     0.104 A 
ATOM      6  C   UNL     1      -3.700   6.522   0.991  1.00  0.00     0.143 A 
ATOM      7  N   UNL     1      -3.888   6.908   2.297  1.00  0.00    -0.236 NA
ATOM      8  C   UNL     1      -4.917   7.718   2.675  1.00  0.00     0.139 A 
ATOM      9  C   UNL     1      -5.575   8.026   0.464  1.00  0.00     0.047 A 
ATOM     10  C   UNL     1      -5.800   8.288   1.791  1.00  0.00     0.061 A 
BRANCH   6  11
ATOM     11  N   UNL     1      -2.760   5.451   0.851  1.00  0.00    -0.352 N 
ATOM     12  N   UNL     1      -0.743   3.249   1.013  1.00  0.00    -0.365 N 
ATOM     13  C   UNL     1      -1.610   3.518   2.175  1.00  0.00     0.138 C 
ATOM     14  C   UNL     1      -0.492   4.368   0.044  1.00  0.00     0.098 C 
ATOM     15  C   UNL     1      -2.561   4.736   2.150  1.00  0.00     0.139 C 
ATOM     16  C   UNL     1      -1.413   5.689   0.244  1.00  0.00     0.142 C 
ATOM     17  C   UNL     1      -0.531   3.879  -1.414  1.00  0.00     0.033 C 
BRANCH  12  18
ATOM     18  C   UNL     1      -0.076   1.998   0.979  1.00  0.00     0.037 A 
ATOM     19  C   UNL     1       3.046   0.255  -0.481  1.00  0.00     0.044 C 
ATOM     20  C   UNL     1       1.701   0.474   0.150  1.00  0.00    -0.049 A 
ATOM     21  C   UNL     1       1.008  -0.646   0.607  1.00  0.00     0.003 A 
ATOM     22  C   UNL     1       1.142   1.771   0.310  1.00  0.00     0.029 A 
ATOM     23  C   UNL     1      -0.148  -0.464   1.337  1.00  0.00     0.002 A 
ATOM     24  C   UNL     1      -0.633   0.835   1.565  1.00  0.00     0.026 A 
ENDBRANCH  12  18
ENDBRANCH   6  11
BRANCH  10  25
ATOM     25  N   UNL     1      -6.912   9.083   2.103  1.00  0.00    -0.320 N 
ATOM     26  C   UNL     1      -7.007  10.126   2.991  1.00  0.00     0.258 C 
ATOM     27  H   UNL     1      -7.741   8.862   1.619  1.00  0.00     0.170 HD
ATOM     28  O   UNL     1      -8.099  10.621   3.257  1.00  0.00    -0.269 OA
BRANCH  26  29
ATOM     29  C   UNL     1      -5.785  10.700   3.579  1.00  0.00     0.075 A 
ATOM     30  C   UNL     1      -5.796  11.039   4.933  1.00  0.00     0.017 A 
ATOM     31  C   UNL     1      -4.628  10.902   2.822  1.00  0.00     0.135 A 
ATOM     32  C   UNL     1      -4.618  11.473   5.538  1.00  0.00     0.001 A 
ATOM     33  C   UNL     1      -3.442  11.284   3.433  1.00  0.00     0.040 A 
ATOM     34  F   UNL     1      -4.621  10.724   1.493  1.00  0.00    -0.206 F 
ATOM     35  C   UNL     1      -3.435  11.559   4.798  1.00  0.00     0.003 A 
ENDBRANCH  26  29
ENDBRANCH  10  25
ENDBRANCH   3   5
ENDBRANCH   2   3
ENDBRANCH   1   2
BRANCH   1  36
ATOM     36  C   UNL     1      -4.397   6.604  -4.914  1.00  0.00     0.275 C 
BRANCH  36  37
ATOM     37  O   UNL     1      -3.270   5.712  -4.824  1.00  0.00    -0.458 OA
BRANCH  37  38
ATOM     38  C   UNL     1      -2.953   5.248  -3.606  1.00  0.00     0.338 C 
ATOM     39  O   UNL     1      -2.031   5.710  -2.946  1.00  0.00    -0.246 OA
BRANCH  38  40
ATOM     40  C   UNL     1      -3.925   4.238  -3.132  1.00  0.00     0.060 A 
ATOM     41  C   UNL     1      -4.146   4.149  -1.757  1.00  0.00     0.016 A 
ATOM     42  C   UNL     1      -4.766   3.578  -4.014  1.00  0.00     0.016 A 
ATOM     43  C   UNL     1      -5.265   3.535  -1.227  1.00  0.00     0.010 A 
ATOM     44  C   UNL     1      -5.875   2.943  -3.505  1.00  0.00     0.010 A 
ATOM     45  C   UNL     1      -6.109   2.920  -2.119  1.00  0.00    -0.014 A 
BRANCH  45  46
ATOM     46  C   UNL     1      -7.182   2.066  -1.672  1.00  0.00     0.031 A 
ATOM     47  C   UNL     1      -8.432   2.655  -1.142  1.00  0.00     0.074 A 
ATOM     48  C   UNL     1      -6.924   0.768  -1.953  1.00  0.00     0.049 A 
ATOM     49  N   UNL     1      -9.230   2.043  -0.335  1.00  0.00    -0.248 NA
ATOM     50  C   UNL     1      -8.861   4.040  -1.389  1.00  0.00     0.031 C 
ATOM     51  C   UNL     1      -7.833  -0.326  -2.199  1.00  0.00     0.029 A 
ATOM     52  N   UNL     1      -5.675   0.149  -2.085  1.00  0.00    -0.354 N 
ATOM     53  C   UNL     1     -10.431   2.731  -0.391  1.00  0.00     0.074 A 
ATOM     54  C   UNL     1     -10.087   4.054  -0.845  1.00  0.00     0.031 C 
ATOM     55  C   UNL     1      -7.144  -1.485  -2.148  1.00  0.00     0.029 A 
ATOM     56  C   UNL     1      -5.810  -1.176  -1.661  1.00  0.00     0.049 A 
ATOM     57  H   UNL     1      -4.850   0.571  -2.417  1.00  0.00     0.167 HD
ATOM     58  C   UNL     1     -11.591   2.010  -0.352  1.00  0.00     0.037 A 
ATOM     59  C   UNL     1      -5.240  -1.706  -0.526  1.00  0.00     0.037 A 
ATOM     60  C   UNL     1     -11.271   0.597  -0.209  1.00  0.00     0.049 A 
ATOM     61  C   UNL     1      -6.278  -2.173   0.465  1.00  0.00     0.074 A 
ATOM     62  C   UNL     1     -11.069  -0.373  -1.176  1.00  0.00     0.029 A 
ATOM     63  N   UNL     1     -10.723   0.117   0.966  1.00  0.00    -0.354 N 
ATOM     64  N   UNL     1      -7.497  -1.727   0.455  1.00  0.00    -0.248 NA
ATOM     65  C   UNL     1      -5.990  -3.010   1.627  1.00  0.00     0.031 C 
ATOM     66  C   UNL     1     -10.361  -1.438  -0.581  1.00  0.00     0.029 A 
ATOM     67  C   UNL     1     -10.117  -1.103   0.738  1.00  0.00     0.049 A 
ATOM     68  H   UNL     1     -10.760   0.577   1.836  1.00  0.00     0.167 HD
ATOM     69  C   UNL     1      -8.150  -2.168   1.565  1.00  0.00     0.074 A 
ATOM     70  C   UNL     1      -7.175  -2.984   2.263  1.00  0.00     0.031 C 
ATOM     71  C   UNL     1      -9.433  -1.790   1.815  1.00  0.00     0.037 A 
BRANCH  58  72
ATOM     72  C   UNL     1     -12.951   2.463  -0.838  1.00  0.00     0.057 A 
ATOM     73  C   UNL     1     -13.862   1.519  -1.370  1.00  0.00     0.134 A 
ATOM     74  C   UNL     1     -13.428   3.781  -0.828  1.00  0.00     0.134 A 
ATOM     75  F   UNL     1     -13.600   0.206  -1.390  1.00  0.00    -0.206 F 
ATOM     76  C   UNL     1     -15.104   1.861  -1.912  1.00  0.00     0.040 A 
ATOM     77  C   UNL     1     -14.672   4.141  -1.381  1.00  0.00     0.040 A 
ATOM     78  F   UNL     1     -12.738   4.772  -0.249  1.00  0.00    -0.206 F 
ATOM     79  C   UNL     1     -15.510   3.181  -1.934  1.00  0.00     0.006 A 
ENDBRANCH  58  72
BRANCH  59  80
ATOM     80  C   UNL     1      -4.065  -0.944  -0.015  1.00  0.00     0.057 A 
ATOM     81  C   UNL     1      -3.006  -0.724  -0.909  1.00  0.00     0.134 A 
ATOM     82  C   UNL     1      -4.345   0.024   0.958  1.00  0.00     0.134 A 
ATOM     83  F   UNL     1      -2.639  -1.671  -1.783  1.00  0.00    -0.206 F 
ATOM     84  C   UNL     1      -2.499   0.553  -1.064  1.00  0.00     0.040 A 
ATOM     85  C   UNL     1      -3.880   1.303   0.793  1.00  0.00     0.040 A 
ATOM     86  F   UNL     1      -5.189  -0.206   1.972  1.00  0.00    -0.206 F 
ATOM     87  C   UNL     1      -3.006   1.565  -0.255  1.00  0.00     0.006 A 
ENDBRANCH  59  80
BRANCH  71  88
ATOM     88  C   UNL     1     -10.199  -2.141   3.043  1.00  0.00     0.057 A 
ATOM     89  C   UNL     1      -9.632  -2.255   4.315  1.00  0.00     0.134 A 
ATOM     90  C   UNL     1     -11.599  -2.295   2.970  1.00  0.00     0.134 A 
ATOM     91  F   UNL     1      -8.339  -1.977   4.533  1.00  0.00    -0.206 F 
ATOM     92  C   UNL     1     -10.393  -2.624   5.426  1.00  0.00     0.040 A 
ATOM     93  C   UNL     1     -12.377  -2.595   4.082  1.00  0.00     0.040 A 
ATOM     94  F   UNL     1     -12.268  -2.149   1.816  1.00  0.00    -0.206 F 
ATOM     95  C   UNL     1     -11.768  -2.797   5.311  1.00  0.00     0.006 A 
ENDBRANCH  71  88
ENDBRANCH  45  46
ENDBRANCH  38  40
ENDBRANCH  37  38
ENDBRANCH  36  37
ENDBRANCH   1  36
TORSDOF 15
