REMARK SMILES CCC(CC)(NC(=O)c1ccc(NC(C)=O)cc1)C(=O)OCCOC(=O)c1ccc(-c2c3nc(c(-c4c(F)cccc4F)c4ccc([nH]4)c(-c4c(F)cccc4F)c4nc(c(-c5c(F)cccc5F)c5ccc2[nH]5)C=C4)C=C3)cc1
REMARK SMILES IDX 22 1 21 2 19 3 20 4 3 5 2 6 1 7 4 8 5 9 6 10 7 11 8 13 9 14
REMARK SMILES IDX 10 15 18 16 11 17 17 18 12 19 13 20 14 21 15 23 16 24 23 25
REMARK SMILES IDX 24 26 25 27 26 28 27 29 28 30 80 31 29 32 79 33 30 34 31 35
REMARK SMILES IDX 32 36 73 37 33 38 78 39 72 40 74 41 34 42 77 43 71 44 70 45
REMARK SMILES IDX 35 47 61 48 44 49 60 50 45 51 48 52 59 53 75 54 46 55 47 56
REMARK SMILES IDX 58 58 76 59 49 60 36 61 37 62 42 63 38 64 39 65 41 66 43 67
REMARK SMILES IDX 40 68 62 69 63 70 68 71 64 72 65 73 67 74 69 75 66 76 50 77
REMARK SMILES IDX 51 78 56 79 52 80 53 81 55 82 57 83 54 84
REMARK H PARENT 6 12 13 22 74 46 48 57
REMARK Flexibility Score: inf
ROOT
ATOM      1  C   UNL     1       4.772  -2.035  -1.027  1.00  0.00     0.274 C 
ENDROOT
BRANCH   1   2
ATOM      2  O   UNL     1       3.489  -2.079  -1.696  1.00  0.00    -0.460 OA
BRANCH   2   3
ATOM      3  C   UNL     1       2.400  -1.874  -0.924  1.00  0.00     0.331 C 
ATOM      4  O   UNL     1       2.480  -1.599   0.271  1.00  0.00    -0.249 OA
BRANCH   3   5
ATOM      5  C   UNL     1       1.033  -2.160  -1.630  1.00  0.00     0.137 C 
BRANCH   5   6
ATOM      6  C   UNL     1       0.097  -0.923  -1.357  1.00  0.00     0.037 C 
ATOM      7  C   UNL     1      -0.115  -0.447   0.076  1.00  0.00     0.007 C 
ENDBRANCH   5   6
BRANCH   5   8
ATOM      8  C   UNL     1       0.505  -3.454  -0.938  1.00  0.00     0.037 C 
ATOM      9  C   UNL     1      -0.995  -3.706  -1.041  1.00  0.00     0.007 C 
ENDBRANCH   5   8
BRANCH   5  10
ATOM     10  N   UNL     1       0.915  -2.330  -3.127  1.00  0.00    -0.336 N 
ATOM     11  C   UNL     1       1.517  -3.050  -4.120  1.00  0.00     0.252 C 
ATOM     12  H   UNL     1       0.201  -1.758  -3.490  1.00  0.00     0.165 HD
ATOM     13  O   UNL     1       0.825  -3.461  -5.050  1.00  0.00    -0.269 OA
BRANCH  11  14
ATOM     14  C   UNL     1       2.973  -3.136  -4.265  1.00  0.00     0.039 A 
ATOM     15  C   UNL     1       3.598  -2.194  -5.089  1.00  0.00     0.016 A 
ATOM     16  C   UNL     1       3.713  -4.173  -3.707  1.00  0.00     0.016 A 
ATOM     17  C   UNL     1       4.987  -2.208  -5.246  1.00  0.00     0.027 A 
ATOM     18  C   UNL     1       5.108  -4.175  -3.857  1.00  0.00     0.027 A 
ATOM     19  C   UNL     1       5.759  -3.156  -4.574  1.00  0.00     0.041 A 
BRANCH  19  20
ATOM     20  N   UNL     1       7.164  -3.067  -4.448  1.00  0.00    -0.326 N 
ATOM     21  C   UNL     1       7.974  -2.034  -4.896  1.00  0.00     0.221 C 
ATOM     22  H   UNL     1       7.614  -3.816  -3.996  1.00  0.00     0.169 HD
ATOM     23  C   UNL     1       9.328  -2.031  -4.228  1.00  0.00     0.114 C 
ATOM     24  O   UNL     1       7.691  -1.176  -5.724  1.00  0.00    -0.275 OA
ENDBRANCH  19  20
ENDBRANCH  11  14
ENDBRANCH   5  10
ENDBRANCH   3   5
ENDBRANCH   2   3
ENDBRANCH   1   2
BRANCH   1  25
ATOM     25  C   UNL     1       5.655  -0.965  -1.651  1.00  0.00     0.275 C 
BRANCH  25  26
ATOM     26  O   UNL     1       4.982   0.292  -1.535  1.00  0.00    -0.458 OA
BRANCH  26  27
ATOM     27  C   UNL     1       4.657   0.893  -2.702  1.00  0.00     0.338 C 
ATOM     28  O   UNL     1       4.998   0.606  -3.831  1.00  0.00    -0.246 OA
BRANCH  27  29
ATOM     29  C   UNL     1       3.778   2.018  -2.385  1.00  0.00     0.060 A 
ATOM     30  C   UNL     1       2.605   1.783  -1.669  1.00  0.00     0.016 A 
ATOM     31  C   UNL     1       4.117   3.297  -2.812  1.00  0.00     0.016 A 
ATOM     32  C   UNL     1       1.748   2.834  -1.384  1.00  0.00     0.010 A 
ATOM     33  C   UNL     1       3.305   4.366  -2.444  1.00  0.00     0.010 A 
ATOM     34  C   UNL     1       2.121   4.141  -1.720  1.00  0.00    -0.014 A 
BRANCH  34  35
ATOM     35  C   UNL     1       1.308   5.283  -1.246  1.00  0.00     0.031 A 
ATOM     36  C   UNL     1       0.649   6.199  -2.230  1.00  0.00     0.074 A 
ATOM     37  C   UNL     1       1.199   5.495   0.080  1.00  0.00     0.049 A 
ATOM     38  N   UNL     1       0.061   7.346  -2.019  1.00  0.00    -0.248 NA
ATOM     39  C   UNL     1       0.664   5.776  -3.640  1.00  0.00     0.031 C 
ATOM     40  C   UNL     1       1.783   4.646   1.124  1.00  0.00     0.029 A 
ATOM     41  N   UNL     1       0.560   6.484   0.779  1.00  0.00    -0.354 N 
ATOM     42  C   UNL     1      -0.328   7.805  -3.270  1.00  0.00     0.074 A 
ATOM     43  C   UNL     1       0.090   6.812  -4.237  1.00  0.00     0.031 C 
ATOM     44  C   UNL     1       1.446   5.132   2.327  1.00  0.00     0.029 A 
ATOM     45  C   UNL     1       0.701   6.368   2.141  1.00  0.00     0.049 A 
ATOM     46  H   UNL     1       0.051   7.208   0.348  1.00  0.00     0.167 HD
ATOM     47  C   UNL     1      -0.969   8.958  -3.575  1.00  0.00     0.037 A 
ATOM     48  C   UNL     1       0.310   7.193   3.129  1.00  0.00     0.037 A 
ATOM     49  C   UNL     1      -1.389   9.924  -2.594  1.00  0.00     0.049 A 
ATOM     50  C   UNL     1      -0.382   8.471   2.759  1.00  0.00     0.074 A 
ATOM     51  C   UNL     1      -2.020  11.140  -2.790  1.00  0.00     0.029 A 
ATOM     52  N   UNL     1      -1.228   9.772  -1.224  1.00  0.00    -0.354 N 
ATOM     53  N   UNL     1      -0.693   8.925   1.569  1.00  0.00    -0.248 NA
ATOM     54  C   UNL     1      -0.758   9.361   3.864  1.00  0.00     0.031 C 
ATOM     55  C   UNL     1      -2.221  11.733  -1.538  1.00  0.00     0.029 A 
ATOM     56  C   UNL     1      -1.746  10.872  -0.561  1.00  0.00     0.049 A 
ATOM     57  H   UNL     1      -0.808   8.997  -0.787  1.00  0.00     0.167 HD
ATOM     58  C   UNL     1      -1.299  10.153   1.778  1.00  0.00     0.074 A 
ATOM     59  C   UNL     1      -1.341  10.358   3.213  1.00  0.00     0.031 C 
ATOM     60  C   UNL     1      -1.767  11.043   0.869  1.00  0.00     0.037 A 
BRANCH  47  61
ATOM     61  C   UNL     1      -1.218   9.246  -5.025  1.00  0.00     0.057 A 
ATOM     62  C   UNL     1      -2.205   8.572  -5.755  1.00  0.00     0.134 A 
ATOM     63  C   UNL     1      -0.471  10.223  -5.695  1.00  0.00     0.134 A 
ATOM     64  F   UNL     1      -2.941   7.612  -5.177  1.00  0.00    -0.206 F 
ATOM     65  C   UNL     1      -2.429   8.850  -7.106  1.00  0.00     0.040 A 
ATOM     66  C   UNL     1      -0.700  10.524  -7.039  1.00  0.00     0.040 A 
ATOM     67  F   UNL     1       0.490  10.905  -5.054  1.00  0.00    -0.206 F 
ATOM     68  C   UNL     1      -1.679   9.832  -7.750  1.00  0.00     0.006 A 
ENDBRANCH  47  61
BRANCH  48  69
ATOM     69  C   UNL     1       0.602   6.853   4.544  1.00  0.00     0.057 A 
ATOM     70  C   UNL     1      -0.423   6.516   5.433  1.00  0.00     0.134 A 
ATOM     71  C   UNL     1       1.913   6.843   5.037  1.00  0.00     0.134 A 
ATOM     72  F   UNL     1      -1.701   6.525   5.025  1.00  0.00    -0.206 F 
ATOM     73  C   UNL     1      -0.158   6.192   6.765  1.00  0.00     0.040 A 
ATOM     74  C   UNL     1       2.195   6.494   6.359  1.00  0.00     0.040 A 
ATOM     75  F   UNL     1       2.943   7.149   4.234  1.00  0.00    -0.206 F 
ATOM     76  C   UNL     1       1.156   6.173   7.229  1.00  0.00     0.006 A 
ENDBRANCH  48  69
BRANCH  60  77
ATOM     77  C   UNL     1      -2.371  12.298   1.417  1.00  0.00     0.057 A 
ATOM     78  C   UNL     1      -1.575  13.327   1.935  1.00  0.00     0.134 A 
ATOM     79  C   UNL     1      -3.759  12.479   1.421  1.00  0.00     0.134 A 
ATOM     80  F   UNL     1      -0.240  13.200   1.974  1.00  0.00    -0.206 F 
ATOM     81  C   UNL     1      -2.143  14.486   2.464  1.00  0.00     0.040 A 
ATOM     82  C   UNL     1      -4.336  13.643   1.928  1.00  0.00     0.040 A 
ATOM     83  F   UNL     1      -4.571  11.529   0.935  1.00  0.00    -0.206 F 
ATOM     84  C   UNL     1      -3.527  14.647   2.457  1.00  0.00     0.006 A 
ENDBRANCH  60  77
ENDBRANCH  34  35
ENDBRANCH  27  29
ENDBRANCH  26  27
ENDBRANCH  25  26
ENDBRANCH   1  25
TORSDOF 16
