REMARK SMILES O=C(CNC(=O)OCc1ccccc1)NCC(=O)OCCOC(=O)c1ccc(-c2c3nc(c(-c4c(F)cccc4F)c4ccc([nH]4)c(-c4c(F)cccc4F)c4nc(c(-c5c(F)cccc5F)c5ccc2[nH]5)C=C4)C=C3)cc1
REMARK SMILES IDX 17 1 18 2 16 3 15 4 1 5 2 6 3 8 4 9 5 10 6 12 7 13 8 14 9 15
REMARK SMILES IDX 10 16 14 17 11 18 13 19 12 20 19 21 20 22 21 23 22 24 23 25
REMARK SMILES IDX 24 26 25 27 26 28 78 29 27 30 77 31 28 32 29 33 30 34 71 35
REMARK SMILES IDX 31 36 76 37 70 38 72 39 32 40 75 41 69 42 68 43 33 45 59 46
REMARK SMILES IDX 42 47 58 48 43 49 46 50 57 51 73 52 44 53 45 54 56 56 74 57
REMARK SMILES IDX 47 58 34 59 35 60 40 61 36 62 37 63 39 64 41 65 38 66 60 67
REMARK SMILES IDX 61 68 66 69 62 70 63 71 65 72 67 73 64 74 48 75 49 76 54 77
REMARK SMILES IDX 50 78 51 79 53 80 55 81 52 82
REMARK H PARENT 15 7 4 11 72 44 46 55
REMARK Flexibility Score: inf
ROOT
ATOM      1  C   UNL     1       1.804  -0.142   3.485  1.00  0.00     0.325 C 
ATOM      2  O   UNL     1       1.367   0.339   4.524  1.00  0.00    -0.250 OA
ENDROOT
BRANCH   1   3
ATOM      3  C   UNL     1       1.624   0.526   2.126  1.00  0.00     0.238 C 
BRANCH   3   4
ATOM      4  N   UNL     1       2.502   0.041   1.074  1.00  0.00    -0.344 N 
ATOM      5  O   UNL     1       0.833  -0.439  -0.419  1.00  0.00    -0.273 OA
ATOM      6  C   UNL     1       2.029  -0.359  -0.154  1.00  0.00     0.240 C 
ATOM      7  H   UNL     1       3.470  -0.003   1.247  1.00  0.00     0.164 HD
BRANCH   6   8
ATOM      8  C   UNL     1       3.117  -0.722  -1.164  1.00  0.00     0.219 C 
BRANCH   8   9
ATOM      9  N   UNL     1       3.966   0.440  -1.351  1.00  0.00    -0.312 N 
ATOM     10  C   UNL     1       5.323   0.464  -1.419  1.00  0.00     0.407 C 
ATOM     11  H   UNL     1       3.508   1.307  -1.438  1.00  0.00     0.167 HD
ATOM     12  O   UNL     1       5.929   1.524  -1.427  1.00  0.00    -0.225 OA
BRANCH  10  13
ATOM     13  O   UNL     1       5.878  -0.771  -1.459  1.00  0.00    -0.445 OA
BRANCH  13  14
ATOM     14  C   UNL     1       7.311  -0.797  -1.451  1.00  0.00     0.270 C 
BRANCH  14  15
ATOM     15  C   UNL     1       7.882  -0.757  -2.848  1.00  0.00    -0.011 A 
ATOM     16  C   UNL     1       8.151  -1.940  -3.550  1.00  0.00     0.007 A 
ATOM     17  C   UNL     1       8.146   0.471  -3.471  1.00  0.00     0.007 A 
ATOM     18  C   UNL     1       8.688  -1.892  -4.840  1.00  0.00     0.000 A 
ATOM     19  C   UNL     1       8.674   0.518  -4.762  1.00  0.00     0.000 A 
ATOM     20  C   UNL     1       8.948  -0.663  -5.445  1.00  0.00     0.000 A 
ENDBRANCH  14  15
ENDBRANCH  13  14
ENDBRANCH  10  13
ENDBRANCH   8   9
ENDBRANCH   6   8
ENDBRANCH   3   4
ENDBRANCH   1   3
BRANCH   1  21
ATOM     21  O   UNL     1       2.475  -1.323   3.397  1.00  0.00    -0.461 OA
BRANCH  21  22
ATOM     22  C   UNL     1       2.824  -1.965   4.637  1.00  0.00     0.274 C 
BRANCH  22  23
ATOM     23  C   UNL     1       4.329  -1.847   4.895  1.00  0.00     0.275 C 
BRANCH  23  24
ATOM     24  O   UNL     1       4.723  -0.492   5.191  1.00  0.00    -0.458 OA
BRANCH  24  25
ATOM     25  C   UNL     1       4.976   0.286   4.114  1.00  0.00     0.338 C 
ATOM     26  O   UNL     1       4.915  -0.029   2.935  1.00  0.00    -0.246 OA
BRANCH  25  27
ATOM     27  C   UNL     1       5.211   1.673   4.545  1.00  0.00     0.060 A 
ATOM     28  C   UNL     1       4.381   2.663   4.015  1.00  0.00     0.016 A 
ATOM     29  C   UNL     1       6.289   2.014   5.364  1.00  0.00     0.016 A 
ATOM     30  C   UNL     1       4.649   4.004   4.262  1.00  0.00     0.010 A 
ATOM     31  C   UNL     1       6.545   3.364   5.628  1.00  0.00     0.010 A 
ATOM     32  C   UNL     1       5.743   4.369   5.056  1.00  0.00    -0.014 A 
BRANCH  32  33
ATOM     33  C   UNL     1       6.077   5.805   5.221  1.00  0.00     0.031 A 
ATOM     34  C   UNL     1       7.306   6.369   4.563  1.00  0.00     0.074 A 
ATOM     35  C   UNL     1       5.258   6.609   5.925  1.00  0.00     0.049 A 
ATOM     36  N   UNL     1       7.803   7.577   4.632  1.00  0.00    -0.248 NA
ATOM     37  C   UNL     1       8.080   5.447   3.716  1.00  0.00     0.031 C 
ATOM     38  C   UNL     1       4.014   6.191   6.572  1.00  0.00     0.029 A 
ATOM     39  N   UNL     1       5.350   7.948   6.210  1.00  0.00    -0.354 N 
ATOM     40  C   UNL     1       8.957   7.557   3.858  1.00  0.00     0.074 A 
ATOM     41  C   UNL     1       9.101   6.209   3.351  1.00  0.00     0.031 C 
ATOM     42  C   UNL     1       3.454   7.253   7.172  1.00  0.00     0.029 A 
ATOM     43  C   UNL     1       4.324   8.412   6.997  1.00  0.00     0.049 A 
ATOM     44  H   UNL     1       6.080   8.521   5.882  1.00  0.00     0.167 HD
ATOM     45  C   UNL     1       9.812   8.573   3.588  1.00  0.00     0.037 A 
ATOM     46  C   UNL     1       4.124   9.628   7.540  1.00  0.00     0.037 A 
ATOM     47  C   UNL     1       9.651   9.917   4.080  1.00  0.00     0.049 A 
ATOM     48  C   UNL     1       5.123  10.722   7.278  1.00  0.00     0.074 A 
ATOM     49  C   UNL     1      10.454  11.021   3.850  1.00  0.00     0.029 A 
ATOM     50  N   UNL     1       8.617  10.339   4.903  1.00  0.00    -0.354 N 
ATOM     51  N   UNL     1       6.209  10.692   6.544  1.00  0.00    -0.248 NA
ATOM     52  C   UNL     1       4.869  12.017   7.923  1.00  0.00     0.031 C 
ATOM     53  C   UNL     1       9.934  12.098   4.576  1.00  0.00     0.029 A 
ATOM     54  C   UNL     1       8.775  11.681   5.210  1.00  0.00     0.049 A 
ATOM     55  H   UNL     1       7.880   9.770   5.221  1.00  0.00     0.167 HD
ATOM     56  C   UNL     1       6.751  11.969   6.614  1.00  0.00     0.074 A 
ATOM     57  C   UNL     1       5.866  12.752   7.452  1.00  0.00     0.031 C 
ATOM     58  C   UNL     1       7.880  12.450   6.038  1.00  0.00     0.037 A 
BRANCH  45  59
ATOM     59  C   UNL     1      11.015   8.262   2.745  1.00  0.00     0.057 A 
ATOM     60  C   UNL     1      10.915   7.988   1.375  1.00  0.00     0.134 A 
ATOM     61  C   UNL     1      12.298   8.271   3.308  1.00  0.00     0.134 A 
ATOM     62  F   UNL     1       9.716   7.952   0.775  1.00  0.00    -0.206 F 
ATOM     63  C   UNL     1      12.044   7.707   0.602  1.00  0.00     0.040 A 
ATOM     64  C   UNL     1      13.437   8.020   2.540  1.00  0.00     0.040 A 
ATOM     65  F   UNL     1      12.469   8.533   4.613  1.00  0.00    -0.206 F 
ATOM     66  C   UNL     1      13.310   7.730   1.183  1.00  0.00     0.006 A 
ENDBRANCH  45  59
BRANCH  46  67
ATOM     67  C   UNL     1       2.941   9.871   8.405  1.00  0.00     0.057 A 
ATOM     68  C   UNL     1       1.914  10.734   8.005  1.00  0.00     0.134 A 
ATOM     69  C   UNL     1       2.817   9.260   9.659  1.00  0.00     0.134 A 
ATOM     70  F   UNL     1       1.985  11.366   6.825  1.00  0.00    -0.206 F 
ATOM     71  C   UNL     1       0.817  10.995   8.828  1.00  0.00     0.040 A 
ATOM     72  C   UNL     1       1.712   9.489  10.479  1.00  0.00     0.040 A 
ATOM     73  F   UNL     1       3.765   8.420  10.100  1.00  0.00    -0.206 F 
ATOM     74  C   UNL     1       0.712  10.367  10.068  1.00  0.00     0.006 A 
ENDBRANCH  46  67
BRANCH  58  75
ATOM     75  C   UNL     1       8.198  13.901   6.256  1.00  0.00     0.057 A 
ATOM     76  C   UNL     1       8.635  14.389   7.494  1.00  0.00     0.134 A 
ATOM     77  C   UNL     1       8.099  14.817   5.199  1.00  0.00     0.134 A 
ATOM     78  F   UNL     1       8.739  13.568   8.550  1.00  0.00    -0.206 F 
ATOM     79  C   UNL     1       8.938  15.739   7.680  1.00  0.00     0.040 A 
ATOM     80  C   UNL     1       8.427  16.163   5.366  1.00  0.00     0.040 A 
ATOM     81  F   UNL     1       7.695  14.415   3.985  1.00  0.00    -0.206 F 
ATOM     82  C   UNL     1       8.841  16.628   6.612  1.00  0.00     0.006 A 
ENDBRANCH  58  75
ENDBRANCH  32  33
ENDBRANCH  25  27
ENDBRANCH  24  25
ENDBRANCH  23  24
ENDBRANCH  22  23
ENDBRANCH  21  22
ENDBRANCH   1  21
TORSDOF 17
