REMARK SMILES COc1ccc(-c2[nH]nc3nc(-c4ccc(C(F)(F)F)cc4)cc(C(=O)OCCOC(=O)c4ccc(-c5c6nc(c(-c7c(F)cccc7F)c7ccc([nH]7)c(-c7c(F)cccc7F)c7nc(c(-c8c(F)cccc8F)c8ccc5[nH]8)C=C7)C=C6)cc4)c23)cc1
REMARK SMILES IDX 28 1 27 2 25 3 26 4 24 5 7 6 8 7 87 8 9 9 10 11 11 12 23 13
REMARK SMILES IDX 12 14 6 15 3 16 4 17 89 18 5 19 88 20 2 21 1 22 13 23 14 24
REMARK SMILES IDX 22 25 15 26 21 27 16 28 17 29 18 30 19 31 20 32 29 33 30 34
REMARK SMILES IDX 31 35 32 36 33 37 34 38 86 39 35 40 85 41 36 42 37 43 38 44
REMARK SMILES IDX 79 45 39 46 84 47 78 48 80 49 40 50 83 51 77 52 76 53 41 55
REMARK SMILES IDX 67 56 50 57 66 58 51 59 54 60 65 61 81 62 52 63 53 64 64 66
REMARK SMILES IDX 82 67 55 68 42 69 43 70 48 71 44 72 45 73 47 74 49 75 46 76
REMARK SMILES IDX 68 77 69 78 74 79 70 80 71 81 73 82 75 83 72 84 56 85 57 86
REMARK SMILES IDX 62 87 58 88 59 89 61 90 63 91 60 92
REMARK H PARENT 8 10 80 54 54 65
REMARK Flexibility Score: inf
ROOT
ATOM      1  C   UNL     1       4.455   6.348   0.401  1.00  0.00     0.275 C 
ENDROOT
BRANCH   1   2
ATOM      2  O   UNL     1       4.381   6.616   1.806  1.00  0.00    -0.458 OA
BRANCH   2   3
ATOM      3  C   UNL     1       3.270   6.157   2.443  1.00  0.00     0.339 C 
ATOM      4  O   UNL     1       2.241   5.803   1.901  1.00  0.00    -0.246 OA
BRANCH   3   5
ATOM      5  C   UNL     1       3.526   6.157   3.892  1.00  0.00     0.075 A 
ATOM      6  C   UNL     1       1.783   4.563   4.807  1.00  0.00     0.075 A 
ATOM      7  N   UNL     1       1.472   4.269   6.114  1.00  0.00    -0.275 N 
ATOM      8  C   UNL     1       2.806   5.494   4.895  1.00  0.00     0.061 A 
ATOM      9  N   UNL     1       2.242   4.872   7.031  1.00  0.00    -0.154 NA
ATOM     10  H   UNL     1       0.738   3.660   6.359  1.00  0.00     0.190 HD
ATOM     11  C   UNL     1       3.079   5.611   6.304  1.00  0.00     0.182 A 
ATOM     12  N   UNL     1       4.078   6.384   6.801  1.00  0.00    -0.226 NA
ATOM     13  C   UNL     1       4.562   6.933   4.446  1.00  0.00     0.045 A 
ATOM     14  C   UNL     1       4.788   7.035   5.838  1.00  0.00     0.074 A 
BRANCH   6  15
ATOM     15  C   UNL     1       1.173   3.800   3.726  1.00  0.00     0.001 A 
ATOM     16  C   UNL     1       0.129   2.299   1.579  1.00  0.00     0.118 A 
ATOM     17  C   UNL     1      -0.559   3.409   2.078  1.00  0.00     0.047 A 
ATOM     18  C   UNL     1       1.307   1.905   2.203  1.00  0.00     0.047 A 
ATOM     19  C   UNL     1      -0.047   4.156   3.149  1.00  0.00     0.014 A 
ATOM     20  C   UNL     1       1.818   2.648   3.271  1.00  0.00     0.014 A 
BRANCH  16  21
ATOM     21  O   UNL     1      -0.442   1.702   0.489  1.00  0.00    -0.497 OA
ATOM     22  C   UNL     1       0.250   0.601  -0.085  1.00  0.00     0.278 C 
ENDBRANCH  16  21
ENDBRANCH   6  15
BRANCH  14  23
ATOM     23  C   UNL     1       5.814   7.978   6.330  1.00  0.00     0.000 A 
ATOM     24  C   UNL     1       6.785   7.601   7.269  1.00  0.00     0.011 A 
ATOM     25  C   UNL     1       5.843   9.302   5.853  1.00  0.00     0.011 A 
ATOM     26  C   UNL     1       7.755   8.513   7.708  1.00  0.00     0.014 A 
ATOM     27  C   UNL     1       6.804  10.215   6.289  1.00  0.00     0.014 A 
ATOM     28  C   UNL     1       7.772   9.831   7.224  1.00  0.00     0.056 A 
BRANCH  28  29
ATOM     29  C   UNL     1       8.804  10.817   7.714  1.00  0.00     0.416 C 
ATOM     30  F   UNL     1       8.741  11.018   9.059  1.00  0.00    -0.166 F 
ATOM     31  F   UNL     1      10.079  10.414   7.454  1.00  0.00    -0.166 F 
ATOM     32  F   UNL     1       8.685  12.053   7.149  1.00  0.00    -0.166 F 
ENDBRANCH  28  29
ENDBRANCH  14  23
ENDBRANCH   3   5
ENDBRANCH   2   3
ENDBRANCH   1   2
BRANCH   1  33
ATOM     33  C   UNL     1       5.272   5.088   0.186  1.00  0.00     0.275 C 
BRANCH  33  34
ATOM     34  O   UNL     1       4.674   3.987   0.862  1.00  0.00    -0.458 OA
BRANCH  34  35
ATOM     35  C   UNL     1       5.297   3.550   1.984  1.00  0.00     0.338 C 
ATOM     36  O   UNL     1       5.993   4.175   2.748  1.00  0.00    -0.246 OA
BRANCH  35  37
ATOM     37  C   UNL     1       5.058   2.096   2.033  1.00  0.00     0.060 A 
ATOM     38  C   UNL     1       5.229   1.388   3.227  1.00  0.00     0.016 A 
ATOM     39  C   UNL     1       4.703   1.444   0.843  1.00  0.00     0.016 A 
ATOM     40  C   UNL     1       5.047   0.011   3.218  1.00  0.00     0.010 A 
ATOM     41  C   UNL     1       4.512   0.089   0.836  1.00  0.00     0.010 A 
ATOM     42  C   UNL     1       4.725  -0.623   2.012  1.00  0.00    -0.014 A 
BRANCH  42  43
ATOM     43  C   UNL     1       4.596  -2.063   1.948  1.00  0.00     0.031 A 
ATOM     44  C   UNL     1       3.388  -2.651   2.584  1.00  0.00     0.074 A 
ATOM     45  C   UNL     1       5.403  -2.780   1.143  1.00  0.00     0.049 A 
ATOM     46  N   UNL     1       3.329  -3.486   3.566  1.00  0.00    -0.248 NA
ATOM     47  C   UNL     1       2.071  -2.200   2.116  1.00  0.00     0.031 C 
ATOM     48  C   UNL     1       6.419  -2.305   0.195  1.00  0.00     0.029 A 
ATOM     49  N   UNL     1       5.402  -4.119   0.940  1.00  0.00    -0.354 N 
ATOM     50  C   UNL     1       1.981  -3.810   3.730  1.00  0.00     0.074 A 
ATOM     51  C   UNL     1       1.244  -2.891   2.903  1.00  0.00     0.031 C 
ATOM     52  C   UNL     1       6.781  -3.321  -0.620  1.00  0.00     0.029 A 
ATOM     53  C   UNL     1       6.145  -4.538  -0.150  1.00  0.00     0.049 A 
ATOM     54  H   UNL     1       4.911  -4.744   1.522  1.00  0.00     0.167 HD
ATOM     55  C   UNL     1       1.602  -4.946   4.383  1.00  0.00     0.037 A 
ATOM     56  C   UNL     1       6.197  -5.798  -0.642  1.00  0.00     0.037 A 
ATOM     57  C   UNL     1       2.685  -5.462   5.183  1.00  0.00     0.049 A 
ATOM     58  C   UNL     1       5.746  -6.710   0.443  1.00  0.00     0.074 A 
ATOM     59  C   UNL     1       3.442  -4.956   6.223  1.00  0.00     0.029 A 
ATOM     60  N   UNL     1       3.400  -6.530   4.697  1.00  0.00    -0.354 N 
ATOM     61  N   UNL     1       6.414  -6.898   1.549  1.00  0.00    -0.248 NA
ATOM     62  C   UNL     1       4.327  -7.028   0.510  1.00  0.00     0.031 C 
ATOM     63  C   UNL     1       4.772  -5.387   5.940  1.00  0.00     0.029 A 
ATOM     64  C   UNL     1       4.725  -6.191   4.800  1.00  0.00     0.049 A 
ATOM     65  H   UNL     1       3.033  -7.373   4.345  1.00  0.00     0.167 HD
ATOM     66  C   UNL     1       5.449  -6.945   2.546  1.00  0.00     0.074 A 
ATOM     67  C   UNL     1       4.178  -7.099   1.837  1.00  0.00     0.031 C 
ATOM     68  C   UNL     1       5.727  -6.567   3.830  1.00  0.00     0.037 A 
BRANCH  55  69
ATOM     69  C   UNL     1       0.398  -5.792   4.040  1.00  0.00     0.057 A 
ATOM     70  C   UNL     1       0.096  -6.908   4.845  1.00  0.00     0.134 A 
ATOM     71  C   UNL     1      -0.277  -5.751   2.804  1.00  0.00     0.134 A 
ATOM     72  F   UNL     1       0.661  -7.061   6.053  1.00  0.00    -0.206 F 
ATOM     73  C   UNL     1      -0.722  -7.956   4.407  1.00  0.00     0.040 A 
ATOM     74  C   UNL     1      -1.134  -6.771   2.376  1.00  0.00     0.040 A 
ATOM     75  F   UNL     1      -0.072  -4.782   1.905  1.00  0.00    -0.206 F 
ATOM     76  C   UNL     1      -1.328  -7.897   3.160  1.00  0.00     0.006 A 
ENDBRANCH  55  69
BRANCH  56  77
ATOM     77  C   UNL     1       6.305  -6.209  -2.057  1.00  0.00     0.057 A 
ATOM     78  C   UNL     1       6.672  -7.513  -2.412  1.00  0.00     0.134 A 
ATOM     79  C   UNL     1       5.798  -5.404  -3.095  1.00  0.00     0.134 A 
ATOM     80  F   UNL     1       7.126  -8.366  -1.483  1.00  0.00    -0.206 F 
ATOM     81  C   UNL     1       6.526  -7.997  -3.719  1.00  0.00     0.040 A 
ATOM     82  C   UNL     1       5.653  -5.872  -4.404  1.00  0.00     0.040 A 
ATOM     83  F   UNL     1       5.346  -4.165  -2.855  1.00  0.00    -0.206 F 
ATOM     84  C   UNL     1       6.004  -7.179  -4.718  1.00  0.00     0.006 A 
ENDBRANCH  56  77
BRANCH  68  85
ATOM     85  C   UNL     1       7.157  -6.271   4.196  1.00  0.00     0.057 A 
ATOM     86  C   UNL     1       7.912  -5.228   3.635  1.00  0.00     0.134 A 
ATOM     87  C   UNL     1       7.730  -6.941   5.281  1.00  0.00     0.134 A 
ATOM     88  F   UNL     1       7.414  -4.453   2.667  1.00  0.00    -0.206 F 
ATOM     89  C   UNL     1       9.188  -4.897   4.103  1.00  0.00     0.040 A 
ATOM     90  C   UNL     1       8.990  -6.600   5.781  1.00  0.00     0.040 A 
ATOM     91  F   UNL     1       7.046  -7.907   5.915  1.00  0.00    -0.206 F 
ATOM     92  C   UNL     1       9.728  -5.580   5.185  1.00  0.00     0.006 A 
ENDBRANCH  68  85
ENDBRANCH  42  43
ENDBRANCH  35  37
ENDBRANCH  34  35
ENDBRANCH  33  34
ENDBRANCH   1  33
TORSDOF 15
