REMARK SMILES C=C1C(=O)O[C@H]2[C@@H]1[C@@H](OC(=O)[C@]1(C)O[C@@H]1C)[C@@H](OC(C)=O)/C(C(=O)OCCOC(=O)c1ccc(-c3c4nc(c(-c5c(F)cccc5F)c5ccc([nH]5)c(-c5c(F)cccc5F)c5nc(c(-c6c(F)cccc6F)c6ccc3[nH]6)C=C5)C=C4)cc1)=C/[C@@H]1O[C@@H]1[C@]1(C)O[C@H]21
REMARK SMILES IDX 25 1 23 2 24 3 22 4 85 5 86 6 88 7 87 8 89 9 92 10 91 11
REMARK SMILES IDX 90 12 6 13 1 14 2 15 3 16 7 17 5 18 4 19 17 21 8 22 9 24
REMARK SMILES IDX 10 25 11 26 12 27 14 28 15 29 13 30 16 31 18 32 19 33 20 34
REMARK SMILES IDX 21 35 26 36 27 37 28 38 29 39 30 40 31 41 32 42 84 43 33 44
REMARK SMILES IDX 83 45 34 46 35 47 36 48 77 49 37 50 82 51 76 52 78 53 38 54
REMARK SMILES IDX 81 55 75 56 74 57 39 59 65 60 48 61 64 62 49 63 52 64 63 65
REMARK SMILES IDX 79 66 50 67 51 68 62 70 80 71 53 72 40 73 41 74 46 75 42 76
REMARK SMILES IDX 43 77 45 78 47 79 44 80 66 81 67 82 72 83 68 84 69 85 71 86
REMARK SMILES IDX 73 87 70 88 54 89 55 90 60 91 56 92 57 93 59 94 61 95 58 96
REMARK H PARENT 78 58 52 69
REMARK Flexibility Score: 90.00
ROOT
ATOM      1  O   UNL     1       3.997  -4.350  -3.287  1.00  0.00    -0.459 OA
ENDROOT
BRANCH   1   2
ATOM      2  C   UNL     1       3.159  -4.850  -2.348  1.00  0.00     0.337 C 
ATOM      3  O   UNL     1       2.823  -4.097  -1.461  1.00  0.00    -0.246 OA
BRANCH   2   4
ATOM      4  C   UNL     1       2.553  -6.222  -2.423  1.00  0.00     0.080 C 
ATOM      5  C   UNL     1       3.246  -7.364  -2.242  1.00  0.00     0.022 C 
BRANCH   5   6
ATOM      6  C   UNL     1       4.614  -7.775  -1.944  1.00  0.00     0.174 C 
ATOM      7  C   UNL     1       5.221  -8.057  -0.597  1.00  0.00     0.186 C 
ATOM      8  O   UNL     1       4.670  -9.112  -1.354  1.00  0.00    -0.362 OA
BRANCH   7   9
ATOM      9  C   UNL     1       4.502  -7.542   0.622  1.00  0.00     0.125 C 
ATOM     10  C   UNL     1       3.070  -7.726   1.219  1.00  0.00     0.195 C 
ATOM     11  O   UNL     1       4.157  -8.617   1.512  1.00  0.00    -0.359 OA
ATOM     12  C   UNL     1       5.384  -6.462   1.259  1.00  0.00     0.048 C 
BRANCH  10  13
ATOM     13  C   UNL     1       1.766  -8.426   0.578  1.00  0.00     0.220 C 
ATOM     14  C   UNL     1       0.930  -6.133   2.143  1.00  0.00     0.021 C 
ATOM     15  C   UNL     1       0.331  -7.157   1.523  1.00  0.00     0.041 C 
ATOM     16  C   UNL     1       0.155  -8.327   2.344  1.00  0.00     0.334 C 
ATOM     17  C   UNL     1       0.450  -7.496   0.064  1.00  0.00     0.115 CG0
ATOM     18  O   UNL     1       1.103  -9.137   1.783  1.00  0.00    -0.455 OA
ATOM     19  O   UNL     1      -0.582  -8.455   3.296  1.00  0.00    -0.247 OA
ATOM     20  G   UNL     1      -0.137  -6.409  -1.360  1.00  0.00     0.000 G0
ENDBRANCH  10  13
ENDBRANCH   7   9
ENDBRANCH   5   6
BRANCH   4  21
ATOM     21  C   UNL     1       0.994  -6.429  -2.644  1.00  0.00     0.255 C 
BRANCH  21  22
ATOM     22  C   UNL     1      -0.137  -6.409  -1.360  1.00  0.00     0.234 CG0
ATOM     23  G   UNL     1       0.450  -7.496   0.064  1.00  0.00     0.000 G0
BRANCH  22  24
ATOM     24  O   UNL     1      -1.123  -4.812  -1.179  1.00  0.00    -0.455 OA
BRANCH  24  25
ATOM     25  C   UNL     1      -0.894  -3.191  -0.079  1.00  0.00     0.341 C 
ATOM     26  O   UNL     1      -1.618  -2.185  -0.090  1.00  0.00    -0.249 OA
BRANCH  25  27
ATOM     27  C   UNL     1       0.407  -2.953   1.214  1.00  0.00     0.188 C 
ATOM     28  O   UNL     1       1.540  -2.221   0.653  1.00  0.00    -0.354 OA
ATOM     29  C   UNL     1       1.981  -3.292   1.466  1.00  0.00     0.160 C 
ATOM     30  C   UNL     1      -0.065  -2.377   2.543  1.00  0.00     0.058 C 
ATOM     31  C   UNL     1       3.156  -4.085   1.003  1.00  0.00     0.042 C 
ENDBRANCH  25  27
ENDBRANCH  24  25
ENDBRANCH  22  24
ENDBRANCH  21  22
BRANCH  21  32
ATOM     32  O   UNL     1       0.527  -5.804  -3.866  1.00  0.00    -0.453 OA
BRANCH  32  33
ATOM     33  C   UNL     1       1.135  -6.145  -5.048  1.00  0.00     0.303 C 
ATOM     34  C   UNL     1       2.394  -5.382  -5.340  1.00  0.00     0.139 C 
ATOM     35  O   UNL     1       0.693  -6.990  -5.814  1.00  0.00    -0.253 OA
ENDBRANCH  32  33
ENDBRANCH  21  32
ENDBRANCH   4  21
ENDBRANCH   2   4
ENDBRANCH   1   2
BRANCH   1  36
ATOM     36  C   UNL     1       4.166  -2.876  -3.155  1.00  0.00     0.275 C 
BRANCH  36  37
ATOM     37  C   UNL     1       2.930  -2.037  -3.586  1.00  0.00     0.275 C 
BRANCH  37  38
ATOM     38  O   UNL     1       1.863  -2.209  -2.636  1.00  0.00    -0.458 OA
BRANCH  38  39
ATOM     39  C   UNL     1       0.818  -2.929  -3.071  1.00  0.00     0.338 C 
ATOM     40  O   UNL     1       0.479  -3.080  -4.235  1.00  0.00    -0.246 OA
BRANCH  39  41
ATOM     41  C   UNL     1       0.046  -3.489  -1.953  1.00  0.00     0.060 A 
ATOM     42  C   UNL     1       0.504  -4.505  -0.483  1.00  0.00     0.016 A 
ATOM     43  C   UNL     1      -1.666  -3.180  -2.252  1.00  0.00     0.016 A 
ATOM     44  C   UNL     1      -0.933  -5.071   0.616  1.00  0.00     0.010 A 
ATOM     45  C   UNL     1      -2.924  -3.757  -1.199  1.00  0.00     0.010 A 
ATOM     46  C   UNL     1      -2.608  -4.676   0.210  1.00  0.00    -0.014 A 
BRANCH  46  47
ATOM     47  C   UNL     1      -3.686  -5.293   1.071  1.00  0.00     0.031 A 
ATOM     48  C   UNL     1      -4.875  -5.978   0.476  1.00  0.00     0.074 A 
ATOM     49  C   UNL     1      -3.513  -5.384   2.409  1.00  0.00     0.049 A 
ATOM     50  N   UNL     1      -5.892  -6.516   1.098  1.00  0.00    -0.248 NA
ATOM     51  C   UNL     1      -4.954  -6.069  -0.986  1.00  0.00     0.031 C 
ATOM     52  C   UNL     1      -2.401  -4.768   3.097  1.00  0.00     0.029 A 
ATOM     53  N   UNL     1      -4.153  -6.043   3.428  1.00  0.00    -0.354 N 
ATOM     54  C   UNL     1      -6.772  -6.921   0.108  1.00  0.00     0.074 A 
ATOM     55  C   UNL     1      -6.157  -6.597  -1.159  1.00  0.00     0.031 C 
ATOM     56  C   UNL     1      -2.270  -5.242   4.335  1.00  0.00     0.029 A 
ATOM     57  C   UNL     1      -3.473  -5.987   4.634  1.00  0.00     0.049 A 
ATOM     58  H   UNL     1      -5.012  -6.509   3.313  1.00  0.00     0.167 HD
ATOM     59  C   UNL     1      -7.994  -7.479   0.268  1.00  0.00     0.037 A 
ATOM     60  C   UNL     1      -3.811  -6.395   5.872  1.00  0.00     0.037 A 
ATOM     61  C   UNL     1      -8.553  -7.815   1.554  1.00  0.00     0.049 A 
ATOM     62  C   UNL     1      -5.189  -6.956   6.020  1.00  0.00     0.074 A 
ATOM     63  C   UNL     1      -9.797  -8.348   1.839  1.00  0.00     0.029 A 
ATOM     64  N   UNL     1      -7.902  -7.649   2.772  1.00  0.00    -0.354 N 
ATOM     65  N   UNL     1      -6.063  -7.231   5.081  1.00  0.00    -0.248 NA
ATOM     66  C   UNL     1      -5.666  -7.197   7.384  1.00  0.00     0.031 C 
ATOM     67  C   UNL     1      -9.931  -8.423   3.228  1.00  0.00     0.029 A 
ATOM     68  C   UNL     1      -8.734  -8.037   3.811  1.00  0.00     0.049 A 
ATOM     69  H   UNL     1      -6.986  -7.306   2.881  1.00  0.00     0.167 HD
ATOM     70  C   UNL     1      -7.195  -7.676   5.737  1.00  0.00     0.074 A 
ATOM     71  C   UNL     1      -6.879  -7.677   7.154  1.00  0.00     0.031 C 
ATOM     72  C   UNL     1      -8.392  -8.034   5.213  1.00  0.00     0.037 A 
BRANCH  59  73
ATOM     73  C   UNL     1      -8.845  -7.638  -0.959  1.00  0.00     0.057 A 
ATOM     74  C   UNL     1      -8.553  -8.541  -1.988  1.00  0.00     0.134 A 
ATOM     75  C   UNL     1      -9.994  -6.846  -1.109  1.00  0.00     0.134 A 
ATOM     76  F   UNL     1      -7.458  -9.315  -1.925  1.00  0.00    -0.206 F 
ATOM     77  C   UNL     1      -9.351  -8.629  -3.132  1.00  0.00     0.040 A 
ATOM     78  C   UNL     1     -10.820  -6.951  -2.227  1.00  0.00     0.040 A 
ATOM     79  F   UNL     1     -10.335  -5.955  -0.165  1.00  0.00    -0.206 F 
ATOM     80  C   UNL     1     -10.493  -7.837  -3.249  1.00  0.00     0.006 A 
ENDBRANCH  59  73
BRANCH  60  81
ATOM     81  C   UNL     1      -2.928  -6.158   7.056  1.00  0.00     0.057 A 
ATOM     82  C   UNL     1      -2.516  -7.209   7.886  1.00  0.00     0.134 A 
ATOM     83  C   UNL     1      -2.501  -4.870   7.421  1.00  0.00     0.134 A 
ATOM     84  F   UNL     1      -2.908  -8.466   7.631  1.00  0.00    -0.206 F 
ATOM     85  C   UNL     1      -1.738  -6.988   9.029  1.00  0.00     0.040 A 
ATOM     86  C   UNL     1      -1.678  -4.641   8.526  1.00  0.00     0.040 A 
ATOM     87  F   UNL     1      -2.863  -3.800   6.697  1.00  0.00    -0.206 F 
ATOM     88  C   UNL     1      -1.308  -5.702   9.345  1.00  0.00     0.006 A 
ENDBRANCH  60  81
BRANCH  72  89
ATOM     89  C   UNL     1      -9.419  -8.523   6.187  1.00  0.00     0.057 A 
ATOM     90  C   UNL     1     -10.028  -7.678   7.124  1.00  0.00     0.134 A 
ATOM     91  C   UNL     1      -9.804  -9.869   6.178  1.00  0.00     0.134 A 
ATOM     92  F   UNL     1      -9.688  -6.381   7.196  1.00  0.00    -0.206 F 
ATOM     93  C   UNL     1     -10.954  -8.166   8.045  1.00  0.00     0.040 A 
ATOM     94  C   UNL     1     -10.761 -10.358   7.063  1.00  0.00     0.040 A 
ATOM     95  F   UNL     1      -9.264 -10.728   5.300  1.00  0.00    -0.206 F 
ATOM     96  C   UNL     1     -11.328  -9.508   8.010  1.00  0.00     0.006 A 
ENDBRANCH  72  89
ENDBRANCH  46  47
ENDBRANCH  39  41
ENDBRANCH  38  39
ENDBRANCH  37  38
ENDBRANCH  36  37
ENDBRANCH   1  36
TORSDOF 16
