REMARK SMILES CC(C)CCNC(=O)[C@@H](C)Oc1ccc(N)cc1C(=O)OCCOC(=O)c1ccc(-c2c3nc(c(-c4c(F)cccc4F)c4ccc([nH]4)c(-c4c(F)cccc4F)c4nc(c(-c5c(F)cccc5F)c5ccc2[nH]5)C=C4)C=C3)cc1
REMARK SMILES IDX 19 1 20 2 18 3 12 4 13 5 14 6 17 7 15 8 11 9 9 10 10 11 7 12
REMARK SMILES IDX 6 13 8 15 5 16 4 17 2 18 1 19 3 20 16 21 21 24 22 25 23 26
REMARK SMILES IDX 24 27 25 28 26 29 27 30 28 31 80 32 29 33 79 34 30 35 31 36
REMARK SMILES IDX 32 37 73 38 33 39 78 40 72 41 74 42 34 43 77 44 71 45 70 46
REMARK SMILES IDX 35 48 61 49 44 50 60 51 45 52 48 53 59 54 75 55 46 56 47 57
REMARK SMILES IDX 58 59 76 60 49 61 36 62 37 63 42 64 38 65 39 66 41 67 43 68
REMARK SMILES IDX 40 69 62 70 63 71 68 72 64 73 65 74 67 75 69 76 66 77 50 78
REMARK SMILES IDX 51 79 56 80 52 81 53 82 55 83 57 84 54 85
REMARK H PARENT 6 14 16 22 16 23 74 47 48 58
REMARK Flexibility Score: inf
ROOT
ATOM      1  C   UNL     1      -5.280   1.723   2.211  1.00  0.00     0.342 C 
ATOM      2  O   UNL     1      -5.755   1.371   3.277  1.00  0.00    -0.246 OA
ENDROOT
BRANCH   1   3
ATOM      3  C   UNL     1      -3.838   1.532   1.936  1.00  0.00     0.104 A 
ATOM      4  C   UNL     1      -2.986   2.612   1.750  1.00  0.00     0.135 A 
ATOM      5  C   UNL     1      -1.656   2.499   2.159  1.00  0.00     0.049 A 
ATOM      6  C   UNL     1      -1.140   1.253   2.548  1.00  0.00     0.029 A 
ATOM      7  C   UNL     1      -3.283   0.273   2.195  1.00  0.00     0.045 A 
ATOM      8  C   UNL     1      -1.929   0.110   2.470  1.00  0.00     0.032 A 
BRANCH   4   9
ATOM      9  O   UNL     1      -3.429   3.783   1.217  1.00  0.00    -0.480 OA
BRANCH   9  10
ATOM     10  C   UNL     1      -3.173   3.910  -0.193  1.00  0.00     0.258 C 
ATOM     11  C   UNL     1      -4.118   3.097  -1.086  1.00  0.00     0.064 C 
BRANCH  10  12
ATOM     12  C   UNL     1      -1.713   3.985  -0.740  1.00  0.00     0.260 C 
ATOM     13  N   UNL     1      -0.994   2.900  -1.152  1.00  0.00    -0.353 N 
ATOM     14  H   UNL     1      -0.210   3.110  -1.709  1.00  0.00     0.163 HD
ATOM     15  O   UNL     1      -1.148   5.083  -0.834  1.00  0.00    -0.271 OA
BRANCH  13  16
ATOM     16  C   UNL     1      -1.201   1.489  -0.898  1.00  0.00     0.116 C 
BRANCH  16  17
ATOM     17  C   UNL     1      -0.545   0.559  -1.911  1.00  0.00     0.024 C 
BRANCH  17  18
ATOM     18  C   UNL     1       0.989   0.435  -1.786  1.00  0.00    -0.016 C 
ATOM     19  C   UNL     1       1.447  -0.048  -0.404  1.00  0.00     0.007 C 
ATOM     20  C   UNL     1       1.499  -0.539  -2.852  1.00  0.00     0.007 C 
ENDBRANCH  17  18
ENDBRANCH  16  17
ENDBRANCH  13  16
ENDBRANCH  10  12
ENDBRANCH   9  10
ENDBRANCH   4   9
BRANCH   8  21
ATOM     21  N   UNL     1      -1.417  -1.146   2.722  1.00  0.00    -0.399 N 
ATOM     22  H   UNL     1      -0.458  -1.257   2.916  1.00  0.00     0.156 HD
ATOM     23  H   UNL     1      -2.010  -1.931   2.708  1.00  0.00     0.156 HD
ENDBRANCH   8  21
ENDBRANCH   1   3
BRANCH   1  24
ATOM     24  O   UNL     1      -5.965   2.291   1.192  1.00  0.00    -0.458 OA
BRANCH  24  25
ATOM     25  C   UNL     1      -7.354   2.565   1.473  1.00  0.00     0.275 C 
BRANCH  25  26
ATOM     26  C   UNL     1      -8.284   1.506   0.877  1.00  0.00     0.275 C 
BRANCH  26  27
ATOM     27  O   UNL     1      -8.141   0.234   1.542  1.00  0.00    -0.458 OA
BRANCH  27  28
ATOM     28  C   UNL     1      -7.337  -0.643   0.909  1.00  0.00     0.338 C 
ATOM     29  O   UNL     1      -6.750  -0.480  -0.154  1.00  0.00    -0.246 OA
BRANCH  28  30
ATOM     30  C   UNL     1      -7.131  -1.856   1.710  1.00  0.00     0.060 A 
ATOM     31  C   UNL     1      -6.096  -1.837   2.632  1.00  0.00     0.016 A 
ATOM     32  C   UNL     1      -7.730  -3.065   1.370  1.00  0.00     0.016 A 
ATOM     33  C   UNL     1      -5.513  -3.023   3.054  1.00  0.00     0.010 A 
ATOM     34  C   UNL     1      -7.256  -4.254   1.947  1.00  0.00     0.010 A 
ATOM     35  C   UNL     1      -6.099  -4.257   2.749  1.00  0.00    -0.014 A 
BRANCH  35  36
ATOM     36  C   UNL     1      -5.476  -5.516   3.264  1.00  0.00     0.031 A 
ATOM     37  C   UNL     1      -5.131  -6.652   2.332  1.00  0.00     0.074 A 
ATOM     38  C   UNL     1      -5.168  -5.628   4.575  1.00  0.00     0.049 A 
ATOM     39  N   UNL     1      -4.709  -7.860   2.620  1.00  0.00    -0.248 NA
ATOM     40  C   UNL     1      -5.294  -6.411   0.889  1.00  0.00     0.031 C 
ATOM     41  C   UNL     1      -5.406  -4.603   5.596  1.00  0.00     0.029 A 
ATOM     42  N   UNL     1      -4.566  -6.645   5.277  1.00  0.00    -0.354 N 
ATOM     43  C   UNL     1      -4.626  -8.538   1.408  1.00  0.00     0.074 A 
ATOM     44  C   UNL     1      -5.041  -7.609   0.380  1.00  0.00     0.031 C 
ATOM     45  C   UNL     1      -4.888  -5.005   6.763  1.00  0.00     0.029 A 
ATOM     46  C   UNL     1      -4.397  -6.367   6.613  1.00  0.00     0.049 A 
ATOM     47  H   UNL     1      -4.283  -7.492   4.862  1.00  0.00     0.167 HD
ATOM     48  C   UNL     1      -4.240  -9.817   1.176  1.00  0.00     0.037 A 
ATOM     49  C   UNL     1      -3.947  -7.131   7.625  1.00  0.00     0.037 A 
ATOM     50  C   UNL     1      -3.768 -10.721   2.195  1.00  0.00     0.049 A 
ATOM     51  C   UNL     1      -3.558  -8.551   7.345  1.00  0.00     0.074 A 
ATOM     52  C   UNL     1      -3.328 -12.027   2.053  1.00  0.00     0.029 A 
ATOM     53  N   UNL     1      -3.660 -10.411   3.542  1.00  0.00    -0.354 N 
ATOM     54  N   UNL     1      -3.529  -9.190   6.201  1.00  0.00    -0.248 NA
ATOM     55  C   UNL     1      -3.160  -9.364   8.501  1.00  0.00     0.031 C 
ATOM     56  C   UNL     1      -3.000 -12.521   3.320  1.00  0.00     0.029 A 
ATOM     57  C   UNL     1      -3.181 -11.506   4.245  1.00  0.00     0.049 A 
ATOM     58  H   UNL     1      -3.890  -9.541   3.941  1.00  0.00     0.167 HD
ATOM     59  C   UNL     1      -3.100 -10.476   6.497  1.00  0.00     0.074 A 
ATOM     60  C   UNL     1      -2.849 -10.515   7.923  1.00  0.00     0.031 C 
ATOM     61  C   UNL     1      -2.937 -11.533   5.664  1.00  0.00     0.037 A 
BRANCH  48  62
ATOM     62  C   UNL     1      -4.349 -10.338  -0.231  1.00  0.00     0.057 A 
ATOM     63  C   UNL     1      -3.490  -9.924  -1.256  1.00  0.00     0.134 A 
ATOM     64  C   UNL     1      -5.306 -11.312  -0.550  1.00  0.00     0.134 A 
ATOM     65  F   UNL     1      -2.558  -8.987  -1.026  1.00  0.00    -0.206 F 
ATOM     66  C   UNL     1      -3.594 -10.441  -2.551  1.00  0.00     0.040 A 
ATOM     67  C   UNL     1      -5.401 -11.857  -1.831  1.00  0.00     0.040 A 
ATOM     68  F   UNL     1      -6.157 -11.762   0.385  1.00  0.00    -0.206 F 
ATOM     69  C   UNL     1      -4.547 -11.416  -2.839  1.00  0.00     0.006 A 
ENDBRANCH  48  62
BRANCH  49  70
ATOM     70  C   UNL     1      -3.895  -6.586   9.008  1.00  0.00     0.057 A 
ATOM     71  C   UNL     1      -2.675  -6.401   9.668  1.00  0.00     0.134 A 
ATOM     72  C   UNL     1      -5.062  -6.247   9.706  1.00  0.00     0.134 A 
ATOM     73  F   UNL     1      -1.524  -6.730   9.064  1.00  0.00    -0.206 F 
ATOM     74  C   UNL     1      -2.617  -5.913  10.974  1.00  0.00     0.040 A 
ATOM     75  C   UNL     1      -5.017  -5.724  10.998  1.00  0.00     0.040 A 
ATOM     76  F   UNL     1      -6.264  -6.398   9.130  1.00  0.00    -0.206 F 
ATOM     77  C   UNL     1      -3.792  -5.564  11.640  1.00  0.00     0.006 A 
ENDBRANCH  49  70
BRANCH  61  78
ATOM     78  C   UNL     1      -2.428 -12.803   6.280  1.00  0.00     0.057 A 
ATOM     79  C   UNL     1      -3.218 -13.578   7.140  1.00  0.00     0.134 A 
ATOM     80  C   UNL     1      -1.127 -13.251   6.018  1.00  0.00     0.134 A 
ATOM     81  F   UNL     1      -4.467 -13.195   7.446  1.00  0.00    -0.206 F 
ATOM     82  C   UNL     1      -2.718 -14.730   7.748  1.00  0.00     0.040 A 
ATOM     83  C   UNL     1      -0.627 -14.418   6.595  1.00  0.00     0.040 A 
ATOM     84  F   UNL     1      -0.321 -12.560   5.197  1.00  0.00    -0.206 F 
ATOM     85  C   UNL     1      -1.420 -15.155   7.472  1.00  0.00     0.006 A 
ENDBRANCH  61  78
ENDBRANCH  35  36
ENDBRANCH  28  30
ENDBRANCH  27  28
ENDBRANCH  26  27
ENDBRANCH  25  26
ENDBRANCH  24  25
ENDBRANCH   1  24
TORSDOF 18
