REMARK SMILES C#CCN(CC(=O)OCCOC(=O)c1ccc(-c2c3nc(c(-c4c(F)cccc4F)c4ccc([nH]4)c(-c4c(F)cccc4F)c4nc(c(-c5c(F)cccc5F)c5ccc2[nH]5)C=C4)C=C3)cc1)c1nnc(C)c2ccccc12
REMARK SMILES IDX 9 1 8 2 6 3 7 4 5 5 4 6 3 7 2 8 1 9 68 10 69 11 78 12 70 13
REMARK SMILES IDX 73 14 77 15 71 16 74 17 76 18 72 19 75 20 10 21 11 22 12 23
REMARK SMILES IDX 13 24 14 25 15 26 67 27 16 28 66 29 17 30 18 31 19 32 60 33
REMARK SMILES IDX 20 34 65 35 59 36 61 37 21 38 64 39 58 40 57 41 22 43 48 44
REMARK SMILES IDX 31 45 47 46 32 47 35 48 46 49 62 50 33 51 34 52 45 54 63 55
REMARK SMILES IDX 36 56 23 57 24 58 29 59 25 60 26 61 28 62 30 63 27 64 49 65
REMARK SMILES IDX 50 66 55 67 51 68 52 69 54 70 56 71 53 72 37 73 38 74 43 75
REMARK SMILES IDX 39 76 40 77 42 78 44 79 41 80
REMARK H PARENT 61 42 35 53
REMARK Flexibility Score: inf
ROOT
ATOM      1  C   UNL     1      -6.796  -2.107   0.204  1.00  0.00     0.274 C 
ENDROOT
BRANCH   1   2
ATOM      2  O   UNL     1      -5.400  -1.870  -0.021  1.00  0.00    -0.461 OA
BRANCH   2   3
ATOM      3  C   UNL     1      -4.757  -1.235   1.005  1.00  0.00     0.325 C 
ATOM      4  O   UNL     1      -5.283  -0.547   1.853  1.00  0.00    -0.250 OA
BRANCH   3   5
ATOM      5  C   UNL     1      -3.328  -1.720   1.088  1.00  0.00     0.241 C 
BRANCH   5   6
ATOM      6  N   UNL     1      -2.472  -1.432  -0.078  1.00  0.00    -0.332 N 
BRANCH   6   7
ATOM      7  C   UNL     1      -1.872  -0.081  -0.034  1.00  0.00     0.208 C 
BRANCH   7   8
ATOM      8  C   UNL     1      -0.352  -0.081  -0.034  1.00  0.00    -0.085 C 
ATOM      9  C   UNL     1       0.952  -0.081  -0.034  1.00  0.00     0.006 C 
ENDBRANCH   7   8
ENDBRANCH   6   7
BRANCH   6  10
ATOM     10  C   UNL     1      -1.598  -2.551  -0.160  1.00  0.00     0.160 A 
ATOM     11  N   UNL     1      -0.855  -2.816   0.954  1.00  0.00    -0.132 NA
ATOM     12  C   UNL     1      -1.746  -3.537  -1.183  1.00  0.00     0.028 A 
ATOM     13  N   UNL     1      -0.504  -4.076   1.241  1.00  0.00    -0.153 NA
ATOM     14  C   UNL     1      -1.066  -4.740  -0.997  1.00  0.00     0.009 A 
ATOM     15  C   UNL     1      -2.619  -3.525  -2.298  1.00  0.00     0.013 A 
ATOM     16  C   UNL     1      -0.723  -5.023   0.306  1.00  0.00     0.068 A 
ATOM     17  C   UNL     1      -1.022  -5.768  -1.956  1.00  0.00     0.011 A 
ATOM     18  C   UNL     1      -2.700  -4.618  -3.187  1.00  0.00     0.001 A 
ATOM     19  C   UNL     1      -1.309  -6.316   0.811  1.00  0.00     0.069 C 
ATOM     20  C   UNL     1      -1.857  -5.715  -3.051  1.00  0.00     0.001 A 
ENDBRANCH   6  10
ENDBRANCH   5   6
ENDBRANCH   3   5
ENDBRANCH   2   3
ENDBRANCH   1   2
BRANCH   1  21
ATOM     21  C   UNL     1      -6.999  -3.586   0.541  1.00  0.00     0.275 C 
BRANCH  21  22
ATOM     22  O   UNL     1      -6.229  -3.977   1.709  1.00  0.00    -0.458 OA
BRANCH  22  23
ATOM     23  C   UNL     1      -5.246  -4.876   1.463  1.00  0.00     0.338 C 
ATOM     24  O   UNL     1      -4.933  -5.332   0.370  1.00  0.00    -0.246 OA
BRANCH  23  25
ATOM     25  C   UNL     1      -4.519  -5.306   2.675  1.00  0.00     0.060 A 
ATOM     26  C   UNL     1      -3.658  -4.433   3.340  1.00  0.00     0.016 A 
ATOM     27  C   UNL     1      -4.466  -6.676   2.957  1.00  0.00     0.016 A 
ATOM     28  C   UNL     1      -2.653  -4.944   4.167  1.00  0.00     0.010 A 
ATOM     29  C   UNL     1      -3.518  -7.177   3.860  1.00  0.00     0.010 A 
ATOM     30  C   UNL     1      -2.567  -6.322   4.437  1.00  0.00    -0.014 A 
BRANCH  30  31
ATOM     31  C   UNL     1      -1.556  -6.841   5.399  1.00  0.00     0.031 A 
ATOM     32  C   UNL     1      -0.407  -7.735   4.999  1.00  0.00     0.074 A 
ATOM     33  C   UNL     1      -1.691  -6.482   6.685  1.00  0.00     0.049 A 
ATOM     34  N   UNL     1       0.459  -8.404   5.719  1.00  0.00    -0.248 NA
ATOM     35  C   UNL     1      -0.190  -7.894   3.570  1.00  0.00     0.031 C 
ATOM     36  C   UNL     1      -2.729  -5.595   7.212  1.00  0.00     0.029 A 
ATOM     37  N   UNL     1      -0.954  -6.833   7.780  1.00  0.00    -0.354 N 
ATOM     38  C   UNL     1       1.296  -9.059   4.810  1.00  0.00     0.074 A 
ATOM     39  C   UNL     1       0.842  -8.714   3.489  1.00  0.00     0.031 C 
ATOM     40  C   UNL     1      -2.564  -5.471   8.534  1.00  0.00     0.029 A 
ATOM     41  C   UNL     1      -1.458  -6.326   8.947  1.00  0.00     0.049 A 
ATOM     42  H   UNL     1      -0.145  -7.393   7.735  1.00  0.00     0.167 HD
ATOM     43  C   UNL     1       2.353  -9.870   5.050  1.00  0.00     0.037 A 
ATOM     44  C   UNL     1      -1.098  -6.566  10.217  1.00  0.00     0.037 A 
ATOM     45  C   UNL     1       2.829 -10.162   6.373  1.00  0.00     0.049 A 
ATOM     46  C   UNL     1       0.048  -7.492  10.478  1.00  0.00     0.074 A 
ATOM     47  C   UNL     1       3.892 -10.957   6.760  1.00  0.00     0.029 A 
ATOM     48  N   UNL     1       2.273  -9.636   7.528  1.00  0.00    -0.354 N 
ATOM     49  N   UNL     1       0.781  -8.165   9.624  1.00  0.00    -0.248 NA
ATOM     50  C   UNL     1       0.418  -7.688  11.883  1.00  0.00     0.031 C 
ATOM     51  C   UNL     1       3.970 -10.922   8.156  1.00  0.00     0.029 A 
ATOM     52  C   UNL     1       2.976 -10.081   8.631  1.00  0.00     0.049 A 
ATOM     53  H   UNL     1       1.495  -9.034   7.558  1.00  0.00     0.167 HD
ATOM     54  C   UNL     1       1.713  -8.853  10.386  1.00  0.00     0.074 A 
ATOM     55  C   UNL     1       1.460  -8.498  11.769  1.00  0.00     0.031 C 
ATOM     56  C   UNL     1       2.689  -9.706   9.988  1.00  0.00     0.037 A 
BRANCH  43  57
ATOM     57  C   UNL     1       3.067 -10.499   3.883  1.00  0.00     0.057 A 
ATOM     58  C   UNL     1       3.909  -9.763   3.039  1.00  0.00     0.134 A 
ATOM     59  C   UNL     1       2.973 -11.878   3.648  1.00  0.00     0.134 A 
ATOM     60  F   UNL     1       4.035  -8.437   3.194  1.00  0.00    -0.206 F 
ATOM     61  C   UNL     1       4.628 -10.373   2.007  1.00  0.00     0.040 A 
ATOM     62  C   UNL     1       3.704 -12.503   2.633  1.00  0.00     0.040 A 
ATOM     63  F   UNL     1       2.185 -12.647   4.415  1.00  0.00    -0.206 F 
ATOM     64  C   UNL     1       4.536 -11.749   1.809  1.00  0.00     0.006 A 
ENDBRANCH  43  57
BRANCH  44  65
ATOM     65  C   UNL     1      -1.862  -5.926  11.309  1.00  0.00     0.057 A 
ATOM     66  C   UNL     1      -1.310  -4.889  12.064  1.00  0.00     0.134 A 
ATOM     67  C   UNL     1      -3.189  -6.290  11.572  1.00  0.00     0.134 A 
ATOM     68  F   UNL     1      -0.042  -4.503  11.855  1.00  0.00    -0.206 F 
ATOM     69  C   UNL     1      -2.048  -4.239  13.052  1.00  0.00     0.040 A 
ATOM     70  C   UNL     1      -3.947  -5.630  12.537  1.00  0.00     0.040 A 
ATOM     71  F   UNL     1      -3.780  -7.264  10.862  1.00  0.00    -0.206 F 
ATOM     72  C   UNL     1      -3.373  -4.603  13.284  1.00  0.00     0.006 A 
ENDBRANCH  44  65
BRANCH  56  73
ATOM     73  C   UNL     1       3.555 -10.274  11.066  1.00  0.00     0.057 A 
ATOM     74  C   UNL     1       3.085 -11.267  11.932  1.00  0.00     0.134 A 
ATOM     75  C   UNL     1       4.865  -9.816  11.241  1.00  0.00     0.134 A 
ATOM     76  F   UNL     1       1.832 -11.733  11.817  1.00  0.00    -0.206 F 
ATOM     77  C   UNL     1       3.879 -11.759  12.966  1.00  0.00     0.040 A 
ATOM     78  C   UNL     1       5.678 -10.318  12.255  1.00  0.00     0.040 A 
ATOM     79  F   UNL     1       5.373  -8.874  10.431  1.00  0.00    -0.206 F 
ATOM     80  C   UNL     1       5.180 -11.284  13.129  1.00  0.00     0.006 A 
ENDBRANCH  56  73
ENDBRANCH  30  31
ENDBRANCH  23  25
ENDBRANCH  22  23
ENDBRANCH  21  22
ENDBRANCH   1  21
TORSDOF 15
