REMARK SMILES NS(=O)(=O)c1ccc(-n2nc(C(F)F)cc2-c2ccc(C(=O)OCCOC(=O)c3ccc(-c4c5nc(c(-c6c(F)cccc6F)c6ccc([nH]6)c(-c6c(F)cccc6F)c6nc(c(-c7c(F)cccc7F)c7ccc4[nH]7)C=C6)C=C5)cc3)cc2)cc1
REMARK SMILES IDX 24 1 23 2 21 3 22 4 20 5 17 6 18 7 84 8 19 9 83 10 16 11
REMARK SMILES IDX 9 12 10 13 11 14 15 15 8 16 5 17 6 18 86 19 7 20 85 21 2 22
REMARK SMILES IDX 3 23 4 24 1 25 12 28 13 29 14 30 25 31 26 32 27 33 28 34
REMARK SMILES IDX 29 35 30 36 82 37 31 38 81 39 32 40 33 41 34 42 75 43 35 44
REMARK SMILES IDX 80 45 74 46 76 47 36 48 79 49 73 50 72 51 37 53 63 54 46 55
REMARK SMILES IDX 62 56 47 57 50 58 61 59 77 60 48 61 49 62 60 64 78 65 51 66
REMARK SMILES IDX 38 67 39 68 44 69 40 70 41 71 43 72 45 73 42 74 64 75 65 76
REMARK SMILES IDX 70 77 66 78 67 79 69 80 71 81 68 82 52 83 53 84 58 85 54 86
REMARK SMILES IDX 55 87 57 88 59 89 56 90
REMARK H PARENT 1 26 1 27 76 52 50 63
REMARK Flexibility Score: inf
ROOT
ATOM      1  C   UNL     1       5.912  -7.184  -1.948  1.00  0.00     0.275 C 
ENDROOT
BRANCH   1   2
ATOM      2  O   UNL     1       5.229  -7.120  -0.687  1.00  0.00    -0.458 OA
BRANCH   2   3
ATOM      3  C   UNL     1       5.766  -6.282   0.235  1.00  0.00     0.338 C 
ATOM      4  O   UNL     1       6.831  -5.692   0.144  1.00  0.00    -0.246 OA
BRANCH   3   5
ATOM      5  C   UNL     1       4.823  -6.097   1.368  1.00  0.00     0.060 A 
ATOM      6  C   UNL     1       3.115  -5.689   3.557  1.00  0.00     0.000 A 
ATOM      7  C   UNL     1       4.158  -4.790   3.294  1.00  0.00     0.011 A 
ATOM      8  C   UNL     1       2.922  -6.784   2.707  1.00  0.00     0.011 A 
ATOM      9  C   UNL     1       5.007  -4.991   2.206  1.00  0.00     0.016 A 
ATOM     10  C   UNL     1       3.766  -6.983   1.611  1.00  0.00     0.016 A 
BRANCH   6  11
ATOM     11  C   UNL     1       2.283  -5.522   4.746  1.00  0.00     0.075 A 
ATOM     12  N   UNL     1       1.606  -4.365   5.117  1.00  0.00    -0.233 N 
ATOM     13  N   UNL     1       1.232  -4.406   6.422  1.00  0.00    -0.166 NA
ATOM     14  C   UNL     1       1.455  -5.673   6.810  1.00  0.00     0.129 A 
ATOM     15  C   UNL     1       2.121  -6.401   5.798  1.00  0.00     0.060 A 
BRANCH  12  16
ATOM     16  C   UNL     1       1.281  -3.238   4.314  1.00  0.00     0.065 A 
ATOM     17  C   UNL     1       0.693  -1.013   2.738  1.00  0.00     0.082 A 
ATOM     18  C   UNL     1       0.690  -2.285   2.162  1.00  0.00     0.024 A 
ATOM     19  C   UNL     1       0.969  -0.845   4.099  1.00  0.00     0.024 A 
ATOM     20  C   UNL     1       0.996  -3.397   2.949  1.00  0.00     0.030 A 
ATOM     21  C   UNL     1       1.234  -1.963   4.896  1.00  0.00     0.030 A 
BRANCH  17  22
ATOM     22  S   UNL     1       0.356   0.403   1.734  1.00  0.00     0.238 S 
ATOM     23  O   UNL     1       1.040   1.547   2.294  1.00  0.00    -0.207 OA
ATOM     24  O   UNL     1      -1.049   0.409   1.410  1.00  0.00    -0.207 OA
BRANCH  22  25
ATOM     25  N   UNL     1       1.169   0.072   0.297  1.00  0.00    -0.225 NA
ATOM     26  H   UNL     1       1.032   0.843  -0.357  1.00  0.00     0.137 HD
ATOM     27  H   UNL     1       0.802  -0.788  -0.111  1.00  0.00     0.137 HD
ENDBRANCH  22  25
ENDBRANCH  17  22
ENDBRANCH  12  16
BRANCH  14  28
ATOM     28  C   UNL     1       1.066  -6.192   8.163  1.00  0.00     0.393 C 
ATOM     29  F   UNL     1       1.416  -5.345   9.169  1.00  0.00    -0.203 F 
ATOM     30  F   UNL     1      -0.279  -6.380   8.259  1.00  0.00    -0.203 F 
ENDBRANCH  14  28
ENDBRANCH   6  11
ENDBRANCH   3   5
ENDBRANCH   2   3
ENDBRANCH   1   2
BRANCH   1  31
ATOM     31  C   UNL     1       5.347  -6.158  -2.921  1.00  0.00     0.275 C 
BRANCH  31  32
ATOM     32  O   UNL     1       5.794  -4.836  -2.611  1.00  0.00    -0.458 OA
BRANCH  32  33
ATOM     33  C   UNL     1       4.954  -4.093  -1.855  1.00  0.00     0.338 C 
ATOM     34  O   UNL     1       3.998  -4.489  -1.208  1.00  0.00    -0.246 OA
BRANCH  33  35
ATOM     35  C   UNL     1       5.211  -2.668  -2.124  1.00  0.00     0.060 A 
ATOM     36  C   UNL     1       4.333  -1.744  -1.550  1.00  0.00     0.016 A 
ATOM     37  C   UNL     1       6.135  -2.278  -3.107  1.00  0.00     0.016 A 
ATOM     38  C   UNL     1       4.274  -0.469  -2.077  1.00  0.00     0.010 A 
ATOM     39  C   UNL     1       6.072  -1.002  -3.633  1.00  0.00     0.010 A 
ATOM     40  C   UNL     1       5.095  -0.131  -3.161  1.00  0.00    -0.014 A 
BRANCH  40  41
ATOM     41  C   UNL     1       4.910   1.183  -3.749  1.00  0.00     0.031 A 
ATOM     42  C   UNL     1       5.280   2.321  -2.874  1.00  0.00     0.074 A 
ATOM     43  C   UNL     1       4.512   1.379  -5.020  1.00  0.00     0.049 A 
ATOM     44  N   UNL     1       4.520   3.268  -2.433  1.00  0.00    -0.248 NA
ATOM     45  C   UNL     1       6.655   2.351  -2.357  1.00  0.00     0.031 C 
ATOM     46  C   UNL     1       4.391   0.395  -6.098  1.00  0.00     0.029 A 
ATOM     47  N   UNL     1       4.220   2.558  -5.636  1.00  0.00    -0.354 N 
ATOM     48  C   UNL     1       5.358   4.121  -1.721  1.00  0.00     0.074 A 
ATOM     49  C   UNL     1       6.628   3.450  -1.604  1.00  0.00     0.031 C 
ATOM     50  C   UNL     1       4.256   1.047  -7.275  1.00  0.00     0.029 A 
ATOM     51  C   UNL     1       4.151   2.474  -7.016  1.00  0.00     0.049 A 
ATOM     52  H   UNL     1       4.070   3.397  -5.142  1.00  0.00     0.167 HD
ATOM     53  C   UNL     1       5.012   5.406  -1.445  1.00  0.00     0.037 A 
ATOM     54  C   UNL     1       4.084   3.513  -7.880  1.00  0.00     0.037 A 
ATOM     55  C   UNL     1       3.592   5.614  -1.534  1.00  0.00     0.049 A 
ATOM     56  C   UNL     1       3.616   4.705  -7.132  1.00  0.00     0.074 A 
ATOM     57  C   UNL     1       2.488   5.083  -0.896  1.00  0.00     0.029 A 
ATOM     58  N   UNL     1       3.098   6.284  -2.624  1.00  0.00    -0.354 N 
ATOM     59  N   UNL     1       2.406   4.859  -6.673  1.00  0.00    -0.248 NA
ATOM     60  C   UNL     1       4.618   5.585  -6.548  1.00  0.00     0.031 C 
ATOM     61  C   UNL     1       1.464   5.050  -1.887  1.00  0.00     0.029 A 
ATOM     62  C   UNL     1       2.005   5.581  -3.059  1.00  0.00     0.049 A 
ATOM     63  H   UNL     1       3.458   7.111  -3.018  1.00  0.00     0.167 HD
ATOM     64  C   UNL     1       2.564   5.540  -5.476  1.00  0.00     0.074 A 
ATOM     65  C   UNL     1       3.926   6.059  -5.510  1.00  0.00     0.031 C 
ATOM     66  C   UNL     1       1.675   5.385  -4.451  1.00  0.00     0.037 A 
BRANCH  53  67
ATOM     67  C   UNL     1       6.000   6.542  -1.413  1.00  0.00     0.057 A 
ATOM     68  C   UNL     1       5.606   7.795  -0.915  1.00  0.00     0.134 A 
ATOM     69  C   UNL     1       7.227   6.529  -2.108  1.00  0.00     0.134 A 
ATOM     70  F   UNL     1       4.442   7.942  -0.264  1.00  0.00    -0.206 F 
ATOM     71  C   UNL     1       6.352   8.959  -1.139  1.00  0.00     0.040 A 
ATOM     72  C   UNL     1       8.006   7.674  -2.292  1.00  0.00     0.040 A 
ATOM     73  F   UNL     1       7.684   5.435  -2.731  1.00  0.00    -0.206 F 
ATOM     74  C   UNL     1       7.555   8.901  -1.832  1.00  0.00     0.006 A 
ENDBRANCH  53  67
BRANCH  54  75
ATOM     75  C   UNL     1       4.651   3.608  -9.243  1.00  0.00     0.057 A 
ATOM     76  C   UNL     1       4.229   4.599 -10.138  1.00  0.00     0.134 A 
ATOM     77  C   UNL     1       5.806   2.894  -9.609  1.00  0.00     0.134 A 
ATOM     78  F   UNL     1       3.163   5.362  -9.856  1.00  0.00    -0.206 F 
ATOM     79  C   UNL     1       4.925   4.878 -11.320  1.00  0.00     0.040 A 
ATOM     80  C   UNL     1       6.504   3.154 -10.791  1.00  0.00     0.040 A 
ATOM     81  F   UNL     1       6.346   1.980  -8.790  1.00  0.00    -0.206 F 
ATOM     82  C   UNL     1       6.072   4.160 -11.646  1.00  0.00     0.006 A 
ENDBRANCH  54  75
BRANCH  66  83
ATOM     83  C   UNL     1       0.374   4.696  -4.751  1.00  0.00     0.057 A 
ATOM     84  C   UNL     1       0.279   3.359  -5.165  1.00  0.00     0.134 A 
ATOM     85  C   UNL     1      -0.826   5.362  -4.476  1.00  0.00     0.134 A 
ATOM     86  F   UNL     1       1.374   2.609  -5.346  1.00  0.00    -0.206 F 
ATOM     87  C   UNL     1      -0.957   2.732  -5.350  1.00  0.00     0.040 A 
ATOM     88  C   UNL     1      -2.066   4.735  -4.622  1.00  0.00     0.040 A 
ATOM     89  F   UNL     1      -0.810   6.623  -4.016  1.00  0.00    -0.206 F 
ATOM     90  C   UNL     1      -2.135   3.420  -5.072  1.00  0.00     0.006 A 
ENDBRANCH  66  83
ENDBRANCH  40  41
ENDBRANCH  33  35
ENDBRANCH  32  33
ENDBRANCH  31  32
ENDBRANCH   1  31
TORSDOF 16
