REMARK SMILES COc1cc2c(cc1OC)[C@@H](CC(=O)OCCOC(=O)c1ccc(-c3c4nc(c(-c5c(F)cccc5F)c5ccc([nH]5)c(-c5c(F)cccc5F)c5nc(c(-c6c(F)cccc6F)c6ccc3[nH]6)C=C5)C=C4)cc1)N(C(=O)Nc1ccc(Cl)cc1)CC2
REMARK SMILES IDX 16 1 15 2 13 3 14 4 12 5 11 6 3 7 4 8 8 9 5 10 7 11 6 12
REMARK SMILES IDX 87 13 86 14 75 15 2 16 1 17 9 18 10 19 76 20 77 21 78 22
REMARK SMILES IDX 79 24 80 25 85 26 81 27 84 28 82 29 83 30 17 31 18 32 19 33
REMARK SMILES IDX 20 34 21 35 22 36 74 37 23 38 73 39 24 40 25 41 26 42 67 43
REMARK SMILES IDX 27 44 72 45 66 46 68 47 28 48 71 49 65 50 64 51 29 53 55 54
REMARK SMILES IDX 38 55 54 56 39 57 42 58 53 59 69 60 40 61 41 62 52 64 70 65
REMARK SMILES IDX 43 66 30 67 31 68 36 69 32 70 33 71 35 72 37 73 34 74 56 75
REMARK SMILES IDX 57 76 62 77 58 78 59 79 61 80 63 81 60 82 44 83 45 84 50 85
REMARK SMILES IDX 46 86 47 87 49 88 51 89 48 90
REMARK H PARENT 78 23 68 52 42 63
REMARK Flexibility Score: inf
ROOT
ATOM      1  C   UNL     1       3.861  -4.717   9.321  1.00  0.00     0.274 C 
ENDROOT
BRANCH   1   2
ATOM      2  O   UNL     1       3.387  -3.872   8.257  1.00  0.00    -0.462 OA
BRANCH   2   3
ATOM      3  C   UNL     1       4.318  -3.353   7.423  1.00  0.00     0.308 C 
ATOM      4  O   UNL     1       5.511  -3.645   7.451  1.00  0.00    -0.252 OA
BRANCH   3   5
ATOM      5  C   UNL     1       3.777  -2.381   6.394  1.00  0.00     0.152 C 
BRANCH   5   6
ATOM      6  C   UNL     1       2.252  -2.313   6.152  1.00  0.00     0.128 C 
ATOM      7  C   UNL     1       1.075  -0.576   2.276  1.00  0.00     0.161 A 
ATOM      8  C   UNL     1       0.144  -0.878   3.268  1.00  0.00     0.054 A 
ATOM      9  C   UNL     1       2.424  -0.899   2.482  1.00  0.00     0.161 A 
ATOM     10  C   UNL     1       0.542  -1.464   4.473  1.00  0.00    -0.037 A 
ATOM     11  C   UNL     1       2.814  -1.472   3.713  1.00  0.00     0.056 A 
ATOM     12  C   UNL     1       1.893  -1.737   4.745  1.00  0.00    -0.018 A 
ATOM     13  C   UNL     1      -0.456  -1.729   5.554  1.00  0.00     0.057 C 
ATOM     14  C   UNL     1       0.114  -1.116   6.820  1.00  0.00     0.127 C 
ATOM     15  N   UNL     1       1.410  -1.669   7.236  1.00  0.00    -0.317 N 
BRANCH   7  16
ATOM     16  O   UNL     1       0.524   0.100   1.220  1.00  0.00    -0.493 OA
ATOM     17  C   UNL     1       1.087  -0.128  -0.063  1.00  0.00     0.278 C 
ENDBRANCH   7  16
BRANCH   9  18
ATOM     18  O   UNL     1       3.313  -0.581   1.489  1.00  0.00    -0.493 OA
ATOM     19  C   UNL     1       4.638  -1.089   1.585  1.00  0.00     0.278 C 
ENDBRANCH   9  18
BRANCH  15  20
ATOM     20  C   UNL     1       1.924  -1.455   8.495  1.00  0.00     0.322 C 
ATOM     21  O   UNL     1       3.115  -1.200   8.700  1.00  0.00    -0.248 OA
ATOM     22  N   UNL     1       1.181  -1.633   9.627  1.00  0.00    -0.308 N 
ATOM     23  H   UNL     1       1.608  -2.152  10.347  1.00  0.00     0.171 HD
BRANCH  22  24
ATOM     24  C   UNL     1      -0.109  -1.171   9.890  1.00  0.00     0.042 A 
ATOM     25  C   UNL     1      -0.246   0.132  10.373  1.00  0.00     0.028 A 
ATOM     26  C   UNL     1      -1.229  -1.983   9.696  1.00  0.00     0.028 A 
ATOM     27  C   UNL     1      -1.517   0.671  10.550  1.00  0.00     0.022 A 
ATOM     28  C   UNL     1      -2.503  -1.434   9.859  1.00  0.00     0.022 A 
ATOM     29  C   UNL     1      -2.640  -0.105  10.266  1.00  0.00     0.041 A 
ATOM     30  Cl  UNL     1      -4.206   0.594  10.395  1.00  0.00    -0.084 Cl
ENDBRANCH  22  24
ENDBRANCH  15  20
ENDBRANCH   5   6
ENDBRANCH   3   5
ENDBRANCH   2   3
ENDBRANCH   1   2
BRANCH   1  31
ATOM     31  C   UNL     1       3.306  -6.131   9.161  1.00  0.00     0.275 C 
BRANCH  31  32
ATOM     32  O   UNL     1       3.822  -6.746   7.968  1.00  0.00    -0.458 OA
BRANCH  32  33
ATOM     33  C   UNL     1       3.108  -6.506   6.845  1.00  0.00     0.338 C 
ATOM     34  O   UNL     1       2.038  -5.925   6.742  1.00  0.00    -0.246 OA
BRANCH  33  35
ATOM     35  C   UNL     1       3.905  -6.922   5.688  1.00  0.00     0.060 A 
ATOM     36  C   UNL     1       4.329  -5.938   4.790  1.00  0.00     0.016 A 
ATOM     37  C   UNL     1       4.203  -8.267   5.471  1.00  0.00     0.016 A 
ATOM     38  C   UNL     1       5.070  -6.292   3.669  1.00  0.00     0.010 A 
ATOM     39  C   UNL     1       4.945  -8.622   4.345  1.00  0.00     0.010 A 
ATOM     40  C   UNL     1       5.381  -7.638   3.440  1.00  0.00    -0.014 A 
BRANCH  40  41
ATOM     41  C   UNL     1       6.148  -8.030   2.238  1.00  0.00     0.031 A 
ATOM     42  C   UNL     1       5.450  -8.717   1.105  1.00  0.00     0.074 A 
ATOM     43  C   UNL     1       7.471  -7.790   2.186  1.00  0.00     0.049 A 
ATOM     44  N   UNL     1       5.958  -9.279   0.040  1.00  0.00    -0.248 NA
ATOM     45  C   UNL     1       3.982  -8.785   1.185  1.00  0.00     0.031 C 
ATOM     46  C   UNL     1       8.242  -7.089   3.213  1.00  0.00     0.029 A 
ATOM     47  N   UNL     1       8.401  -8.128   1.238  1.00  0.00    -0.354 N 
ATOM     48  C   UNL     1       4.878  -9.790  -0.666  1.00  0.00     0.074 A 
ATOM     49  C   UNL     1       3.687  -9.480   0.095  1.00  0.00     0.031 C 
ATOM     50  C   UNL     1       9.534  -7.064   2.847  1.00  0.00     0.029 A 
ATOM     51  C   UNL     1       9.685  -7.792   1.591  1.00  0.00     0.049 A 
ATOM     52  H   UNL     1       8.172  -8.569   0.388  1.00  0.00     0.167 HD
ATOM     53  C   UNL     1       4.887 -10.459  -1.843  1.00  0.00     0.037 A 
ATOM     54  C   UNL     1      10.854  -8.082   0.990  1.00  0.00     0.037 A 
ATOM     55  C   UNL     1       6.080 -10.750  -2.595  1.00  0.00     0.049 A 
ATOM     56  C   UNL     1      10.843  -8.890  -0.278  1.00  0.00     0.074 A 
ATOM     57  C   UNL     1       6.196 -11.396  -3.813  1.00  0.00     0.029 A 
ATOM     58  N   UNL     1       7.365 -10.416  -2.194  1.00  0.00    -0.354 N 
ATOM     59  N   UNL     1       9.819  -9.367  -0.943  1.00  0.00    -0.248 NA
ATOM     60  C   UNL     1      12.148  -9.212  -0.870  1.00  0.00     0.031 C 
ATOM     61  C   UNL     1       7.556 -11.494  -4.126  1.00  0.00     0.029 A 
ATOM     62  C   UNL     1       8.283 -10.869  -3.126  1.00  0.00     0.049 A 
ATOM     63  H   UNL     1       7.591  -9.929  -1.369  1.00  0.00     0.167 HD
ATOM     64  C   UNL     1      10.353 -10.032  -2.039  1.00  0.00     0.074 A 
ATOM     65  C   UNL     1      11.791  -9.882  -1.958  1.00  0.00     0.031 C 
ATOM     66  C   UNL     1       9.711 -10.708  -3.023  1.00  0.00     0.037 A 
BRANCH  53  67
ATOM     67  C   UNL     1       3.573 -10.948  -2.373  1.00  0.00     0.057 A 
ATOM     68  C   UNL     1       2.623 -10.078  -2.922  1.00  0.00     0.134 A 
ATOM     69  C   UNL     1       3.269 -12.316  -2.364  1.00  0.00     0.134 A 
ATOM     70  F   UNL     1       2.846  -8.756  -2.947  1.00  0.00    -0.206 F 
ATOM     71  C   UNL     1       1.409 -10.549  -3.427  1.00  0.00     0.040 A 
ATOM     72  C   UNL     1       2.069 -12.801  -2.886  1.00  0.00     0.040 A 
ATOM     73  F   UNL     1       4.137 -13.203  -1.854  1.00  0.00    -0.206 F 
ATOM     74  C   UNL     1       1.133 -11.916  -3.416  1.00  0.00     0.006 A 
ENDBRANCH  53  67
BRANCH  54  75
ATOM     75  C   UNL     1      12.132  -7.643   1.603  1.00  0.00     0.057 A 
ATOM     76  C   UNL     1      12.921  -6.656   1.004  1.00  0.00     0.134 A 
ATOM     77  C   UNL     1      12.596  -8.202   2.801  1.00  0.00     0.134 A 
ATOM     78  F   UNL     1      12.541  -6.099  -0.155  1.00  0.00    -0.206 F 
ATOM     79  C   UNL     1      14.132  -6.247   1.567  1.00  0.00     0.040 A 
ATOM     80  C   UNL     1      13.792  -7.786   3.388  1.00  0.00     0.040 A 
ATOM     81  F   UNL     1      11.885  -9.153   3.425  1.00  0.00    -0.206 F 
ATOM     82  C   UNL     1      14.567  -6.809   2.766  1.00  0.00     0.006 A 
ENDBRANCH  54  75
BRANCH  66  83
ATOM     83  C   UNL     1      10.560 -11.318  -4.098  1.00  0.00     0.057 A 
ATOM     84  C   UNL     1      11.314 -12.476  -3.871  1.00  0.00     0.134 A 
ATOM     85  C   UNL     1      10.585 -10.768  -5.386  1.00  0.00     0.134 A 
ATOM     86  F   UNL     1      11.342 -13.041  -2.655  1.00  0.00    -0.206 F 
ATOM     87  C   UNL     1      12.075 -13.058  -4.885  1.00  0.00     0.040 A 
ATOM     88  C   UNL     1      11.324 -11.354  -6.413  1.00  0.00     0.040 A 
ATOM     89  F   UNL     1       9.879  -9.663  -5.669  1.00  0.00    -0.206 F 
ATOM     90  C   UNL     1      12.075 -12.501  -6.163  1.00  0.00     0.006 A 
ENDBRANCH  66  83
ENDBRANCH  40  41
ENDBRANCH  33  35
ENDBRANCH  32  33
ENDBRANCH  31  32
ENDBRANCH   1  31
TORSDOF 16
