REMARK SMILES O=C(OCCOC(=O)[C@H]1CC[C@@H]([NH+]2CCCC2)CC1)c1ccc(-c2c3nc(c(-c4c(F)cccc4F)c4ccc([nH]4)c(-c4c(F)cccc4F)c4nc(c(-c5c(F)cccc5F)c5ccc2[nH]5)C=C4)C=C3)cc1
REMARK SMILES IDX 4 1 3 2 2 3 1 4 20 5 21 6 73 7 22 8 72 9 23 10 24 11 25 12
REMARK SMILES IDX 66 13 26 14 71 15 65 16 67 17 27 18 70 19 64 20 63 21 28 23
REMARK SMILES IDX 54 24 37 25 53 26 38 27 41 28 52 29 68 30 39 31 40 32 51 34
REMARK SMILES IDX 69 35 42 36 29 37 30 38 35 39 31 40 32 41 34 42 36 43 33 44
REMARK SMILES IDX 55 45 56 46 61 47 57 48 58 49 60 50 62 51 59 52 43 53 44 54
REMARK SMILES IDX 49 55 45 56 46 57 48 58 50 59 47 60 5 61 6 62 7 63 8 64 9 65
REMARK SMILES IDX 10 66 19 67 11 68 18 69 12 70 13 71 14 72 17 73 15 75 16 76
REMARK H PARENT 67 22 41 33 13 74
REMARK Flexibility Score: inf
ROOT
ATOM      1  C   UNL     1       4.000   1.321  -0.807  1.00  0.00     0.275 C 
ENDROOT
BRANCH   1   2
ATOM      2  O   UNL     1       2.915   0.468  -1.183  1.00  0.00    -0.458 OA
BRANCH   2   3
ATOM      3  C   UNL     1       2.729  -0.837  -0.875  1.00  0.00     0.338 C 
ATOM      4  O   UNL     1       1.580  -1.276  -0.930  1.00  0.00    -0.246 OA
BRANCH   3   5
ATOM      5  C   UNL     1       3.821  -1.764  -0.385  1.00  0.00     0.060 A 
ATOM      6  C   UNL     1       5.171  -1.449  -0.182  1.00  0.00     0.016 A 
ATOM      7  C   UNL     1       3.383  -3.000   0.116  1.00  0.00     0.016 A 
ATOM      8  C   UNL     1       5.991  -2.204   0.670  1.00  0.00     0.010 A 
ATOM      9  C   UNL     1       4.135  -3.647   1.109  1.00  0.00     0.010 A 
ATOM     10  C   UNL     1       5.410  -3.165   1.489  1.00  0.00    -0.014 A 
BRANCH  10  11
ATOM     11  C   UNL     1       6.130  -3.620   2.751  1.00  0.00     0.031 A 
ATOM     12  C   UNL     1       6.671  -5.037   2.534  1.00  0.00     0.074 A 
ATOM     13  C   UNL     1       6.197  -3.003   4.034  1.00  0.00     0.049 A 
ATOM     14  N   UNL     1       7.404  -5.817   3.286  1.00  0.00    -0.248 NA
ATOM     15  C   UNL     1       6.266  -5.683   1.254  1.00  0.00     0.031 C 
ATOM     16  C   UNL     1       5.454  -1.445   5.283  1.00  0.00     0.029 A 
ATOM     17  N   UNL     1       7.073  -3.889   5.387  1.00  0.00    -0.354 N 
ATOM     18  C   UNL     1       7.571  -6.982   2.542  1.00  0.00     0.074 A 
ATOM     19  C   UNL     1       6.732  -6.904   1.381  1.00  0.00     0.031 C 
ATOM     20  C   UNL     1       5.891  -1.645   6.753  1.00  0.00     0.029 A 
ATOM     21  C   UNL     1       6.922  -3.103   6.908  1.00  0.00     0.049 A 
ATOM     22  H   UNL     1       7.575  -4.726   5.254  1.00  0.00     0.167 HD
ATOM     23  C   UNL     1       8.420  -8.013   2.727  1.00  0.00     0.037 A 
ATOM     24  C   UNL     1       7.510  -3.320   8.099  1.00  0.00     0.037 A 
ATOM     25  C   UNL     1       9.180  -8.207   3.917  1.00  0.00     0.049 A 
ATOM     26  C   UNL     1       8.449  -4.456   8.173  1.00  0.00     0.074 A 
ATOM     27  C   UNL     1      10.070  -9.223   4.191  1.00  0.00     0.029 A 
ATOM     28  N   UNL     1       9.090  -7.410   5.050  1.00  0.00    -0.354 N 
ATOM     29  N   UNL     1       8.694  -5.362   7.262  1.00  0.00    -0.248 NA
ATOM     30  C   UNL     1       9.207  -4.597   9.417  1.00  0.00     0.031 C 
ATOM     31  C   UNL     1      10.468  -9.085   5.519  1.00  0.00     0.029 A 
ATOM     32  C   UNL     1       9.908  -7.927   6.037  1.00  0.00     0.049 A 
ATOM     33  H   UNL     1       8.532  -6.604   5.137  1.00  0.00     0.167 HD
ATOM     34  C   UNL     1       9.624  -6.205   7.826  1.00  0.00     0.074 A 
ATOM     35  C   UNL     1       9.953  -5.650   9.129  1.00  0.00     0.031 C 
ATOM     36  C   UNL     1      10.143  -7.351   7.333  1.00  0.00     0.037 A 
BRANCH  23  37
ATOM     37  C   UNL     1       8.563  -8.966   1.572  1.00  0.00     0.057 A 
ATOM     38  C   UNL     1       9.115  -8.543   0.348  1.00  0.00     0.134 A 
ATOM     39  C   UNL     1       8.096 -10.280   1.647  1.00  0.00     0.134 A 
ATOM     40  F   UNL     1       9.541  -7.279   0.194  1.00  0.00    -0.206 F 
ATOM     41  C   UNL     1       9.165  -9.383  -0.763  1.00  0.00     0.040 A 
ATOM     42  C   UNL     1       8.175 -11.142   0.551  1.00  0.00     0.040 A 
ATOM     43  F   UNL     1       7.533 -10.740   2.774  1.00  0.00    -0.206 F 
ATOM     44  C   UNL     1       8.702 -10.692  -0.659  1.00  0.00     0.006 A 
ENDBRANCH  23  37
BRANCH  24  45
ATOM     45  C   UNL     1       7.294  -2.364   9.231  1.00  0.00     0.057 A 
ATOM     46  C   UNL     1       8.318  -1.513   9.679  1.00  0.00     0.134 A 
ATOM     47  C   UNL     1       6.043  -2.208   9.848  1.00  0.00     0.134 A 
ATOM     48  F   UNL     1       9.543  -1.592   9.139  1.00  0.00    -0.206 F 
ATOM     49  C   UNL     1       8.115  -0.570  10.694  1.00  0.00     0.040 A 
ATOM     50  C   UNL     1       5.812  -1.234  10.828  1.00  0.00     0.040 A 
ATOM     51  F   UNL     1       5.000  -2.951   9.451  1.00  0.00    -0.206 F 
ATOM     52  C   UNL     1       6.853  -0.418  11.262  1.00  0.00     0.006 A 
ENDBRANCH  24  45
BRANCH  36  53
ATOM     53  C   UNL     1      11.098  -8.050   8.238  1.00  0.00     0.057 A 
ATOM     54  C   UNL     1      10.676  -8.627   9.441  1.00  0.00     0.134 A 
ATOM     55  C   UNL     1      12.456  -8.107   7.911  1.00  0.00     0.134 A 
ATOM     56  F   UNL     1       9.384  -8.582   9.804  1.00  0.00    -0.206 F 
ATOM     57  C   UNL     1      11.592  -9.176  10.329  1.00  0.00     0.040 A 
ATOM     58  C   UNL     1      13.372  -8.707   8.765  1.00  0.00     0.040 A 
ATOM     59  F   UNL     1      12.906  -7.582   6.761  1.00  0.00    -0.206 F 
ATOM     60  C   UNL     1      12.944  -9.220   9.988  1.00  0.00     0.006 A 
ENDBRANCH  36  53
ENDBRANCH  10  11
ENDBRANCH   3   5
ENDBRANCH   2   3
ENDBRANCH   1   2
BRANCH   1  61
ATOM     61  C   UNL     1       4.068   1.661   0.693  1.00  0.00     0.274 C 
BRANCH  61  62
ATOM     62  O   UNL     1       3.455   0.688   1.580  1.00  0.00    -0.462 OA
BRANCH  62  63
ATOM     63  C   UNL     1       2.182   0.921   2.030  1.00  0.00     0.309 C 
ATOM     64  O   UNL     1       1.534   1.904   1.688  1.00  0.00    -0.252 OA
BRANCH  63  65
ATOM     65  C   UNL     1       1.627  -0.133   3.045  1.00  0.00     0.099 C 
ATOM     66  C   UNL     1       1.688  -1.563   2.498  1.00  0.00     0.021 C 
ATOM     67  C   UNL     1       2.133   0.062   4.494  1.00  0.00     0.021 C 
ATOM     68  C   UNL     1       1.688  -2.715   3.496  1.00  0.00     0.066 C 
ATOM     69  C   UNL     1       2.228  -1.210   5.359  1.00  0.00     0.066 C 
ATOM     70  C   UNL     1       2.671  -2.493   4.646  1.00  0.00     0.184 C 
BRANCH  70  71
ATOM     71  N   UNL     1       4.045  -2.612   4.151  1.00  0.00    -0.333 N 
ATOM     72  C   UNL     1       5.246  -3.186   5.502  1.00  0.00     0.262 C 
ATOM     73  C   UNL     1       4.759  -1.254   3.267  1.00  0.00     0.262 C 
ATOM     74  H   UNL     1       3.915  -3.324   3.432  1.00  0.00     0.348 HD
ATOM     75  C   UNL     1       7.135  -1.952   5.098  1.00  0.00     0.067 C 
ATOM     76  C   UNL     1       6.553  -0.840   3.601  1.00  0.00     0.067 C 
ENDBRANCH  70  71
ENDBRANCH  63  65
ENDBRANCH  62  63
ENDBRANCH  61  62
ENDBRANCH   1  61
TORSDOF 12
