REMARK SMILES COc1ccc(-c2cnc(N)c(C(=O)OCCOC(=O)c3ccc(-c4c5nc(c(-c6c(F)cccc6F)c6ccc([nH]6)c(-c6c(F)cccc6F)c6nc(c(-c7c(F)cccc7F)c7ccc4[nH]7)C=C6)C=C5)cc3)c2)c(C)c1
REMARK SMILES IDX 16 1 15 2 13 3 14 4 12 5 7 6 8 7 75 8 9 9 10 10 6 11 3 12
REMARK SMILES IDX 4 13 78 14 5 15 76 16 77 17 2 18 1 19 11 20 17 23 18 24
REMARK SMILES IDX 19 25 20 26 21 27 22 28 74 29 23 30 73 31 24 32 25 33 26 34
REMARK SMILES IDX 67 35 27 36 72 37 66 38 68 39 28 40 71 41 65 42 64 43 29 45
REMARK SMILES IDX 55 46 38 47 54 48 39 49 42 50 53 51 69 52 40 53 41 54 52 56
REMARK SMILES IDX 70 57 43 58 30 59 31 60 36 61 32 62 33 63 35 64 37 65 34 66
REMARK SMILES IDX 56 67 57 68 62 69 58 70 59 71 61 72 63 73 60 74 44 75 45 76
REMARK SMILES IDX 50 77 46 78 47 79 49 80 51 81 48 82
REMARK H PARENT 11 21 11 22 68 44 42 55
REMARK Flexibility Score: inf
ROOT
ATOM      1  C   UNL     1      -0.823 -10.204   5.725  1.00  0.00     0.275 C 
ENDROOT
BRANCH   1   2
ATOM      2  O   UNL     1      -0.329  -8.863   5.574  1.00  0.00    -0.458 OA
BRANCH   2   3
ATOM      3  C   UNL     1       1.029  -8.837   5.471  1.00  0.00     0.342 C 
ATOM      4  O   UNL     1       1.749  -9.829   5.479  1.00  0.00    -0.246 OA
BRANCH   3   5
ATOM      5  C   UNL     1       1.595  -7.474   5.416  1.00  0.00     0.102 A 
ATOM      6  C   UNL     1       1.737  -5.222   4.489  1.00  0.00     0.001 A 
ATOM      7  C   UNL     1       2.886  -5.094   5.274  1.00  0.00     0.122 A 
ATOM      8  C   UNL     1       1.068  -6.450   4.609  1.00  0.00     0.030 A 
ATOM      9  N   UNL     1       3.412  -6.056   6.071  1.00  0.00    -0.238 NA
ATOM     10  C   UNL     1       2.785  -7.244   6.108  1.00  0.00     0.138 A 
BRANCH   6  11
ATOM     11  C   UNL     1       1.327  -4.118   3.579  1.00  0.00    -0.014 A 
ATOM     12  C   UNL     1       0.783  -1.860   1.908  1.00  0.00     0.119 A 
ATOM     13  C   UNL     1       2.062  -2.391   1.958  1.00  0.00     0.047 A 
ATOM     14  C   UNL     1      -0.221  -2.464   2.664  1.00  0.00     0.050 A 
ATOM     15  C   UNL     1       2.321  -3.504   2.774  1.00  0.00     0.013 A 
ATOM     16  C   UNL     1       0.025  -3.583   3.497  1.00  0.00    -0.040 A 
ATOM     17  C   UNL     1      -1.169  -4.129   4.232  1.00  0.00     0.045 C 
BRANCH  12  18
ATOM     18  O   UNL     1       0.399  -0.741   1.226  1.00  0.00    -0.497 OA
ATOM     19  C   UNL     1       1.160  -0.393   0.076  1.00  0.00     0.278 C 
ENDBRANCH  12  18
ENDBRANCH   6  11
BRANCH  10  20
ATOM     20  N   UNL     1       3.370  -8.185   6.936  1.00  0.00    -0.383 N 
ATOM     21  H   UNL     1       4.211  -7.974   7.404  1.00  0.00     0.158 HD
ATOM     22  H   UNL     1       2.946  -9.065   7.058  1.00  0.00     0.158 HD
ENDBRANCH  10  20
ENDBRANCH   3   5
ENDBRANCH   2   3
ENDBRANCH   1   2
BRANCH   1  23
ATOM     23  C   UNL     1      -2.317 -10.363   5.417  1.00  0.00     0.275 C 
BRANCH  23  24
ATOM     24  O   UNL     1      -2.965  -9.393   4.546  1.00  0.00    -0.458 OA
BRANCH  24  25
ATOM     25  C   UNL     1      -2.501  -8.808   3.417  1.00  0.00     0.338 C 
ATOM     26  O   UNL     1      -2.990  -7.778   2.962  1.00  0.00    -0.246 OA
BRANCH  25  27
ATOM     27  C   UNL     1      -1.337  -9.413   2.761  1.00  0.00     0.060 A 
ATOM     28  C   UNL     1      -0.324  -8.574   2.269  1.00  0.00     0.016 A 
ATOM     29  C   UNL     1      -1.216 -10.796   2.713  1.00  0.00     0.016 A 
ATOM     30  C   UNL     1       0.878  -9.117   1.839  1.00  0.00     0.010 A 
ATOM     31  C   UNL     1       0.006 -11.332   2.402  1.00  0.00     0.010 A 
ATOM     32  C   UNL     1       1.030 -10.497   1.924  1.00  0.00    -0.014 A 
BRANCH  32  33
ATOM     33  C   UNL     1       2.063 -11.218   1.207  1.00  0.00     0.031 A 
ATOM     34  C   UNL     1       3.424 -11.383   1.721  1.00  0.00     0.074 A 
ATOM     35  C   UNL     1       1.572 -11.810   0.097  1.00  0.00     0.049 A 
ATOM     36  N   UNL     1       4.434 -11.649   0.971  1.00  0.00    -0.248 NA
ATOM     37  C   UNL     1       3.783 -11.236   3.130  1.00  0.00     0.031 C 
ATOM     38  C   UNL     1       2.109 -12.846  -0.759  1.00  0.00     0.029 A 
ATOM     39  N   UNL     1       0.403 -11.395  -0.564  1.00  0.00    -0.354 N 
ATOM     40  C   UNL     1       5.460 -12.039   1.803  1.00  0.00     0.074 A 
ATOM     41  C   UNL     1       5.064 -11.630   3.127  1.00  0.00     0.031 C 
ATOM     42  C   UNL     1       1.472 -12.778  -1.946  1.00  0.00     0.029 A 
ATOM     43  C   UNL     1       0.634 -11.581  -1.928  1.00  0.00     0.049 A 
ATOM     44  H   UNL     1      -0.417 -11.043  -0.147  1.00  0.00     0.167 HD
ATOM     45  C   UNL     1       6.436 -12.850   1.305  1.00  0.00     0.037 A 
ATOM     46  C   UNL     1       0.812 -10.454  -2.683  1.00  0.00     0.037 A 
ATOM     47  C   UNL     1       6.195 -13.123  -0.108  1.00  0.00     0.049 A 
ATOM     48  C   UNL     1       2.235 -10.332  -3.194  1.00  0.00     0.074 A 
ATOM     49  C   UNL     1       5.534 -14.138  -0.779  1.00  0.00     0.029 A 
ATOM     50  N   UNL     1       6.279 -12.072  -0.998  1.00  0.00    -0.354 N 
ATOM     51  N   UNL     1       3.245 -11.011  -2.721  1.00  0.00    -0.248 NA
ATOM     52  C   UNL     1       2.635  -9.407  -4.250  1.00  0.00     0.031 C 
ATOM     53  C   UNL     1       5.184 -13.656  -2.075  1.00  0.00     0.029 A 
ATOM     54  C   UNL     1       5.641 -12.355  -2.188  1.00  0.00     0.049 A 
ATOM     55  H   UNL     1       6.739 -11.222  -0.807  1.00  0.00     0.167 HD
ATOM     56  C   UNL     1       4.378 -10.693  -3.411  1.00  0.00     0.074 A 
ATOM     57  C   UNL     1       3.957  -9.644  -4.324  1.00  0.00     0.031 C 
ATOM     58  C   UNL     1       5.576 -11.314  -3.199  1.00  0.00     0.037 A 
BRANCH  45  59
ATOM     59  C   UNL     1       7.411 -13.609   2.160  1.00  0.00     0.057 A 
ATOM     60  C   UNL     1       7.779 -14.928   1.829  1.00  0.00     0.134 A 
ATOM     61  C   UNL     1       8.014 -13.100   3.322  1.00  0.00     0.134 A 
ATOM     62  F   UNL     1       7.314 -15.532   0.729  1.00  0.00    -0.206 F 
ATOM     63  C   UNL     1       8.633 -15.703   2.622  1.00  0.00     0.040 A 
ATOM     64  C   UNL     1       8.847 -13.877   4.145  1.00  0.00     0.040 A 
ATOM     65  F   UNL     1       7.841 -11.822   3.692  1.00  0.00    -0.206 F 
ATOM     66  C   UNL     1       9.155 -15.187   3.797  1.00  0.00     0.006 A 
ENDBRANCH  45  59
BRANCH  46  67
ATOM     67  C   UNL     1      -0.059  -9.302  -2.260  1.00  0.00     0.057 A 
ATOM     68  C   UNL     1      -1.451  -9.508  -2.116  1.00  0.00     0.134 A 
ATOM     69  C   UNL     1       0.446  -8.117  -1.715  1.00  0.00     0.134 A 
ATOM     70  F   UNL     1      -2.026 -10.615  -2.615  1.00  0.00    -0.206 F 
ATOM     71  C   UNL     1      -2.266  -8.649  -1.370  1.00  0.00     0.040 A 
ATOM     72  C   UNL     1      -0.370  -7.231  -0.992  1.00  0.00     0.040 A 
ATOM     73  F   UNL     1       1.751  -7.827  -1.795  1.00  0.00    -0.206 F 
ATOM     74  C   UNL     1      -1.720  -7.514  -0.785  1.00  0.00     0.006 A 
ENDBRANCH  46  67
BRANCH  58  75
ATOM     75  C   UNL     1       6.816 -10.978  -3.967  1.00  0.00     0.057 A 
ATOM     76  C   UNL     1       6.816 -10.832  -5.358  1.00  0.00     0.134 A 
ATOM     77  C   UNL     1       8.076 -10.902  -3.340  1.00  0.00     0.134 A 
ATOM     78  F   UNL     1       5.689 -10.979  -6.070  1.00  0.00    -0.206 F 
ATOM     79  C   UNL     1       7.984 -10.549  -6.071  1.00  0.00     0.040 A 
ATOM     80  C   UNL     1       9.256 -10.686  -4.048  1.00  0.00     0.040 A 
ATOM     81  F   UNL     1       8.217 -11.008  -2.011  1.00  0.00    -0.206 F 
ATOM     82  C   UNL     1       9.210 -10.483  -5.417  1.00  0.00     0.006 A 
ENDBRANCH  58  75
ENDBRANCH  32  33
ENDBRANCH  25  27
ENDBRANCH  24  25
ENDBRANCH  23  24
ENDBRANCH   1  23
TORSDOF 14
