REMARK SMILES CC1(C)[C@@H](CBr)CC[C@]1(C)C(=O)OCCOC(=O)c1ccc(-c2c3nc(c(-c4c(F)cccc4F)c4ccc([nH]4)c(-c4c(F)cccc4F)c4nc(c(-c5c(F)cccc5F)c5ccc2[nH]5)C=C4)C=C3)cc1
REMARK SMILES IDX 15 1 14 2 13 3 11 4 12 5 9 6 1 7 2 8 3 9 4 10 7 11 8 12
REMARK SMILES IDX 10 13 5 14 6 15 16 16 17 17 18 18 19 19 20 20 72 21 21 22
REMARK SMILES IDX 71 23 22 24 23 25 24 26 65 27 25 28 70 29 64 30 66 31 26 32
REMARK SMILES IDX 69 33 63 34 62 35 27 37 53 38 36 39 52 40 37 41 40 42 51 43
REMARK SMILES IDX 67 44 38 45 39 46 50 48 68 49 41 50 28 51 29 52 34 53 30 54
REMARK SMILES IDX 31 55 33 56 35 57 32 58 54 59 55 60 60 61 56 62 57 63 59 64
REMARK SMILES IDX 61 65 58 66 42 67 43 68 48 69 44 70 45 71 47 72 49 73 46 74
REMARK H PARENT 66 36 40 47
REMARK Flexibility Score: inf
ROOT
ATOM      1  C   UNL     1      -0.819   2.146  -4.414  1.00  0.00     0.275 C 
ENDROOT
BRANCH   1   2
ATOM      2  C   UNL     1       0.645   1.757  -4.186  1.00  0.00     0.274 C 
BRANCH   2   3
ATOM      3  O   UNL     1       0.898   1.459  -2.795  1.00  0.00    -0.462 OA
BRANCH   3   4
ATOM      4  C   UNL     1       1.319   2.499  -2.029  1.00  0.00     0.312 C 
ATOM      5  O   UNL     1       1.577   3.612  -2.477  1.00  0.00    -0.252 OA
BRANCH   4   6
ATOM      6  C   UNL     1       1.573   2.122  -0.557  1.00  0.00     0.071 C 
ATOM      7  C   UNL     1       1.455  -0.450  -0.073  1.00  0.00     0.012 C 
ATOM      8  C   UNL     1       0.768   0.917   0.074  1.00  0.00    -0.016 C 
ATOM      9  C   UNL     1      -0.656   0.751  -0.546  1.00  0.00     0.012 C 
ATOM     10  C   UNL     1       0.550   1.352   1.577  1.00  0.00     0.006 C 
ATOM     11  C   UNL     1       0.246   2.842   1.437  1.00  0.00     0.006 C 
ATOM     12  C   UNL     1       1.190   3.337   0.344  1.00  0.00     0.019 C 
ATOM     13  C   UNL     1       3.105   1.930  -0.516  1.00  0.00     0.024 C 
BRANCH  10  14
ATOM     14  C   UNL     1       1.601   0.960   2.631  1.00  0.00     0.084 C 
ATOM     15  Br  UNL     1       2.858   2.318   3.221  1.00  0.00    -0.092 Br
ENDBRANCH  10  14
ENDBRANCH   4   6
ENDBRANCH   3   4
ENDBRANCH   2   3
ENDBRANCH   1   2
BRANCH   1  16
ATOM     16  O   UNL     1      -1.113   3.351  -3.688  1.00  0.00    -0.458 OA
BRANCH  16  17
ATOM     17  C   UNL     1      -2.407   3.550  -3.349  1.00  0.00     0.338 C 
ATOM     18  O   UNL     1      -3.359   2.864  -3.699  1.00  0.00    -0.246 OA
BRANCH  17  19
ATOM     19  C   UNL     1      -2.525   4.707  -2.424  1.00  0.00     0.060 A 
ATOM     20  C   UNL     1      -1.431   5.143  -1.678  1.00  0.00     0.016 A 
ATOM     21  C   UNL     1      -3.763   5.320  -2.219  1.00  0.00     0.016 A 
ATOM     22  C   UNL     1      -1.585   6.090  -0.664  1.00  0.00     0.010 A 
ATOM     23  C   UNL     1      -3.892   6.354  -1.277  1.00  0.00     0.010 A 
ATOM     24  C   UNL     1      -2.814   6.727  -0.453  1.00  0.00    -0.014 A 
BRANCH  24  25
ATOM     25  C   UNL     1      -2.974   7.734   0.644  1.00  0.00     0.031 A 
ATOM     26  C   UNL     1      -4.063   7.578   1.678  1.00  0.00     0.074 A 
ATOM     27  C   UNL     1      -2.136   8.788   0.750  1.00  0.00     0.049 A 
ATOM     28  N   UNL     1      -4.476   8.431   2.584  1.00  0.00    -0.248 NA
ATOM     29  C   UNL     1      -4.801   6.305   1.682  1.00  0.00     0.031 C 
ATOM     30  C   UNL     1      -1.015   9.082  -0.144  1.00  0.00     0.029 A 
ATOM     31  N   UNL     1      -2.088   9.804   1.677  1.00  0.00    -0.354 N 
ATOM     32  C   UNL     1      -5.572   7.837   3.199  1.00  0.00     0.074 A 
ATOM     33  C   UNL     1      -5.751   6.542   2.576  1.00  0.00     0.031 C 
ATOM     34  C   UNL     1      -0.351  10.153   0.315  1.00  0.00     0.029 A 
ATOM     35  C   UNL     1      -1.049  10.683   1.480  1.00  0.00     0.049 A 
ATOM     36  H   UNL     1      -2.736   9.894   2.412  1.00  0.00     0.167 HD
ATOM     37  C   UNL     1      -6.363   8.325   4.186  1.00  0.00     0.037 A 
ATOM     38  C   UNL     1      -0.706  11.809   2.136  1.00  0.00     0.037 A 
ATOM     39  C   UNL     1      -6.136   9.567   4.880  1.00  0.00     0.049 A 
ATOM     40  C   UNL     1      -1.559  12.300   3.269  1.00  0.00     0.074 A 
ATOM     41  C   UNL     1      -6.878  10.132   5.904  1.00  0.00     0.029 A 
ATOM     42  N   UNL     1      -5.068  10.418   4.648  1.00  0.00    -0.354 N 
ATOM     43  N   UNL     1      -2.648  11.773   3.770  1.00  0.00    -0.248 NA
ATOM     44  C   UNL     1      -1.148  13.558   3.910  1.00  0.00     0.031 C 
ATOM     45  C   UNL     1      -6.266  11.332   6.283  1.00  0.00     0.029 A 
ATOM     46  C   UNL     1      -5.127  11.498   5.515  1.00  0.00     0.049 A 
ATOM     47  H   UNL     1      -4.370  10.277   3.968  1.00  0.00     0.167 HD
ATOM     48  C   UNL     1      -3.057  12.636   4.777  1.00  0.00     0.074 A 
ATOM     49  C   UNL     1      -2.081  13.704   4.840  1.00  0.00     0.031 C 
ATOM     50  C   UNL     1      -4.154  12.557   5.568  1.00  0.00     0.037 A 
BRANCH  37  51
ATOM     51  C   UNL     1      -7.578   7.528   4.561  1.00  0.00     0.057 A 
ATOM     52  C   UNL     1      -7.501   6.355   5.320  1.00  0.00     0.134 A 
ATOM     53  C   UNL     1      -8.854   7.977   4.190  1.00  0.00     0.134 A 
ATOM     54  F   UNL     1      -6.309   5.864   5.693  1.00  0.00    -0.206 F 
ATOM     55  C   UNL     1      -8.648   5.647   5.684  1.00  0.00     0.040 A 
ATOM     56  C   UNL     1     -10.008   7.290   4.568  1.00  0.00     0.040 A 
ATOM     57  F   UNL     1      -8.998   9.098   3.468  1.00  0.00    -0.206 F 
ATOM     58  C   UNL     1      -9.907   6.119   5.314  1.00  0.00     0.006 A 
ENDBRANCH  37  51
BRANCH  38  59
ATOM     59  C   UNL     1       0.496  12.569   1.712  1.00  0.00     0.057 A 
ATOM     60  C   UNL     1       1.651  12.591   2.502  1.00  0.00     0.134 A 
ATOM     61  C   UNL     1       0.526  13.274   0.503  1.00  0.00     0.134 A 
ATOM     62  F   UNL     1       1.672  11.959   3.684  1.00  0.00    -0.206 F 
ATOM     63  C   UNL     1       2.794  13.286   2.104  1.00  0.00     0.040 A 
ATOM     64  C   UNL     1       1.670  13.951   0.080  1.00  0.00     0.040 A 
ATOM     65  F   UNL     1      -0.551  13.292  -0.297  1.00  0.00    -0.206 F 
ATOM     66  C   UNL     1       2.808  13.960   0.884  1.00  0.00     0.006 A 
ENDBRANCH  38  59
BRANCH  50  67
ATOM     67  C   UNL     1      -4.343  13.650   6.575  1.00  0.00     0.057 A 
ATOM     68  C   UNL     1      -4.781  14.926   6.200  1.00  0.00     0.134 A 
ATOM     69  C   UNL     1      -4.083  13.425   7.932  1.00  0.00     0.134 A 
ATOM     70  F   UNL     1      -5.033  15.207   4.912  1.00  0.00    -0.206 F 
ATOM     71  C   UNL     1      -4.930  15.949   7.137  1.00  0.00     0.040 A 
ATOM     72  C   UNL     1      -4.245  14.436   8.881  1.00  0.00     0.040 A 
ATOM     73  F   UNL     1      -3.665  12.223   8.356  1.00  0.00    -0.206 F 
ATOM     74  C   UNL     1      -4.663  15.704   8.483  1.00  0.00     0.006 A 
ENDBRANCH  50  67
ENDBRANCH  24  25
ENDBRANCH  17  19
ENDBRANCH  16  17
ENDBRANCH   1  16
TORSDOF 12
