REMARK SMILES CC[C@H]1CC(=O)N(CCn2cc(C(=O)OCCOC(=O)c3ccc(-c4c5nc(c(-c6c(F)cccc6F)c6ccc([nH]6)c(-c6c(F)cccc6F)c6nc(c(-c7c(F)cccc7F)c7ccc4[nH]7)C=C6)C=C5)cc3)nn2)C1
REMARK SMILES IDX 16 1 15 2 13 3 14 4 12 5 10 6 11 7 76 8 75 9 9 10 8 11 7 12
REMARK SMILES IDX 3 13 4 14 77 15 5 16 6 17 2 18 1 19 17 20 18 21 19 22 20 23
REMARK SMILES IDX 21 24 22 25 74 26 23 27 73 28 24 29 25 30 26 31 67 32 27 33
REMARK SMILES IDX 72 34 66 35 68 36 28 37 71 38 65 39 64 40 29 42 55 43 38 44
REMARK SMILES IDX 54 45 39 46 42 47 53 48 69 49 40 50 41 51 52 53 70 54 43 55
REMARK SMILES IDX 30 56 31 57 36 58 32 59 33 60 35 61 37 62 34 63 56 64 57 65
REMARK SMILES IDX 62 66 58 67 59 68 61 69 63 70 60 71 44 72 45 73 50 74 46 75
REMARK SMILES IDX 47 76 49 77 51 78 48 79
REMARK H PARENT 68 41 42 52
REMARK Flexibility Score: inf
ROOT
ATOM      1  C   UNL     1      -1.647 -11.277   0.378  1.00  0.00     0.275 C 
ENDROOT
BRANCH   1   2
ATOM      2  O   UNL     1      -0.763 -10.287  -0.172  1.00  0.00    -0.457 OA
BRANCH   2   3
ATOM      3  C   UNL     1      -1.385  -9.136  -0.593  1.00  0.00     0.360 C 
ATOM      4  O   UNL     1      -2.594  -9.006  -0.669  1.00  0.00    -0.244 OA
BRANCH   3   5
ATOM      5  C   UNL     1      -0.447  -8.067  -0.901  1.00  0.00     0.190 A 
ATOM      6  N   UNL     1       1.260  -6.757  -1.168  1.00  0.00    -0.250 N 
ATOM      7  C   UNL     1       0.930  -8.025  -0.782  1.00  0.00     0.147 A 
ATOM      8  N   UNL     1       0.171  -6.080  -1.563  1.00  0.00    -0.066 NA
ATOM      9  N   UNL     1      -0.884  -6.849  -1.360  1.00  0.00    -0.123 NA
BRANCH   6  10
ATOM     10  C   UNL     1       2.580  -6.160  -1.228  1.00  0.00     0.167 C 
BRANCH  10  11
ATOM     11  C   UNL     1       2.635  -4.712  -1.746  1.00  0.00     0.143 C 
BRANCH  11  12
ATOM     12  N   UNL     1       2.332  -3.696  -0.740  1.00  0.00    -0.341 N 
ATOM     13  C   UNL     1       1.089  -2.246   0.634  1.00  0.00     0.017 C 
ATOM     14  C   UNL     1       2.584  -2.017   0.871  1.00  0.00     0.105 C 
ATOM     15  C   UNL     1       1.037  -3.573  -0.117  1.00  0.00     0.123 C 
ATOM     16  C   UNL     1       3.253  -2.799  -0.231  1.00  0.00     0.222 C 
ATOM     17  O   UNL     1       4.424  -2.697  -0.559  1.00  0.00    -0.275 OA
BRANCH  13  18
ATOM     18  C   UNL     1       0.217  -2.288   1.893  1.00  0.00     0.002 C 
ATOM     19  C   UNL     1       0.463  -1.141   2.858  1.00  0.00     0.004 C 
ENDBRANCH  13  18
ENDBRANCH  11  12
ENDBRANCH  10  11
ENDBRANCH   6  10
ENDBRANCH   3   5
ENDBRANCH   2   3
ENDBRANCH   1   2
BRANCH   1  20
ATOM     20  C   UNL     1      -1.806 -11.082   1.877  1.00  0.00     0.275 C 
BRANCH  20  21
ATOM     21  O   UNL     1      -2.514  -9.879   2.180  1.00  0.00    -0.458 OA
BRANCH  21  22
ATOM     22  C   UNL     1      -1.741  -8.818   2.505  1.00  0.00     0.338 C 
ATOM     23  O   UNL     1      -0.583  -8.619   2.173  1.00  0.00    -0.246 OA
BRANCH  22  24
ATOM     24  C   UNL     1      -2.411  -8.066   3.575  1.00  0.00     0.060 A 
ATOM     25  C   UNL     1      -1.782  -6.915   4.061  1.00  0.00     0.016 A 
ATOM     26  C   UNL     1      -3.476  -8.667   4.261  1.00  0.00     0.016 A 
ATOM     27  C   UNL     1      -2.127  -6.451   5.316  1.00  0.00     0.010 A 
ATOM     28  C   UNL     1      -3.794  -8.227   5.522  1.00  0.00     0.010 A 
ATOM     29  C   UNL     1      -3.076  -7.162   6.060  1.00  0.00    -0.014 A 
BRANCH  29  30
ATOM     30  C   UNL     1      -3.443  -6.688   7.379  1.00  0.00     0.031 A 
ATOM     31  C   UNL     1      -4.304  -5.482   7.323  1.00  0.00     0.074 A 
ATOM     32  C   UNL     1      -3.175  -7.395   8.495  1.00  0.00     0.049 A 
ATOM     33  N   UNL     1      -4.030  -4.294   7.747  1.00  0.00    -0.248 NA
ATOM     34  C   UNL     1      -5.551  -5.563   6.539  1.00  0.00     0.031 C 
ATOM     35  C   UNL     1      -2.583  -8.734   8.588  1.00  0.00     0.029 A 
ATOM     36  N   UNL     1      -3.473  -7.106   9.792  1.00  0.00    -0.354 N 
ATOM     37  C   UNL     1      -5.167  -3.535   7.481  1.00  0.00     0.074 A 
ATOM     38  C   UNL     1      -5.963  -4.296   6.560  1.00  0.00     0.031 C 
ATOM     39  C   UNL     1      -2.768  -9.222   9.836  1.00  0.00     0.029 A 
ATOM     40  C   UNL     1      -3.371  -8.189  10.660  1.00  0.00     0.049 A 
ATOM     41  H   UNL     1      -3.738  -6.207  10.090  1.00  0.00     0.167 HD
ATOM     42  C   UNL     1      -5.500  -2.484   8.277  1.00  0.00     0.037 A 
ATOM     43  C   UNL     1      -3.803  -8.233  11.947  1.00  0.00     0.037 A 
ATOM     44  C   UNL     1      -4.365  -2.058   9.057  1.00  0.00     0.049 A 
ATOM     45  C   UNL     1      -3.986  -6.834  12.395  1.00  0.00     0.074 A 
ATOM     46  C   UNL     1      -3.128  -1.514   8.787  1.00  0.00     0.029 A 
ATOM     47  N   UNL     1      -4.308  -2.546  10.337  1.00  0.00    -0.354 N 
ATOM     48  N   UNL     1      -3.005  -6.001  12.591  1.00  0.00    -0.248 NA
ATOM     49  C   UNL     1      -5.298  -6.226  12.238  1.00  0.00     0.031 C 
ATOM     50  C   UNL     1      -2.257  -2.040   9.787  1.00  0.00     0.029 A 
ATOM     51  C   UNL     1      -3.009  -2.836  10.652  1.00  0.00     0.049 A 
ATOM     52  H   UNL     1      -5.080  -2.668  10.935  1.00  0.00     0.167 HD
ATOM     53  C   UNL     1      -3.487  -4.782  12.142  1.00  0.00     0.074 A 
ATOM     54  C   UNL     1      -4.935  -4.952  12.073  1.00  0.00     0.031 C 
ATOM     55  C   UNL     1      -2.635  -3.868  11.592  1.00  0.00     0.037 A 
BRANCH  42  56
ATOM     56  C   UNL     1      -6.920  -2.172   8.704  1.00  0.00     0.057 A 
ATOM     57  C   UNL     1      -7.149  -1.034   9.500  1.00  0.00     0.134 A 
ATOM     58  C   UNL     1      -7.999  -3.081   8.649  1.00  0.00     0.134 A 
ATOM     59  F   UNL     1      -6.201  -0.096   9.647  1.00  0.00    -0.206 F 
ATOM     60  C   UNL     1      -8.319  -0.862  10.251  1.00  0.00     0.040 A 
ATOM     61  C   UNL     1      -9.191  -2.893   9.353  1.00  0.00     0.040 A 
ATOM     62  F   UNL     1      -7.933  -4.249   8.001  1.00  0.00    -0.206 F 
ATOM     63  C   UNL     1      -9.341  -1.799  10.187  1.00  0.00     0.006 A 
ENDBRANCH  42  56
BRANCH  43  64
ATOM     64  C   UNL     1      -4.330  -9.368  12.738  1.00  0.00     0.057 A 
ATOM     65  C   UNL     1      -4.421  -9.298  14.138  1.00  0.00     0.134 A 
ATOM     66  C   UNL     1      -5.034 -10.419  12.128  1.00  0.00     0.134 A 
ATOM     67  F   UNL     1      -3.815  -8.309  14.810  1.00  0.00    -0.206 F 
ATOM     68  C   UNL     1      -5.195 -10.197  14.883  1.00  0.00     0.040 A 
ATOM     69  C   UNL     1      -5.808 -11.327  12.861  1.00  0.00     0.040 A 
ATOM     70  F   UNL     1      -5.072 -10.541  10.793  1.00  0.00    -0.206 F 
ATOM     71  C   UNL     1      -5.904 -11.208  14.242  1.00  0.00     0.006 A 
ENDBRANCH  43  64
BRANCH  55  72
ATOM     72  C   UNL     1      -1.164  -4.080  11.823  1.00  0.00     0.057 A 
ATOM     73  C   UNL     1      -0.424  -5.155  11.310  1.00  0.00     0.134 A 
ATOM     74  C   UNL     1      -0.453  -3.089  12.507  1.00  0.00     0.134 A 
ATOM     75  F   UNL     1      -1.003  -6.106  10.567  1.00  0.00    -0.206 F 
ATOM     76  C   UNL     1       0.956  -5.260  11.509  1.00  0.00     0.040 A 
ATOM     77  C   UNL     1       0.930  -3.163  12.681  1.00  0.00     0.040 A 
ATOM     78  F   UNL     1      -1.089  -2.007  12.981  1.00  0.00    -0.206 F 
ATOM     79  C   UNL     1       1.638  -4.258  12.192  1.00  0.00     0.006 A 
ENDBRANCH  55  72
ENDBRANCH  29  30
ENDBRANCH  22  24
ENDBRANCH  21  22
ENDBRANCH  20  21
ENDBRANCH   1  20
TORSDOF 15
