REMARK SMILES C=CCn1nc(C(=O)OCCOC(=O)c2ccc(-c3c4nc(c(-c5c(F)cccc5F)c5ccc([nH]5)c(-c5c(F)cccc5F)c5nc(c(-c6c(F)cccc6F)c6ccc3[nH]6)C=C5)C=C4)cc2)c2c1CC[C@@H]([NH+]1CCC(C(C)(C)O)CC1)C2
REMARK SMILES IDX 10 1 9 2 7 3 8 4 6 5 4 6 5 7 70 8 69 9 71 10 84 11 72 12
REMARK SMILES IDX 73 13 3 14 2 15 1 16 74 17 75 18 83 19 76 21 82 22 77 23
REMARK SMILES IDX 78 24 79 25 80 26 81 27 11 29 12 30 13 31 14 32 15 33 16 34
REMARK SMILES IDX 68 35 17 36 67 37 18 38 19 39 20 40 61 41 21 42 66 43 60 44
REMARK SMILES IDX 62 45 22 46 65 47 59 48 58 49 23 51 49 52 32 53 48 54 33 55
REMARK SMILES IDX 36 56 47 57 63 58 34 59 35 60 46 62 64 63 37 64 24 65 25 66
REMARK SMILES IDX 30 67 26 68 27 69 29 70 31 71 28 72 50 73 51 74 56 75 52 76
REMARK SMILES IDX 53 77 55 78 57 79 54 80 38 81 39 82 44 83 40 84 41 85 43 86
REMARK SMILES IDX 45 87 42 88
REMARK H PARENT 74 20 81 28 62 50 36 61
REMARK Flexibility Score: inf
ROOT
ATOM      1  C   UNL     1      -3.151  -6.975  -4.681  1.00  0.00     0.275 C 
ENDROOT
BRANCH   1   2
ATOM      2  O   UNL     1      -3.233  -5.711  -4.009  1.00  0.00    -0.457 OA
BRANCH   2   3
ATOM      3  C   UNL     1      -2.851  -5.628  -2.695  1.00  0.00     0.359 C 
ATOM      4  O   UNL     1      -2.687  -6.606  -1.968  1.00  0.00    -0.244 OA
BRANCH   3   5
ATOM      5  C   UNL     1      -2.630  -4.227  -2.300  1.00  0.00     0.174 A 
ATOM      6  N   UNL     1      -2.306  -2.463  -1.134  1.00  0.00    -0.265 N 
ATOM      7  N   UNL     1      -2.290  -3.820  -1.052  1.00  0.00    -0.165 NA
ATOM      8  C   UNL     1      -2.888  -2.045  -2.297  1.00  0.00     0.043 A 
ATOM      9  C   UNL     1      -2.747  -3.104  -3.157  1.00  0.00     0.014 A 
ATOM     10  C   UNL     1      -3.463  -0.733  -2.648  1.00  0.00     0.062 C 
ATOM     11  C   UNL     1      -2.878  -2.984  -4.636  1.00  0.00     0.105 C 
ATOM     12  C   UNL     1      -3.767  -0.680  -4.160  1.00  0.00     0.072 C 
ATOM     13  C   UNL     1      -2.832  -1.494  -5.099  1.00  0.00     0.189 C 
BRANCH   6  14
ATOM     14  C   UNL     1      -1.720  -1.640  -0.074  1.00  0.00     0.171 C 
BRANCH  14  15
ATOM     15  C   UNL     1      -0.209  -1.590  -0.133  1.00  0.00    -0.011 C 
ATOM     16  C   UNL     1       0.540  -0.477  -0.092  1.00  0.00     0.006 C 
ENDBRANCH  14  15
ENDBRANCH   6  14
BRANCH  13  17
ATOM     17  N   UNL     1      -1.466  -1.032  -5.434  1.00  0.00    -0.332 N 
ATOM     18  C   UNL     1      -0.444  -0.916  -4.410  1.00  0.00     0.262 C 
ATOM     19  C   UNL     1      -1.367   0.092  -6.353  1.00  0.00     0.262 C 
ATOM     20  H   UNL     1      -1.226  -1.898  -5.916  1.00  0.00     0.348 HD
ATOM     21  C   UNL     1      -0.455   0.391  -3.618  1.00  0.00     0.068 C 
ATOM     22  C   UNL     1      -1.629   1.439  -5.700  1.00  0.00     0.068 C 
ATOM     23  C   UNL     1      -0.914   1.680  -4.348  1.00  0.00     0.031 C 
BRANCH  23  24
ATOM     24  C   UNL     1      -1.734   2.679  -3.441  1.00  0.00     0.062 C 
ATOM     25  C   UNL     1      -1.187   2.819  -2.016  1.00  0.00     0.042 C 
ATOM     26  C   UNL     1      -1.814   4.063  -4.097  1.00  0.00     0.042 C 
BRANCH  24  27
ATOM     27  O   UNL     1      -3.085   2.225  -3.307  1.00  0.00    -0.390 OA
ATOM     28  H   UNL     1      -3.092   1.347  -2.895  1.00  0.00     0.211 HD
ENDBRANCH  24  27
ENDBRANCH  23  24
ENDBRANCH  13  17
ENDBRANCH   3   5
ENDBRANCH   2   3
ENDBRANCH   1   2
BRANCH   1  29
ATOM     29  C   UNL     1      -1.755  -7.184  -5.252  1.00  0.00     0.275 C 
BRANCH  29  30
ATOM     30  O   UNL     1      -0.854  -7.421  -4.179  1.00  0.00    -0.458 OA
BRANCH  30  31
ATOM     31  C   UNL     1      -0.216  -6.342  -3.673  1.00  0.00     0.338 C 
ATOM     32  O   UNL     1      -0.287  -5.193  -4.066  1.00  0.00    -0.246 OA
BRANCH  31  33
ATOM     33  C   UNL     1       0.700  -6.806  -2.627  1.00  0.00     0.060 A 
ATOM     34  C   UNL     1       1.515  -5.849  -2.015  1.00  0.00     0.016 A 
ATOM     35  C   UNL     1       0.967  -8.178  -2.556  1.00  0.00     0.016 A 
ATOM     36  C   UNL     1       2.758  -6.248  -1.577  1.00  0.00     0.010 A 
ATOM     37  C   UNL     1       2.216  -8.565  -2.173  1.00  0.00     0.010 A 
ATOM     38  C   UNL     1       3.120  -7.578  -1.786  1.00  0.00    -0.014 A 
BRANCH  38  39
ATOM     39  C   UNL     1       4.499  -7.972  -1.641  1.00  0.00     0.031 A 
ATOM     40  C   UNL     1       4.857  -8.361  -0.262  1.00  0.00     0.074 A 
ATOM     41  C   UNL     1       5.255  -8.158  -2.740  1.00  0.00     0.049 A 
ATOM     42  N   UNL     1       5.688  -7.777   0.534  1.00  0.00    -0.248 NA
ATOM     43  C   UNL     1       4.053  -9.416   0.379  1.00  0.00     0.031 C 
ATOM     44  C   UNL     1       4.847  -8.097  -4.149  1.00  0.00     0.029 A 
ATOM     45  N   UNL     1       6.540  -8.587  -2.814  1.00  0.00    -0.354 N 
ATOM     46  C   UNL     1       5.649  -8.517   1.712  1.00  0.00     0.074 A 
ATOM     47  C   UNL     1       4.473  -9.337   1.639  1.00  0.00     0.031 C 
ATOM     48  C   UNL     1       5.789  -8.698  -4.912  1.00  0.00     0.029 A 
ATOM     49  C   UNL     1       6.903  -9.077  -4.064  1.00  0.00     0.049 A 
ATOM     50  H   UNL     1       7.161  -8.554  -2.050  1.00  0.00     0.167 HD
ATOM     51  C   UNL     1       6.730  -8.602   2.531  1.00  0.00     0.037 A 
ATOM     52  C   UNL     1       7.992  -9.851  -4.295  1.00  0.00     0.037 A 
ATOM     53  C   UNL     1       7.691  -7.575   2.220  1.00  0.00     0.049 A 
ATOM     54  C   UNL     1       8.904  -9.675  -3.126  1.00  0.00     0.074 A 
ATOM     55  C   UNL     1       7.664  -6.194   2.233  1.00  0.00     0.029 A 
ATOM     56  N   UNL     1       8.766  -7.927   1.438  1.00  0.00    -0.354 N 
ATOM     57  N   UNL     1       9.509  -8.550  -2.845  1.00  0.00    -0.248 NA
ATOM     58  C   UNL     1       8.728 -10.583  -1.998  1.00  0.00     0.031 C 
ATOM     59  C   UNL     1       8.413  -5.801   1.087  1.00  0.00     0.029 A 
ATOM     60  C   UNL     1       8.912  -6.956   0.481  1.00  0.00     0.049 A 
ATOM     61  H   UNL     1       9.328  -8.729   1.545  1.00  0.00     0.167 HD
ATOM     62  C   UNL     1       9.419  -8.429  -1.463  1.00  0.00     0.074 A 
ATOM     63  C   UNL     1       8.978  -9.740  -0.991  1.00  0.00     0.031 C 
ATOM     64  C   UNL     1       9.413  -7.207  -0.852  1.00  0.00     0.037 A 
BRANCH  51  65
ATOM     65  C   UNL     1       7.088  -9.820   3.345  1.00  0.00     0.057 A 
ATOM     66  C   UNL     1       8.169  -9.737   4.239  1.00  0.00     0.134 A 
ATOM     67  C   UNL     1       6.618 -11.128   3.099  1.00  0.00     0.134 A 
ATOM     68  F   UNL     1       8.709  -8.552   4.561  1.00  0.00    -0.206 F 
ATOM     69  C   UNL     1       8.791 -10.872   4.773  1.00  0.00     0.040 A 
ATOM     70  C   UNL     1       7.195 -12.263   3.672  1.00  0.00     0.040 A 
ATOM     71  F   UNL     1       5.646 -11.400   2.222  1.00  0.00    -0.206 F 
ATOM     72  C   UNL     1       8.310 -12.141   4.481  1.00  0.00     0.006 A 
ENDBRANCH  51  65
BRANCH  52  73
ATOM     73  C   UNL     1       8.094 -10.994  -5.236  1.00  0.00     0.057 A 
ATOM     74  C   UNL     1       9.335 -11.528  -5.606  1.00  0.00     0.134 A 
ATOM     75  C   UNL     1       6.966 -11.752  -5.606  1.00  0.00     0.134 A 
ATOM     76  F   UNL     1      10.472 -10.909  -5.258  1.00  0.00    -0.206 F 
ATOM     77  C   UNL     1       9.448 -12.745  -6.297  1.00  0.00     0.040 A 
ATOM     78  C   UNL     1       7.064 -12.961  -6.302  1.00  0.00     0.040 A 
ATOM     79  F   UNL     1       5.731 -11.391  -5.231  1.00  0.00    -0.206 F 
ATOM     80  C   UNL     1       8.310 -13.468  -6.642  1.00  0.00     0.006 A 
ENDBRANCH  52  73
BRANCH  64  81
ATOM     81  C   UNL     1       9.699  -5.988  -1.686  1.00  0.00     0.057 A 
ATOM     82  C   UNL     1       8.860  -5.534  -2.715  1.00  0.00     0.134 A 
ATOM     83  C   UNL     1      10.731  -5.130  -1.290  1.00  0.00     0.134 A 
ATOM     84  F   UNL     1       7.786  -6.237  -3.092  1.00  0.00    -0.206 F 
ATOM     85  C   UNL     1       9.053  -4.296  -3.336  1.00  0.00     0.040 A 
ATOM     86  C   UNL     1      10.915  -3.877  -1.879  1.00  0.00     0.040 A 
ATOM     87  F   UNL     1      11.536  -5.469  -0.271  1.00  0.00    -0.206 F 
ATOM     88  C   UNL     1      10.077  -3.458  -2.909  1.00  0.00     0.006 A 
ENDBRANCH  64  81
ENDBRANCH  38  39
ENDBRANCH  31  33
ENDBRANCH  30  31
ENDBRANCH  29  30
ENDBRANCH   1  29
TORSDOF 16
