REMARK SMILES COCCCN(C)C(=O)N1CCC(CC(=O)OCCOC(=O)c2ccc(-c3c4nc(c(-c5c(F)cccc5F)c5ccc([nH]5)c(-c5c(F)cccc5F)c5nc(c(-c6c(F)cccc6F)c6ccc3[nH]6)C=C5)C=C4)cc2)CC1
REMARK SMILES IDX 15 1 16 2 14 3 13 4 8 5 9 6 10 7 11 8 78 9 12 10 77 11 6 12
REMARK SMILES IDX 7 13 5 14 4 15 3 16 2 17 1 18 17 19 18 20 19 21 20 22 21 23
REMARK SMILES IDX 22 24 23 25 24 26 76 27 25 28 75 29 26 30 27 31 28 32 69 33
REMARK SMILES IDX 29 34 74 35 68 36 70 37 30 38 73 39 67 40 66 41 31 43 57 44
REMARK SMILES IDX 40 45 56 46 41 47 44 48 55 49 71 50 42 51 43 52 54 54 72 55
REMARK SMILES IDX 45 56 32 57 33 58 38 59 34 60 35 61 37 62 39 63 36 64 58 65
REMARK SMILES IDX 59 66 64 67 60 68 61 69 63 70 65 71 62 72 46 73 47 74 52 75
REMARK SMILES IDX 48 76 49 77 51 78 53 79 50 80
REMARK H PARENT 70 42 44 53
REMARK Flexibility Score: inf
ROOT
ATOM      1  C   UNL     1       8.225   1.994   1.624  1.00  0.00     0.306 C 
ATOM      2  O   UNL     1       9.134   2.787   1.411  1.00  0.00    -0.252 OA
ENDROOT
BRANCH   1   3
ATOM      3  C   UNL     1       7.099   1.753   0.640  1.00  0.00     0.126 C 
BRANCH   3   4
ATOM      4  C   UNL     1       6.849   0.277   0.279  1.00  0.00     0.003 C 
ATOM      5  C   UNL     1       3.557  -1.499  -0.303  1.00  0.00     0.319 C 
ATOM      6  O   UNL     1       3.129  -0.578   0.388  1.00  0.00    -0.248 OA
ATOM      7  N   UNL     1       4.905  -1.801  -0.329  1.00  0.00    -0.325 N 
ATOM      8  C   UNL     1       5.601  -1.837   0.944  1.00  0.00     0.121 C 
ATOM      9  C   UNL     1       5.692  -1.248  -1.418  1.00  0.00     0.121 C 
ATOM     10  C   UNL     1       6.049  -0.446   1.379  1.00  0.00     0.026 C 
ATOM     11  C   UNL     1       6.125   0.184  -1.084  1.00  0.00     0.026 C 
BRANCH   5  12
ATOM     12  N   UNL     1       2.740  -2.300  -1.078  1.00  0.00    -0.328 N 
ATOM     13  C   UNL     1       3.213  -3.425  -1.871  1.00  0.00     0.148 C 
BRANCH  12  14
ATOM     14  C   UNL     1       1.309  -1.996  -1.136  1.00  0.00     0.123 C 
BRANCH  14  15
ATOM     15  C   UNL     1       0.506  -2.543   0.053  1.00  0.00     0.050 C 
BRANCH  15  16
ATOM     16  C   UNL     1       0.380  -1.634   1.280  1.00  0.00     0.161 C 
BRANCH  16  17
ATOM     17  O   UNL     1      -0.589  -0.596   1.123  1.00  0.00    -0.385 OA
ATOM     18  C   UNL     1      -0.103   0.569   0.471  1.00  0.00     0.194 C 
ENDBRANCH  16  17
ENDBRANCH  15  16
ENDBRANCH  14  15
ENDBRANCH  12  14
ENDBRANCH   5  12
ENDBRANCH   3   4
ENDBRANCH   1   3
BRANCH   1  19
ATOM     19  O   UNL     1       8.075   1.270   2.760  1.00  0.00    -0.462 OA
BRANCH  19  20
ATOM     20  C   UNL     1       9.095   1.411   3.766  1.00  0.00     0.274 C 
BRANCH  20  21
ATOM     21  C   UNL     1      10.136   0.294   3.664  1.00  0.00     0.275 C 
BRANCH  21  22
ATOM     22  O   UNL     1      10.972   0.473   2.506  1.00  0.00    -0.458 OA
BRANCH  22  23
ATOM     23  C   UNL     1      10.644  -0.269   1.426  1.00  0.00     0.338 C 
ATOM     24  O   UNL     1       9.772  -1.121   1.342  1.00  0.00    -0.246 OA
BRANCH  23  25
ATOM     25  C   UNL     1      11.448   0.172   0.279  1.00  0.00     0.060 A 
ATOM     26  C   UNL     1      10.813   0.838  -0.773  1.00  0.00     0.016 A 
ATOM     27  C   UNL     1      12.810  -0.125   0.216  1.00  0.00     0.016 A 
ATOM     28  C   UNL     1      11.542   1.211  -1.901  1.00  0.00     0.010 A 
ATOM     29  C   UNL     1      13.540   0.252  -0.914  1.00  0.00     0.010 A 
ATOM     30  C   UNL     1      12.908   0.913  -1.983  1.00  0.00    -0.014 A 
BRANCH  30  31
ATOM     31  C   UNL     1      13.676   1.255  -3.203  1.00  0.00     0.031 A 
ATOM     32  C   UNL     1      14.063   0.173  -4.169  1.00  0.00     0.074 A 
ATOM     33  C   UNL     1      14.034   2.531  -3.437  1.00  0.00     0.049 A 
ATOM     34  N   UNL     1      14.813   0.248  -5.239  1.00  0.00    -0.248 NA
ATOM     35  C   UNL     1      13.537  -1.172  -3.892  1.00  0.00     0.031 C 
ATOM     36  C   UNL     1      13.689   3.674  -2.592  1.00  0.00     0.029 A 
ATOM     37  N   UNL     1      14.778   3.076  -4.453  1.00  0.00    -0.354 N 
ATOM     38  C   UNL     1      14.867  -1.041  -5.752  1.00  0.00     0.074 A 
ATOM     39  C   UNL     1      14.086  -1.881  -4.869  1.00  0.00     0.031 C 
ATOM     40  C   UNL     1      14.227   4.785  -3.121  1.00  0.00     0.029 A 
ATOM     41  C   UNL     1      14.986   4.426  -4.316  1.00  0.00     0.049 A 
ATOM     42  H   UNL     1      15.129   2.549  -5.207  1.00  0.00     0.167 HD
ATOM     43  C   UNL     1      15.510  -1.481  -6.859  1.00  0.00     0.037 A 
ATOM     44  C   UNL     1      15.727   5.271  -5.056  1.00  0.00     0.037 A 
ATOM     45  C   UNL     1      16.275  -0.641  -7.743  1.00  0.00     0.049 A 
ATOM     46  C   UNL     1      16.477   4.746  -6.249  1.00  0.00     0.074 A 
ATOM     47  C   UNL     1      16.939  -0.992  -8.906  1.00  0.00     0.029 A 
ATOM     48  N   UNL     1      16.481   0.717  -7.558  1.00  0.00    -0.354 N 
ATOM     49  N   UNL     1      16.513   3.528  -6.732  1.00  0.00    -0.248 NA
ATOM     50  C   UNL     1      17.295   5.713  -6.995  1.00  0.00     0.031 C 
ATOM     51  C   UNL     1      17.579   0.148  -9.405  1.00  0.00     0.029 A 
ATOM     52  C   UNL     1      17.281   1.216  -8.574  1.00  0.00     0.049 A 
ATOM     53  H   UNL     1      16.114   1.248  -6.816  1.00  0.00     0.167 HD
ATOM     54  C   UNL     1      17.337   3.586  -7.848  1.00  0.00     0.074 A 
ATOM     55  C   UNL     1      17.772   4.961  -7.978  1.00  0.00     0.031 C 
ATOM     56  C   UNL     1      17.699   2.589  -8.691  1.00  0.00     0.037 A 
BRANCH  43  57
ATOM     57  C   UNL     1      15.432  -2.947  -7.165  1.00  0.00     0.057 A 
ATOM     58  C   UNL     1      14.269  -3.536  -7.676  1.00  0.00     0.134 A 
ATOM     59  C   UNL     1      16.549  -3.771  -6.980  1.00  0.00     0.134 A 
ATOM     60  F   UNL     1      13.162  -2.803  -7.863  1.00  0.00    -0.206 F 
ATOM     61  C   UNL     1      14.214  -4.898  -7.975  1.00  0.00     0.040 A 
ATOM     62  C   UNL     1      16.513  -5.130  -7.295  1.00  0.00     0.040 A 
ATOM     63  F   UNL     1      17.695  -3.268  -6.497  1.00  0.00    -0.206 F 
ATOM     64  C   UNL     1      15.341  -5.698  -7.790  1.00  0.00     0.006 A 
ENDBRANCH  43  57
BRANCH  44  65
ATOM     65  C   UNL     1      15.814   6.704  -4.680  1.00  0.00     0.057 A 
ATOM     66  C   UNL     1      15.203   7.693  -5.458  1.00  0.00     0.134 A 
ATOM     67  C   UNL     1      16.517   7.117  -3.542  1.00  0.00     0.134 A 
ATOM     68  F   UNL     1      14.537   7.359  -6.573  1.00  0.00    -0.206 F 
ATOM     69  C   UNL     1      15.297   9.045  -5.125  1.00  0.00     0.040 A 
ATOM     70  C   UNL     1      16.600   8.463  -3.184  1.00  0.00     0.040 A 
ATOM     71  F   UNL     1      17.125   6.216  -2.757  1.00  0.00    -0.206 F 
ATOM     72  C   UNL     1      15.993   9.432  -3.981  1.00  0.00     0.006 A 
ENDBRANCH  44  65
BRANCH  56  73
ATOM     73  C   UNL     1      18.584   2.955  -9.845  1.00  0.00     0.057 A 
ATOM     74  C   UNL     1      19.949   3.214  -9.673  1.00  0.00     0.134 A 
ATOM     75  C   UNL     1      18.072   3.010 -11.147  1.00  0.00     0.134 A 
ATOM     76  F   UNL     1      20.497   3.190  -8.449  1.00  0.00    -0.206 F 
ATOM     77  C   UNL     1      20.771   3.532 -10.755  1.00  0.00     0.040 A 
ATOM     78  C   UNL     1      18.888   3.306 -12.239  1.00  0.00     0.040 A 
ATOM     79  F   UNL     1      16.773   2.765 -11.379  1.00  0.00    -0.206 F 
ATOM     80  C   UNL     1      20.241   3.572 -12.044  1.00  0.00     0.006 A 
ENDBRANCH  56  73
ENDBRANCH  30  31
ENDBRANCH  23  25
ENDBRANCH  22  23
ENDBRANCH  21  22
ENDBRANCH  20  21
ENDBRANCH  19  20
ENDBRANCH   1  19
TORSDOF 17
