REMARK SMILES CCc1ccc(Oc2ncnc(N3CCC(C(=O)OCCOC(=O)c4ccc(-c5c6nc(c(-c7c(F)cccc7F)c7ccc([nH]7)c(-c7c(F)cccc7F)c7nc(c(-c8c(F)cccc8F)c8ccc5[nH]8)C=C7)C=C6)cc4)CC3)c2[N+](=O)[O-])cc1
REMARK SMILES IDX 20 1 19 2 17 3 18 4 16 5 13 6 14 7 80 8 15 9 79 10 12 11
REMARK SMILES IDX 8 12 9 13 81 14 10 15 11 16 7 17 6 18 3 19 4 20 86 21 5 22
REMARK SMILES IDX 85 23 2 24 1 25 82 26 83 27 84 28 21 29 22 30 23 31 24 32
REMARK SMILES IDX 25 33 26 34 78 35 27 36 77 37 28 38 29 39 30 40 71 41 31 42
REMARK SMILES IDX 76 43 70 44 72 45 32 46 75 47 69 48 68 49 33 51 59 52 42 53
REMARK SMILES IDX 58 54 43 55 46 56 57 57 73 58 44 59 45 60 56 62 74 63 47 64
REMARK SMILES IDX 34 65 35 66 40 67 36 68 37 69 39 70 41 71 38 72 60 73 61 74
REMARK SMILES IDX 66 75 62 76 63 77 65 78 67 79 64 80 48 81 49 82 54 83 50 84
REMARK SMILES IDX 51 85 53 86 55 87 52 88
REMARK H PARENT 72 50 46 61
REMARK Flexibility Score: inf
ROOT
ATOM      1  C   UNL     1       7.244  -8.721   8.978  1.00  0.00     0.274 C 
ENDROOT
BRANCH   1   2
ATOM      2  O   UNL     1       6.608  -8.014   7.897  1.00  0.00    -0.462 OA
BRANCH   2   3
ATOM      3  C   UNL     1       5.327  -7.623   8.110  1.00  0.00     0.309 C 
ATOM      4  O   UNL     1       4.671  -7.885   9.112  1.00  0.00    -0.252 OA
BRANCH   3   5
ATOM      5  C   UNL     1       4.759  -6.799   6.976  1.00  0.00     0.103 C 
ATOM      6  N   UNL     1       3.968  -6.026   4.358  1.00  0.00    -0.351 N 
ATOM      7  C   UNL     1       5.090  -5.330   4.984  1.00  0.00     0.119 C 
ATOM      8  C   UNL     1       2.979  -6.662   5.223  1.00  0.00     0.119 C 
ATOM      9  C   UNL     1       5.787  -6.240   5.988  1.00  0.00     0.037 C 
ATOM     10  C   UNL     1       3.680  -7.579   6.224  1.00  0.00     0.037 C 
BRANCH   6  11
ATOM     11  C   UNL     1       4.046  -6.318   3.013  1.00  0.00     0.215 A 
ATOM     12  C   UNL     1       3.260  -6.377   0.778  1.00  0.00     0.305 A 
ATOM     13  N   UNL     1       4.435  -6.863   0.331  1.00  0.00    -0.195 NA
ATOM     14  C   UNL     1       3.011  -6.143   2.114  1.00  0.00     0.373 A 
ATOM     15  C   UNL     1       5.374  -7.040   1.262  1.00  0.00     0.228 A 
ATOM     16  N   UNL     1       5.244  -6.764   2.569  1.00  0.00    -0.212 NA
BRANCH  12  17
ATOM     17  O   UNL     1       2.342  -6.127  -0.215  1.00  0.00    -0.434 OA
BRANCH  17  18
ATOM     18  C   UNL     1       2.019  -4.808  -0.463  1.00  0.00     0.129 A 
ATOM     19  C   UNL     1       1.088  -2.188  -0.908  1.00  0.00    -0.048 A 
ATOM     20  C   UNL     1       0.338  -3.297  -1.325  1.00  0.00     0.007 A 
ATOM     21  C   UNL     1       2.343  -2.412  -0.329  1.00  0.00     0.007 A 
ATOM     22  C   UNL     1       0.797  -4.597  -1.099  1.00  0.00     0.047 A 
ATOM     23  C   UNL     1       2.812  -3.711  -0.117  1.00  0.00     0.047 A 
BRANCH  19  24
ATOM     24  C   UNL     1       0.548  -0.797  -1.149  1.00  0.00     0.032 C 
ATOM     25  C   UNL     1       0.870   0.221  -0.060  1.00  0.00     0.009 C 
ENDBRANCH  19  24
ENDBRANCH  17  18
ENDBRANCH  12  17
BRANCH  14  26
ATOM     26  N   UNL     1       1.735  -5.652   2.527  1.00  0.00     0.072 N 
ATOM     27  O   UNL     1       1.675  -4.498   2.973  1.00  0.00    -0.258 OA
ATOM     28  O   UNL     1       0.776  -6.431   2.424  1.00  0.00    -0.258 OA
ENDBRANCH  14  26
ENDBRANCH   6  11
ENDBRANCH   3   5
ENDBRANCH   2   3
ENDBRANCH   1   2
BRANCH   1  29
ATOM     29  C   UNL     1       8.229  -7.818   9.725  1.00  0.00     0.275 C 
BRANCH  29  30
ATOM     30  O   UNL     1       7.562  -6.709  10.360  1.00  0.00    -0.458 OA
BRANCH  30  31
ATOM     31  C   UNL     1       7.584  -5.550   9.661  1.00  0.00     0.338 C 
ATOM     32  O   UNL     1       8.125  -5.342   8.588  1.00  0.00    -0.246 OA
BRANCH  31  33
ATOM     33  C   UNL     1       6.717  -4.553  10.310  1.00  0.00     0.060 A 
ATOM     34  C   UNL     1       5.621  -4.082   9.584  1.00  0.00     0.016 A 
ATOM     35  C   UNL     1       7.017  -4.019  11.564  1.00  0.00     0.016 A 
ATOM     36  C   UNL     1       4.808  -3.083  10.111  1.00  0.00     0.010 A 
ATOM     37  C   UNL     1       6.205  -3.005  12.090  1.00  0.00     0.010 A 
ATOM     38  C   UNL     1       5.100  -2.527  11.363  1.00  0.00    -0.014 A 
BRANCH  38  39
ATOM     39  C   UNL     1       4.261  -1.414  11.867  1.00  0.00     0.031 A 
ATOM     40  C   UNL     1       4.754   0.002  11.783  1.00  0.00     0.074 A 
ATOM     41  C   UNL     1       3.028  -1.671  12.342  1.00  0.00     0.049 A 
ATOM     42  N   UNL     1       4.163   1.107  12.161  1.00  0.00    -0.248 NA
ATOM     43  C   UNL     1       6.086   0.201  11.192  1.00  0.00     0.031 C 
ATOM     44  C   UNL     1       2.422  -2.998  12.440  1.00  0.00     0.029 A 
ATOM     45  N   UNL     1       2.062  -0.823  12.821  1.00  0.00    -0.354 N 
ATOM     46  C   UNL     1       5.053   2.131  11.867  1.00  0.00     0.074 A 
ATOM     47  C   UNL     1       6.232   1.515  11.294  1.00  0.00     0.031 C 
ATOM     48  C   UNL     1       1.181  -2.875  12.938  1.00  0.00     0.029 A 
ATOM     49  C   UNL     1       0.918  -1.467  13.225  1.00  0.00     0.049 A 
ATOM     50  H   UNL     1       2.177   0.153  12.871  1.00  0.00     0.167 HD
ATOM     51  C   UNL     1       4.900   3.464  12.055  1.00  0.00     0.037 A 
ATOM     52  C   UNL     1      -0.208  -0.979  13.777  1.00  0.00     0.037 A 
ATOM     53  C   UNL     1       3.723   4.080  12.611  1.00  0.00     0.049 A 
ATOM     54  C   UNL     1      -0.337   0.500  14.011  1.00  0.00     0.074 A 
ATOM     55  C   UNL     1       3.470   5.425  12.819  1.00  0.00     0.029 A 
ATOM     56  N   UNL     1       2.602   3.391  13.047  1.00  0.00    -0.354 N 
ATOM     57  N   UNL     1       0.511   1.458  13.725  1.00  0.00    -0.248 NA
ATOM     58  C   UNL     1      -1.577   0.965  14.649  1.00  0.00     0.031 C 
ATOM     59  C   UNL     1       2.209   5.547  13.415  1.00  0.00     0.029 A 
ATOM     60  C   UNL     1       1.663   4.280  13.544  1.00  0.00     0.049 A 
ATOM     61  H   UNL     1       2.490   2.413  13.009  1.00  0.00     0.167 HD
ATOM     62  C   UNL     1      -0.095   2.637  14.139  1.00  0.00     0.074 A 
ATOM     63  C   UNL     1      -1.391   2.277  14.675  1.00  0.00     0.031 C 
ATOM     64  C   UNL     1       0.382   3.905  14.084  1.00  0.00     0.037 A 
BRANCH  51  65
ATOM     65  C   UNL     1       6.049   4.349  11.677  1.00  0.00     0.057 A 
ATOM     66  C   UNL     1       6.347   4.645  10.342  1.00  0.00     0.134 A 
ATOM     67  C   UNL     1       6.846   4.940  12.666  1.00  0.00     0.134 A 
ATOM     68  F   UNL     1       5.630   4.099   9.348  1.00  0.00    -0.206 F 
ATOM     69  C   UNL     1       7.408   5.486  10.002  1.00  0.00     0.040 A 
ATOM     70  C   UNL     1       7.896   5.798  12.339  1.00  0.00     0.040 A 
ATOM     71  F   UNL     1       6.610   4.699  13.964  1.00  0.00    -0.206 F 
ATOM     72  C   UNL     1       8.183   6.070  11.003  1.00  0.00     0.006 A 
ENDBRANCH  51  65
BRANCH  52  73
ATOM     73  C   UNL     1      -1.302  -1.903  14.164  1.00  0.00     0.057 A 
ATOM     74  C   UNL     1      -2.511  -1.932  13.461  1.00  0.00     0.134 A 
ATOM     75  C   UNL     1      -1.164  -2.772  15.253  1.00  0.00     0.134 A 
ATOM     76  F   UNL     1      -2.710  -1.104  12.425  1.00  0.00    -0.206 F 
ATOM     77  C   UNL     1      -3.550  -2.787  13.833  1.00  0.00     0.040 A 
ATOM     78  C   UNL     1      -2.185  -3.648  15.622  1.00  0.00     0.040 A 
ATOM     79  F   UNL     1      -0.029  -2.789  15.967  1.00  0.00    -0.206 F 
ATOM     80  C   UNL     1      -3.385  -3.653  14.913  1.00  0.00     0.006 A 
ENDBRANCH  52  73
BRANCH  64  81
ATOM     81  C   UNL     1      -0.508   4.989  14.613  1.00  0.00     0.057 A 
ATOM     82  C   UNL     1      -0.701   5.173  15.988  1.00  0.00     0.134 A 
ATOM     83  C   UNL     1      -1.162   5.869  13.742  1.00  0.00     0.134 A 
ATOM     84  F   UNL     1      -0.113   4.354  16.873  1.00  0.00    -0.206 F 
ATOM     85  C   UNL     1      -1.532   6.181  16.478  1.00  0.00     0.040 A 
ATOM     86  C   UNL     1      -1.979   6.894  14.221  1.00  0.00     0.040 A 
ATOM     87  F   UNL     1      -1.013   5.750  12.415  1.00  0.00    -0.206 F 
ATOM     88  C   UNL     1      -2.171   7.048  15.593  1.00  0.00     0.006 A 
ENDBRANCH  64  81
ENDBRANCH  38  39
ENDBRANCH  31  33
ENDBRANCH  30  31
ENDBRANCH  29  30
ENDBRANCH   1  29
TORSDOF 16
