REMARK SMILES Cc1c(CC(=O)OCCOC(=O)c2ccc(-c3c4nc(c(-c5c(F)cccc5F)c5ccc([nH]5)c(-c5c(F)cccc5F)c5nc(c(-c6c(F)cccc6F)c6ccc3[nH]6)C=C5)C=C4)cc2)cc(-c2ccc(S(C)(=O)=O)cc2)n1-c1ccccc1
REMARK SMILES IDX 8 1 7 2 5 3 6 4 4 5 3 6 1 7 2 8 79 9 67 10 68 11 80 12 81 13
REMARK SMILES IDX 85 14 82 15 84 16 83 17 69 18 70 19 78 20 71 21 77 22 72 23
REMARK SMILES IDX 73 24 74 25 75 26 76 27 9 28 10 29 11 30 12 31 13 32 14 33
REMARK SMILES IDX 66 34 15 35 65 36 16 37 17 38 18 39 59 40 19 41 64 42 58 43
REMARK SMILES IDX 60 44 20 45 63 46 57 47 56 48 21 50 47 51 30 52 46 53 31 54
REMARK SMILES IDX 34 55 45 56 61 57 32 58 33 59 44 61 62 62 35 63 22 64 23 65
REMARK SMILES IDX 28 66 24 67 25 68 27 69 29 70 26 71 48 72 49 73 54 74 50 75
REMARK SMILES IDX 51 76 53 77 55 78 52 79 36 80 37 81 42 82 38 83 39 84 41 85
REMARK SMILES IDX 43 86 40 87
REMARK H PARENT 60 49 34 60
REMARK Flexibility Score: inf
ROOT
ATOM      1  C   UNL     1      -0.227  -1.382  -3.295  1.00  0.00     0.274 C 
ENDROOT
BRANCH   1   2
ATOM      2  O   UNL     1       0.241  -1.567  -1.927  1.00  0.00    -0.462 OA
BRANCH   2   3
ATOM      3  C   UNL     1       0.968  -2.688  -1.660  1.00  0.00     0.310 C 
ATOM      4  O   UNL     1       1.275  -3.513  -2.520  1.00  0.00    -0.252 OA
BRANCH   3   5
ATOM      5  C   UNL     1       1.468  -2.823  -0.225  1.00  0.00     0.160 C 
BRANCH   5   6
ATOM      6  C   UNL     1       0.731  -2.112   0.883  1.00  0.00    -0.015 A 
ATOM      7  C   UNL     1       1.103   0.361   0.195  1.00  0.00     0.065 C 
ATOM      8  C   UNL     1       0.567  -0.745   1.047  1.00  0.00     0.024 A 
ATOM      9  N   UNL     1      -0.127  -0.514   2.228  1.00  0.00    -0.314 N 
ATOM     10  C   UNL     1       0.223  -2.711   2.078  1.00  0.00     0.033 A 
ATOM     11  C   UNL     1      -0.257  -1.716   2.920  1.00  0.00     0.053 A 
BRANCH   9  12
ATOM     12  C   UNL     1      -0.602   0.751   2.658  1.00  0.00     0.046 A 
ATOM     13  C   UNL     1      -0.238   1.251   3.912  1.00  0.00     0.026 A 
ATOM     14  C   UNL     1      -1.475   1.463   1.828  1.00  0.00     0.026 A 
ATOM     15  C   UNL     1      -0.757   2.472   4.338  1.00  0.00     0.002 A 
ATOM     16  C   UNL     1      -2.008   2.671   2.273  1.00  0.00     0.002 A 
ATOM     17  C   UNL     1      -1.648   3.175   3.524  1.00  0.00     0.000 A 
ENDBRANCH   9  12
BRANCH  11  18
ATOM     18  C   UNL     1      -0.853  -1.848   4.259  1.00  0.00    -0.001 A 
ATOM     19  C   UNL     1      -2.182  -1.466   4.502  1.00  0.00     0.011 A 
ATOM     20  C   UNL     1      -0.074  -2.306   5.331  1.00  0.00     0.011 A 
ATOM     21  C   UNL     1      -2.712  -1.502   5.796  1.00  0.00     0.021 A 
ATOM     22  C   UNL     1      -0.596  -2.342   6.630  1.00  0.00     0.021 A 
ATOM     23  C   UNL     1      -1.910  -1.925   6.857  1.00  0.00     0.067 A 
BRANCH  23  24
ATOM     24  S   UNL     1      -2.586  -1.972   8.502  1.00  0.00     0.175 S 
ATOM     25  C   UNL     1      -2.905  -0.273   8.902  1.00  0.00     0.163 C 
ATOM     26  O   UNL     1      -3.866  -2.660   8.410  1.00  0.00    -0.224 OA
ATOM     27  O   UNL     1      -1.552  -2.442   9.396  1.00  0.00    -0.224 OA
ENDBRANCH  23  24
ENDBRANCH  11  18
ENDBRANCH   5   6
ENDBRANCH   3   5
ENDBRANCH   2   3
ENDBRANCH   1   2
BRANCH   1  28
ATOM     28  C   UNL     1      -0.603   0.105  -3.566  1.00  0.00     0.275 C 
BRANCH  28  29
ATOM     29  O   UNL     1       0.166   0.896  -4.554  1.00  0.00    -0.458 OA
BRANCH  29  30
ATOM     30  C   UNL     1       1.285   1.562  -4.132  1.00  0.00     0.338 C 
ATOM     31  O   UNL     1       1.850   1.297  -3.079  1.00  0.00    -0.246 OA
BRANCH  30  32
ATOM     32  C   UNL     1       1.840   2.640  -5.094  1.00  0.00     0.060 A 
ATOM     33  C   UNL     1       3.195   2.606  -5.390  1.00  0.00     0.016 A 
ATOM     34  C   UNL     1       1.178   3.793  -5.578  1.00  0.00     0.016 A 
ATOM     35  C   UNL     1       3.830   3.642  -6.161  1.00  0.00     0.010 A 
ATOM     36  C   UNL     1       1.863   4.900  -6.304  1.00  0.00     0.010 A 
ATOM     37  C   UNL     1       3.234   4.878  -6.624  1.00  0.00    -0.014 A 
BRANCH  37  38
ATOM     38  C   UNL     1       4.282   6.089  -7.070  1.00  0.00     0.031 A 
ATOM     39  C   UNL     1       5.396   5.904  -6.095  1.00  0.00     0.074 A 
ATOM     40  C   UNL     1       4.480   7.257  -7.837  1.00  0.00     0.049 A 
ATOM     41  N   UNL     1       5.131   5.941  -4.818  1.00  0.00    -0.248 NA
ATOM     42  C   UNL     1       6.689   5.312  -6.439  1.00  0.00     0.031 C 
ATOM     43  C   UNL     1       3.500   7.995  -8.655  1.00  0.00     0.029 A 
ATOM     44  N   UNL     1       5.639   8.104  -8.073  1.00  0.00    -0.354 N 
ATOM     45  C   UNL     1       6.320   5.693  -4.185  1.00  0.00     0.074 A 
ATOM     46  C   UNL     1       7.155   5.079  -5.206  1.00  0.00     0.031 C 
ATOM     47  C   UNL     1       4.074   9.014  -9.367  1.00  0.00     0.029 A 
ATOM     48  C   UNL     1       5.508   9.135  -9.092  1.00  0.00     0.049 A 
ATOM     49  H   UNL     1       6.474   7.986  -7.566  1.00  0.00     0.167 HD
ATOM     50  C   UNL     1       6.667   6.602  -3.230  1.00  0.00     0.037 A 
ATOM     51  C   UNL     1       6.414  10.071  -9.621  1.00  0.00     0.037 A 
ATOM     52  C   UNL     1       7.702   7.488  -3.681  1.00  0.00     0.049 A 
ATOM     53  C   UNL     1       7.399  10.335  -8.570  1.00  0.00     0.074 A 
ATOM     54  C   UNL     1       8.879   7.288  -4.373  1.00  0.00     0.029 A 
ATOM     55  N   UNL     1       7.373   8.817  -3.828  1.00  0.00    -0.354 N 
ATOM     56  N   UNL     1       7.114  11.155  -7.608  1.00  0.00    -0.248 NA
ATOM     57  C   UNL     1       8.783   9.881  -8.612  1.00  0.00     0.031 C 
ATOM     58  C   UNL     1       8.963   8.365  -5.279  1.00  0.00     0.029 A 
ATOM     59  C   UNL     1       8.058   9.347  -4.898  1.00  0.00     0.049 A 
ATOM     60  H   UNL     1       6.745   9.313  -3.255  1.00  0.00     0.167 HD
ATOM     61  C   UNL     1       8.069  10.913  -6.683  1.00  0.00     0.074 A 
ATOM     62  C   UNL     1       9.185  10.362  -7.431  1.00  0.00     0.031 C 
ATOM     63  C   UNL     1       7.584  10.585  -5.464  1.00  0.00     0.037 A 
BRANCH  50  64
ATOM     64  C   UNL     1       5.510   6.992  -2.352  1.00  0.00     0.057 A 
ATOM     65  C   UNL     1       5.378   6.395  -1.098  1.00  0.00     0.134 A 
ATOM     66  C   UNL     1       4.425   7.766  -2.809  1.00  0.00     0.134 A 
ATOM     67  F   UNL     1       6.387   5.675  -0.583  1.00  0.00    -0.206 F 
ATOM     68  C   UNL     1       4.196   6.501  -0.360  1.00  0.00     0.040 A 
ATOM     69  C   UNL     1       3.222   7.835  -2.108  1.00  0.00     0.040 A 
ATOM     70  F   UNL     1       4.501   8.435  -3.972  1.00  0.00    -0.206 F 
ATOM     71  C   UNL     1       3.101   7.189  -0.882  1.00  0.00     0.006 A 
ENDBRANCH  50  64
BRANCH  51  72
ATOM     72  C   UNL     1       6.668  11.135 -10.758  1.00  0.00     0.057 A 
ATOM     73  C   UNL     1       7.463  12.322 -10.535  1.00  0.00     0.134 A 
ATOM     74  C   UNL     1       6.522  10.851 -12.120  1.00  0.00     0.134 A 
ATOM     75  F   UNL     1       7.683  12.815  -9.309  1.00  0.00    -0.206 F 
ATOM     76  C   UNL     1       8.135  13.055 -11.537  1.00  0.00     0.040 A 
ATOM     77  C   UNL     1       7.166  11.611 -13.145  1.00  0.00     0.040 A 
ATOM     78  F   UNL     1       5.818   9.783 -12.511  1.00  0.00    -0.206 F 
ATOM     79  C   UNL     1       8.005  12.687 -12.857  1.00  0.00     0.006 A 
ENDBRANCH  51  72
BRANCH  63  80
ATOM     80  C   UNL     1       6.449  11.445  -4.919  1.00  0.00     0.057 A 
ATOM     81  C   UNL     1       5.292  11.898  -5.601  1.00  0.00     0.134 A 
ATOM     82  C   UNL     1       6.593  11.930  -3.612  1.00  0.00     0.134 A 
ATOM     83  F   UNL     1       4.915  11.424  -6.798  1.00  0.00    -0.206 F 
ATOM     84  C   UNL     1       4.424  12.855  -5.057  1.00  0.00     0.040 A 
ATOM     85  C   UNL     1       5.695  12.835  -3.036  1.00  0.00     0.040 A 
ATOM     86  F   UNL     1       7.625  11.526  -2.855  1.00  0.00    -0.206 F 
ATOM     87  C   UNL     1       4.625  13.329  -3.770  1.00  0.00     0.006 A 
ENDBRANCH  63  80
ENDBRANCH  37  38
ENDBRANCH  30  32
ENDBRANCH  29  30
ENDBRANCH  28  29
ENDBRANCH   1  28
TORSDOF 15
