REMARK SMILES C[C@@H](Oc1ccc(I)cc1)C(=O)NCc1ccc(C(=O)OCCOC(=O)c2ccc(-c3c4nc(c(-c5c(F)cccc5F)c5ccc([nH]5)c(-c5c(F)cccc5F)c5nc(c(-c6c(F)cccc6F)c6ccc3[nH]6)C=C5)C=C4)cc2)cc1
REMARK SMILES IDX 21 1 19 2 20 3 18 4 15 5 16 6 82 7 17 8 81 9 14 10 13 11
REMARK SMILES IDX 11 12 12 13 2 15 1 16 3 17 4 18 5 19 10 20 6 21 9 22 7 23
REMARK SMILES IDX 8 24 22 25 23 26 24 27 25 28 26 29 27 30 28 31 80 32 29 33
REMARK SMILES IDX 79 34 30 35 31 36 32 37 73 38 33 39 78 40 72 41 74 42 34 43
REMARK SMILES IDX 77 44 71 45 70 46 35 48 61 49 44 50 60 51 45 52 48 53 59 54
REMARK SMILES IDX 75 55 46 56 47 57 58 59 76 60 49 61 36 62 37 63 42 64 38 65
REMARK SMILES IDX 39 66 41 67 43 68 40 69 62 70 63 71 68 72 64 73 65 74 67 75
REMARK SMILES IDX 69 76 66 77 50 78 51 79 56 80 52 81 53 82 55 83 57 84 54 85
REMARK H PARENT 13 14 74 47 48 58
REMARK Flexibility Score: inf
ROOT
ATOM      1  O   UNL     1      -2.195   4.103   5.764  1.00  0.00    -0.458 OA
ENDROOT
BRANCH   1   2
ATOM      2  C   UNL     1      -2.726   3.875   4.537  1.00  0.00     0.338 C 
ATOM      3  O   UNL     1      -3.371   4.668   3.867  1.00  0.00    -0.246 OA
BRANCH   2   4
ATOM      4  C   UNL     1      -2.340   2.537   4.028  1.00  0.00     0.060 A 
ATOM      5  C   UNL     1      -1.593   0.056   2.925  1.00  0.00    -0.029 A 
ATOM      6  C   UNL     1      -1.869   1.148   2.095  1.00  0.00     0.006 A 
ATOM      7  C   UNL     1      -1.690   0.225   4.318  1.00  0.00     0.006 A 
ATOM      8  C   UNL     1      -2.270   2.365   2.641  1.00  0.00     0.016 A 
ATOM      9  C   UNL     1      -2.054   1.460   4.870  1.00  0.00     0.016 A 
BRANCH   5  10
ATOM     10  C   UNL     1      -1.113  -1.262   2.364  1.00  0.00     0.151 C 
BRANCH  10  11
ATOM     11  N   UNL     1      -1.574  -1.504   1.008  1.00  0.00    -0.349 N 
ATOM     12  C   UNL     1      -0.875  -1.638  -0.157  1.00  0.00     0.261 C 
ATOM     13  O   UNL     1      -1.524  -1.831  -1.190  1.00  0.00    -0.271 OA
ATOM     14  H   UNL     1      -2.551  -1.584   0.914  1.00  0.00     0.163 HD
BRANCH  12  15
ATOM     15  C   UNL     1       0.654  -1.464  -0.210  1.00  0.00     0.258 C 
ATOM     16  C   UNL     1       0.970   0.030  -0.196  1.00  0.00     0.064 C 
BRANCH  15  17
ATOM     17  O   UNL     1       1.234  -2.184   0.880  1.00  0.00    -0.481 OA
BRANCH  17  18
ATOM     18  C   UNL     1       2.566  -2.442   0.762  1.00  0.00     0.120 A 
ATOM     19  C   UNL     1       3.508  -1.481   1.124  1.00  0.00     0.047 A 
ATOM     20  C   UNL     1       2.963  -3.743   0.465  1.00  0.00     0.047 A 
ATOM     21  C   UNL     1       4.864  -1.810   1.147  1.00  0.00     0.018 A 
ATOM     22  C   UNL     1       4.318  -4.080   0.500  1.00  0.00     0.018 A 
ATOM     23  C   UNL     1       5.263  -3.110   0.840  1.00  0.00     0.013 A 
ATOM     24  I   UNL     1       7.277  -3.616   0.936  1.00  0.00    -0.044 I 
ENDBRANCH  17  18
ENDBRANCH  15  17
ENDBRANCH  12  15
ENDBRANCH  10  11
ENDBRANCH   5  10
ENDBRANCH   2   4
ENDBRANCH   1   2
BRANCH   1  25
ATOM     25  C   UNL     1      -2.421   5.423   6.297  1.00  0.00     0.275 C 
BRANCH  25  26
ATOM     26  C   UNL     1      -1.204   6.322   6.080  1.00  0.00     0.275 C 
BRANCH  26  27
ATOM     27  O   UNL     1      -0.973   6.512   4.672  1.00  0.00    -0.458 OA
BRANCH  27  28
ATOM     28  C   UNL     1       0.265   6.196   4.230  1.00  0.00     0.338 C 
ATOM     29  O   UNL     1       1.219   5.816   4.887  1.00  0.00    -0.246 OA
BRANCH  28  30
ATOM     30  C   UNL     1       0.329   6.370   2.769  1.00  0.00     0.060 A 
ATOM     31  C   UNL     1      -0.443   5.554   1.947  1.00  0.00     0.016 A 
ATOM     32  C   UNL     1       1.257   7.248   2.211  1.00  0.00     0.016 A 
ATOM     33  C   UNL     1      -0.241   5.555   0.567  1.00  0.00     0.010 A 
ATOM     34  C   UNL     1       1.399   7.309   0.820  1.00  0.00     0.010 A 
ATOM     35  C   UNL     1       0.679   6.438  -0.019  1.00  0.00    -0.014 A 
BRANCH  35  36
ATOM     36  C   UNL     1       0.931   6.417  -1.490  1.00  0.00     0.031 A 
ATOM     37  C   UNL     1       2.317   6.143  -2.017  1.00  0.00     0.074 A 
ATOM     38  C   UNL     1      -0.070   6.635  -2.366  1.00  0.00     0.049 A 
ATOM     39  N   UNL     1       2.783   6.270  -3.235  1.00  0.00    -0.248 NA
ATOM     40  C   UNL     1       3.315   5.676  -1.042  1.00  0.00     0.031 C 
ATOM     41  C   UNL     1      -1.472   6.867  -2.016  1.00  0.00     0.029 A 
ATOM     42  N   UNL     1      -0.060   6.693  -3.740  1.00  0.00    -0.354 N 
ATOM     43  C   UNL     1       4.136   5.961  -3.160  1.00  0.00     0.074 A 
ATOM     44  C   UNL     1       4.417   5.637  -1.778  1.00  0.00     0.031 C 
ATOM     45  C   UNL     1      -2.191   7.006  -3.140  1.00  0.00     0.029 A 
ATOM     46  C   UNL     1      -1.291   6.961  -4.289  1.00  0.00     0.049 A 
ATOM     47  H   UNL     1       0.752   6.556  -4.279  1.00  0.00     0.167 HD
ATOM     48  C   UNL     1       5.060   5.952  -4.151  1.00  0.00     0.037 A 
ATOM     49  C   UNL     1      -1.655   7.191  -5.565  1.00  0.00     0.037 A 
ATOM     50  C   UNL     1       4.772   6.210  -5.538  1.00  0.00     0.049 A 
ATOM     51  C   UNL     1      -0.611   7.197  -6.644  1.00  0.00     0.074 A 
ATOM     52  C   UNL     1       5.641   6.203  -6.616  1.00  0.00     0.029 A 
ATOM     53  N   UNL     1       3.515   6.503  -6.042  1.00  0.00    -0.354 N 
ATOM     54  N   UNL     1       0.676   6.968  -6.549  1.00  0.00    -0.248 NA
ATOM     55  C   UNL     1      -1.066   7.518  -8.005  1.00  0.00     0.031 C 
ATOM     56  C   UNL     1       4.914   6.519  -7.769  1.00  0.00     0.029 A 
ATOM     57  C   UNL     1       3.587   6.688  -7.413  1.00  0.00     0.049 A 
ATOM     58  H   UNL     1       2.692   6.569  -5.505  1.00  0.00     0.167 HD
ATOM     59  C   UNL     1       1.183   7.111  -7.834  1.00  0.00     0.074 A 
ATOM     60  C   UNL     1       0.062   7.426  -8.695  1.00  0.00     0.031 C 
ATOM     61  C   UNL     1       2.464   6.998  -8.259  1.00  0.00     0.037 A 
BRANCH  48  62
ATOM     62  C   UNL     1       6.486   5.681  -3.768  1.00  0.00     0.057 A 
ATOM     63  C   UNL     1       6.938   4.401  -3.425  1.00  0.00     0.134 A 
ATOM     64  C   UNL     1       7.430   6.717  -3.786  1.00  0.00     0.134 A 
ATOM     65  F   UNL     1       6.082   3.369  -3.375  1.00  0.00    -0.206 F 
ATOM     66  C   UNL     1       8.274   4.165  -3.095  1.00  0.00     0.040 A 
ATOM     67  C   UNL     1       8.773   6.488  -3.480  1.00  0.00     0.040 A 
ATOM     68  F   UNL     1       7.065   7.966  -4.113  1.00  0.00    -0.206 F 
ATOM     69  C   UNL     1       9.197   5.209  -3.129  1.00  0.00     0.006 A 
ENDBRANCH  48  62
BRANCH  49  70
ATOM     70  C   UNL     1      -3.076   7.481  -5.886  1.00  0.00     0.057 A 
ATOM     71  C   UNL     1      -3.859   6.563  -6.594  1.00  0.00     0.134 A 
ATOM     72  C   UNL     1      -3.684   8.678  -5.488  1.00  0.00     0.134 A 
ATOM     73  F   UNL     1      -3.324   5.412  -7.027  1.00  0.00    -0.206 F 
ATOM     74  C   UNL     1      -5.196   6.825  -6.898  1.00  0.00     0.040 A 
ATOM     75  C   UNL     1      -5.026   8.942  -5.761  1.00  0.00     0.040 A 
ATOM     76  F   UNL     1      -2.985   9.598  -4.808  1.00  0.00    -0.206 F 
ATOM     77  C   UNL     1      -5.785   8.015  -6.472  1.00  0.00     0.006 A 
ENDBRANCH  49  70
BRANCH  61  78
ATOM     78  C   UNL     1       2.718   7.191  -9.723  1.00  0.00     0.057 A 
ATOM     79  C   UNL     1       2.714   8.464 -10.308  1.00  0.00     0.134 A 
ATOM     80  C   UNL     1       2.999   6.097 -10.550  1.00  0.00     0.134 A 
ATOM     81  F   UNL     1       2.438   9.550  -9.570  1.00  0.00    -0.206 F 
ATOM     82  C   UNL     1       2.966   8.640 -11.669  1.00  0.00     0.040 A 
ATOM     83  C   UNL     1       3.271   6.263 -11.909  1.00  0.00     0.040 A 
ATOM     84  F   UNL     1       3.023   4.853 -10.049  1.00  0.00    -0.206 F 
ATOM     85  C   UNL     1       3.251   7.537 -12.473  1.00  0.00     0.006 A 
ENDBRANCH  61  78
ENDBRANCH  35  36
ENDBRANCH  28  30
ENDBRANCH  27  28
ENDBRANCH  26  27
ENDBRANCH  25  26
ENDBRANCH   1  25
TORSDOF 16
