REMARK SMILES O=C(CCC[NH2+][C@H]1CCOC2(CCOCC2)C1)OCCOC(=O)c1ccc(-c2c3nc(c(-c4c(F)cccc4F)c4ccc([nH]4)c(-c4c(F)cccc4F)c4nc(c(-c5c(F)cccc5F)c5ccc2[nH]5)C=C4)C=C3)cc1
REMARK SMILES IDX 19 1 18 2 2 3 1 4 3 5 4 6 5 7 6 8 7 11 8 12 17 13 9 14 11 15
REMARK SMILES IDX 10 16 12 17 16 18 13 19 15 20 14 21 20 22 21 23 22 24 23 25
REMARK SMILES IDX 24 26 25 27 77 28 26 29 76 30 27 31 28 32 29 33 70 34 30 35
REMARK SMILES IDX 75 36 69 37 71 38 31 39 74 40 68 41 67 42 32 44 58 45 41 46
REMARK SMILES IDX 57 47 42 48 45 49 56 50 72 51 43 52 44 53 55 55 73 56 46 57
REMARK SMILES IDX 33 58 34 59 39 60 35 61 36 62 38 63 40 64 37 65 59 66 60 67
REMARK SMILES IDX 65 68 61 69 62 70 64 71 66 72 63 73 47 74 48 75 53 76 49 77
REMARK SMILES IDX 50 78 52 79 54 80 51 81
REMARK H PARENT 6 9 6 10 71 43 45 54
REMARK Flexibility Score: inf
ROOT
ATOM      1  C   UNL     1       9.335  -3.050  -0.178  1.00  0.00     0.274 C 
ENDROOT
BRANCH   1   2
ATOM      2  O   UNL     1       9.328  -4.480  -0.028  1.00  0.00    -0.462 OA
BRANCH   2   3
ATOM      3  C   UNL     1       8.187  -5.075   0.411  1.00  0.00     0.306 C 
ATOM      4  O   UNL     1       8.204  -5.875   1.340  1.00  0.00    -0.252 OA
BRANCH   3   5
ATOM      5  C   UNL     1       6.936  -4.816  -0.408  1.00  0.00     0.128 C 
BRANCH   5   6
ATOM      6  C   UNL     1       5.705  -4.511   0.441  1.00  0.00     0.073 C 
BRANCH   6   7
ATOM      7  C   UNL     1       5.806  -3.216   1.255  1.00  0.00     0.261 C 
BRANCH   7   8
ATOM      8  N   UNL     1       5.828  -2.009   0.433  1.00  0.00    -0.344 N 
ATOM      9  H   UNL     1       4.932  -1.951  -0.051  1.00  0.00     0.346 HD
ATOM     10  H   UNL     1       6.641  -2.117  -0.172  1.00  0.00     0.346 HD
BRANCH   8  11
ATOM     11  C   UNL     1       6.040  -0.724   1.129  1.00  0.00     0.187 C 
ATOM     12  C   UNL     1       6.258  -0.807   2.646  1.00  0.00     0.093 C 
ATOM     13  C   UNL     1       7.204   0.067   0.493  1.00  0.00     0.100 C 
ATOM     14  C   UNL     1       6.482   0.571   3.235  1.00  0.00     0.167 C 
ATOM     15  C   UNL     1       7.477   1.414   1.199  1.00  0.00     0.078 C 
ATOM     16  O   UNL     1       7.594   1.204   2.615  1.00  0.00    -0.374 OA
ATOM     17  C   UNL     1       6.408   2.474   0.872  1.00  0.00     0.064 C 
ATOM     18  C   UNL     1       8.845   1.971   0.750  1.00  0.00     0.064 C 
ATOM     19  C   UNL     1       6.782   3.817   1.489  1.00  0.00     0.163 C 
ATOM     20  C   UNL     1       9.095   3.345   1.365  1.00  0.00     0.163 C 
ATOM     21  O   UNL     1       8.052   4.251   1.003  1.00  0.00    -0.381 OA
ENDBRANCH   8  11
ENDBRANCH   7   8
ENDBRANCH   6   7
ENDBRANCH   5   6
ENDBRANCH   3   5
ENDBRANCH   2   3
ENDBRANCH   1   2
BRANCH   1  22
ATOM     22  C   UNL     1       9.628  -2.590  -1.609  1.00  0.00     0.275 C 
BRANCH  22  23
ATOM     23  O   UNL     1       8.861  -3.352  -2.552  1.00  0.00    -0.458 OA
BRANCH  23  24
ATOM     24  C   UNL     1       9.509  -4.454  -3.013  1.00  0.00     0.338 C 
ATOM     25  O   UNL     1      10.696  -4.701  -2.907  1.00  0.00    -0.246 OA
BRANCH  24  26
ATOM     26  C   UNL     1       8.518  -5.439  -3.491  1.00  0.00     0.060 A 
ATOM     27  C   UNL     1       8.727  -6.778  -3.138  1.00  0.00     0.016 A 
ATOM     28  C   UNL     1       7.404  -5.074  -4.254  1.00  0.00     0.016 A 
ATOM     29  C   UNL     1       7.848  -7.762  -3.582  1.00  0.00     0.010 A 
ATOM     30  C   UNL     1       6.524  -6.064  -4.703  1.00  0.00     0.010 A 
ATOM     31  C   UNL     1       6.761  -7.415  -4.395  1.00  0.00    -0.014 A 
BRANCH  31  32
ATOM     32  C   UNL     1       5.971  -8.487  -5.042  1.00  0.00     0.031 A 
ATOM     33  C   UNL     1       6.350  -8.927  -6.428  1.00  0.00     0.074 A 
ATOM     34  C   UNL     1       4.956  -9.086  -4.394  1.00  0.00     0.049 A 
ATOM     35  N   UNL     1       5.834  -9.873  -7.169  1.00  0.00    -0.248 NA
ATOM     36  C   UNL     1       7.463  -8.203  -7.065  1.00  0.00     0.031 C 
ATOM     37  C   UNL     1       4.503  -8.762  -3.043  1.00  0.00     0.029 A 
ATOM     38  N   UNL     1       4.122 -10.098  -4.797  1.00  0.00    -0.354 N 
ATOM     39  C   UNL     1       6.566  -9.869  -8.348  1.00  0.00     0.074 A 
ATOM     40  C   UNL     1       7.537  -8.802  -8.244  1.00  0.00     0.031 C 
ATOM     41  C   UNL     1       3.462  -9.555  -2.732  1.00  0.00     0.029 A 
ATOM     42  C   UNL     1       3.171 -10.432  -3.865  1.00  0.00     0.049 A 
ATOM     43  H   UNL     1       4.197 -10.543  -5.672  1.00  0.00     0.167 HD
ATOM     44  C   UNL     1       6.450 -10.691  -9.417  1.00  0.00     0.037 A 
ATOM     45  C   UNL     1       2.176 -11.338  -3.926  1.00  0.00     0.037 A 
ATOM     46  C   UNL     1       5.483 -11.748  -9.528  1.00  0.00     0.049 A 
ATOM     47  C   UNL     1       2.026 -12.193  -5.157  1.00  0.00     0.074 A 
ATOM     48  C   UNL     1       5.311 -12.655 -10.559  1.00  0.00     0.029 A 
ATOM     49  N   UNL     1       4.516 -12.032  -8.577  1.00  0.00    -0.354 N 
ATOM     50  N   UNL     1       2.764 -12.223  -6.240  1.00  0.00    -0.248 NA
ATOM     51  C   UNL     1       0.905 -13.146  -5.170  1.00  0.00     0.031 C 
ATOM     52  C   UNL     1       4.210 -13.461 -10.251  1.00  0.00     0.029 A 
ATOM     53  C   UNL     1       3.722 -13.080  -9.011  1.00  0.00     0.049 A 
ATOM     54  H   UNL     1       4.409 -11.558  -7.721  1.00  0.00     0.167 HD
ATOM     55  C   UNL     1       2.216 -13.210  -7.049  1.00  0.00     0.074 A 
ATOM     56  C   UNL     1       1.089 -13.765  -6.328  1.00  0.00     0.031 C 
ATOM     57  C   UNL     1       2.608 -13.622  -8.278  1.00  0.00     0.037 A 
BRANCH  44  58
ATOM     58  C   UNL     1       7.393 -10.471 -10.559  1.00  0.00     0.057 A 
ATOM     59  C   UNL     1       8.736 -10.861 -10.487  1.00  0.00     0.134 A 
ATOM     60  C   UNL     1       6.946  -9.900 -11.757  1.00  0.00     0.134 A 
ATOM     61  F   UNL     1       9.228 -11.399  -9.360  1.00  0.00    -0.206 F 
ATOM     62  C   UNL     1       9.606 -10.680 -11.563  1.00  0.00     0.040 A 
ATOM     63  C   UNL     1       7.801  -9.732 -12.846  1.00  0.00     0.040 A 
ATOM     64  F   UNL     1       5.670  -9.506 -11.888  1.00  0.00    -0.206 F 
ATOM     65  C   UNL     1       9.136 -10.120 -12.750  1.00  0.00     0.006 A 
ENDBRANCH  44  58
BRANCH  45  66
ATOM     66  C   UNL     1       1.228 -11.486  -2.794  1.00  0.00     0.057 A 
ATOM     67  C   UNL     1       1.226 -12.634  -1.993  1.00  0.00     0.134 A 
ATOM     68  C   UNL     1       0.270 -10.504  -2.518  1.00  0.00     0.134 A 
ATOM     69  F   UNL     1       2.103 -13.621  -2.227  1.00  0.00    -0.206 F 
ATOM     70  C   UNL     1       0.291 -12.810  -0.972  1.00  0.00     0.040 A 
ATOM     71  C   UNL     1      -0.657 -10.658  -1.486  1.00  0.00     0.040 A 
ATOM     72  F   UNL     1       0.218  -9.383  -3.252  1.00  0.00    -0.206 F 
ATOM     73  C   UNL     1      -0.653 -11.818  -0.715  1.00  0.00     0.006 A 
ENDBRANCH  45  66
BRANCH  57  74
ATOM     74  C   UNL     1       1.831 -14.736  -8.913  1.00  0.00     0.057 A 
ATOM     75  C   UNL     1       0.556 -14.528  -9.453  1.00  0.00     0.134 A 
ATOM     76  C   UNL     1       2.382 -16.018  -9.027  1.00  0.00     0.134 A 
ATOM     77  F   UNL     1      -0.031 -13.325  -9.364  1.00  0.00    -0.206 F 
ATOM     78  C   UNL     1      -0.151 -15.561 -10.070  1.00  0.00     0.040 A 
ATOM     79  C   UNL     1       1.695 -17.054  -9.662  1.00  0.00     0.040 A 
ATOM     80  F   UNL     1       3.604 -16.281  -8.538  1.00  0.00    -0.206 F 
ATOM     81  C   UNL     1       0.422 -16.827 -10.181  1.00  0.00     0.006 A 
ENDBRANCH  57  74
ENDBRANCH  31  32
ENDBRANCH  24  26
ENDBRANCH  23  24
ENDBRANCH  22  23
ENDBRANCH   1  22
TORSDOF 15
