REMARK SMILES O=C(C[C@@H](c1ccccc1)[NH+]1CCCCC1)OCCOC(=O)c1ccc(-c2c3nc(c(-c4c(F)cccc4F)c4ccc([nH]4)c(-c4c(F)cccc4F)c4nc(c(-c5c(F)cccc5F)c5ccc2[nH]5)C=C4)C=C3)cc1
REMARK SMILES IDX 18 1 17 2 2 3 1 4 3 5 4 6 5 7 6 8 10 9 7 10 9 11 8 12 11 13
REMARK SMILES IDX 12 14 16 15 13 17 15 18 14 19 19 20 20 21 21 22 22 23 23 24
REMARK SMILES IDX 24 25 76 26 25 27 75 28 26 29 27 30 28 31 69 32 29 33 74 34
REMARK SMILES IDX 68 35 70 36 30 37 73 38 67 39 66 40 31 42 57 43 40 44 56 45
REMARK SMILES IDX 41 46 44 47 55 48 71 49 42 50 43 51 54 53 72 54 45 55 32 56
REMARK SMILES IDX 33 57 38 58 34 59 35 60 37 61 39 62 36 63 58 64 59 65 64 66
REMARK SMILES IDX 60 67 61 68 63 69 65 70 62 71 46 72 47 73 52 74 48 75 49 76
REMARK SMILES IDX 51 77 53 78 50 79
REMARK H PARENT 11 16 70 41 44 52
REMARK Flexibility Score: inf
ROOT
ATOM      1  C   UNL     1       4.260   1.325   0.582  1.00  0.00     0.274 C 
ENDROOT
BRANCH   1   2
ATOM      2  O   UNL     1       2.932   1.032   0.082  1.00  0.00    -0.462 OA
BRANCH   2   3
ATOM      3  C   UNL     1       2.549  -0.158  -0.447  1.00  0.00     0.312 C 
ATOM      4  O   UNL     1       1.508  -0.243  -1.097  1.00  0.00    -0.252 OA
BRANCH   3   5
ATOM      5  C   UNL     1       3.401  -1.372  -0.195  1.00  0.00     0.192 C 
BRANCH   5   6
ATOM      6  C   UNL     1       4.254  -1.940  -1.364  1.00  0.00     0.226 C 
BRANCH   6   7
ATOM      7  C   UNL     1       5.162  -0.859  -2.012  1.00  0.00     0.010 A 
ATOM      8  C   UNL     1       6.556  -0.890  -2.135  1.00  0.00     0.010 A 
ATOM      9  C   UNL     1       4.559   0.311  -2.527  1.00  0.00     0.010 A 
ATOM     10  C   UNL     1       7.310   0.243  -2.469  1.00  0.00     0.001 A 
ATOM     11  C   UNL     1       5.298   1.460  -2.845  1.00  0.00     0.001 A 
ATOM     12  C   UNL     1       6.680   1.440  -2.765  1.00  0.00     0.000 A 
ENDBRANCH   6   7
BRANCH   6  13
ATOM     13  N   UNL     1       4.809  -3.165  -0.701  1.00  0.00    -0.328 N 
ATOM     14  C   UNL     1       4.069  -4.397  -0.994  1.00  0.00     0.262 C 
ATOM     15  C   UNL     1       6.229  -3.351  -0.486  1.00  0.00     0.262 C 
ATOM     16  H   UNL     1       4.603  -2.871   0.254  1.00  0.00     0.348 HD
ATOM     17  C   UNL     1       4.421  -5.552  -0.044  1.00  0.00     0.062 C 
ATOM     18  C   UNL     1       6.580  -4.478   0.483  1.00  0.00     0.062 C 
ATOM     19  C   UNL     1       5.924  -5.773   0.043  1.00  0.00     0.012 C 
ENDBRANCH   6  13
ENDBRANCH   5   6
ENDBRANCH   3   5
ENDBRANCH   2   3
ENDBRANCH   1   2
BRANCH   1  20
ATOM     20  C   UNL     1       4.299   1.430   2.104  1.00  0.00     0.275 C 
BRANCH  20  21
ATOM     21  O   UNL     1       3.932   0.174   2.693  1.00  0.00    -0.458 OA
BRANCH  21  22
ATOM     22  C   UNL     1       2.602   0.037   2.923  1.00  0.00     0.338 C 
ATOM     23  O   UNL     1       1.758   0.907   2.859  1.00  0.00    -0.246 OA
BRANCH  22  24
ATOM     24  C   UNL     1       2.280  -1.391   3.129  1.00  0.00     0.060 A 
ATOM     25  C   UNL     1       1.033  -1.840   2.677  1.00  0.00     0.016 A 
ATOM     26  C   UNL     1       3.152  -2.263   3.788  1.00  0.00     0.016 A 
ATOM     27  C   UNL     1       0.607  -3.128   2.983  1.00  0.00     0.010 A 
ATOM     28  C   UNL     1       2.729  -3.559   4.088  1.00  0.00     0.010 A 
ATOM     29  C   UNL     1       1.428  -3.967   3.748  1.00  0.00    -0.014 A 
BRANCH  29  30
ATOM     30  C   UNL     1       0.827  -5.150   4.405  1.00  0.00     0.031 A 
ATOM     31  C   UNL     1       0.398  -5.019   5.843  1.00  0.00     0.074 A 
ATOM     32  C   UNL     1       0.619  -6.292   3.731  1.00  0.00     0.049 A 
ATOM     33  N   UNL     1      -0.187  -5.893   6.621  1.00  0.00    -0.248 NA
ATOM     34  C   UNL     1       0.671  -3.725   6.492  1.00  0.00     0.031 C 
ATOM     35  C   UNL     1       0.963  -6.524   2.330  1.00  0.00     0.029 A 
ATOM     36  N   UNL     1       0.056  -7.472   4.143  1.00  0.00    -0.354 N 
ATOM     37  C   UNL     1      -0.344  -5.257   7.847  1.00  0.00     0.074 A 
ATOM     38  C   UNL     1       0.247  -3.944   7.726  1.00  0.00     0.031 C 
ATOM     39  C   UNL     1       0.596  -7.773   1.995  1.00  0.00     0.029 A 
ATOM     40  C   UNL     1       0.010  -8.430   3.163  1.00  0.00     0.049 A 
ATOM     41  H   UNL     1      -0.283  -7.617   5.056  1.00  0.00     0.167 HD
ATOM     42  C   UNL     1      -0.941  -5.719   8.971  1.00  0.00     0.037 A 
ATOM     43  C   UNL     1      -0.455  -9.693   3.211  1.00  0.00     0.037 A 
ATOM     44  C   UNL     1      -1.530  -7.026   9.086  1.00  0.00     0.049 A 
ATOM     45  C   UNL     1      -1.066 -10.205   4.489  1.00  0.00     0.074 A 
ATOM     46  C   UNL     1      -2.182  -7.588  10.169  1.00  0.00     0.029 A 
ATOM     47  N   UNL     1      -1.528  -7.981   8.079  1.00  0.00    -0.354 N 
ATOM     48  N   UNL     1      -1.250  -9.584   5.630  1.00  0.00    -0.248 NA
ATOM     49  C   UNL     1      -1.548 -11.593   4.479  1.00  0.00     0.031 C 
ATOM     50  C   UNL     1      -2.522  -8.904   9.838  1.00  0.00     0.029 A 
ATOM     51  C   UNL     1      -2.143  -9.138   8.525  1.00  0.00     0.049 A 
ATOM     52  H   UNL     1      -1.146  -7.854   7.181  1.00  0.00     0.167 HD
ATOM     53  C   UNL     1      -1.910 -10.488   6.456  1.00  0.00     0.074 A 
ATOM     54  C   UNL     1      -2.096 -11.698   5.682  1.00  0.00     0.031 C 
ATOM     55  C   UNL     1      -2.334 -10.329   7.735  1.00  0.00     0.037 A 
BRANCH  42  56
ATOM     56  C   UNL     1      -0.951  -4.813  10.169  1.00  0.00     0.057 A 
ATOM     57  C   UNL     1      -1.714  -3.637  10.210  1.00  0.00     0.134 A 
ATOM     58  C   UNL     1      -0.185  -5.122  11.299  1.00  0.00     0.134 A 
ATOM     59  F   UNL     1      -2.458  -3.272   9.154  1.00  0.00    -0.206 F 
ATOM     60  C   UNL     1      -1.687  -2.786  11.316  1.00  0.00     0.040 A 
ATOM     61  C   UNL     1      -0.174  -4.296  12.424  1.00  0.00     0.040 A 
ATOM     62  F   UNL     1       0.567  -6.232  11.330  1.00  0.00    -0.206 F 
ATOM     63  C   UNL     1      -0.919  -3.119  12.431  1.00  0.00     0.006 A 
ENDBRANCH  42  56
BRANCH  43  64
ATOM     64  C   UNL     1      -0.389 -10.557   2.005  1.00  0.00     0.057 A 
ATOM     65  C   UNL     1      -1.552 -10.951   1.332  1.00  0.00     0.134 A 
ATOM     66  C   UNL     1       0.832 -11.030   1.510  1.00  0.00     0.134 A 
ATOM     67  F   UNL     1      -2.754 -10.547   1.770  1.00  0.00    -0.206 F 
ATOM     68  C   UNL     1      -1.506 -11.801   0.226  1.00  0.00     0.040 A 
ATOM     69  C   UNL     1       0.895 -11.860   0.390  1.00  0.00     0.040 A 
ATOM     70  F   UNL     1       1.984 -10.688   2.107  1.00  0.00    -0.206 F 
ATOM     71  C   UNL     1      -0.278 -12.255  -0.251  1.00  0.00     0.006 A 
ENDBRANCH  43  64
BRANCH  55  72
ATOM     72  C   UNL     1      -3.097 -11.465   8.356  1.00  0.00     0.057 A 
ATOM     73  C   UNL     1      -2.488 -12.678   8.700  1.00  0.00     0.134 A 
ATOM     74  C   UNL     1      -4.462 -11.325   8.641  1.00  0.00     0.134 A 
ATOM     75  F   UNL     1      -1.186 -12.881   8.448  1.00  0.00    -0.206 F 
ATOM     76  C   UNL     1      -3.216 -13.723   9.273  1.00  0.00     0.040 A 
ATOM     77  C   UNL     1      -5.193 -12.350   9.243  1.00  0.00     0.040 A 
ATOM     78  F   UNL     1      -5.107 -10.185   8.351  1.00  0.00    -0.206 F 
ATOM     79  C   UNL     1      -4.571 -13.558   9.551  1.00  0.00     0.006 A 
ENDBRANCH  55  72
ENDBRANCH  29  30
ENDBRANCH  22  24
ENDBRANCH  21  22
ENDBRANCH  20  21
ENDBRANCH   1  20
TORSDOF 14
