REMARK SMILES O=C(C[N@@H+](Cc1nc(-c2ccco2)no1)CC(F)(F)F)OCCOC(=O)c1ccc(-c2c3nc(c(-c4c(F)cccc4F)c4ccc([nH]4)c(-c4c(F)cccc4F)c4nc(c(-c5c(F)cccc5F)c5ccc2[nH]5)C=C4)C=C3)cc1
REMARK SMILES IDX 22 1 21 2 2 3 1 4 3 5 4 6 5 8 6 9 7 10 15 11 8 12 14 13 9 14
REMARK SMILES IDX 10 15 13 16 11 17 12 18 16 19 17 20 18 21 19 22 20 23 23 24
REMARK SMILES IDX 24 25 25 26 26 27 27 28 28 29 80 30 29 31 79 32 30 33 31 34
REMARK SMILES IDX 32 35 73 36 33 37 78 38 72 39 74 40 34 41 77 42 71 43 70 44
REMARK SMILES IDX 35 46 61 47 44 48 60 49 45 50 48 51 59 52 75 53 46 54 47 55
REMARK SMILES IDX 58 57 76 58 49 59 36 60 37 61 42 62 38 63 39 64 41 65 43 66
REMARK SMILES IDX 40 67 62 68 63 69 68 70 64 71 65 72 67 73 69 74 66 75 50 76
REMARK SMILES IDX 51 77 56 78 52 79 53 80 55 81 57 82 54 83
REMARK H PARENT 4 7 74 45 48 56
REMARK Flexibility Score: inf
ROOT
ATOM      1  C   UNL     1       4.655   0.818  -0.993  1.00  0.00     0.274 C 
ENDROOT
BRANCH   1   2
ATOM      2  O   UNL     1       3.266   0.570  -1.285  1.00  0.00    -0.458 OA
BRANCH   2   3
ATOM      3  C   UNL     1       2.537  -0.385  -0.661  1.00  0.00     0.361 C 
ATOM      4  O   UNL     1       1.455  -0.755  -1.115  1.00  0.00    -0.245 OA
BRANCH   3   5
ATOM      5  C   UNL     1       3.072  -0.956   0.635  1.00  0.00     0.387 C 
BRANCH   5   6
ATOM      6  N   UNL     1       3.818  -2.225   0.467  1.00  0.00    -0.310 N 
ATOM      7  H   UNL     1       4.413  -2.130  -0.356  1.00  0.00     0.349 HD
BRANCH   6   8
ATOM      8  C   UNL     1       4.709  -2.473   1.630  1.00  0.00     0.364 C 
BRANCH   8   9
ATOM      9  C   UNL     1       4.040  -2.433   2.954  1.00  0.00     0.282 A 
ATOM     10  N   UNL     1       2.891  -1.882   3.269  1.00  0.00    -0.183 NA
ATOM     11  O   UNL     1       4.681  -3.014   4.001  1.00  0.00    -0.333 OA
ATOM     12  C   UNL     1       2.854  -2.061   4.605  1.00  0.00     0.238 A 
ATOM     13  N   UNL     1       3.904  -2.723   5.117  1.00  0.00    -0.053 NA
BRANCH  12  14
ATOM     14  C   UNL     1       1.770  -1.541   5.474  1.00  0.00     0.174 A 
ATOM     15  C   UNL     1      -0.083  -1.309   5.285  1.00  0.00     0.054 A 
ATOM     16  O   UNL     1       2.149  -1.192   7.314  1.00  0.00    -0.461 OA
ATOM     17  C   UNL     1      -0.844  -0.817   7.075  1.00  0.00     0.043 A 
ATOM     18  C   UNL     1       0.581  -0.760   8.307  1.00  0.00     0.196 A 
ENDBRANCH  12  14
ENDBRANCH   8   9
ENDBRANCH   6   8
BRANCH   6  19
ATOM     19  C   UNL     1       2.909  -3.377   0.189  1.00  0.00     0.380 C 
BRANCH  19  20
ATOM     20  C   UNL     1       1.749  -3.816   1.123  1.00  0.00     0.438 C 
ATOM     21  F   UNL     1       0.927  -2.806   1.469  1.00  0.00    -0.165 F 
ATOM     22  F   UNL     1       0.991  -4.753   0.504  1.00  0.00    -0.165 F 
ATOM     23  F   UNL     1       2.220  -4.389   2.255  1.00  0.00    -0.165 F 
ENDBRANCH  19  20
ENDBRANCH   6  19
ENDBRANCH   5   6
ENDBRANCH   3   5
ENDBRANCH   2   3
ENDBRANCH   1   2
BRANCH   1  24
ATOM     24  C   UNL     1       4.860   2.077  -0.135  1.00  0.00     0.275 C 
BRANCH  24  25
ATOM     25  O   UNL     1       4.373   1.923   1.222  1.00  0.00    -0.458 OA
BRANCH  25  26
ATOM     26  C   UNL     1       3.124   2.405   1.468  1.00  0.00     0.338 C 
ATOM     27  O   UNL     1       2.430   3.010   0.667  1.00  0.00    -0.246 OA
BRANCH  26  28
ATOM     28  C   UNL     1       2.600   1.918   2.780  1.00  0.00     0.060 A 
ATOM     29  C   UNL     1       1.253   1.543   2.824  1.00  0.00     0.016 A 
ATOM     30  C   UNL     1       3.374   1.791   3.943  1.00  0.00     0.016 A 
ATOM     31  C   UNL     1       0.695   1.010   3.995  1.00  0.00     0.010 A 
ATOM     32  C   UNL     1       2.826   1.214   5.115  1.00  0.00     0.010 A 
ATOM     33  C   UNL     1       1.488   0.758   5.142  1.00  0.00    -0.014 A 
BRANCH  33  34
ATOM     34  C   UNL     1       0.880  -0.170   6.513  1.00  0.00     0.031 A 
ATOM     35  C   UNL     1       0.360   1.316   7.461  1.00  0.00     0.074 A 
ATOM     36  C   UNL     1       0.609  -2.058   6.915  1.00  0.00     0.049 A 
ATOM     37  N   UNL     1      -0.357   1.288   8.572  1.00  0.00    -0.248 NA
ATOM     38  C   UNL     1       0.680   2.700   7.076  1.00  0.00     0.031 C 
ATOM     39  C   UNL     1       0.745  -3.526   6.082  1.00  0.00     0.029 A 
ATOM     40  N   UNL     1      -0.001  -2.825   8.087  1.00  0.00    -0.354 N 
ATOM     41  C   UNL     1      -0.472   2.530   9.076  1.00  0.00     0.074 A 
ATOM     42  C   UNL     1       0.147   3.396   8.090  1.00  0.00     0.031 C 
ATOM     43  C   UNL     1       0.502  -4.594   6.851  1.00  0.00     0.029 A 
ATOM     44  C   UNL     1       0.113  -4.166   8.156  1.00  0.00     0.049 A 
ATOM     45  H   UNL     1      -0.479  -2.337   8.796  1.00  0.00     0.167 HD
ATOM     46  C   UNL     1      -1.043   2.802  10.271  1.00  0.00     0.037 A 
ATOM     47  C   UNL     1      -0.134  -4.897   9.252  1.00  0.00     0.037 A 
ATOM     48  C   UNL     1      -1.489   1.789  11.239  1.00  0.00     0.049 A 
ATOM     49  C   UNL     1      -0.687  -4.181  10.465  1.00  0.00     0.074 A 
ATOM     50  C   UNL     1      -2.087   2.019  12.465  1.00  0.00     0.029 A 
ATOM     51  N   UNL     1      -1.366   0.383  11.139  1.00  0.00    -0.354 N 
ATOM     52  N   UNL     1      -0.883  -2.888  10.668  1.00  0.00    -0.248 NA
ATOM     53  C   UNL     1      -1.128  -5.039  11.558  1.00  0.00     0.031 C 
ATOM     54  C   UNL     1      -2.242   0.795  13.128  1.00  0.00     0.029 A 
ATOM     55  C   UNL     1      -1.824  -0.248  12.305  1.00  0.00     0.049 A 
ATOM     56  H   UNL     1      -1.007  -0.090  10.354  1.00  0.00     0.167 HD
ATOM     57  C   UNL     1      -1.496  -2.770  11.911  1.00  0.00     0.074 A 
ATOM     58  C   UNL     1      -1.670  -4.148  12.376  1.00  0.00     0.031 C 
ATOM     59  C   UNL     1      -1.898  -1.679  12.631  1.00  0.00     0.037 A 
BRANCH  46  60
ATOM     60  C   UNL     1      -1.176   4.258  10.578  1.00  0.00     0.057 A 
ATOM     61  C   UNL     1      -2.006   5.080   9.803  1.00  0.00     0.134 A 
ATOM     62  C   UNL     1      -0.460   4.859  11.618  1.00  0.00     0.134 A 
ATOM     63  F   UNL     1      -2.721   4.564   8.790  1.00  0.00    -0.206 F 
ATOM     64  C   UNL     1      -2.079   6.456  10.017  1.00  0.00     0.040 A 
ATOM     65  C   UNL     1      -0.548   6.231  11.861  1.00  0.00     0.040 A 
ATOM     66  F   UNL     1       0.344   4.130  12.406  1.00  0.00    -0.206 F 
ATOM     67  C   UNL     1      -1.347   7.035  11.049  1.00  0.00     0.006 A 
ENDBRANCH  46  60
BRANCH  47  68
ATOM     68  C   UNL     1       0.082  -6.349   9.145  1.00  0.00     0.057 A 
ATOM     69  C   UNL     1      -0.998  -7.218   8.982  1.00  0.00     0.134 A 
ATOM     70  C   UNL     1       1.374  -6.869   8.983  1.00  0.00     0.134 A 
ATOM     71  F   UNL     1      -2.253  -6.764   9.108  1.00  0.00    -0.206 F 
ATOM     72  C   UNL     1      -0.804  -8.556   8.643  1.00  0.00     0.040 A 
ATOM     73  C   UNL     1       1.581  -8.199   8.622  1.00  0.00     0.040 A 
ATOM     74  F   UNL     1       2.446  -6.071   9.097  1.00  0.00    -0.206 F 
ATOM     75  C   UNL     1       0.487  -9.044   8.446  1.00  0.00     0.006 A 
ENDBRANCH  47  68
BRANCH  59  76
ATOM     76  C   UNL     1      -2.551  -2.031  13.962  1.00  0.00     0.057 A 
ATOM     77  C   UNL     1      -1.828  -2.590  15.030  1.00  0.00     0.134 A 
ATOM     78  C   UNL     1      -3.928  -1.850  14.152  1.00  0.00     0.134 A 
ATOM     79  F   UNL     1      -0.511  -2.818  14.914  1.00  0.00    -0.206 F 
ATOM     80  C   UNL     1      -2.460  -3.009  16.206  1.00  0.00     0.040 A 
ATOM     81  C   UNL     1      -4.562  -2.223  15.341  1.00  0.00     0.040 A 
ATOM     82  F   UNL     1      -4.684  -1.312  13.184  1.00  0.00    -0.206 F 
ATOM     83  C   UNL     1      -3.831  -2.822  16.365  1.00  0.00     0.006 A 
ENDBRANCH  59  76
ENDBRANCH  33  34
ENDBRANCH  26  28
ENDBRANCH  25  26
ENDBRANCH  24  25
ENDBRANCH   1  24
TORSDOF 17
