REMARK SMILES Cc1nnc(SCC2=C(C(=O)OCCOC(=O)c3ccc(-c4c5nc(c(-c6c(F)cccc6F)c6ccc([nH]6)c(-c6c(F)cccc6F)c6nc(c(-c7c(F)cccc7F)c7ccc4[nH]7)C=C6)C=C5)cc3)N3C(=O)[C@H](NC(=O)c4ccc(F)cc4F)[C@H]3SC2)s1
REMARK SMILES IDX 13 1 12 2 10 3 11 4 9 5 8 6 89 7 72 8 88 9 73 10 87 11 74 12
REMARK SMILES IDX 75 13 7 14 6 15 5 16 1 17 2 18 3 19 90 20 4 21 76 22 77 23
REMARK SMILES IDX 78 25 79 26 80 27 85 28 81 29 84 30 86 31 82 32 83 33 14 34
REMARK SMILES IDX 15 35 16 36 17 37 18 38 19 39 71 40 20 41 70 42 21 43 22 44
REMARK SMILES IDX 23 45 64 46 24 47 69 48 63 49 65 50 25 51 68 52 62 53 61 54
REMARK SMILES IDX 26 56 52 57 35 58 51 59 36 60 39 61 50 62 66 63 37 64 38 65
REMARK SMILES IDX 49 67 67 68 40 69 27 70 28 71 33 72 29 73 30 74 32 75 34 76
REMARK SMILES IDX 31 77 53 78 54 79 59 80 55 81 56 82 58 83 60 84 57 85 41 86
REMARK SMILES IDX 42 87 47 88 43 89 44 90 46 91 48 92 45 93
REMARK H PARENT 76 24 65 55 39 66
REMARK Flexibility Score: inf
ROOT
ATOM      1  C   UNL     1       3.205  -3.042  -2.267  1.00  0.00     0.275 C 
ENDROOT
BRANCH   1   2
ATOM      2  O   UNL     1       4.004  -2.659  -1.126  1.00  0.00    -0.457 OA
BRANCH   2   3
ATOM      3  C   UNL     1       3.391  -2.818   0.071  1.00  0.00     0.355 C 
ATOM      4  O   UNL     1       2.332  -3.397   0.274  1.00  0.00    -0.244 OA
BRANCH   3   5
ATOM      5  C   UNL     1       4.111  -2.134   1.188  1.00  0.00     0.132 C 
ATOM      6  C   UNL     1       4.430  -0.815   1.203  1.00  0.00    -0.019 C 
ATOM      7  C   UNL     1       5.079  -0.127   2.407  1.00  0.00     0.106 C 
ATOM      8  N   UNL     1       4.226  -2.849   2.333  1.00  0.00    -0.289 N 
ATOM      9  S   UNL     1       5.444  -1.157   3.866  1.00  0.00    -0.129 SA
ATOM     10  C   UNL     1       4.473  -4.106   2.737  1.00  0.00     0.253 C 
ATOM     11  C   UNL     1       4.028  -2.258   3.624  1.00  0.00     0.181 C 
ATOM     12  O   UNL     1       4.848  -5.090   2.152  1.00  0.00    -0.272 OA
ATOM     13  C   UNL     1       4.168  -3.693   4.233  1.00  0.00     0.206 C 
BRANCH   6  14
ATOM     14  C   UNL     1       4.238   0.116   0.019  1.00  0.00     0.111 C 
BRANCH  14  15
ATOM     15  S   UNL     1       3.087   1.475   0.383  1.00  0.00    -0.089 SA
BRANCH  15  16
ATOM     16  C   UNL     1       1.536   0.713   0.136  1.00  0.00     0.174 A 
ATOM     17  C   UNL     1      -2.218  -0.050  -0.013  1.00  0.00     0.081 C 
ATOM     18  C   UNL     1      -0.738   0.059  -0.031  1.00  0.00     0.115 A 
ATOM     19  N   UNL     1       0.081  -0.869  -0.478  1.00  0.00    -0.143 NA
ATOM     20  S   UNL     1       0.053   1.479   0.528  1.00  0.00    -0.091 S 
ATOM     21  N   UNL     1       1.403  -0.485  -0.384  1.00  0.00    -0.132 NA
ENDBRANCH  15  16
ENDBRANCH  14  15
ENDBRANCH   6  14
BRANCH  13  22
ATOM     22  N   UNL     1       2.934  -4.341   4.774  1.00  0.00    -0.338 N 
ATOM     23  C   UNL     1       2.121  -3.941   5.805  1.00  0.00     0.254 C 
ATOM     24  H   UNL     1       2.666  -5.176   4.326  1.00  0.00     0.164 HD
ATOM     25  O   UNL     1       1.146  -4.597   6.150  1.00  0.00    -0.269 OA
BRANCH  23  26
ATOM     26  C   UNL     1       2.448  -2.711   6.526  1.00  0.00     0.075 A 
ATOM     27  C   UNL     1       3.247  -2.769   7.670  1.00  0.00     0.020 A 
ATOM     28  C   UNL     1       1.940  -1.493   6.076  1.00  0.00     0.138 A 
ATOM     29  C   UNL     1       3.582  -1.580   8.321  1.00  0.00     0.040 A 
ATOM     30  C   UNL     1       2.293  -0.308   6.705  1.00  0.00     0.079 A 
ATOM     31  F   UNL     1       1.150  -1.440   4.994  1.00  0.00    -0.206 F 
ATOM     32  C   UNL     1       3.118  -0.363   7.821  1.00  0.00     0.126 A 
ATOM     33  F   UNL     1       3.472   0.775   8.430  1.00  0.00    -0.207 F 
ENDBRANCH  23  26
ENDBRANCH  13  22
ENDBRANCH   3   5
ENDBRANCH   2   3
ENDBRANCH   1   2
BRANCH   1  34
ATOM     34  C   UNL     1       3.585  -4.428  -2.779  1.00  0.00     0.275 C 
BRANCH  34  35
ATOM     35  O   UNL     1       3.200  -5.413  -1.807  1.00  0.00    -0.458 OA
BRANCH  35  36
ATOM     36  C   UNL     1       4.141  -6.323  -1.467  1.00  0.00     0.338 C 
ATOM     37  O   UNL     1       5.236  -6.468  -1.984  1.00  0.00    -0.246 OA
BRANCH  36  38
ATOM     38  C   UNL     1       3.660  -7.150  -0.336  1.00  0.00     0.060 A 
ATOM     39  C   UNL     1       2.860  -6.598   0.660  1.00  0.00     0.016 A 
ATOM     40  C   UNL     1       4.130  -8.456  -0.187  1.00  0.00     0.016 A 
ATOM     41  C   UNL     1       2.676  -7.271   1.866  1.00  0.00     0.010 A 
ATOM     42  C   UNL     1       3.838  -9.176   0.980  1.00  0.00     0.010 A 
ATOM     43  C   UNL     1       3.170  -8.566   2.057  1.00  0.00    -0.014 A 
BRANCH  43  44
ATOM     44  C   UNL     1       3.093  -9.223   3.398  1.00  0.00     0.031 A 
ATOM     45  C   UNL     1       4.340  -9.792   4.034  1.00  0.00     0.074 A 
ATOM     46  C   UNL     1       1.942  -9.268   4.101  1.00  0.00     0.049 A 
ATOM     47  N   UNL     1       4.454 -10.614   5.048  1.00  0.00    -0.248 NA
ATOM     48  C   UNL     1       5.630  -9.401   3.440  1.00  0.00     0.031 C 
ATOM     49  C   UNL     1       0.661  -8.695   3.686  1.00  0.00     0.029 A 
ATOM     50  N   UNL     1       1.673  -9.802   5.340  1.00  0.00    -0.354 N 
ATOM     51  C   UNL     1       5.807 -10.920   5.142  1.00  0.00     0.074 A 
ATOM     52  C   UNL     1       6.480 -10.174   4.101  1.00  0.00     0.031 C 
ATOM     53  C   UNL     1      -0.227  -8.828   4.681  1.00  0.00     0.029 A 
ATOM     54  C   UNL     1       0.376  -9.612   5.752  1.00  0.00     0.049 A 
ATOM     55  H   UNL     1       2.346 -10.275   5.880  1.00  0.00     0.167 HD
ATOM     56  C   UNL     1       6.427 -11.754   6.011  1.00  0.00     0.037 A 
ATOM     57  C   UNL     1      -0.279 -10.061   6.839  1.00  0.00     0.037 A 
ATOM     58  C   UNL     1       5.777 -12.403   7.120  1.00  0.00     0.049 A 
ATOM     59  C   UNL     1       0.424 -10.975   7.797  1.00  0.00     0.074 A 
ATOM     60  C   UNL     1       6.320 -13.265   8.057  1.00  0.00     0.029 A 
ATOM     61  N   UNL     1       4.447 -12.224   7.466  1.00  0.00    -0.354 N 
ATOM     62  N   UNL     1       1.669 -11.386   7.786  1.00  0.00    -0.248 NA
ATOM     63  C   UNL     1      -0.382 -11.527   8.895  1.00  0.00     0.031 C 
ATOM     64  C   UNL     1       5.314 -13.618   8.964  1.00  0.00     0.029 A 
ATOM     65  C   UNL     1       4.153 -12.953   8.606  1.00  0.00     0.049 A 
ATOM     66  H   UNL     1       3.806 -11.661   6.974  1.00  0.00     0.167 HD
ATOM     67  C   UNL     1       1.791 -12.254   8.862  1.00  0.00     0.074 A 
ATOM     68  C   UNL     1       0.505 -12.282   9.528  1.00  0.00     0.031 C 
ATOM     69  C   UNL     1       2.867 -12.978   9.251  1.00  0.00     0.037 A 
BRANCH  56  70
ATOM     70  C   UNL     1       7.879 -12.049   5.776  1.00  0.00     0.057 A 
ATOM     71  C   UNL     1       8.893 -11.134   6.080  1.00  0.00     0.134 A 
ATOM     72  C   UNL     1       8.265 -13.298   5.268  1.00  0.00     0.134 A 
ATOM     73  F   UNL     1       8.590  -9.917   6.556  1.00  0.00    -0.206 F 
ATOM     74  C   UNL     1      10.239 -11.444   5.871  1.00  0.00     0.040 A 
ATOM     75  C   UNL     1       9.607 -13.627   5.077  1.00  0.00     0.040 A 
ATOM     76  F   UNL     1       7.343 -14.224   4.963  1.00  0.00    -0.206 F 
ATOM     77  C   UNL     1      10.599 -12.696   5.375  1.00  0.00     0.006 A 
ENDBRANCH  56  70
BRANCH  57  78
ATOM     78  C   UNL     1      -1.708  -9.710   7.038  1.00  0.00     0.057 A 
ATOM     79  C   UNL     1      -2.106  -8.862   8.078  1.00  0.00     0.134 A 
ATOM     80  C   UNL     1      -2.708 -10.208   6.193  1.00  0.00     0.134 A 
ATOM     81  F   UNL     1      -1.200  -8.384   8.944  1.00  0.00    -0.206 F 
ATOM     82  C   UNL     1      -3.446  -8.519   8.268  1.00  0.00     0.040 A 
ATOM     83  C   UNL     1      -4.047  -9.852   6.354  1.00  0.00     0.040 A 
ATOM     84  F   UNL     1      -2.392 -11.032   5.183  1.00  0.00    -0.206 F 
ATOM     85  C   UNL     1      -4.419  -9.007   7.397  1.00  0.00     0.006 A 
ENDBRANCH  57  78
BRANCH  69  86
ATOM     86  C   UNL     1       2.693 -13.854  10.453  1.00  0.00     0.057 A 
ATOM     87  C   UNL     1       1.994 -15.065  10.379  1.00  0.00     0.134 A 
ATOM     88  C   UNL     1       3.237 -13.492  11.691  1.00  0.00     0.134 A 
ATOM     89  F   UNL     1       1.437 -15.458   9.223  1.00  0.00    -0.206 F 
ATOM     90  C   UNL     1       1.822 -15.876  11.501  1.00  0.00     0.040 A 
ATOM     91  C   UNL     1       3.088 -14.303  12.816  1.00  0.00     0.040 A 
ATOM     92  F   UNL     1       3.922 -12.346  11.825  1.00  0.00    -0.206 F 
ATOM     93  C   UNL     1       2.374 -15.496  12.724  1.00  0.00     0.006 A 
ENDBRANCH  69  86
ENDBRANCH  43  44
ENDBRANCH  36  38
ENDBRANCH  35  36
ENDBRANCH  34  35
ENDBRANCH   1  34
TORSDOF 16
