REMARK SMILES Nc1c(Nc2ccc(I)cc2)ncnc1Nc1ccc(C(=O)OCCOC(=O)c2ccc(-c3c4nc(c(-c5c(F)cccc5F)c5ccc([nH]5)c(-c5c(F)cccc5F)c5nc(c(-c6c(F)cccc6F)c6ccc3[nH]6)C=C5)C=C4)cc2)cc1
REMARK SMILES IDX 24 1 23 2 21 3 22 4 20 5 17 6 18 7 84 8 19 9 83 10 16 11
REMARK SMILES IDX 15 13 2 14 3 15 12 16 14 17 13 18 1 19 4 22 5 24 6 25 11 26
REMARK SMILES IDX 7 27 10 28 8 29 9 30 25 31 26 32 27 33 28 34 29 35 30 36
REMARK SMILES IDX 82 37 31 38 81 39 32 40 33 41 34 42 75 43 35 44 80 45 74 46
REMARK SMILES IDX 76 47 36 48 79 49 73 50 72 51 37 53 63 54 46 55 62 56 47 57
REMARK SMILES IDX 50 58 61 59 77 60 48 61 49 62 60 64 78 65 51 66 38 67 39 68
REMARK SMILES IDX 44 69 40 70 41 71 43 72 45 73 42 74 64 75 65 76 70 77 66 78
REMARK SMILES IDX 67 79 69 80 71 81 68 82 52 83 53 84 58 85 54 86 55 87 57 88
REMARK SMILES IDX 59 89 56 90
REMARK H PARENT 16 12 1 20 1 21 4 23 76 52 50 63
REMARK Flexibility Score: inf
ROOT
ATOM      1  C   UNL     1       3.055  -7.340   7.340  1.00  0.00     0.275 C 
ENDROOT
BRANCH   1   2
ATOM      2  O   UNL     1       3.051  -6.449   6.206  1.00  0.00    -0.458 OA
BRANCH   2   3
ATOM      3  C   UNL     1       2.024  -5.564   6.172  1.00  0.00     0.338 C 
ATOM      4  O   UNL     1       1.111  -5.477   6.971  1.00  0.00    -0.246 OA
BRANCH   3   5
ATOM      5  C   UNL     1       2.191  -4.615   5.048  1.00  0.00     0.060 A 
ATOM      6  C   UNL     1       2.141  -2.804   2.912  1.00  0.00     0.040 A 
ATOM      7  C   UNL     1       1.839  -2.369   4.202  1.00  0.00     0.027 A 
ATOM      8  C   UNL     1       2.522  -4.140   2.710  1.00  0.00     0.027 A 
ATOM      9  C   UNL     1       1.830  -3.278   5.253  1.00  0.00     0.018 A 
ATOM     10  C   UNL     1       2.572  -5.043   3.777  1.00  0.00     0.018 A 
BRANCH   6  11
ATOM     11  N   UNL     1       1.776  -1.977   1.827  1.00  0.00    -0.338 N 
ATOM     12  H   UNL     1       2.352  -1.216   1.586  1.00  0.00     0.168 HD
BRANCH  11  13
ATOM     13  C   UNL     1       0.592  -2.220   1.075  1.00  0.00     0.159 A 
ATOM     14  C   UNL     1       0.219  -1.319   0.074  1.00  0.00     0.118 A 
ATOM     15  C   UNL     1      -0.943  -1.670  -0.630  1.00  0.00     0.159 A 
ATOM     16  N   UNL     1      -1.703  -2.733  -0.304  1.00  0.00    -0.217 NA
ATOM     17  N   UNL     1      -0.139  -3.314   1.374  1.00  0.00    -0.217 NA
ATOM     18  C   UNL     1      -1.259  -3.505   0.683  1.00  0.00     0.226 A 
BRANCH  14  19
ATOM     19  N   UNL     1       0.983  -0.195  -0.272  1.00  0.00    -0.393 N 
ATOM     20  H   UNL     1       0.675   0.409  -0.985  1.00  0.00     0.156 HD
ATOM     21  H   UNL     1       1.828  -0.011   0.199  1.00  0.00     0.156 HD
ENDBRANCH  14  19
BRANCH  15  22
ATOM     22  N   UNL     1      -1.301  -0.886  -1.756  1.00  0.00    -0.338 N 
ATOM     23  H   UNL     1      -0.718  -0.123  -1.973  1.00  0.00     0.168 HD
BRANCH  22  24
ATOM     24  C   UNL     1      -2.412  -1.096  -2.592  1.00  0.00     0.040 A 
ATOM     25  C   UNL     1      -2.219  -1.203  -3.975  1.00  0.00     0.027 A 
ATOM     26  C   UNL     1      -3.694  -1.323  -2.076  1.00  0.00     0.027 A 
ATOM     27  C   UNL     1      -3.276  -1.550  -4.821  1.00  0.00     0.017 A 
ATOM     28  C   UNL     1      -4.759  -1.659  -2.916  1.00  0.00     0.017 A 
ATOM     29  C   UNL     1      -4.542  -1.782  -4.286  1.00  0.00     0.013 A 
ATOM     30  I   UNL     1      -6.104  -2.343  -5.535  1.00  0.00    -0.044 I 
ENDBRANCH  22  24
ENDBRANCH  15  22
ENDBRANCH  11  13
ENDBRANCH   6  11
ENDBRANCH   3   5
ENDBRANCH   2   3
ENDBRANCH   1   2
BRANCH   1  31
ATOM     31  C   UNL     1       4.029  -6.851   8.411  1.00  0.00     0.275 C 
BRANCH  31  32
ATOM     32  O   UNL     1       3.547  -5.632   9.007  1.00  0.00    -0.458 OA
BRANCH  32  33
ATOM     33  C   UNL     1       4.289  -4.527   8.775  1.00  0.00     0.338 C 
ATOM     34  O   UNL     1       5.342  -4.447   8.163  1.00  0.00    -0.246 OA
BRANCH  33  35
ATOM     35  C   UNL     1       3.624  -3.351   9.358  1.00  0.00     0.060 A 
ATOM     36  C   UNL     1       2.420  -2.922   8.813  1.00  0.00     0.016 A 
ATOM     37  C   UNL     1       4.249  -2.591  10.343  1.00  0.00     0.016 A 
ATOM     38  C   UNL     1       1.898  -1.678   9.151  1.00  0.00     0.010 A 
ATOM     39  C   UNL     1       3.650  -1.402  10.783  1.00  0.00     0.010 A 
ATOM     40  C   UNL     1       2.486  -0.909  10.166  1.00  0.00    -0.014 A 
BRANCH  40  41
ATOM     41  C   UNL     1       1.875   0.397  10.558  1.00  0.00     0.031 A 
ATOM     42  C   UNL     1       2.674   1.675  10.500  1.00  0.00     0.074 A 
ATOM     43  C   UNL     1       0.579   0.447  10.932  1.00  0.00     0.049 A 
ATOM     44  N   UNL     1       2.335   2.880  10.887  1.00  0.00    -0.248 NA
ATOM     45  C   UNL     1       4.035   1.591   9.945  1.00  0.00     0.031 C 
ATOM     46  C   UNL     1      -0.325  -0.703  11.006  1.00  0.00     0.029 A 
ATOM     47  N   UNL     1      -0.215   1.509  11.292  1.00  0.00    -0.354 N 
ATOM     48  C   UNL     1       3.449   3.681  10.667  1.00  0.00     0.074 A 
ATOM     49  C   UNL     1       4.482   2.826  10.125  1.00  0.00     0.031 C 
ATOM     50  C   UNL     1      -1.560  -0.277  11.308  1.00  0.00     0.029 A 
ATOM     51  C   UNL     1      -1.521   1.160  11.547  1.00  0.00     0.049 A 
ATOM     52  H   UNL     1       0.118   2.433  11.361  1.00  0.00     0.167 HD
ATOM     53  C   UNL     1       3.594   5.010  10.889  1.00  0.00     0.037 A 
ATOM     54  C   UNL     1      -2.570   1.901  11.954  1.00  0.00     0.037 A 
ATOM     55  C   UNL     1       2.550   5.872  11.380  1.00  0.00     0.049 A 
ATOM     56  C   UNL     1      -2.374   3.363  12.224  1.00  0.00     0.074 A 
ATOM     57  C   UNL     1       2.606   7.233  11.632  1.00  0.00     0.029 A 
ATOM     58  N   UNL     1       1.259   5.464  11.675  1.00  0.00    -0.354 N 
ATOM     59  N   UNL     1      -1.299   4.093  12.060  1.00  0.00    -0.248 NA
ATOM     60  C   UNL     1      -3.527   4.101  12.761  1.00  0.00     0.031 C 
ATOM     61  C   UNL     1       1.358   7.641  12.111  1.00  0.00     0.029 A 
ATOM     62  C   UNL     1       0.512   6.544  12.116  1.00  0.00     0.049 A 
ATOM     63  H   UNL     1       0.922   4.543  11.584  1.00  0.00     0.167 HD
ATOM     64  C   UNL     1      -1.646   5.375  12.462  1.00  0.00     0.074 A 
ATOM     65  C   UNL     1      -3.037   5.329  12.862  1.00  0.00     0.031 C 
ATOM     66  C   UNL     1      -0.874   6.488  12.501  1.00  0.00     0.037 A 
BRANCH  53  67
ATOM     67  C   UNL     1       4.937   5.624  10.617  1.00  0.00     0.057 A 
ATOM     68  C   UNL     1       5.401   5.847   9.315  1.00  0.00     0.134 A 
ATOM     69  C   UNL     1       5.747   6.061  11.675  1.00  0.00     0.134 A 
ATOM     70  F   UNL     1       4.679   5.444   8.258  1.00  0.00    -0.206 F 
ATOM     71  C   UNL     1       6.628   6.469   9.074  1.00  0.00     0.040 A 
ATOM     72  C   UNL     1       6.963   6.707  11.446  1.00  0.00     0.040 A 
ATOM     73  F   UNL     1       5.357   5.889  12.947  1.00  0.00    -0.206 F 
ATOM     74  C   UNL     1       7.408   6.910  10.142  1.00  0.00     0.006 A 
ENDBRANCH  53  67
BRANCH  54  75
ATOM     75  C   UNL     1      -3.897   1.259  12.138  1.00  0.00     0.057 A 
ATOM     76  C   UNL     1      -4.959   1.543  11.272  1.00  0.00     0.134 A 
ATOM     77  C   UNL     1      -4.127   0.323  13.154  1.00  0.00     0.134 A 
ATOM     78  F   UNL     1      -4.809   2.447  10.293  1.00  0.00    -0.206 F 
ATOM     79  C   UNL     1      -6.200   0.917  11.408  1.00  0.00     0.040 A 
ATOM     80  C   UNL     1      -5.352  -0.331  13.284  1.00  0.00     0.040 A 
ATOM     81  F   UNL     1      -3.149   0.005  14.015  1.00  0.00    -0.206 F 
ATOM     82  C   UNL     1      -6.395  -0.032  12.410  1.00  0.00     0.006 A 
ENDBRANCH  54  75
BRANCH  66  83
ATOM     83  C   UNL     1      -1.515   7.759  12.970  1.00  0.00     0.057 A 
ATOM     84  C   UNL     1      -1.773   7.995  14.325  1.00  0.00     0.134 A 
ATOM     85  C   UNL     1      -1.800   8.789  12.064  1.00  0.00     0.134 A 
ATOM     86  F   UNL     1      -1.531   7.043  15.239  1.00  0.00    -0.206 F 
ATOM     87  C   UNL     1      -2.298   9.211  14.764  1.00  0.00     0.040 A 
ATOM     88  C   UNL     1      -2.305  10.017  12.493  1.00  0.00     0.040 A 
ATOM     89  F   UNL     1      -1.566   8.627  10.753  1.00  0.00    -0.206 F 
ATOM     90  C   UNL     1      -2.555  10.229  13.848  1.00  0.00     0.006 A 
ENDBRANCH  66  83
ENDBRANCH  40  41
ENDBRANCH  33  35
ENDBRANCH  32  33
ENDBRANCH  31  32
ENDBRANCH   1  31
TORSDOF 16
