REMARK SMILES O=C(OCCOC(=O)c1ccc(C[NH2+]Cc2cc(F)ccc2F)nc1)c1ccc(-c2c3nc(c(-c4c(F)cccc4F)c4ccc([nH]4)c(-c4c(F)cccc4F)c4nc(c(-c5c(F)cccc5F)c5ccc2[nH]5)C=C4)C=C3)cc1
REMARK SMILES IDX 5 1 4 2 3 3 2 4 1 5 26 6 27 7 79 8 28 9 78 10 29 11 30 12
REMARK SMILES IDX 31 13 72 14 32 15 77 16 71 17 73 18 33 19 76 20 70 21 69 22
REMARK SMILES IDX 34 24 60 25 43 26 59 27 44 28 47 29 58 30 74 31 45 32 46 33
REMARK SMILES IDX 57 35 75 36 48 37 35 38 36 39 41 40 37 41 38 42 40 43 42 44
REMARK SMILES IDX 39 45 61 46 62 47 67 48 63 49 64 50 66 51 68 52 65 53 49 54
REMARK SMILES IDX 50 55 55 56 51 57 52 58 54 59 56 60 53 61 6 62 7 63 8 64
REMARK SMILES IDX 9 65 10 66 25 67 11 68 24 69 12 70 13 71 14 72 15 75 16 76
REMARK SMILES IDX 17 77 22 78 18 79 21 80 23 81 19 82 20 83
REMARK H PARENT 73 23 47 34 14 73 14 74
REMARK Flexibility Score: inf
ROOT
ATOM      1  C   UNL     1       3.953  -1.924  -1.426  1.00  0.00     0.275 C 
ENDROOT
BRANCH   1   2
ATOM      2  C   UNL     1       4.219  -1.655   0.057  1.00  0.00     0.275 C 
BRANCH   2   3
ATOM      3  O   UNL     1       3.165  -0.942   0.725  1.00  0.00    -0.458 OA
BRANCH   3   4
ATOM      4  C   UNL     1       3.055   0.385   0.967  1.00  0.00     0.338 C 
ATOM      5  O   UNL     1       2.290   0.768   1.850  1.00  0.00    -0.246 OA
BRANCH   4   6
ATOM      6  C   UNL     1       3.685   1.428   0.100  1.00  0.00     0.060 A 
ATOM      7  C   UNL     1       4.949   1.358  -0.492  1.00  0.00     0.016 A 
ATOM      8  C   UNL     1       2.933   2.601  -0.093  1.00  0.00     0.016 A 
ATOM      9  C   UNL     1       5.430   2.396  -1.299  1.00  0.00     0.010 A 
ATOM     10  C   UNL     1       3.407   3.640  -0.897  1.00  0.00     0.010 A 
ATOM     11  C   UNL     1       4.666   3.546  -1.499  1.00  0.00    -0.014 A 
BRANCH  11  12
ATOM     12  C   UNL     1       5.253   4.728  -2.165  1.00  0.00     0.031 A 
ATOM     13  C   UNL     1       5.719   5.860  -1.300  1.00  0.00     0.074 A 
ATOM     14  C   UNL     1       5.384   4.791  -3.501  1.00  0.00     0.049 A 
ATOM     15  N   UNL     1       6.214   7.017  -1.646  1.00  0.00    -0.248 NA
ATOM     16  C   UNL     1       5.637   5.643   0.154  1.00  0.00     0.031 C 
ATOM     17  C   UNL     1       5.073   3.713  -4.433  1.00  0.00     0.029 A 
ATOM     18  N   UNL     1       5.792   5.821  -4.310  1.00  0.00    -0.354 N 
ATOM     19  C   UNL     1       6.535   7.651  -0.455  1.00  0.00     0.074 A 
ATOM     20  C   UNL     1       6.109   6.786   0.623  1.00  0.00     0.031 C 
ATOM     21  C   UNL     1       5.218   4.161  -5.692  1.00  0.00     0.029 A 
ATOM     22  C   UNL     1       5.640   5.557  -5.650  1.00  0.00     0.049 A 
ATOM     23  H   UNL     1       6.157   6.668  -3.964  1.00  0.00     0.167 HD
ATOM     24  C   UNL     1       7.167   8.833  -0.275  1.00  0.00     0.037 A 
ATOM     25  C   UNL     1       5.803   6.364  -6.716  1.00  0.00     0.037 A 
ATOM     26  C   UNL     1       7.555   9.700  -1.351  1.00  0.00     0.049 A 
ATOM     27  C   UNL     1       6.312   7.761  -6.490  1.00  0.00     0.074 A 
ATOM     28  C   UNL     1       8.194  10.924  -1.291  1.00  0.00     0.029 A 
ATOM     29  N   UNL     1       7.316   9.433  -2.692  1.00  0.00    -0.354 N 
ATOM     30  N   UNL     1       6.648   8.341  -5.362  1.00  0.00    -0.248 NA
ATOM     31  C   UNL     1       6.489   8.609  -7.677  1.00  0.00     0.031 C 
ATOM     32  C   UNL     1       8.302  11.418  -2.597  1.00  0.00     0.029 A 
ATOM     33  C   UNL     1       7.771  10.480  -3.471  1.00  0.00     0.049 A 
ATOM     34  H   UNL     1       6.885   8.618  -3.037  1.00  0.00     0.167 HD
ATOM     35  C   UNL     1       7.145   9.590  -5.708  1.00  0.00     0.074 A 
ATOM     36  C   UNL     1       7.032   9.698  -7.149  1.00  0.00     0.031 C 
ATOM     37  C   UNL     1       7.676  10.546  -4.908  1.00  0.00     0.037 A 
BRANCH  24  38
ATOM     38  C   UNL     1       7.441   9.232   1.143  1.00  0.00     0.057 A 
ATOM     39  C   UNL     1       8.393   8.558   1.923  1.00  0.00     0.134 A 
ATOM     40  C   UNL     1       6.702  10.248   1.759  1.00  0.00     0.134 A 
ATOM     41  F   UNL     1       9.116   7.557   1.397  1.00  0.00    -0.206 F 
ATOM     42  C   UNL     1       8.568   8.851   3.276  1.00  0.00     0.040 A 
ATOM     43  C   UNL     1       6.886  10.566   3.105  1.00  0.00     0.040 A 
ATOM     44  F   UNL     1       5.774  10.928   1.070  1.00  0.00    -0.206 F 
ATOM     45  C   UNL     1       7.811   9.858   3.871  1.00  0.00     0.006 A 
ENDBRANCH  24  38
BRANCH  25  46
ATOM     46  C   UNL     1       5.466   5.878  -8.078  1.00  0.00     0.057 A 
ATOM     47  C   UNL     1       6.446   5.656  -9.050  1.00  0.00     0.134 A 
ATOM     48  C   UNL     1       4.135   5.637  -8.441  1.00  0.00     0.134 A 
ATOM     49  F   UNL     1       7.738   5.878  -8.768  1.00  0.00    -0.206 F 
ATOM     50  C   UNL     1       6.114   5.231 -10.339  1.00  0.00     0.040 A 
ATOM     51  C   UNL     1       3.789   5.197  -9.720  1.00  0.00     0.040 A 
ATOM     52  F   UNL     1       3.155   5.813  -7.544  1.00  0.00    -0.206 F 
ATOM     53  C   UNL     1       4.782   4.999 -10.677  1.00  0.00     0.006 A 
ENDBRANCH  25  46
BRANCH  37  54
ATOM     54  C   UNL     1       8.265  11.751  -5.576  1.00  0.00     0.057 A 
ATOM     55  C   UNL     1       7.471  12.776  -6.100  1.00  0.00     0.134 A 
ATOM     56  C   UNL     1       9.656  11.912  -5.626  1.00  0.00     0.134 A 
ATOM     57  F   UNL     1       6.134  12.671  -6.097  1.00  0.00    -0.206 F 
ATOM     58  C   UNL     1       8.043  13.921  -6.658  1.00  0.00     0.040 A 
ATOM     59  C   UNL     1      10.238  13.060  -6.160  1.00  0.00     0.040 A 
ATOM     60  F   UNL     1      10.469  10.964  -5.135  1.00  0.00    -0.206 F 
ATOM     61  C   UNL     1       9.430  14.069  -6.679  1.00  0.00     0.006 A 
ENDBRANCH  37  54
ENDBRANCH  11  12
ENDBRANCH   4   6
ENDBRANCH   3   4
ENDBRANCH   2   3
ENDBRANCH   1   2
BRANCH   1  62
ATOM     62  O   UNL     1       3.442  -0.780  -2.128  1.00  0.00    -0.458 OA
BRANCH  62  63
ATOM     63  C   UNL     1       2.085  -0.735  -2.245  1.00  0.00     0.339 C 
ATOM     64  O   UNL     1       1.290  -1.573  -1.869  1.00  0.00    -0.246 OA
BRANCH  63  65
ATOM     65  C   UNL     1       1.691   0.576  -2.780  1.00  0.00     0.078 A 
ATOM     66  C   UNL     1       2.295   1.155  -3.891  1.00  0.00     0.019 A 
ATOM     67  C   UNL     1       0.712   1.292  -2.111  1.00  0.00     0.127 A 
ATOM     68  C   UNL     1       1.932   2.453  -4.254  1.00  0.00     0.031 A 
ATOM     69  N   UNL     1       0.379   2.571  -2.419  1.00  0.00    -0.254 NA
ATOM     70  C   UNL     1       1.014   3.153  -3.469  1.00  0.00     0.094 A 
BRANCH  70  71
ATOM     71  C   UNL     1       0.776   4.636  -3.722  1.00  0.00     0.318 C 
BRANCH  71  72
ATOM     72  N   UNL     1      -0.625   4.944  -4.003  1.00  0.00    -0.337 N 
ATOM     73  H   UNL     1      -1.167   4.793  -3.152  1.00  0.00     0.346 HD
ATOM     74  H   UNL     1      -0.924   4.330  -4.761  1.00  0.00     0.346 HD
BRANCH  72  75
ATOM     75  C   UNL     1      -0.833   6.318  -4.449  1.00  0.00     0.300 C 
BRANCH  75  76
ATOM     76  C   UNL     1      -0.353   6.649  -5.844  1.00  0.00     0.045 A 
ATOM     77  C   UNL     1      -0.209   5.693  -6.862  1.00  0.00     0.051 A 
ATOM     78  C   UNL     1      -0.105   7.991  -6.169  1.00  0.00     0.132 A 
ATOM     79  C   UNL     1       0.203   6.082  -8.136  1.00  0.00     0.123 A 
ATOM     80  C   UNL     1       0.306   8.377  -7.444  1.00  0.00     0.043 A 
ATOM     81  F   UNL     1      -0.274   8.942  -5.239  1.00  0.00    -0.206 F 
ATOM     82  F   UNL     1       0.359   5.150  -9.086  1.00  0.00    -0.207 F 
ATOM     83  C   UNL     1       0.466   7.413  -8.436  1.00  0.00     0.042 A 
ENDBRANCH  75  76
ENDBRANCH  72  75
ENDBRANCH  71  72
ENDBRANCH  70  71
ENDBRANCH  63  65
ENDBRANCH  62  63
ENDBRANCH   1  62
TORSDOF 15
