REMARK SMILES O=C(COc1cccc(NC(=O)c2ccc3c(c2)C(=O)N(c2ccccc2-c2ccccc2)C3=O)c1)OCCOC(=O)c1ccc(-c2c3nc(c(-c4c(F)cccc4F)c4ccc([nH]4)c(-c4c(F)cccc4F)c4nc(c(-c5c(F)cccc5F)c5ccc2[nH]5)C=C4)C=C3)cc1
REMARK SMILES IDX 1 1 2 2 3 3 4 4 5 5 6 6 36 7 7 8 9 9 8 10 10 11 11 12 12 14
REMARK SMILES IDX 13 15 14 16 18 17 15 18 17 19 16 20 19 21 34 22 20 23 21 24
REMARK SMILES IDX 35 25 22 26 23 27 27 28 24 29 26 30 25 31 28 32 29 33 33 34
REMARK SMILES IDX 30 35 32 36 31 37 37 38 38 39 39 40 40 41 41 42 42 43 43 44
REMARK SMILES IDX 44 45 96 46 45 47 95 48 46 49 47 50 48 51 89 52 49 53 94 54
REMARK SMILES IDX 88 55 90 56 50 57 93 58 87 59 86 60 51 62 77 63 60 64 76 65
REMARK SMILES IDX 61 66 64 67 75 68 91 69 62 70 63 71 74 73 92 74 65 75 52 76
REMARK SMILES IDX 53 77 58 78 54 79 55 80 57 81 59 82 56 83 78 84 79 85 84 86
REMARK SMILES IDX 80 87 81 88 83 89 85 90 82 91 66 92 67 93 72 94 68 95 69 96
REMARK SMILES IDX 71 97 73 98 70 99
REMARK H PARENT 10 13 90 61 64 72
REMARK Flexibility Score: inf
ROOT
ATOM      1  O   UNL     1       1.144  -0.195   0.036  1.00  0.00    -0.248 OA
ATOM      2  C   UNL     1       2.363  -0.119   0.185  1.00  0.00     0.344 C 
ENDROOT
BRANCH   2   3
ATOM      3  C   UNL     1       2.959   0.213   1.545  1.00  0.00     0.351 C 
BRANCH   3   4
ATOM      4  O   UNL     1       3.966  -0.652   2.031  1.00  0.00    -0.482 OA
BRANCH   4   5
ATOM      5  C   UNL     1       3.510  -1.775   2.658  1.00  0.00     0.122 A 
ATOM      6  C   UNL     1       4.164  -2.087   3.845  1.00  0.00     0.046 A 
ATOM      7  C   UNL     1       2.543  -2.641   2.127  1.00  0.00     0.072 A 
ATOM      8  C   UNL     1       3.863  -3.272   4.493  1.00  0.00     0.006 A 
ATOM      9  C   UNL     1       2.211  -3.830   2.785  1.00  0.00     0.045 A 
ATOM     10  C   UNL     1       2.910  -4.138   3.952  1.00  0.00     0.026 A 
BRANCH   9  11
ATOM     11  N   UNL     1       1.252  -4.675   2.168  1.00  0.00    -0.322 N 
ATOM     12  C   UNL     1       0.527  -5.758   2.638  1.00  0.00     0.255 C 
ATOM     13  H   UNL     1       1.067  -4.448   1.228  1.00  0.00     0.170 HD
ATOM     14  O   UNL     1      -0.098  -6.496   1.884  1.00  0.00    -0.269 OA
BRANCH  12  15
ATOM     15  C   UNL     1       0.382  -5.940   4.091  1.00  0.00     0.041 A 
ATOM     16  C   UNL     1       1.177  -6.890   4.772  1.00  0.00     0.015 A 
ATOM     17  C   UNL     1      -0.326  -4.948   4.768  1.00  0.00     0.028 A 
ATOM     18  C   UNL     1       1.442  -6.715   6.141  1.00  0.00     0.015 A 
ATOM     19  C   UNL     1      -0.025  -4.805   6.102  1.00  0.00     0.054 A 
ATOM     20  C   UNL     1       0.877  -5.608   6.758  1.00  0.00     0.053 A 
ATOM     21  C   UNL     1      -0.281  -3.646   6.925  1.00  0.00     0.266 C 
ATOM     22  C   UNL     1       1.240  -4.906   7.994  1.00  0.00     0.266 C 
ATOM     23  O   UNL     1      -1.181  -2.884   6.620  1.00  0.00    -0.268 OA
ATOM     24  N   UNL     1       0.666  -3.651   7.929  1.00  0.00    -0.242 N 
ATOM     25  O   UNL     1       1.877  -5.479   8.857  1.00  0.00    -0.268 OA
BRANCH  24  26
ATOM     26  C   UNL     1       0.994  -2.477   8.696  1.00  0.00     0.060 A 
ATOM     27  C   UNL     1       0.082  -1.394   8.672  1.00  0.00     0.027 A 
ATOM     28  C   UNL     1       2.225  -2.252   9.369  1.00  0.00     0.006 A 
ATOM     29  C   UNL     1       0.359  -0.148   9.234  1.00  0.00     0.002 A 
ATOM     30  C   UNL     1       2.457  -0.990   9.980  1.00  0.00     0.011 A 
ATOM     31  C   UNL     1       1.549   0.054   9.896  1.00  0.00     0.001 A 
BRANCH  28  32
ATOM     32  C   UNL     1       3.401  -3.133   9.385  1.00  0.00    -0.016 A 
ATOM     33  C   UNL     1       3.697  -3.923  10.507  1.00  0.00     0.009 A 
ATOM     34  C   UNL     1       4.343  -3.069   8.345  1.00  0.00     0.009 A 
ATOM     35  C   UNL     1       4.876  -4.669  10.562  1.00  0.00     0.001 A 
ATOM     36  C   UNL     1       5.526  -3.808   8.404  1.00  0.00     0.001 A 
ATOM     37  C   UNL     1       5.787  -4.614   9.510  1.00  0.00     0.000 A 
ENDBRANCH  28  32
ENDBRANCH  24  26
ENDBRANCH  12  15
ENDBRANCH   9  11
ENDBRANCH   4   5
ENDBRANCH   3   4
ENDBRANCH   2   3
BRANCH   2  38
ATOM     38  O   UNL     1       3.195  -0.376  -0.851  1.00  0.00    -0.460 OA
BRANCH  38  39
ATOM     39  C   UNL     1       4.585   0.016  -0.902  1.00  0.00     0.274 C 
BRANCH  39  40
ATOM     40  C   UNL     1       4.728   1.396  -1.542  1.00  0.00     0.275 C 
BRANCH  40  41
ATOM     41  O   UNL     1       4.206   2.392  -0.641  1.00  0.00    -0.458 OA
BRANCH  41  42
ATOM     42  C   UNL     1       2.964   2.857  -0.928  1.00  0.00     0.338 C 
ATOM     43  O   UNL     1       2.313   2.637  -1.933  1.00  0.00    -0.246 OA
BRANCH  42  44
ATOM     44  C   UNL     1       2.417   3.513   0.283  1.00  0.00     0.060 A 
ATOM     45  C   UNL     1       1.081   3.265   0.618  1.00  0.00     0.016 A 
ATOM     46  C   UNL     1       3.210   4.321   1.106  1.00  0.00     0.016 A 
ATOM     47  C   UNL     1       0.525   3.853   1.756  1.00  0.00     0.010 A 
ATOM     48  C   UNL     1       2.650   4.914   2.243  1.00  0.00     0.010 A 
ATOM     49  C   UNL     1       1.297   4.707   2.557  1.00  0.00    -0.014 A 
BRANCH  49  50
ATOM     50  C   UNL     1       0.629   5.516   3.606  1.00  0.00     0.031 A 
ATOM     51  C   UNL     1       0.161   6.904   3.253  1.00  0.00     0.074 A 
ATOM     52  C   UNL     1       0.407   5.028   4.840  1.00  0.00     0.049 A 
ATOM     53  N   UNL     1      -0.513   7.763   3.975  1.00  0.00    -0.248 NA
ATOM     54  C   UNL     1       0.506   7.388   1.906  1.00  0.00     0.031 C 
ATOM     55  C   UNL     1       0.831   3.719   5.336  1.00  0.00     0.029 A 
ATOM     56  N   UNL     1      -0.236   5.600   5.910  1.00  0.00    -0.354 N 
ATOM     57  C   UNL     1      -0.695   8.875   3.163  1.00  0.00     0.074 A 
ATOM     58  C   UNL     1      -0.015   8.606   1.915  1.00  0.00     0.031 C 
ATOM     59  C   UNL     1       0.450   3.595   6.623  1.00  0.00     0.029 A 
ATOM     60  C   UNL     1      -0.256   4.808   7.031  1.00  0.00     0.049 A 
ATOM     61  H   UNL     1      -0.645   6.495   5.876  1.00  0.00     0.167 HD
ATOM     62  C   UNL     1      -1.384  10.012   3.418  1.00  0.00     0.037 A 
ATOM     63  C   UNL     1      -0.790   5.043   8.244  1.00  0.00     0.037 A 
ATOM     64  C   UNL     1      -2.045  10.308   4.660  1.00  0.00     0.049 A 
ATOM     65  C   UNL     1      -1.541   6.323   8.505  1.00  0.00     0.074 A 
ATOM     66  C   UNL     1      -2.775  11.433   5.005  1.00  0.00     0.029 A 
ATOM     67  N   UNL     1      -2.049   9.476   5.766  1.00  0.00    -0.354 N 
ATOM     68  N   UNL     1      -1.751   7.342   7.710  1.00  0.00    -0.248 NA
ATOM     69  C   UNL     1      -2.146   6.468   9.840  1.00  0.00     0.031 C 
ATOM     70  C   UNL     1      -3.193  11.296   6.334  1.00  0.00     0.029 A 
ATOM     71  C   UNL     1      -2.756  10.068   6.800  1.00  0.00     0.049 A 
ATOM     72  H   UNL     1      -1.614   8.594   5.811  1.00  0.00     0.167 HD
ATOM     73  C   UNL     1      -2.511   8.243   8.446  1.00  0.00     0.074 A 
ATOM     74  C   UNL     1      -2.753   7.639   9.738  1.00  0.00     0.031 C 
ATOM     75  C   UNL     1      -2.967   9.467   8.088  1.00  0.00     0.037 A 
BRANCH  62  76
ATOM     76  C   UNL     1      -1.462  11.025   2.318  1.00  0.00     0.057 A 
ATOM     77  C   UNL     1      -2.278  10.822   1.197  1.00  0.00     0.134 A 
ATOM     78  C   UNL     1      -0.745  12.225   2.391  1.00  0.00     0.134 A 
ATOM     79  F   UNL     1      -2.977   9.684   1.063  1.00  0.00    -0.206 F 
ATOM     80  C   UNL     1      -2.366  11.771   0.179  1.00  0.00     0.040 A 
ATOM     81  C   UNL     1      -0.842  13.191   1.389  1.00  0.00     0.040 A 
ATOM     82  F   UNL     1       0.053  12.479   3.439  1.00  0.00    -0.206 F 
ATOM     83  C   UNL     1      -1.651  12.963   0.277  1.00  0.00     0.006 A 
ENDBRANCH  62  76
BRANCH  63  84
ATOM     84  C   UNL     1      -0.640   4.078   9.356  1.00  0.00     0.057 A 
ATOM     85  C   UNL     1      -1.707   3.270   9.765  1.00  0.00     0.134 A 
ATOM     86  C   UNL     1       0.519   4.077  10.138  1.00  0.00     0.134 A 
ATOM     87  F   UNL     1      -2.853   3.262   9.069  1.00  0.00    -0.206 F 
ATOM     88  C   UNL     1      -1.640   2.518  10.939  1.00  0.00     0.040 A 
ATOM     89  C   UNL     1       0.600   3.327  11.312  1.00  0.00     0.040 A 
ATOM     90  F   UNL     1       1.569   4.836   9.795  1.00  0.00    -0.206 F 
ATOM     91  C   UNL     1      -0.484   2.551  11.719  1.00  0.00     0.006 A 
ENDBRANCH  63  84
BRANCH  75  92
ATOM     92  C   UNL     1      -3.764  10.221   9.109  1.00  0.00     0.057 A 
ATOM     93  C   UNL     1      -3.159  10.795  10.236  1.00  0.00     0.134 A 
ATOM     94  C   UNL     1      -5.148  10.372   8.969  1.00  0.00     0.134 A 
ATOM     95  F   UNL     1      -1.838  10.668  10.436  1.00  0.00    -0.206 F 
ATOM     96  C   UNL     1      -3.908  11.467  11.202  1.00  0.00     0.040 A 
ATOM     97  C   UNL     1      -5.905  11.063   9.917  1.00  0.00     0.040 A 
ATOM     98  F   UNL     1      -5.788   9.849   7.912  1.00  0.00    -0.206 F 
ATOM     99  C   UNL     1      -5.286  11.606  11.041  1.00  0.00     0.006 A 
ENDBRANCH  75  92
ENDBRANCH  49  50
ENDBRANCH  42  44
ENDBRANCH  41  42
ENDBRANCH  40  41
ENDBRANCH  39  40
ENDBRANCH  38  39
ENDBRANCH   2  38
TORSDOF 17
