REMARK SMILES CSc1nc2nnc(C(=O)OCCOC(=O)c3ccc(-c4c5nc(c(-c6c(F)cccc6F)c6ccc([nH]6)c(-c6c(F)cccc6F)c6nc(c(-c7c(F)cccc7F)c7ccc4[nH]7)C=C6)C=C5)cc3)c(O)n2n1
REMARK SMILES IDX 13 1 12 2 11 3 9 4 10 5 8 6 3 7 4 8 74 9 5 10 73 11 6 12
REMARK SMILES IDX 71 13 7 14 2 15 1 16 72 17 14 19 15 20 16 21 17 22 18 23
REMARK SMILES IDX 70 24 19 25 69 26 20 27 21 28 22 29 63 30 23 31 68 32 62 33
REMARK SMILES IDX 64 34 24 35 67 36 61 37 60 38 25 40 51 41 34 42 50 43 35 44
REMARK SMILES IDX 38 45 49 46 65 47 36 48 37 49 48 51 66 52 39 53 26 54 27 55
REMARK SMILES IDX 32 56 28 57 29 58 31 59 33 60 30 61 52 62 53 63 58 64 54 65
REMARK SMILES IDX 55 66 57 67 59 68 56 69 40 70 41 71 46 72 42 73 43 74 45 75
REMARK SMILES IDX 47 76 44 77
REMARK H PARENT 72 18 64 39 38 50
REMARK Flexibility Score: inf
ROOT
ATOM      1  C   UNL     1       1.694 -11.383  -1.630  1.00  0.00     0.275 C 
ENDROOT
BRANCH   1   2
ATOM      2  C   UNL     1       0.964 -10.734  -2.806  1.00  0.00     0.275 C 
BRANCH   2   3
ATOM      3  O   UNL     1       1.189  -9.313  -2.878  1.00  0.00    -0.457 OA
BRANCH   3   4
ATOM      4  C   UNL     1       0.304  -8.559  -2.178  1.00  0.00     0.364 C 
ATOM      5  O   UNL     1      -0.715  -8.982  -1.638  1.00  0.00    -0.244 OA
BRANCH   4   6
ATOM      6  C   UNL     1       0.772  -7.161  -1.984  1.00  0.00     0.232 A 
ATOM      7  C   UNL     1       1.107  -3.210  -0.208  1.00  0.00     0.210 A 
ATOM      8  N   UNL     1       1.801  -3.358  -1.375  1.00  0.00    -0.182 NA
ATOM      9  N   UNL     1       0.504  -4.306   0.244  1.00  0.00    -0.134 NA
ATOM     10  C   UNL     1       1.606  -4.627  -1.682  1.00  0.00     0.275 A 
ATOM     11  N   UNL     1       0.786  -5.208  -0.722  1.00  0.00    -0.159 N 
ATOM     12  N   UNL     1       2.027  -5.375  -2.747  1.00  0.00    -0.108 NA
ATOM     13  C   UNL     1       0.341  -6.519  -0.875  1.00  0.00     0.251 A 
ATOM     14  N   UNL     1       1.639  -6.572  -2.891  1.00  0.00    -0.134 NA
BRANCH   7  15
ATOM     15  S   UNL     1       0.947  -1.713   0.668  1.00  0.00    -0.088 SA
ATOM     16  C   UNL     1       1.461  -0.518  -0.575  1.00  0.00     0.094 C 
ENDBRANCH   7  15
BRANCH  13  17
ATOM     17  O   UNL     1      -0.504  -7.052   0.091  1.00  0.00    -0.491 OA
ATOM     18  H   UNL     1      -0.815  -7.932   0.008  1.00  0.00     0.295 HD
ENDBRANCH  13  17
ENDBRANCH   4   6
ENDBRANCH   3   4
ENDBRANCH   2   3
ENDBRANCH   1   2
BRANCH   1  19
ATOM     19  O   UNL     1       1.193 -10.986  -0.347  1.00  0.00    -0.458 OA
BRANCH  19  20
ATOM     20  C   UNL     1       1.814  -9.915   0.186  1.00  0.00     0.338 C 
ATOM     21  O   UNL     1       2.457  -9.059  -0.416  1.00  0.00    -0.246 OA
BRANCH  20  22
ATOM     22  C   UNL     1       1.780  -9.966   1.646  1.00  0.00     0.060 A 
ATOM     23  C   UNL     1       2.012  -8.777   2.345  1.00  0.00     0.016 A 
ATOM     24  C   UNL     1       1.793 -11.211   2.287  1.00  0.00     0.016 A 
ATOM     25  C   UNL     1       2.385  -8.846   3.673  1.00  0.00     0.010 A 
ATOM     26  C   UNL     1       2.162 -11.276   3.615  1.00  0.00     0.010 A 
ATOM     27  C   UNL     1       2.522 -10.100   4.278  1.00  0.00    -0.014 A 
BRANCH  27  28
ATOM     28  C   UNL     1       3.019 -10.146   5.645  1.00  0.00     0.031 A 
ATOM     29  C   UNL     1       2.094  -9.619   6.685  1.00  0.00     0.074 A 
ATOM     30  C   UNL     1       4.162 -10.783   5.966  1.00  0.00     0.049 A 
ATOM     31  N   UNL     1       2.326  -8.753   7.618  1.00  0.00    -0.248 NA
ATOM     32  C   UNL     1       0.702 -10.096   6.635  1.00  0.00     0.031 C 
ATOM     33  C   UNL     1       5.000 -11.622   5.103  1.00  0.00     0.029 A 
ATOM     34  N   UNL     1       4.744 -10.916   7.189  1.00  0.00    -0.354 N 
ATOM     35  C   UNL     1       1.152  -8.681   8.365  1.00  0.00     0.074 A 
ATOM     36  C   UNL     1       0.157  -9.449   7.662  1.00  0.00     0.031 C 
ATOM     37  C   UNL     1       5.833 -12.354   5.876  1.00  0.00     0.029 A 
ATOM     38  C   UNL     1       5.671 -11.943   7.260  1.00  0.00     0.049 A 
ATOM     39  H   UNL     1       4.526 -10.336   7.953  1.00  0.00     0.167 HD
ATOM     40  C   UNL     1       1.098  -8.138   9.610  1.00  0.00     0.037 A 
ATOM     41  C   UNL     1       6.186 -12.478   8.392  1.00  0.00     0.037 A 
ATOM     42  C   UNL     1       2.201  -7.268   9.886  1.00  0.00     0.049 A 
ATOM     43  C   UNL     1       5.950 -11.519   9.499  1.00  0.00     0.074 A 
ATOM     44  C   UNL     1       2.656  -6.080   9.350  1.00  0.00     0.029 A 
ATOM     45  N   UNL     1       3.226  -7.740  10.663  1.00  0.00    -0.354 N 
ATOM     46  N   UNL     1       6.536 -10.361   9.619  1.00  0.00    -0.248 NA
ATOM     47  C   UNL     1       4.757 -11.700  10.312  1.00  0.00     0.031 C 
ATOM     48  C   UNL     1       4.076  -6.143   9.452  1.00  0.00     0.029 A 
ATOM     49  C   UNL     1       4.395  -7.361  10.054  1.00  0.00     0.049 A 
ATOM     50  H   UNL     1       3.140  -8.254  11.499  1.00  0.00     0.167 HD
ATOM     51  C   UNL     1       5.582  -9.538  10.199  1.00  0.00     0.074 A 
ATOM     52  C   UNL     1       4.558 -10.442  10.708  1.00  0.00     0.031 C 
ATOM     53  C   UNL     1       5.575  -8.192   9.973  1.00  0.00     0.037 A 
BRANCH  40  54
ATOM     54  C   UNL     1       0.161  -8.635  10.670  1.00  0.00     0.057 A 
ATOM     55  C   UNL     1      -0.146  -7.842  11.785  1.00  0.00     0.134 A 
ATOM     56  C   UNL     1      -0.259  -9.980  10.744  1.00  0.00     0.134 A 
ATOM     57  F   UNL     1       0.251  -6.562  11.847  1.00  0.00    -0.206 F 
ATOM     58  C   UNL     1      -0.819  -8.356  12.900  1.00  0.00     0.040 A 
ATOM     59  C   UNL     1      -0.973 -10.490  11.828  1.00  0.00     0.040 A 
ATOM     60  F   UNL     1       0.083 -10.877   9.808  1.00  0.00    -0.206 F 
ATOM     61  C   UNL     1      -1.240  -9.682  12.922  1.00  0.00     0.006 A 
ENDBRANCH  40  54
BRANCH  41  62
ATOM     62  C   UNL     1       6.574 -13.885   8.640  1.00  0.00     0.057 A 
ATOM     63  C   UNL     1       7.370 -14.228   9.740  1.00  0.00     0.134 A 
ATOM     64  C   UNL     1       5.959 -14.955   7.965  1.00  0.00     0.134 A 
ATOM     65  F   UNL     1       7.964 -13.275  10.474  1.00  0.00    -0.206 F 
ATOM     66  C   UNL     1       7.528 -15.555  10.161  1.00  0.00     0.040 A 
ATOM     67  C   UNL     1       6.120 -16.285   8.365  1.00  0.00     0.040 A 
ATOM     68  F   UNL     1       5.111 -14.744   6.949  1.00  0.00    -0.206 F 
ATOM     69  C   UNL     1       6.894 -16.588   9.477  1.00  0.00     0.006 A 
ENDBRANCH  41  62
BRANCH  53  70
ATOM     70  C   UNL     1       6.781  -7.586   9.312  1.00  0.00     0.057 A 
ATOM     71  C   UNL     1       7.177  -7.883   8.000  1.00  0.00     0.134 A 
ATOM     72  C   UNL     1       7.467  -6.553   9.962  1.00  0.00     0.134 A 
ATOM     73  F   UNL     1       6.513  -8.782   7.263  1.00  0.00    -0.206 F 
ATOM     74  C   UNL     1       8.237  -7.214   7.380  1.00  0.00     0.040 A 
ATOM     75  C   UNL     1       8.505  -5.854   9.341  1.00  0.00     0.040 A 
ATOM     76  F   UNL     1       7.102  -6.171  11.197  1.00  0.00    -0.206 F 
ATOM     77  C   UNL     1       8.900  -6.190   8.049  1.00  0.00     0.006 A 
ENDBRANCH  53  70
ENDBRANCH  27  28
ENDBRANCH  20  22
ENDBRANCH  19  20
ENDBRANCH   1  19
TORSDOF 13
