REMARK SMILES O=C(OCCOC(=O)c1ccccc1Nc1cccc(C(F)(F)F)c1)c1ccc(-c2c3nc(c(-c4c(F)cccc4F)c4ccc([nH]4)c(-c4c(F)cccc4F)c4nc(c(-c5c(F)cccc5F)c5ccc2[nH]5)C=C4)C=C3)cc1
REMARK SMILES IDX 5 1 4 2 3 3 2 4 1 5 26 6 27 7 79 8 28 9 78 10 29 11 30 12
REMARK SMILES IDX 31 13 72 14 32 15 77 16 71 17 73 18 33 19 76 20 70 21 69 22
REMARK SMILES IDX 34 24 60 25 43 26 59 27 44 28 47 29 58 30 74 31 45 32 46 33
REMARK SMILES IDX 57 35 75 36 48 37 35 38 36 39 41 40 37 41 38 42 40 43 42 44
REMARK SMILES IDX 39 45 61 46 62 47 67 48 63 49 64 50 66 51 68 52 65 53 49 54
REMARK SMILES IDX 50 55 55 56 51 57 52 58 54 59 56 60 53 61 6 62 7 63 8 64
REMARK SMILES IDX 9 65 10 66 14 67 11 68 13 69 12 70 15 71 16 73 17 74 25 75
REMARK SMILES IDX 18 76 20 77 19 78 21 79 22 80 23 81 24 82
REMARK H PARENT 73 23 47 34 15 72
REMARK Flexibility Score: inf
ROOT
ATOM      1  C   UNL     1       4.153   2.056   0.191  1.00  0.00     0.275 C 
ENDROOT
BRANCH   1   2
ATOM      2  C   UNL     1       4.187   1.141  -1.039  1.00  0.00     0.275 C 
BRANCH   2   3
ATOM      3  O   UNL     1       3.136   0.160  -1.128  1.00  0.00    -0.458 OA
BRANCH   3   4
ATOM      4  C   UNL     1       2.972  -1.032  -0.506  1.00  0.00     0.338 C 
ATOM      5  O   UNL     1       2.006  -1.729  -0.816  1.00  0.00    -0.246 OA
BRANCH   4   6
ATOM      6  C   UNL     1       3.838  -1.516   0.616  1.00  0.00     0.060 A 
ATOM      7  C   UNL     1       5.170  -1.161   0.817  1.00  0.00     0.016 A 
ATOM      8  C   UNL     1       3.264  -2.432   1.520  1.00  0.00     0.016 A 
ATOM      9  C   UNL     1       5.901  -1.666   1.895  1.00  0.00     0.010 A 
ATOM     10  C   UNL     1       3.985  -2.924   2.618  1.00  0.00     0.010 A 
ATOM     11  C   UNL     1       5.324  -2.553   2.804  1.00  0.00    -0.014 A 
BRANCH  11  12
ATOM     12  C   UNL     1       6.194  -3.229   3.802  1.00  0.00     0.031 A 
ATOM     13  C   UNL     1       6.543  -4.673   3.564  1.00  0.00     0.074 A 
ATOM     14  C   UNL     1       6.811  -2.550   4.795  1.00  0.00     0.049 A 
ATOM     15  N   UNL     1       7.318  -5.456   4.267  1.00  0.00    -0.248 NA
ATOM     16  C   UNL     1       6.030  -5.293   2.327  1.00  0.00     0.031 C 
ATOM     17  C   UNL     1       6.778  -1.101   4.981  1.00  0.00     0.029 A 
ATOM     18  N   UNL     1       7.582  -2.985   5.849  1.00  0.00    -0.354 N 
ATOM     19  C   UNL     1       7.479  -6.602   3.502  1.00  0.00     0.074 A 
ATOM     20  C   UNL     1       6.619  -6.479   2.349  1.00  0.00     0.031 C 
ATOM     21  C   UNL     1       7.396  -0.783   6.133  1.00  0.00     0.029 A 
ATOM     22  C   UNL     1       7.825  -2.001   6.791  1.00  0.00     0.049 A 
ATOM     23  H   UNL     1       7.926  -3.904   5.926  1.00  0.00     0.167 HD
ATOM     24  C   UNL     1       8.342  -7.623   3.709  1.00  0.00     0.037 A 
ATOM     25  C   UNL     1       8.254  -2.112   8.066  1.00  0.00     0.037 A 
ATOM     26  C   UNL     1       9.160  -7.740   4.886  1.00  0.00     0.049 A 
ATOM     27  C   UNL     1       8.813  -3.434   8.476  1.00  0.00     0.074 A 
ATOM     28  C   UNL     1      10.074  -8.723   5.215  1.00  0.00     0.029 A 
ATOM     29  N   UNL     1       9.135  -6.844   5.947  1.00  0.00    -0.354 N 
ATOM     30  N   UNL     1       8.919  -4.534   7.774  1.00  0.00    -0.248 NA
ATOM     31  C   UNL     1       9.410  -3.496   9.813  1.00  0.00     0.031 C 
ATOM     32  C   UNL     1      10.555  -8.456   6.502  1.00  0.00     0.029 A 
ATOM     33  C   UNL     1       9.983  -7.277   6.952  1.00  0.00     0.049 A 
ATOM     34  H   UNL     1       8.594  -6.022   5.979  1.00  0.00     0.167 HD
ATOM     35  C   UNL     1       9.684  -5.390   8.543  1.00  0.00     0.074 A 
ATOM     36  C   UNL     1       9.948  -4.704   9.794  1.00  0.00     0.031 C 
ATOM     37  C   UNL     1      10.194  -6.599   8.205  1.00  0.00     0.037 A 
BRANCH  24  38
ATOM     38  C   UNL     1       8.448  -8.661   2.632  1.00  0.00     0.057 A 
ATOM     39  C   UNL     1       9.049  -8.376   1.396  1.00  0.00     0.134 A 
ATOM     40  C   UNL     1       7.965  -9.958   2.829  1.00  0.00     0.134 A 
ATOM     41  F   UNL     1       9.516  -7.146   1.133  1.00  0.00    -0.206 F 
ATOM     42  C   UNL     1       9.150  -9.340   0.392  1.00  0.00     0.040 A 
ATOM     43  C   UNL     1       8.079 -10.937   1.840  1.00  0.00     0.040 A 
ATOM     44  F   UNL     1       7.374 -10.296   3.985  1.00  0.00    -0.206 F 
ATOM     45  C   UNL     1       8.670 -10.628   0.616  1.00  0.00     0.006 A 
ENDBRANCH  24  38
BRANCH  25  46
ATOM     46  C   UNL     1       8.137  -1.024   9.080  1.00  0.00     0.057 A 
ATOM     47  C   UNL     1       9.037   0.037   9.172  1.00  0.00     0.134 A 
ATOM     48  C   UNL     1       7.146  -1.096  10.077  1.00  0.00     0.134 A 
ATOM     49  F   UNL     1      10.075   0.117   8.329  1.00  0.00    -0.206 F 
ATOM     50  C   UNL     1       8.918   1.015  10.170  1.00  0.00     0.040 A 
ATOM     51  C   UNL     1       6.990  -0.109  11.053  1.00  0.00     0.040 A 
ATOM     52  F   UNL     1       6.334  -2.159  10.151  1.00  0.00    -0.206 F 
ATOM     53  C   UNL     1       7.876   0.959  11.097  1.00  0.00     0.006 A 
ENDBRANCH  25  46
BRANCH  37  54
ATOM     54  C   UNL     1      11.160  -7.179   9.186  1.00  0.00     0.057 A 
ATOM     55  C   UNL     1      10.755  -7.669  10.432  1.00  0.00     0.134 A 
ATOM     56  C   UNL     1      12.532  -7.151   8.905  1.00  0.00     0.134 A 
ATOM     57  F   UNL     1       9.457  -7.681  10.769  1.00  0.00    -0.206 F 
ATOM     58  C   UNL     1      11.689  -8.060  11.390  1.00  0.00     0.040 A 
ATOM     59  C   UNL     1      13.472  -7.574   9.841  1.00  0.00     0.040 A 
ATOM     60  F   UNL     1      12.980  -6.685   7.729  1.00  0.00    -0.206 F 
ATOM     61  C   UNL     1      13.051  -8.013  11.094  1.00  0.00     0.006 A 
ENDBRANCH  37  54
ENDBRANCH  11  12
ENDBRANCH   4   6
ENDBRANCH   3   4
ENDBRANCH   2   3
ENDBRANCH   1   2
BRANCH   1  62
ATOM     62  O   UNL     1       3.584   1.442   1.352  1.00  0.00    -0.458 OA
BRANCH  62  63
ATOM     63  C   UNL     1       2.230   1.545   1.423  1.00  0.00     0.340 C 
ATOM     64  O   UNL     1       1.511   2.156   0.661  1.00  0.00    -0.246 OA
BRANCH  63  65
ATOM     65  C   UNL     1       1.719   0.697   2.516  1.00  0.00     0.083 A 
ATOM     66  C   UNL     1       0.716  -0.229   2.166  1.00  0.00     0.018 A 
ATOM     67  C   UNL     1       2.166   0.810   3.839  1.00  0.00     0.053 A 
ATOM     68  C   UNL     1       0.166  -1.077   3.124  1.00  0.00     0.001 A 
ATOM     69  C   UNL     1       1.467   0.045   4.798  1.00  0.00     0.027 A 
ATOM     70  C   UNL     1       0.527  -0.925   4.450  1.00  0.00     0.002 A 
BRANCH  67  71
ATOM     71  N   UNL     1       3.308   1.571   4.202  1.00  0.00    -0.355 N 
ATOM     72  H   UNL     1       3.558   2.293   3.582  1.00  0.00     0.167 HD
BRANCH  71  73
ATOM     73  C   UNL     1       4.128   1.422   5.337  1.00  0.00     0.039 A 
ATOM     74  C   UNL     1       4.853   2.487   5.868  1.00  0.00     0.026 A 
ATOM     75  C   UNL     1       4.115   0.226   6.054  1.00  0.00     0.039 A 
ATOM     76  C   UNL     1       5.450   2.370   7.131  1.00  0.00     0.003 A 
ATOM     77  C   UNL     1       4.572   0.123   7.365  1.00  0.00     0.058 A 
ATOM     78  C   UNL     1       5.262   1.213   7.898  1.00  0.00     0.013 A 
BRANCH  77  79
ATOM     79  C   UNL     1       4.266  -1.158   8.099  1.00  0.00     0.416 C 
ATOM     80  F   UNL     1       5.271  -2.060   8.057  1.00  0.00    -0.166 F 
ATOM     81  F   UNL     1       3.971  -0.952   9.411  1.00  0.00    -0.166 F 
ATOM     82  F   UNL     1       3.183  -1.813   7.582  1.00  0.00    -0.166 F 
ENDBRANCH  77  79
ENDBRANCH  71  73
ENDBRANCH  67  71
ENDBRANCH  63  65
ENDBRANCH  62  63
ENDBRANCH   1  62
TORSDOF 14
