REMARK SMILES O=C(CN(Cc1ccccc1Cl)S(=O)(=O)c1ccc(Cl)cc1)OCCOC(=O)c1ccc(-c2c3nc(c(-c4c(F)cccc4F)c4ccc([nH]4)c(-c4c(F)cccc4F)c4nc(c(-c5c(F)cccc5F)c5ccc2[nH]5)C=C4)C=C3)cc1
REMARK SMILES IDX 24 1 23 2 2 3 1 4 3 5 4 6 5 7 6 8 7 9 11 10 8 11 10 12 12 13
REMARK SMILES IDX 9 14 13 15 14 16 15 17 16 18 17 19 22 20 18 21 21 22 19 23
REMARK SMILES IDX 20 24 25 25 26 26 27 27 28 28 29 29 30 30 82 31 31 32 81 33
REMARK SMILES IDX 32 34 33 35 34 36 75 37 35 38 80 39 74 40 76 41 36 42 79 43
REMARK SMILES IDX 73 44 72 45 37 47 63 48 46 49 62 50 47 51 50 52 61 53 77 54
REMARK SMILES IDX 48 55 49 56 60 58 78 59 51 60 38 61 39 62 44 63 40 64 41 65
REMARK SMILES IDX 43 66 45 67 42 68 64 69 65 70 70 71 66 72 67 73 69 74 71 75
REMARK SMILES IDX 68 76 52 77 53 78 58 79 54 80 55 81 57 82 59 83 56 84
REMARK H PARENT 76 46 50 57
REMARK Flexibility Score: inf
ROOT
ATOM      1  C   UNL     1       4.339   0.285   1.072  1.00  0.00     0.274 C 
ENDROOT
BRANCH   1   2
ATOM      2  O   UNL     1       2.983   0.769   0.979  1.00  0.00    -0.461 OA
BRANCH   2   3
ATOM      3  C   UNL     1       2.257   0.801  -0.165  1.00  0.00     0.321 C 
ATOM      4  O   UNL     1       1.071   1.124  -0.144  1.00  0.00    -0.251 OA
BRANCH   3   5
ATOM      5  C   UNL     1       2.921   0.351  -1.435  1.00  0.00     0.225 C 
BRANCH   5   6
ATOM      6  N   UNL     1       3.880   1.294  -2.139  1.00  0.00    -0.182 NA
BRANCH   6   7
ATOM      7  C   UNL     1       4.876   0.535  -2.924  1.00  0.00     0.140 C 
BRANCH   7   8
ATOM      8  C   UNL     1       4.253  -0.427  -3.905  1.00  0.00    -0.014 A 
ATOM      9  C   UNL     1       3.280  -0.031  -4.861  1.00  0.00     0.006 A 
ATOM     10  C   UNL     1       4.348  -1.761  -3.603  1.00  0.00     0.045 A 
ATOM     11  C   UNL     1       2.241  -0.865  -5.249  1.00  0.00     0.000 A 
ATOM     12  C   UNL     1       3.252  -2.524  -3.897  1.00  0.00     0.021 A 
ATOM     13  Cl  UNL     1       5.648  -2.486  -2.733  1.00  0.00    -0.084 Cl
ATOM     14  C   UNL     1       2.177  -2.104  -4.680  1.00  0.00     0.002 A 
ENDBRANCH   7   8
ENDBRANCH   6   7
BRANCH   6  15
ATOM     15  S   UNL     1       3.062   2.622  -2.823  1.00  0.00     0.243 S 
ATOM     16  O   UNL     1       1.918   2.142  -3.566  1.00  0.00    -0.207 OA
ATOM     17  O   UNL     1       2.875   3.540  -1.718  1.00  0.00    -0.207 OA
BRANCH  15  18
ATOM     18  C   UNL     1       4.109   3.464  -4.025  1.00  0.00     0.082 A 
ATOM     19  C   UNL     1       4.944   2.834  -4.961  1.00  0.00     0.023 A 
ATOM     20  C   UNL     1       3.966   4.850  -4.106  1.00  0.00     0.023 A 
ATOM     21  C   UNL     1       5.672   3.557  -5.905  1.00  0.00     0.022 A 
ATOM     22  C   UNL     1       4.671   5.578  -5.073  1.00  0.00     0.022 A 
ATOM     23  C   UNL     1       5.532   4.931  -5.957  1.00  0.00     0.041 A 
ATOM     24  Cl  UNL     1       6.407   5.821  -7.135  1.00  0.00    -0.084 Cl
ENDBRANCH  15  18
ENDBRANCH   6  15
ENDBRANCH   5   6
ENDBRANCH   3   5
ENDBRANCH   2   3
ENDBRANCH   1   2
BRANCH   1  25
ATOM     25  C   UNL     1       4.391  -1.157   1.593  1.00  0.00     0.275 C 
BRANCH  25  26
ATOM     26  O   UNL     1       3.988  -2.125   0.594  1.00  0.00    -0.458 OA
BRANCH  26  27
ATOM     27  C   UNL     1       2.718  -2.610   0.692  1.00  0.00     0.338 C 
ATOM     28  O   UNL     1       1.877  -2.268   1.492  1.00  0.00    -0.246 OA
BRANCH  27  29
ATOM     29  C   UNL     1       2.447  -3.542  -0.439  1.00  0.00     0.060 A 
ATOM     30  C   UNL     1       1.264  -3.383  -1.170  1.00  0.00     0.016 A 
ATOM     31  C   UNL     1       3.337  -4.566  -0.789  1.00  0.00     0.016 A 
ATOM     32  C   UNL     1       1.013  -4.197  -2.291  1.00  0.00     0.010 A 
ATOM     33  C   UNL     1       3.079  -5.390  -1.905  1.00  0.00     0.010 A 
ATOM     34  C   UNL     1       1.940  -5.184  -2.704  1.00  0.00    -0.014 A 
BRANCH  34  35
ATOM     35  C   UNL     1       1.648  -6.039  -3.904  1.00  0.00     0.031 A 
ATOM     36  C   UNL     1       0.854  -7.264  -3.635  1.00  0.00     0.074 A 
ATOM     37  C   UNL     1       2.070  -5.832  -5.177  1.00  0.00     0.049 A 
ATOM     38  N   UNL     1       0.615  -8.260  -4.438  1.00  0.00    -0.248 NA
ATOM     39  C   UNL     1       0.414  -7.458  -2.247  1.00  0.00     0.031 C 
ATOM     40  C   UNL     1       3.076  -4.882  -5.596  1.00  0.00     0.029 A 
ATOM     41  N   UNL     1       1.685  -6.375  -6.387  1.00  0.00    -0.354 N 
ATOM     42  C   UNL     1       0.115  -9.256  -3.625  1.00  0.00     0.074 A 
ATOM     43  C   UNL     1       0.052  -8.727  -2.280  1.00  0.00     0.031 C 
ATOM     44  C   UNL     1       2.995  -4.643  -6.910  1.00  0.00     0.029 A 
ATOM     45  C   UNL     1       2.183  -5.695  -7.488  1.00  0.00     0.049 A 
ATOM     46  H   UNL     1       1.110  -7.171  -6.461  1.00  0.00     0.167 HD
ATOM     47  C   UNL     1      -0.190 -10.523  -3.976  1.00  0.00     0.037 A 
ATOM     48  C   UNL     1       2.143  -5.951  -8.814  1.00  0.00     0.037 A 
ATOM     49  C   UNL     1      -0.087 -11.023  -5.319  1.00  0.00     0.049 A 
ATOM     50  C   UNL     1       1.678  -7.320  -9.204  1.00  0.00     0.074 A 
ATOM     51  C   UNL     1      -0.403 -12.282  -5.790  1.00  0.00     0.029 A 
ATOM     52  N   UNL     1       0.374 -10.289  -6.409  1.00  0.00    -0.354 N 
ATOM     53  N   UNL     1       1.234  -8.274  -8.424  1.00  0.00    -0.248 NA
ATOM     54  C   UNL     1       1.820  -7.702 -10.614  1.00  0.00     0.031 C 
ATOM     55  C   UNL     1      -0.106 -12.322  -7.156  1.00  0.00     0.029 A 
ATOM     56  C   UNL     1       0.337 -11.069  -7.553  1.00  0.00     0.049 A 
ATOM     57  H   UNL     1       0.682  -9.355  -6.371  1.00  0.00     0.167 HD
ATOM     58  C   UNL     1       1.076  -9.383  -9.234  1.00  0.00     0.074 A 
ATOM     59  C   UNL     1       1.436  -8.972 -10.579  1.00  0.00     0.031 C 
ATOM     60  C   UNL     1       0.689 -10.632  -8.884  1.00  0.00     0.037 A 
BRANCH  47  61
ATOM     61  C   UNL     1      -0.556 -11.434  -2.846  1.00  0.00     0.057 A 
ATOM     62  C   UNL     1      -1.712 -11.239  -2.077  1.00  0.00     0.134 A 
ATOM     63  C   UNL     1       0.329 -12.441  -2.444  1.00  0.00     0.134 A 
ATOM     64  F   UNL     1      -2.575 -10.257  -2.384  1.00  0.00    -0.206 F 
ATOM     65  C   UNL     1      -1.941 -11.968  -0.911  1.00  0.00     0.040 A 
ATOM     66  C   UNL     1       0.087 -13.207  -1.304  1.00  0.00     0.040 A 
ATOM     67  F   UNL     1       1.461 -12.669  -3.126  1.00  0.00    -0.206 F 
ATOM     68  C   UNL     1      -1.040 -12.957  -0.523  1.00  0.00     0.006 A 
ENDBRANCH  47  61
BRANCH  48  69
ATOM     69  C   UNL     1       2.717  -5.009  -9.825  1.00  0.00     0.057 A 
ATOM     70  C   UNL     1       1.902  -4.389 -10.783  1.00  0.00     0.134 A 
ATOM     71  C   UNL     1       4.080  -4.681  -9.859  1.00  0.00     0.134 A 
ATOM     72  F   UNL     1       0.598  -4.695 -10.859  1.00  0.00    -0.206 F 
ATOM     73  C   UNL     1       2.410  -3.461 -11.701  1.00  0.00     0.040 A 
ATOM     74  C   UNL     1       4.594  -3.723 -10.738  1.00  0.00     0.040 A 
ATOM     75  F   UNL     1       4.938  -5.261  -9.007  1.00  0.00    -0.206 F 
ATOM     76  C   UNL     1       3.757  -3.107 -11.663  1.00  0.00     0.006 A 
ENDBRANCH  48  69
BRANCH  60  77
ATOM     77  C   UNL     1       0.548 -11.622  -9.995  1.00  0.00     0.057 A 
ATOM     78  C   UNL     1       1.651 -12.232 -10.603  1.00  0.00     0.134 A 
ATOM     79  C   UNL     1      -0.729 -11.997 -10.428  1.00  0.00     0.134 A 
ATOM     80  F   UNL     1       2.900 -11.895 -10.246  1.00  0.00    -0.206 F 
ATOM     81  C   UNL     1       1.486 -13.180 -11.613  1.00  0.00     0.040 A 
ATOM     82  C   UNL     1      -0.907 -12.960 -11.417  1.00  0.00     0.040 A 
ATOM     83  F   UNL     1      -1.821 -11.442  -9.881  1.00  0.00    -0.206 F 
ATOM     84  C   UNL     1       0.203 -13.553 -12.014  1.00  0.00     0.006 A 
ENDBRANCH  60  77
ENDBRANCH  34  35
ENDBRANCH  27  29
ENDBRANCH  26  27
ENDBRANCH  25  26
ENDBRANCH   1  25
TORSDOF 16
