REMARK SMILES Cc1cccc(-c2ccccc2C(=O)N2CC[C@H](O)C[C@@H]2C(=O)OCCOC(=O)c2ccc(-c3c4nc(c(-c5c(F)cccc5F)c5ccc([nH]5)c(-c5c(F)cccc5F)c5nc(c(-c6c(F)cccc6F)c6ccc3[nH]6)C=C5)C=C4)cc2)c1
REMARK SMILES IDX 25 1 24 2 22 3 23 4 21 5 15 6 16 7 17 8 20 9 18 10 13 11
REMARK SMILES IDX 14 12 12 13 7 14 8 15 9 16 11 17 10 18 6 19 1 20 2 21 3 22
REMARK SMILES IDX 84 23 4 24 5 25 19 26 26 28 27 29 28 30 29 31 30 32 31 33
REMARK SMILES IDX 83 34 32 35 82 36 33 37 34 38 35 39 76 40 36 41 81 42 75 43
REMARK SMILES IDX 77 44 37 45 80 46 74 47 73 48 38 50 64 51 47 52 63 53 48 54
REMARK SMILES IDX 51 55 62 56 78 57 49 58 50 59 61 61 79 62 52 63 39 64 40 65
REMARK SMILES IDX 45 66 41 67 42 68 44 69 46 70 43 71 65 72 66 73 71 74 67 75
REMARK SMILES IDX 68 76 70 77 72 78 69 79 53 80 54 81 59 82 55 83 56 84 58 85
REMARK SMILES IDX 60 86 57 87
REMARK H PARENT 19 27 77 49 51 60
REMARK Flexibility Score: inf
ROOT
ATOM      1  C   UNL     1      -3.715   5.219  -3.694  1.00  0.00     0.274 C 
ENDROOT
BRANCH   1   2
ATOM      2  O   UNL     1      -2.335   4.881  -3.495  1.00  0.00    -0.461 OA
BRANCH   2   3
ATOM      3  C   UNL     1      -1.826   3.837  -4.229  1.00  0.00     0.329 C 
ATOM      4  O   UNL     1      -2.429   3.294  -5.148  1.00  0.00    -0.250 OA
BRANCH   3   5
ATOM      5  C   UNL     1      -0.412   3.402  -3.749  1.00  0.00     0.198 C 
ATOM      6  N   UNL     1      -0.316   3.732  -2.330  1.00  0.00    -0.325 N 
ATOM      7  C   UNL     1       0.285   5.010  -1.969  1.00  0.00     0.123 C 
ATOM      8  C   UNL     1       1.707   5.073  -2.493  1.00  0.00     0.053 C 
ATOM      9  C   UNL     1       0.827   3.777  -4.567  1.00  0.00     0.069 C 
ATOM     10  C   UNL     1       1.778   4.841  -3.998  1.00  0.00     0.118 C 
BRANCH   6  11
ATOM     11  C   UNL     1      -1.085   2.885  -1.537  1.00  0.00     0.255 C 
ATOM     12  O   UNL     1      -1.449   1.786  -1.962  1.00  0.00    -0.269 OA
BRANCH  11  13
ATOM     13  C   UNL     1      -1.689   3.329  -0.264  1.00  0.00     0.047 A 
ATOM     14  C   UNL     1      -1.847   2.382   0.775  1.00  0.00    -0.006 A 
ATOM     15  C   UNL     1      -2.776   2.677   1.784  1.00  0.00     0.009 A 
ATOM     16  C   UNL     1      -3.510   3.870   1.766  1.00  0.00     0.001 A 
ATOM     17  C   UNL     1      -2.398   4.540  -0.255  1.00  0.00     0.014 A 
ATOM     18  C   UNL     1      -3.310   4.809   0.758  1.00  0.00     0.001 A 
BRANCH  14  19
ATOM     19  C   UNL     1      -1.123   1.093   0.748  1.00  0.00    -0.017 A 
ATOM     20  C   UNL     1       2.474  -0.107   0.250  1.00  0.00     0.044 C 
ATOM     21  C   UNL     1       0.983  -0.116   0.418  1.00  0.00    -0.051 A 
ATOM     22  C   UNL     1       0.266  -1.304   0.248  1.00  0.00     0.003 A 
ATOM     23  C   UNL     1       0.285   1.067   0.699  1.00  0.00     0.012 A 
ATOM     24  C   UNL     1      -1.125  -1.306   0.335  1.00  0.00     0.001 A 
ATOM     25  C   UNL     1      -1.815  -0.116   0.580  1.00  0.00     0.009 A 
ENDBRANCH  14  19
ENDBRANCH  11  13
ENDBRANCH   6  11
BRANCH  10  26
ATOM     26  O   UNL     1       1.649   6.069  -4.709  1.00  0.00    -0.393 OA
ATOM     27  H   UNL     1       0.762   6.436  -4.564  1.00  0.00     0.210 HD
ENDBRANCH  10  26
ENDBRANCH   3   5
ENDBRANCH   2   3
ENDBRANCH   1   2
BRANCH   1  28
ATOM     28  C   UNL     1      -4.003   6.704  -3.384  1.00  0.00     0.275 C 
BRANCH  28  29
ATOM     29  O   UNL     1      -2.904   7.657  -3.475  1.00  0.00    -0.458 OA
BRANCH  29  30
ATOM     30  C   UNL     1      -1.949   7.727  -4.438  1.00  0.00     0.338 C 
ATOM     31  O   UNL     1      -0.859   8.235  -4.249  1.00  0.00    -0.246 OA
BRANCH  30  32
ATOM     32  C   UNL     1      -2.245   7.023  -5.691  1.00  0.00     0.060 A 
ATOM     33  C   UNL     1      -1.254   6.169  -6.180  1.00  0.00     0.016 A 
ATOM     34  C   UNL     1      -3.514   7.067  -6.255  1.00  0.00     0.016 A 
ATOM     35  C   UNL     1      -1.552   5.237  -7.149  1.00  0.00     0.010 A 
ATOM     36  C   UNL     1      -3.850   6.090  -7.160  1.00  0.00     0.010 A 
ATOM     37  C   UNL     1      -2.862   5.196  -7.602  1.00  0.00    -0.014 A 
BRANCH  37  38
ATOM     38  C   UNL     1      -3.174   4.527  -8.838  1.00  0.00     0.031 A 
ATOM     39  C   UNL     1      -3.509   3.100  -8.875  1.00  0.00     0.074 A 
ATOM     40  C   UNL     1      -3.118   5.405  -9.860  1.00  0.00     0.049 A 
ATOM     41  N   UNL     1      -3.238   2.340  -9.876  1.00  0.00    -0.248 NA
ATOM     42  C   UNL     1      -4.105   2.369  -7.753  1.00  0.00     0.031 C 
ATOM     43  C   UNL     1      -3.603   5.347 -11.217  1.00  0.00     0.029 A 
ATOM     44  N   UNL     1      -2.390   6.597  -9.823  1.00  0.00    -0.354 N 
ATOM     45  C   UNL     1      -3.983   1.195  -9.697  1.00  0.00     0.074 A 
ATOM     46  C   UNL     1      -4.320   1.162  -8.296  1.00  0.00     0.031 C 
ATOM     47  C   UNL     1      -2.964   6.298 -11.934  1.00  0.00     0.029 A 
ATOM     48  C   UNL     1      -1.921   6.885 -11.092  1.00  0.00     0.049 A 
ATOM     49  H   UNL     1      -2.235   7.146  -9.020  1.00  0.00     0.167 HD
ATOM     50  C   UNL     1      -4.474   0.558 -10.796  1.00  0.00     0.037 A 
ATOM     51  C   UNL     1      -0.570   6.772 -11.288  1.00  0.00     0.037 A 
ATOM     52  C   UNL     1      -4.070   1.270 -12.004  1.00  0.00     0.049 A 
ATOM     53  C   UNL     1      -0.215   5.548 -12.111  1.00  0.00     0.074 A 
ATOM     54  C   UNL     1      -4.669   2.269 -12.754  1.00  0.00     0.029 A 
ATOM     55  N   UNL     1      -2.730   1.310 -12.324  1.00  0.00    -0.354 N 
ATOM     56  N   UNL     1      -1.036   4.561 -12.346  1.00  0.00    -0.248 NA
ATOM     57  C   UNL     1       1.107   5.317 -12.687  1.00  0.00     0.031 C 
ATOM     58  C   UNL     1      -3.658   2.914 -13.523  1.00  0.00     0.029 A 
ATOM     59  C   UNL     1      -2.448   2.316 -13.225  1.00  0.00     0.049 A 
ATOM     60  H   UNL     1      -2.055   0.696 -11.954  1.00  0.00     0.167 HD
ATOM     61  C   UNL     1      -0.421   3.626 -13.123  1.00  0.00     0.074 A 
ATOM     62  C   UNL     1       0.938   4.118 -13.270  1.00  0.00     0.031 C 
ATOM     63  C   UNL     1      -1.062   2.521 -13.601  1.00  0.00     0.037 A 
BRANCH  50  64
ATOM     64  C   UNL     1      -5.575  -0.464 -10.753  1.00  0.00     0.057 A 
ATOM     65  C   UNL     1      -6.569  -0.489 -11.751  1.00  0.00     0.134 A 
ATOM     66  C   UNL     1      -5.708  -1.447  -9.759  1.00  0.00     0.134 A 
ATOM     67  F   UNL     1      -6.548   0.355 -12.789  1.00  0.00    -0.206 F 
ATOM     68  C   UNL     1      -7.647  -1.378 -11.730  1.00  0.00     0.040 A 
ATOM     69  C   UNL     1      -6.802  -2.328  -9.710  1.00  0.00     0.040 A 
ATOM     70  F   UNL     1      -4.772  -1.611  -8.812  1.00  0.00    -0.206 F 
ATOM     71  C   UNL     1      -7.780  -2.291 -10.697  1.00  0.00     0.006 A 
ENDBRANCH  50  64
BRANCH  51  72
ATOM     72  C   UNL     1       0.266   7.288 -10.148  1.00  0.00     0.057 A 
ATOM     73  C   UNL     1       0.049   8.599  -9.671  1.00  0.00     0.134 A 
ATOM     74  C   UNL     1       1.060   6.463  -9.345  1.00  0.00     0.134 A 
ATOM     75  F   UNL     1      -0.684   9.466 -10.387  1.00  0.00    -0.206 F 
ATOM     76  C   UNL     1       0.491   9.023  -8.412  1.00  0.00     0.040 A 
ATOM     77  C   UNL     1       1.535   6.887  -8.095  1.00  0.00     0.040 A 
ATOM     78  F   UNL     1       1.325   5.199  -9.705  1.00  0.00    -0.206 F 
ATOM     79  C   UNL     1       1.217   8.155  -7.609  1.00  0.00     0.006 A 
ENDBRANCH  51  72
BRANCH  63  80
ATOM     80  C   UNL     1      -0.410   1.528 -14.508  1.00  0.00     0.057 A 
ATOM     81  C   UNL     1       0.347   1.923 -15.615  1.00  0.00     0.134 A 
ATOM     82  C   UNL     1      -0.636   0.143 -14.375  1.00  0.00     0.134 A 
ATOM     83  F   UNL     1       0.551   3.220 -15.888  1.00  0.00    -0.206 F 
ATOM     84  C   UNL     1       0.902   0.994 -16.498  1.00  0.00     0.040 A 
ATOM     85  C   UNL     1      -0.143  -0.787 -15.287  1.00  0.00     0.040 A 
ATOM     86  F   UNL     1      -1.325  -0.372 -13.347  1.00  0.00    -0.206 F 
ATOM     87  C   UNL     1       0.648  -0.364 -16.342  1.00  0.00     0.006 A 
ENDBRANCH  63  80
ENDBRANCH  37  38
ENDBRANCH  30  32
ENDBRANCH  29  30
ENDBRANCH  28  29
ENDBRANCH   1  28
TORSDOF 15
