REMARK SMILES Cc1ccccc1-c1c(Cl)ccc2c1C=C(C(=O)OCCOC(=O)c1ccc(-c3c4nc(c(-c5c(F)cccc5F)c5ccc([nH]5)c(-c5c(F)cccc5F)c5nc(c(-c6c(F)cccc6F)c6ccc3[nH]6)C=C5)C=C4)cc1)[C@@H](C(F)(F)F)O2
REMARK SMILES IDX 21 1 20 2 19 3 17 4 18 5 16 6 8 7 9 8 14 9 10 10 11 11 13 12
REMARK SMILES IDX 15 13 12 14 84 15 79 16 7 17 1 18 2 19 3 20 4 21 6 22 5 23
REMARK SMILES IDX 80 24 81 25 82 26 83 27 22 28 23 29 24 30 25 31 26 32 78 33
REMARK SMILES IDX 27 34 77 35 28 36 29 37 30 38 71 39 31 40 76 41 70 42 72 43
REMARK SMILES IDX 32 44 75 45 69 46 68 47 33 49 59 50 42 51 58 52 43 53 46 54
REMARK SMILES IDX 57 55 73 56 44 57 45 58 56 60 74 61 47 62 34 63 35 64 40 65
REMARK SMILES IDX 36 66 37 67 39 68 41 69 38 70 60 71 61 72 66 73 62 74 63 75
REMARK SMILES IDX 65 76 67 77 64 78 48 79 49 80 54 81 50 82 51 83 53 84 55 85
REMARK SMILES IDX 52 86
REMARK H PARENT 72 48 46 59
REMARK Flexibility Score: inf
ROOT
ATOM      1  C   UNL     1       7.850   0.423  -3.545  1.00  0.00     0.275 C 
ENDROOT
BRANCH   1   2
ATOM      2  C   UNL     1       6.389   0.041  -3.243  1.00  0.00     0.275 C 
BRANCH   2   3
ATOM      3  O   UNL     1       5.393   1.002  -3.663  1.00  0.00    -0.459 OA
BRANCH   3   4
ATOM      4  C   UNL     1       4.128   0.577  -3.368  1.00  0.00     0.338 C 
ATOM      5  O   UNL     1       3.873  -0.572  -3.027  1.00  0.00    -0.246 OA
BRANCH   4   6
ATOM      6  C   UNL     1       3.142   1.681  -3.252  1.00  0.00     0.087 C 
ATOM      7  C   UNL     1       0.800   2.154  -0.426  1.00  0.00     0.012 A 
ATOM      8  C   UNL     1       0.712   3.161   0.576  1.00  0.00     0.049 A 
ATOM      9  C   UNL     1       1.608   2.454  -1.566  1.00  0.00     0.027 A 
ATOM     10  Cl  UNL     1      -0.072   2.891   2.105  1.00  0.00    -0.084 Cl
ATOM     11  C   UNL     1       1.293   4.424   0.410  1.00  0.00     0.025 A 
ATOM     12  C   UNL     1       2.198   3.731  -1.704  1.00  0.00     0.128 A 
ATOM     13  C   UNL     1       2.072   1.408  -2.490  1.00  0.00     0.028 C 
ATOM     14  C   UNL     1       2.006   4.719  -0.744  1.00  0.00     0.049 A 
ATOM     15  O   UNL     1       3.078   4.071  -2.706  1.00  0.00    -0.475 OA
ATOM     16  C   UNL     1       3.323   3.082  -3.737  1.00  0.00     0.316 C 
BRANCH   7  17
ATOM     17  C   UNL     1      -0.006   0.894  -0.290  1.00  0.00    -0.013 A 
ATOM     18  C   UNL     1       1.950  -0.810  -0.241  1.00  0.00     0.045 C 
ATOM     19  C   UNL     1       0.497  -0.426  -0.194  1.00  0.00    -0.043 A 
ATOM     20  C   UNL     1      -0.396  -1.514  -0.078  1.00  0.00     0.004 A 
ATOM     21  C   UNL     1      -1.770  -1.325   0.001  1.00  0.00     0.000 A 
ATOM     22  C   UNL     1      -1.415   1.044  -0.228  1.00  0.00     0.009 A 
ATOM     23  C   UNL     1      -2.281  -0.040  -0.062  1.00  0.00     0.001 A 
ENDBRANCH   7  17
BRANCH  16  24
ATOM     24  C   UNL     1       2.386   3.347  -4.934  1.00  0.00     0.430 C 
ATOM     25  F   UNL     1       2.586   4.581  -5.454  1.00  0.00    -0.167 F 
ATOM     26  F   UNL     1       2.604   2.455  -5.931  1.00  0.00    -0.167 F 
ATOM     27  F   UNL     1       1.076   3.263  -4.601  1.00  0.00    -0.167 F 
ENDBRANCH  16  24
ENDBRANCH   4   6
ENDBRANCH   3   4
ENDBRANCH   2   3
ENDBRANCH   1   2
BRANCH   1  28
ATOM     28  O   UNL     1       8.113   1.793  -3.934  1.00  0.00    -0.458 OA
BRANCH  28  29
ATOM     29  C   UNL     1       7.737   2.906  -3.243  1.00  0.00     0.338 C 
ATOM     30  O   UNL     1       7.688   4.008  -3.732  1.00  0.00    -0.246 OA
BRANCH  29  31
ATOM     31  C   UNL     1       7.303   2.658  -1.860  1.00  0.00     0.060 A 
ATOM     32  C   UNL     1       6.024   3.076  -1.486  1.00  0.00     0.016 A 
ATOM     33  C   UNL     1       8.104   1.895  -1.016  1.00  0.00     0.016 A 
ATOM     34  C   UNL     1       5.485   2.635  -0.290  1.00  0.00     0.010 A 
ATOM     35  C   UNL     1       7.542   1.373   0.123  1.00  0.00     0.010 A 
ATOM     36  C   UNL     1       6.251   1.770   0.494  1.00  0.00    -0.014 A 
BRANCH  36  37
ATOM     37  C   UNL     1       5.934   1.554   1.894  1.00  0.00     0.031 A 
ATOM     38  C   UNL     1       4.871   0.620   2.269  1.00  0.00     0.074 A 
ATOM     39  C   UNL     1       6.635   2.368   2.709  1.00  0.00     0.049 A 
ATOM     40  N   UNL     1       3.795   0.934   2.904  1.00  0.00    -0.248 NA
ATOM     41  C   UNL     1       4.922  -0.781   1.851  1.00  0.00     0.031 C 
ATOM     42  C   UNL     1       6.663   2.501   4.149  1.00  0.00     0.029 A 
ATOM     43  N   UNL     1       7.382   3.464   2.247  1.00  0.00    -0.354 N 
ATOM     44  C   UNL     1       3.218  -0.266   3.275  1.00  0.00     0.074 A 
ATOM     45  C   UNL     1       3.839  -1.281   2.457  1.00  0.00     0.031 C 
ATOM     46  C   UNL     1       7.098   3.747   4.439  1.00  0.00     0.029 A 
ATOM     47  C   UNL     1       7.246   4.480   3.180  1.00  0.00     0.049 A 
ATOM     48  H   UNL     1       7.905   3.504   1.414  1.00  0.00     0.167 HD
ATOM     49  C   UNL     1       2.565  -0.394   4.466  1.00  0.00     0.037 A 
ATOM     50  C   UNL     1       6.575   5.610   2.815  1.00  0.00     0.037 A 
ATOM     51  C   UNL     1       2.858   0.771   5.282  1.00  0.00     0.049 A 
ATOM     52  C   UNL     1       5.331   5.748   3.646  1.00  0.00     0.074 A 
ATOM     53  C   UNL     1       3.951   0.979   6.111  1.00  0.00     0.029 A 
ATOM     54  N   UNL     1       2.322   2.019   4.996  1.00  0.00    -0.354 N 
ATOM     55  N   UNL     1       4.549   4.753   3.969  1.00  0.00    -0.248 NA
ATOM     56  C   UNL     1       4.941   7.018   4.241  1.00  0.00     0.031 C 
ATOM     57  C   UNL     1       4.107   2.365   6.287  1.00  0.00     0.029 A 
ATOM     58  C   UNL     1       3.103   3.002   5.580  1.00  0.00     0.049 A 
ATOM     59  H   UNL     1       1.512   2.181   4.460  1.00  0.00     0.167 HD
ATOM     60  C   UNL     1       3.622   5.214   4.872  1.00  0.00     0.074 A 
ATOM     61  C   UNL     1       3.896   6.636   4.990  1.00  0.00     0.031 C 
ATOM     62  C   UNL     1       2.740   4.401   5.525  1.00  0.00     0.037 A 
BRANCH  49  63
ATOM     63  C   UNL     1       2.177  -1.742   5.024  1.00  0.00     0.057 A 
ATOM     64  C   UNL     1       2.393  -2.076   6.374  1.00  0.00     0.134 A 
ATOM     65  C   UNL     1       1.613  -2.765   4.242  1.00  0.00     0.134 A 
ATOM     66  F   UNL     1       2.836  -1.178   7.263  1.00  0.00    -0.206 F 
ATOM     67  C   UNL     1       2.181  -3.363   6.881  1.00  0.00     0.040 A 
ATOM     68  C   UNL     1       1.408  -4.064   4.733  1.00  0.00     0.040 A 
ATOM     69  F   UNL     1       1.263  -2.543   2.965  1.00  0.00    -0.206 F 
ATOM     70  C   UNL     1       1.713  -4.372   6.053  1.00  0.00     0.006 A 
ENDBRANCH  49  63
BRANCH  50  71
ATOM     71  C   UNL     1       6.672   6.037   1.377  1.00  0.00     0.057 A 
ATOM     72  C   UNL     1       7.929   6.079   0.735  1.00  0.00     0.134 A 
ATOM     73  C   UNL     1       5.562   6.266   0.557  1.00  0.00     0.134 A 
ATOM     74  F   UNL     1       9.058   5.901   1.442  1.00  0.00    -0.206 F 
ATOM     75  C   UNL     1       8.068   6.245  -0.648  1.00  0.00     0.040 A 
ATOM     76  C   UNL     1       5.689   6.453  -0.830  1.00  0.00     0.040 A 
ATOM     77  F   UNL     1       4.322   6.269   1.065  1.00  0.00    -0.206 F 
ATOM     78  C   UNL     1       6.941   6.418  -1.439  1.00  0.00     0.006 A 
ENDBRANCH  50  71
BRANCH  62  79
ATOM     79  C   UNL     1       1.570   4.856   6.358  1.00  0.00     0.057 A 
ATOM     80  C   UNL     1       0.899   6.069   6.160  1.00  0.00     0.134 A 
ATOM     81  C   UNL     1       0.987   3.998   7.321  1.00  0.00     0.134 A 
ATOM     82  F   UNL     1       1.258   6.921   5.190  1.00  0.00    -0.206 F 
ATOM     83  C   UNL     1      -0.214   6.440   6.922  1.00  0.00     0.040 A 
ATOM     84  C   UNL     1      -0.163   4.329   8.036  1.00  0.00     0.040 A 
ATOM     85  F   UNL     1       1.490   2.786   7.598  1.00  0.00    -0.206 F 
ATOM     86  C   UNL     1      -0.756   5.566   7.855  1.00  0.00     0.006 A 
ENDBRANCH  62  79
ENDBRANCH  36  37
ENDBRANCH  29  31
ENDBRANCH  28  29
ENDBRANCH   1  28
TORSDOF 13
