REMARK SMILES C[C@@H]1C[C@H]([NH3+])CN(S(=O)(=O)CCCC(=O)OCCOC(=O)c2ccc(-c3c4nc(c(-c5c(F)cccc5F)c5ccc([nH]5)c(-c5c(F)cccc5F)c5nc(c(-c6c(F)cccc6F)c6ccc3[nH]6)C=C5)C=C4)cc2)C1
REMARK SMILES IDX 16 1 14 2 15 3 13 4 12 5 11 6 8 7 9 8 10 9 7 10 1 11 2 12
REMARK SMILES IDX 3 13 76 14 4 15 6 16 5 17 17 21 18 22 19 23 20 24 21 25
REMARK SMILES IDX 22 26 23 27 75 28 24 29 74 30 25 31 26 32 27 33 68 34 28 35
REMARK SMILES IDX 73 36 67 37 69 38 29 39 72 40 66 41 65 42 30 44 56 45 39 46
REMARK SMILES IDX 55 47 40 48 43 49 54 50 70 51 41 52 42 53 53 55 71 56 44 57
REMARK SMILES IDX 31 58 32 59 37 60 33 61 34 62 36 63 38 64 35 65 57 66 58 67
REMARK SMILES IDX 63 68 59 69 60 70 62 71 64 72 61 73 45 74 46 75 51 76 47 77
REMARK SMILES IDX 48 78 50 79 52 80 49 81
REMARK H PARENT 5 18 5 19 5 20 69 43 43 54
REMARK Flexibility Score: inf
ROOT
ATOM      1  O   UNL     1      -3.046  -2.851  -2.436  1.00  0.00    -0.462 OA
ENDROOT
BRANCH   1   2
ATOM      2  C   UNL     1      -2.098  -1.958  -2.804  1.00  0.00     0.305 C 
ATOM      3  O   UNL     1      -1.050  -2.265  -3.359  1.00  0.00    -0.252 OA
BRANCH   2   4
ATOM      4  C   UNL     1      -2.412  -0.529  -2.412  1.00  0.00     0.124 C 
BRANCH   4   5
ATOM      5  C   UNL     1      -3.824  -0.235  -1.931  1.00  0.00     0.029 C 
BRANCH   5   6
ATOM      6  C   UNL     1      -4.255  -0.911  -0.637  1.00  0.00     0.155 C 
BRANCH   6   7
ATOM      7  S   UNL     1      -3.389  -0.405   0.841  1.00  0.00     0.214 S 
ATOM      8  O   UNL     1      -3.929  -1.164   1.950  1.00  0.00    -0.212 OA
ATOM      9  O   UNL     1      -3.392   1.043   0.869  1.00  0.00    -0.212 OA
BRANCH   7  10
ATOM     10  N   UNL     1      -1.754  -0.913   0.646  1.00  0.00    -0.196 NA
ATOM     11  C   UNL     1       1.188   0.293   0.425  1.00  0.00     0.009 C 
ATOM     12  C   UNL     1       0.586  -0.574   1.534  1.00  0.00     0.007 C 
ATOM     13  C   UNL     1       0.845  -2.080   1.381  1.00  0.00     0.071 C 
ATOM     14  C   UNL     1      -0.905  -0.284   1.722  1.00  0.00     0.106 C 
ATOM     15  C   UNL     1      -0.066  -2.776   0.366  1.00  0.00     0.196 C 
ATOM     16  C   UNL     1      -1.548  -2.401   0.639  1.00  0.00     0.167 C 
BRANCH  15  17
ATOM     17  N   UNL     1       0.439  -2.480  -0.972  1.00  0.00    -0.354 N 
ATOM     18  H   UNL     1       0.446  -1.470  -1.117  1.00  0.00     0.344 HD
ATOM     19  H   UNL     1      -0.164  -2.919  -1.668  1.00  0.00     0.344 HD
ATOM     20  H   UNL     1       1.387  -2.843  -1.066  1.00  0.00     0.344 HD
ENDBRANCH  15  17
ENDBRANCH   7  10
ENDBRANCH   6   7
ENDBRANCH   5   6
ENDBRANCH   4   5
ENDBRANCH   2   4
ENDBRANCH   1   2
BRANCH   1  21
ATOM     21  C   UNL     1      -2.785  -4.243  -2.708  1.00  0.00     0.274 C 
BRANCH  21  22
ATOM     22  C   UNL     1      -3.513  -4.714  -3.967  1.00  0.00     0.275 C 
BRANCH  22  23
ATOM     23  O   UNL     1      -2.958  -4.112  -5.147  1.00  0.00    -0.458 OA
BRANCH  23  24
ATOM     24  C   UNL     1      -3.464  -2.896  -5.461  1.00  0.00     0.338 C 
ATOM     25  O   UNL     1      -4.373  -2.301  -4.911  1.00  0.00    -0.246 OA
BRANCH  24  26
ATOM     26  C   UNL     1      -2.612  -2.291  -6.490  1.00  0.00     0.060 A 
ATOM     27  C   UNL     1      -1.918  -1.120  -6.170  1.00  0.00     0.016 A 
ATOM     28  C   UNL     1      -2.532  -2.844  -7.764  1.00  0.00     0.016 A 
ATOM     29  C   UNL     1      -1.127  -0.489  -7.115  1.00  0.00     0.010 A 
ATOM     30  C   UNL     1      -1.751  -2.204  -8.723  1.00  0.00     0.010 A 
ATOM     31  C   UNL     1      -1.057  -1.023  -8.400  1.00  0.00    -0.014 A 
BRANCH  31  32
ATOM     32  C   UNL     1      -0.349  -0.283  -9.456  1.00  0.00     0.031 A 
ATOM     33  C   UNL     1      -1.165   0.451 -10.471  1.00  0.00     0.074 A 
ATOM     34  C   UNL     1       0.993  -0.293  -9.500  1.00  0.00     0.049 A 
ATOM     35  N   UNL     1      -0.799   0.958 -11.616  1.00  0.00    -0.248 NA
ATOM     36  C   UNL     1      -2.593   0.624 -10.156  1.00  0.00     0.031 C 
ATOM     37  C   UNL     1       1.869  -0.901  -8.498  1.00  0.00     0.029 A 
ATOM     38  N   UNL     1       1.850   0.204 -10.445  1.00  0.00    -0.354 N 
ATOM     39  C   UNL     1      -1.958   1.473 -12.179  1.00  0.00     0.074 A 
ATOM     40  C   UNL     1      -3.039   1.217 -11.253  1.00  0.00     0.031 C 
ATOM     41  C   UNL     1       3.144  -0.768  -8.900  1.00  0.00     0.029 A 
ATOM     42  C   UNL     1       3.161  -0.128 -10.211  1.00  0.00     0.049 A 
ATOM     43  H   UNL     1       1.556   0.743 -11.214  1.00  0.00     0.167 HD
ATOM     44  C   UNL     1      -2.095   2.094 -13.372  1.00  0.00     0.037 A 
ATOM     45  C   UNL     1       4.238   0.021 -11.003  1.00  0.00     0.037 A 
ATOM     46  C   UNL     1      -0.994   2.341 -14.263  1.00  0.00     0.049 A 
ATOM     47  C   UNL     1       4.049   0.639 -12.361  1.00  0.00     0.074 A 
ATOM     48  C   UNL     1      -1.005   2.955 -15.502  1.00  0.00     0.029 A 
ATOM     49  N   UNL     1       0.322   1.984 -13.999  1.00  0.00    -0.354 N 
ATOM     50  N   UNL     1       2.949   1.090 -12.917  1.00  0.00    -0.248 NA
ATOM     51  C   UNL     1       5.243   0.758 -13.207  1.00  0.00     0.031 C 
ATOM     52  C   UNL     1       0.300   2.932 -16.006  1.00  0.00     0.029 A 
ATOM     53  C   UNL     1       1.131   2.349 -15.059  1.00  0.00     0.049 A 
ATOM     54  H   UNL     1       0.632   1.537 -13.179  1.00  0.00     0.167 HD
ATOM     55  C   UNL     1       3.321   1.573 -14.164  1.00  0.00     0.074 A 
ATOM     56  C   UNL     1       4.751   1.363 -14.280  1.00  0.00     0.031 C 
ATOM     57  C   UNL     1       2.555   2.141 -15.128  1.00  0.00     0.037 A 
BRANCH  44  58
ATOM     58  C   UNL     1      -3.478   2.494 -13.789  1.00  0.00     0.057 A 
ATOM     59  C   UNL     1      -4.167   3.547 -13.174  1.00  0.00     0.134 A 
ATOM     60  C   UNL     1      -4.129   1.815 -14.827  1.00  0.00     0.134 A 
ATOM     61  F   UNL     1      -3.610   4.223 -12.158  1.00  0.00    -0.206 F 
ATOM     62  C   UNL     1      -5.462   3.897 -13.563  1.00  0.00     0.040 A 
ATOM     63  C   UNL     1      -5.413   2.171 -15.241  1.00  0.00     0.040 A 
ATOM     64  F   UNL     1      -3.528   0.793 -15.455  1.00  0.00    -0.206 F 
ATOM     65  C   UNL     1      -6.086   3.212 -14.604  1.00  0.00     0.006 A 
ENDBRANCH  44  58
BRANCH  45  66
ATOM     66  C   UNL     1       5.567  -0.461 -10.552  1.00  0.00     0.057 A 
ATOM     67  C   UNL     1       6.599   0.436 -10.259  1.00  0.00     0.134 A 
ATOM     68  C   UNL     1       5.839  -1.827 -10.402  1.00  0.00     0.134 A 
ATOM     69  F   UNL     1       6.407   1.756 -10.402  1.00  0.00    -0.206 F 
ATOM     70  C   UNL     1       7.858  -0.005  -9.847  1.00  0.00     0.040 A 
ATOM     71  C   UNL     1       7.085  -2.282  -9.965  1.00  0.00     0.040 A 
ATOM     72  F   UNL     1       4.892  -2.740 -10.663  1.00  0.00    -0.206 F 
ATOM     73  C   UNL     1       8.101  -1.369  -9.693  1.00  0.00     0.006 A 
ENDBRANCH  45  66
BRANCH  57  74
ATOM     74  C   UNL     1       3.257   2.623 -16.361  1.00  0.00     0.057 A 
ATOM     75  C   UNL     1       3.716   1.739 -17.344  1.00  0.00     0.134 A 
ATOM     76  C   UNL     1       3.412   3.995 -16.594  1.00  0.00     0.134 A 
ATOM     77  F   UNL     1       3.608   0.413 -17.171  1.00  0.00    -0.206 F 
ATOM     78  C   UNL     1       4.319   2.204 -18.513  1.00  0.00     0.040 A 
ATOM     79  C   UNL     1       3.988   4.473 -17.770  1.00  0.00     0.040 A 
ATOM     80  F   UNL     1       2.982   4.892 -15.693  1.00  0.00    -0.206 F 
ATOM     81  C   UNL     1       4.447   3.575 -18.732  1.00  0.00     0.006 A 
ENDBRANCH  57  74
ENDBRANCH  31  32
ENDBRANCH  24  26
ENDBRANCH  23  24
ENDBRANCH  22  23
ENDBRANCH  21  22
ENDBRANCH   1  21
TORSDOF 16
