REMARK SMILES COc1cccc(CSc2nc3ccccc3c(=O)n2CCC(=O)OCCOC(=O)c2ccc(-c3c4nc(c(-c5c(F)cccc5F)c5ccc([nH]5)c(-c5c(F)cccc5F)c5nc(c(-c6c(F)cccc6F)c6ccc3[nH]6)C=C5)C=C4)cc2)c1
REMARK SMILES IDX 23 1 24 2 22 3 21 4 20 5 10 6 11 7 12 8 18 9 13 10 17 11
REMARK SMILES IDX 19 12 14 13 16 14 15 15 9 16 8 17 7 18 3 19 4 20 85 21 5 22
REMARK SMILES IDX 6 23 2 24 1 25 25 26 26 27 27 28 28 29 29 30 30 31 31 32
REMARK SMILES IDX 32 33 84 34 33 35 83 36 34 37 35 38 36 39 77 40 37 41 82 42
REMARK SMILES IDX 76 43 78 44 38 45 81 46 75 47 74 48 39 50 65 51 48 52 64 53
REMARK SMILES IDX 49 54 52 55 63 56 79 57 50 58 51 59 62 61 80 62 53 63 40 64
REMARK SMILES IDX 41 65 46 66 42 67 43 68 45 69 47 70 44 71 66 72 67 73 72 74
REMARK SMILES IDX 68 75 69 76 71 77 73 78 70 79 54 80 55 81 60 82 56 83 57 84
REMARK SMILES IDX 59 85 61 86 58 87
REMARK H PARENT 78 49 52 60
REMARK Flexibility Score: inf
ROOT
ATOM      1  C   UNL     1       6.468   2.960   1.739  1.00  0.00     0.307 C 
ATOM      2  O   UNL     1       7.673   2.986   1.523  1.00  0.00    -0.252 OA
ENDROOT
BRANCH   1   3
ATOM      3  C   UNL     1       5.485   2.407   0.729  1.00  0.00     0.144 C 
BRANCH   3   4
ATOM      4  C   UNL     1       4.020   2.860   0.739  1.00  0.00     0.140 C 
BRANCH   4   5
ATOM      5  N   UNL     1       3.760   4.292   0.701  1.00  0.00    -0.286 N 
ATOM      6  C   UNL     1       4.023   5.181   1.713  1.00  0.00     0.171 A 
ATOM      7  N   UNL     1       4.664   6.287   1.481  1.00  0.00    -0.224 NA
ATOM      8  C   UNL     1       4.897   6.629   0.138  1.00  0.00     0.079 A 
ATOM      9  C   UNL     1       3.414   4.828  -0.532  1.00  0.00     0.262 A 
ATOM     10  C   UNL     1       5.830   7.602  -0.213  1.00  0.00     0.029 A 
ATOM     11  C   UNL     1       4.091   6.092  -0.865  1.00  0.00     0.066 A 
ATOM     12  O   UNL     1       2.679   4.280  -1.347  1.00  0.00    -0.269 OA
ATOM     13  C   UNL     1       5.886   8.078  -1.530  1.00  0.00     0.002 A 
ATOM     14  C   UNL     1       4.078   6.609  -2.161  1.00  0.00     0.016 A 
ATOM     15  C   UNL     1       4.978   7.618  -2.489  1.00  0.00     0.001 A 
BRANCH   6  16
ATOM     16  S   UNL     1       3.345   5.054   3.321  1.00  0.00    -0.083 SA
BRANCH  16  17
ATOM     17  C   UNL     1       2.769   3.397   3.719  1.00  0.00     0.113 C 
BRANCH  17  18
ATOM     18  C   UNL     1       1.389   3.046   3.222  1.00  0.00    -0.034 A 
ATOM     19  C   UNL     1      -0.087   1.733   1.792  1.00  0.00     0.119 A 
ATOM     20  C   UNL     1      -1.156   2.538   2.179  1.00  0.00     0.046 A 
ATOM     21  C   UNL     1       1.164   1.948   2.369  1.00  0.00     0.051 A 
ATOM     22  C   UNL     1      -0.979   3.550   3.121  1.00  0.00     0.004 A 
ATOM     23  C   UNL     1       0.289   3.809   3.632  1.00  0.00     0.005 A 
BRANCH  19  24
ATOM     24  O   UNL     1      -0.384   0.789   0.850  1.00  0.00    -0.497 OA
ATOM     25  C   UNL     1       0.701   0.090   0.251  1.00  0.00     0.278 C 
ENDBRANCH  19  24
ENDBRANCH  17  18
ENDBRANCH  16  17
ENDBRANCH   6  16
ENDBRANCH   4   5
ENDBRANCH   3   4
ENDBRANCH   1   3
BRANCH   1  26
ATOM     26  O   UNL     1       5.893   3.322   2.910  1.00  0.00    -0.462 OA
BRANCH  26  27
ATOM     27  C   UNL     1       6.806   3.819   3.913  1.00  0.00     0.274 C 
BRANCH  27  28
ATOM     28  C   UNL     1       6.126   3.895   5.291  1.00  0.00     0.275 C 
BRANCH  28  29
ATOM     29  O   UNL     1       5.194   2.830   5.572  1.00  0.00    -0.458 OA
BRANCH  29  30
ATOM     30  C   UNL     1       5.609   1.572   5.328  1.00  0.00     0.338 C 
ATOM     31  O   UNL     1       6.728   1.209   5.001  1.00  0.00    -0.246 OA
BRANCH  30  32
ATOM     32  C   UNL     1       4.453   0.661   5.349  1.00  0.00     0.060 A 
ATOM     33  C   UNL     1       4.263  -0.178   4.246  1.00  0.00     0.016 A 
ATOM     34  C   UNL     1       3.632   0.553   6.474  1.00  0.00     0.016 A 
ATOM     35  C   UNL     1       3.303  -1.186   4.300  1.00  0.00     0.010 A 
ATOM     36  C   UNL     1       2.716  -0.501   6.551  1.00  0.00     0.010 A 
ATOM     37  C   UNL     1       2.591  -1.415   5.490  1.00  0.00    -0.014 A 
BRANCH  37  38
ATOM     38  C   UNL     1       1.922  -2.728   5.707  1.00  0.00     0.031 A 
ATOM     39  C   UNL     1       0.441  -2.851   5.898  1.00  0.00     0.074 A 
ATOM     40  C   UNL     1       2.703  -3.826   5.799  1.00  0.00     0.049 A 
ATOM     41  N   UNL     1      -0.263  -3.921   6.172  1.00  0.00    -0.248 NA
ATOM     42  C   UNL     1      -0.350  -1.620   5.777  1.00  0.00     0.031 C 
ATOM     43  C   UNL     1       4.163  -3.836   5.667  1.00  0.00     0.029 A 
ATOM     44  N   UNL     1       2.387  -5.142   6.031  1.00  0.00    -0.354 N 
ATOM     45  C   UNL     1      -1.581  -3.496   6.267  1.00  0.00     0.074 A 
ATOM     46  C   UNL     1      -1.572  -2.063   6.046  1.00  0.00     0.031 C 
ATOM     47  C   UNL     1       4.611  -5.093   5.790  1.00  0.00     0.029 A 
ATOM     48  C   UNL     1       3.483  -5.971   6.074  1.00  0.00     0.049 A 
ATOM     49  H   UNL     1       1.464  -5.461   6.154  1.00  0.00     0.167 HD
ATOM     50  C   UNL     1      -2.692  -4.236   6.510  1.00  0.00     0.037 A 
ATOM     51  C   UNL     1       3.583  -7.287   6.339  1.00  0.00     0.037 A 
ATOM     52  C   UNL     1      -2.697  -5.662   6.729  1.00  0.00     0.049 A 
ATOM     53  C   UNL     1       2.340  -8.071   6.640  1.00  0.00     0.074 A 
ATOM     54  C   UNL     1      -3.781  -6.497   6.947  1.00  0.00     0.029 A 
ATOM     55  N   UNL     1      -1.566  -6.466   6.771  1.00  0.00    -0.354 N 
ATOM     56  N   UNL     1       1.096  -7.661   6.682  1.00  0.00    -0.248 NA
ATOM     57  C   UNL     1       2.514  -9.500   6.932  1.00  0.00     0.031 C 
ATOM     58  C   UNL     1      -3.304  -7.793   7.169  1.00  0.00     0.029 A 
ATOM     59  C   UNL     1      -1.926  -7.780   7.033  1.00  0.00     0.049 A 
ATOM     60  H   UNL     1      -0.644  -6.150   6.634  1.00  0.00     0.167 HD
ATOM     61  C   UNL     1       0.337  -8.786   6.976  1.00  0.00     0.074 A 
ATOM     62  C   UNL     1       1.259  -9.896   7.087  1.00  0.00     0.031 C 
ATOM     63  C   UNL     1      -1.005  -8.885   7.136  1.00  0.00     0.037 A 
BRANCH  50  64
ATOM     64  C   UNL     1      -4.008  -3.512   6.568  1.00  0.00     0.057 A 
ATOM     65  C   UNL     1      -4.613  -2.982   5.422  1.00  0.00     0.134 A 
ATOM     66  C   UNL     1      -4.704  -3.391   7.779  1.00  0.00     0.134 A 
ATOM     67  F   UNL     1      -3.999  -3.061   4.231  1.00  0.00    -0.206 F 
ATOM     68  C   UNL     1      -5.849  -2.334   5.480  1.00  0.00     0.040 A 
ATOM     69  C   UNL     1      -5.953  -2.771   7.845  1.00  0.00     0.040 A 
ATOM     70  F   UNL     1      -4.190  -3.889   8.913  1.00  0.00    -0.206 F 
ATOM     71  C   UNL     1      -6.526  -2.234   6.694  1.00  0.00     0.006 A 
ENDBRANCH  50  64
BRANCH  51  72
ATOM     72  C   UNL     1       4.914  -7.945   6.338  1.00  0.00     0.057 A 
ATOM     73  C   UNL     1       5.258  -8.877   5.352  1.00  0.00     0.134 A 
ATOM     74  C   UNL     1       5.869  -7.665   7.323  1.00  0.00     0.134 A 
ATOM     75  F   UNL     1       4.379  -9.200   4.392  1.00  0.00    -0.206 F 
ATOM     76  C   UNL     1       6.496  -9.521   5.356  1.00  0.00     0.040 A 
ATOM     77  C   UNL     1       7.122  -8.279   7.322  1.00  0.00     0.040 A 
ATOM     78  F   UNL     1       5.604  -6.775   8.291  1.00  0.00    -0.206 F 
ATOM     79  C   UNL     1       7.435  -9.218   6.341  1.00  0.00     0.006 A 
ENDBRANCH  51  72
BRANCH  63  80
ATOM     80  C   UNL     1      -1.563 -10.253   7.402  1.00  0.00     0.057 A 
ATOM     81  C   UNL     1      -1.373 -10.911   8.624  1.00  0.00     0.134 A 
ATOM     82  C   UNL     1      -2.320 -10.914   6.425  1.00  0.00     0.134 A 
ATOM     83  F   UNL     1      -0.644 -10.343   9.596  1.00  0.00    -0.206 F 
ATOM     84  C   UNL     1      -1.893 -12.186   8.855  1.00  0.00     0.040 A 
ATOM     85  C   UNL     1      -2.869 -12.176   6.655  1.00  0.00     0.040 A 
ATOM     86  F   UNL     1      -2.545 -10.340   5.234  1.00  0.00    -0.206 F 
ATOM     87  C   UNL     1      -2.650 -12.819   7.871  1.00  0.00     0.006 A 
ENDBRANCH  63  80
ENDBRANCH  37  38
ENDBRANCH  30  32
ENDBRANCH  29  30
ENDBRANCH  28  29
ENDBRANCH  27  28
ENDBRANCH  26  27
ENDBRANCH   1  26
TORSDOF 17
