REMARK SMILES Cc1nnc(SCCC(=O)OCCOC(=O)c2ccc(-c3c4nc(c(-c5c(F)cccc5F)c5ccc([nH]5)c(-c5c(F)cccc5F)c5nc(c(-c6c(F)cccc6F)c6ccc3[nH]6)C=C5)C=C4)cc2)s1
REMARK SMILES IDX 12 1 11 2 9 3 10 4 8 5 7 6 6 7 5 8 1 9 2 10 3 11 71 12 4 13
REMARK SMILES IDX 13 14 14 15 15 16 16 17 17 18 18 19 70 20 19 21 69 22 20 23
REMARK SMILES IDX 21 24 22 25 63 26 23 27 68 28 62 29 64 30 24 31 67 32 61 33
REMARK SMILES IDX 60 34 25 36 51 37 34 38 50 39 35 40 38 41 49 42 65 43 36 44
REMARK SMILES IDX 37 45 48 47 66 48 39 49 26 50 27 51 32 52 28 53 29 54 31 55
REMARK SMILES IDX 33 56 30 57 52 58 53 59 58 60 54 61 55 62 57 63 59 64 56 65
REMARK SMILES IDX 40 66 41 67 46 68 42 69 43 70 45 71 47 72 44 73
REMARK H PARENT 64 35 38 46
REMARK Flexibility Score: inf
ROOT
ATOM      1  C   UNL     1       0.471  -2.138   1.701  1.00  0.00     0.274 C 
ENDROOT
BRANCH   1   2
ATOM      2  O   UNL     1       1.571  -1.234   1.475  1.00  0.00    -0.462 OA
BRANCH   2   3
ATOM      3  C   UNL     1       2.783  -1.605   1.945  1.00  0.00     0.306 C 
ATOM      4  O   UNL     1       2.995  -2.616   2.605  1.00  0.00    -0.252 OA
BRANCH   3   5
ATOM      5  C   UNL     1       3.868  -0.597   1.647  1.00  0.00     0.134 C 
BRANCH   5   6
ATOM      6  C   UNL     1       3.829   0.053   0.267  1.00  0.00     0.089 C 
BRANCH   6   7
ATOM      7  S   UNL     1       2.994   1.676   0.265  1.00  0.00    -0.093 SA
BRANCH   7   8
ATOM      8  C   UNL     1       1.385   1.215  -0.231  1.00  0.00     0.174 A 
ATOM      9  C   UNL     1      -2.364   0.449  -0.256  1.00  0.00     0.081 C 
ATOM     10  C   UNL     1      -0.913   0.688  -0.447  1.00  0.00     0.115 A 
ATOM     11  N   UNL     1      -0.188   0.129  -1.392  1.00  0.00    -0.143 NA
ATOM     12  S   UNL     1      -0.025   1.710   0.610  1.00  0.00    -0.091 S 
ATOM     13  N   UNL     1       1.152   0.442  -1.268  1.00  0.00    -0.132 NA
ENDBRANCH   7   8
ENDBRANCH   6   7
ENDBRANCH   5   6
ENDBRANCH   3   5
ENDBRANCH   2   3
ENDBRANCH   1   2
BRANCH   1  14
ATOM     14  C   UNL     1       0.174  -2.989   0.464  1.00  0.00     0.275 C 
BRANCH  14  15
ATOM     15  O   UNL     1       1.144  -4.037   0.307  1.00  0.00    -0.458 OA
BRANCH  15  16
ATOM     16  C   UNL     1       2.206  -3.725  -0.467  1.00  0.00     0.338 C 
ATOM     17  O   UNL     1       2.420  -2.689  -1.073  1.00  0.00    -0.246 OA
BRANCH  16  18
ATOM     18  C   UNL     1       3.195  -4.799  -0.378  1.00  0.00     0.060 A 
ATOM     19  C   UNL     1       4.435  -4.507   0.196  1.00  0.00     0.016 A 
ATOM     20  C   UNL     1       2.916  -6.061  -0.902  1.00  0.00     0.016 A 
ATOM     21  C   UNL     1       5.410  -5.494   0.260  1.00  0.00     0.010 A 
ATOM     22  C   UNL     1       3.893  -7.050  -0.832  1.00  0.00     0.010 A 
ATOM     23  C   UNL     1       5.142  -6.770  -0.252  1.00  0.00    -0.014 A 
BRANCH  23  24
ATOM     24  C   UNL     1       6.173  -7.825  -0.186  1.00  0.00     0.031 A 
ATOM     25  C   UNL     1       6.911  -8.222  -1.427  1.00  0.00     0.074 A 
ATOM     26  C   UNL     1       6.410  -8.433   0.989  1.00  0.00     0.049 A 
ATOM     27  N   UNL     1       7.769  -9.192  -1.601  1.00  0.00    -0.248 NA
ATOM     28  C   UNL     1       6.641  -7.427  -2.635  1.00  0.00     0.031 C 
ATOM     29  C   UNL     1       5.755  -8.104   2.257  1.00  0.00     0.029 A 
ATOM     30  N   UNL     1       7.254  -9.465   1.305  1.00  0.00    -0.354 N 
ATOM     31  C   UNL     1       8.131  -9.137  -2.940  1.00  0.00     0.074 A 
ATOM     32  C   UNL     1       7.385  -8.050  -3.538  1.00  0.00     0.031 C 
ATOM     33  C   UNL     1       6.217  -8.925   3.213  1.00  0.00     0.029 A 
ATOM     34  C   UNL     1       7.166  -9.860   2.617  1.00  0.00     0.049 A 
ATOM     35  H   UNL     1       7.864  -9.882   0.655  1.00  0.00     0.167 HD
ATOM     36  C   UNL     1       9.009  -9.926  -3.604  1.00  0.00     0.037 A 
ATOM     37  C   UNL     1       7.765 -10.882   3.254  1.00  0.00     0.037 A 
ATOM     38  C   UNL     1       9.745 -11.000  -2.991  1.00  0.00     0.049 A 
ATOM     39  C   UNL     1       8.706 -11.764   2.484  1.00  0.00     0.074 A 
ATOM     40  C   UNL     1      10.672 -11.851  -3.567  1.00  0.00     0.029 A 
ATOM     41  N   UNL     1       9.633 -11.371  -1.659  1.00  0.00    -0.354 N 
ATOM     42  N   UNL     1       9.054 -11.697   1.221  1.00  0.00    -0.248 NA
ATOM     43  C   UNL     1       9.337 -12.864   3.225  1.00  0.00     0.031 C 
ATOM     44  C   UNL     1      11.094 -12.760  -2.591  1.00  0.00     0.029 A 
ATOM     45  C   UNL     1      10.462 -12.449  -1.397  1.00  0.00     0.049 A 
ATOM     46  H   UNL     1       9.051 -10.933  -0.997  1.00  0.00     0.167 HD
ATOM     47  C   UNL     1       9.960 -12.728   1.021  1.00  0.00     0.074 A 
ATOM     48  C   UNL     1      10.118 -13.398   2.296  1.00  0.00     0.031 C 
ATOM     49  C   UNL     1      10.605 -13.091  -0.115  1.00  0.00     0.037 A 
BRANCH  36  50
ATOM     50  C   UNL     1       9.200  -9.668  -5.068  1.00  0.00     0.057 A 
ATOM     51  C   UNL     1       9.898  -8.548  -5.538  1.00  0.00     0.134 A 
ATOM     52  C   UNL     1       8.703 -10.566  -6.021  1.00  0.00     0.134 A 
ATOM     53  F   UNL     1      10.386  -7.641  -4.678  1.00  0.00    -0.206 F 
ATOM     54  C   UNL     1      10.080  -8.321  -6.904  1.00  0.00     0.040 A 
ATOM     55  C   UNL     1       8.898 -10.362  -7.388  1.00  0.00     0.040 A 
ATOM     56  F   UNL     1       8.027 -11.660  -5.639  1.00  0.00    -0.206 F 
ATOM     57  C   UNL     1       9.584  -9.234  -7.833  1.00  0.00     0.006 A 
ENDBRANCH  36  50
BRANCH  37  58
ATOM     58  C   UNL     1       7.485 -11.127   4.690  1.00  0.00     0.057 A 
ATOM     59  C   UNL     1       8.459 -10.893   5.667  1.00  0.00     0.134 A 
ATOM     60  C   UNL     1       6.239 -11.598   5.121  1.00  0.00     0.134 A 
ATOM     61  F   UNL     1       9.678 -10.459   5.314  1.00  0.00    -0.206 F 
ATOM     62  C   UNL     1       8.210 -11.133   7.019  1.00  0.00     0.040 A 
ATOM     63  C   UNL     1       5.968 -11.819   6.472  1.00  0.00     0.040 A 
ATOM     64  F   UNL     1       5.261 -11.836   4.234  1.00  0.00    -0.206 F 
ATOM     65  C   UNL     1       6.958 -11.592   7.425  1.00  0.00     0.006 A 
ENDBRANCH  37  58
BRANCH  49  66
ATOM     66  C   UNL     1      11.562 -14.240  -0.014  1.00  0.00     0.057 A 
ATOM     67  C   UNL     1      11.117 -15.563   0.094  1.00  0.00     0.134 A 
ATOM     68  C   UNL     1      12.944 -14.020  -0.062  1.00  0.00     0.134 A 
ATOM     69  F   UNL     1       9.805 -15.836   0.159  1.00  0.00    -0.206 F 
ATOM     70  C   UNL     1      12.016 -16.628   0.173  1.00  0.00     0.040 A 
ATOM     71  C   UNL     1      13.852 -15.078  -0.008  1.00  0.00     0.040 A 
ATOM     72  F   UNL     1      13.433 -12.775  -0.172  1.00  0.00    -0.206 F 
ATOM     73  C   UNL     1      13.387 -16.386   0.115  1.00  0.00     0.006 A 
ENDBRANCH  49  66
ENDBRANCH  23  24
ENDBRANCH  16  18
ENDBRANCH  15  16
ENDBRANCH  14  15
ENDBRANCH   1  14
TORSDOF 14
