REMARK SMILES O=C(OCCOC(=O)[C@@]1([NH2+]C2CC2)CCC[C@@H](Sc2ncn[nH]2)C1)c1ccc(-c2c3nc(c(-c4c(F)cccc4F)c4ccc([nH]4)c(-c4c(F)cccc4F)c4nc(c(-c5c(F)cccc5F)c5ccc2[nH]5)C=C4)C=C3)cc1
REMARK SMILES IDX 4 1 3 2 2 3 1 4 25 5 26 6 78 7 27 8 77 9 28 10 29 11 30 12
REMARK SMILES IDX 71 13 31 14 76 15 70 16 72 17 32 18 75 19 69 20 68 21 33 23
REMARK SMILES IDX 59 24 42 25 58 26 43 27 46 28 57 29 73 30 44 31 45 32 56 34
REMARK SMILES IDX 74 35 47 36 34 37 35 38 40 39 36 40 37 41 39 42 41 43 38 44
REMARK SMILES IDX 60 45 61 46 66 47 62 48 63 49 65 50 67 51 64 52 48 53 49 54
REMARK SMILES IDX 54 55 50 56 51 57 53 58 55 59 52 60 5 61 6 62 7 63 8 64 9 65
REMARK SMILES IDX 14 66 24 67 15 68 17 69 16 70 10 71 11 74 12 75 13 76 18 77
REMARK SMILES IDX 19 78 20 79 23 80 21 81 22 82
REMARK H PARENT 72 22 46 33 10 72 10 73 23 83
REMARK Flexibility Score: inf
ROOT
ATOM      1  C   UNL     1       4.230   0.787   1.056  1.00  0.00     0.275 C 
ENDROOT
BRANCH   1   2
ATOM      2  O   UNL     1       3.116   1.362   0.330  1.00  0.00    -0.458 OA
BRANCH   2   3
ATOM      3  C   UNL     1       2.709   1.285  -0.961  1.00  0.00     0.338 C 
ATOM      4  O   UNL     1       1.646   1.830  -1.260  1.00  0.00    -0.246 OA
BRANCH   3   5
ATOM      5  C   UNL     1       3.407   0.531  -2.060  1.00  0.00     0.060 A 
ATOM      6  C   UNL     1       4.766   0.238  -2.120  1.00  0.00     0.016 A 
ATOM      7  C   UNL     1       2.614   0.095  -3.148  1.00  0.00     0.016 A 
ATOM      8  C   UNL     1       5.279  -0.588  -3.145  1.00  0.00     0.010 A 
ATOM      9  C   UNL     1       3.123  -0.734  -4.171  1.00  0.00     0.010 A 
ATOM     10  C   UNL     1       4.456  -1.142  -4.146  1.00  0.00    -0.014 A 
BRANCH  10  11
ATOM     11  C   UNL     1       5.049  -2.054  -5.181  1.00  0.00     0.031 A 
ATOM     12  C   UNL     1       5.945  -1.451  -6.207  1.00  0.00     0.074 A 
ATOM     13  C   UNL     1       4.890  -3.397  -5.196  1.00  0.00     0.049 A 
ATOM     14  N   UNL     1       6.649  -2.049  -7.128  1.00  0.00    -0.248 NA
ATOM     15  C   UNL     1       6.044   0.015  -6.205  1.00  0.00     0.031 C 
ATOM     16  C   UNL     1       4.019  -4.122  -4.302  1.00  0.00     0.029 A 
ATOM     17  N   UNL     1       5.464  -4.411  -5.938  1.00  0.00    -0.354 N 
ATOM     18  C   UNL     1       7.260  -1.032  -7.834  1.00  0.00     0.074 A 
ATOM     19  C   UNL     1       6.879   0.218  -7.210  1.00  0.00     0.031 C 
ATOM     20  C   UNL     1       4.226  -5.441  -4.403  1.00  0.00     0.029 A 
ATOM     21  C   UNL     1       5.116  -5.684  -5.518  1.00  0.00     0.049 A 
ATOM     22  H   UNL     1       6.067  -4.244  -6.698  1.00  0.00     0.167 HD
ATOM     23  C   UNL     1       8.020  -1.132  -8.945  1.00  0.00     0.037 A 
ATOM     24  C   UNL     1       5.405  -6.915  -5.992  1.00  0.00     0.037 A 
ATOM     25  C   UNL     1       8.313  -2.362  -9.625  1.00  0.00     0.049 A 
ATOM     26  C   UNL     1       6.204  -6.986  -7.259  1.00  0.00     0.074 A 
ATOM     27  C   UNL     1       9.020  -2.541 -10.799  1.00  0.00     0.029 A 
ATOM     28  N   UNL     1       7.882  -3.618  -9.219  1.00  0.00    -0.354 N 
ATOM     29  N   UNL     1       6.792  -6.011  -7.905  1.00  0.00    -0.248 NA
ATOM     30  C   UNL     1       6.330  -8.301  -7.904  1.00  0.00     0.031 C 
ATOM     31  C   UNL     1       8.961  -3.895 -11.140  1.00  0.00     0.029 A 
ATOM     32  C   UNL     1       8.274  -4.571 -10.145  1.00  0.00     0.049 A 
ATOM     33  H   UNL     1       7.373  -3.803  -8.397  1.00  0.00     0.167 HD
ATOM     34  C   UNL     1       7.343  -6.586  -9.036  1.00  0.00     0.074 A 
ATOM     35  C   UNL     1       7.067  -8.007  -8.965  1.00  0.00     0.031 C 
ATOM     36  C   UNL     1       7.994  -5.982 -10.057  1.00  0.00     0.037 A 
BRANCH  23  37
ATOM     37  C   UNL     1       8.452   0.164  -9.547  1.00  0.00     0.057 A 
ATOM     38  C   UNL     1       9.450   0.956  -8.967  1.00  0.00     0.134 A 
ATOM     39  C   UNL     1       7.788   0.662 -10.674  1.00  0.00     0.134 A 
ATOM     40  F   UNL     1      10.081   0.551  -7.855  1.00  0.00    -0.206 F 
ATOM     41  C   UNL     1       9.756   2.217  -9.478  1.00  0.00     0.040 A 
ATOM     42  C   UNL     1       8.102   1.909 -11.206  1.00  0.00     0.040 A 
ATOM     43  F   UNL     1       6.804  -0.044 -11.251  1.00  0.00    -0.206 F 
ATOM     44  C   UNL     1       9.083   2.694 -10.602  1.00  0.00     0.006 A 
ENDBRANCH  23  37
BRANCH  24  45
ATOM     45  C   UNL     1       4.863  -8.169  -5.371  1.00  0.00     0.057 A 
ATOM     46  C   UNL     1       5.714  -9.191  -4.923  1.00  0.00     0.134 A 
ATOM     47  C   UNL     1       3.485  -8.422  -5.282  1.00  0.00     0.134 A 
ATOM     48  F   UNL     1       7.045  -9.046  -5.006  1.00  0.00    -0.206 F 
ATOM     49  C   UNL     1       5.222 -10.410  -4.439  1.00  0.00     0.040 A 
ATOM     50  C   UNL     1       2.979  -9.617  -4.761  1.00  0.00     0.040 A 
ATOM     51  F   UNL     1       2.598  -7.509  -5.704  1.00  0.00    -0.206 F 
ATOM     52  C   UNL     1       3.849 -10.623  -4.351  1.00  0.00     0.006 A 
ENDBRANCH  24  45
BRANCH  36  53
ATOM     53  C   UNL     1       8.465  -6.858 -11.174  1.00  0.00     0.057 A 
ATOM     54  C   UNL     1       7.575  -7.410 -12.104  1.00  0.00     0.134 A 
ATOM     55  C   UNL     1       9.832  -7.102 -11.353  1.00  0.00     0.134 A 
ATOM     56  F   UNL     1       6.253  -7.230 -11.971  1.00  0.00    -0.206 F 
ATOM     57  C   UNL     1       8.031  -8.179 -13.175  1.00  0.00     0.040 A 
ATOM     58  C   UNL     1      10.300  -7.845 -12.435  1.00  0.00     0.040 A 
ATOM     59  F   UNL     1      10.731  -6.600 -10.494  1.00  0.00    -0.206 F 
ATOM     60  C   UNL     1       9.398  -8.387 -13.348  1.00  0.00     0.006 A 
ENDBRANCH  36  53
ENDBRANCH  10  11
ENDBRANCH   3   5
ENDBRANCH   2   3
ENDBRANCH   1   2
BRANCH   1  61
ATOM     61  C   UNL     1       3.968  -0.634   1.540  1.00  0.00     0.274 C 
BRANCH  61  62
ATOM     62  O   UNL     1       3.506  -1.405   0.437  1.00  0.00    -0.457 OA
BRANCH  62  63
ATOM     63  C   UNL     1       2.710  -2.484   0.708  1.00  0.00     0.368 C 
ATOM     64  O   UNL     1       2.306  -2.801   1.823  1.00  0.00    -0.245 OA
BRANCH  63  65
ATOM     65  C   UNL     1       2.375  -3.209  -0.609  1.00  0.00     0.195 C 
ATOM     66  C   UNL     1       1.994  -4.689  -0.453  1.00  0.00     0.081 C 
ATOM     67  C   UNL     1       1.122  -2.466  -1.172  1.00  0.00     0.096 C 
ATOM     68  C   UNL     1       1.495  -5.313  -1.763  1.00  0.00     0.008 C 
ATOM     69  C   UNL     1       0.559  -3.057  -2.473  1.00  0.00     0.061 C 
ATOM     70  C   UNL     1       0.318  -4.566  -2.377  1.00  0.00     0.015 C 
BRANCH  65  71
ATOM     71  N   UNL     1       3.508  -3.072  -1.550  1.00  0.00    -0.330 N 
ATOM     72  H   UNL     1       3.474  -2.109  -1.884  1.00  0.00     0.347 HD
ATOM     73  H   UNL     1       3.330  -3.853  -2.181  1.00  0.00     0.347 HD
BRANCH  71  74
ATOM     74  C   UNL     1       4.917  -3.320  -1.188  1.00  0.00     0.183 C 
ATOM     75  C   UNL     1       5.452  -3.867   0.092  1.00  0.00     0.071 C 
ATOM     76  C   UNL     1       5.478  -4.708  -1.152  1.00  0.00     0.071 C 
ENDBRANCH  71  74
ENDBRANCH  65  71
BRANCH  69  77
ATOM     77  S   UNL     1      -0.957  -2.179  -3.049  1.00  0.00    -0.083 SA
BRANCH  77  78
ATOM     78  C   UNL     1      -2.102  -2.699  -1.875  1.00  0.00     0.183 A 
ATOM     79  N   UNL     1      -2.096  -2.455  -0.590  1.00  0.00    -0.210 NA
ATOM     80  N   UNL     1      -3.071  -3.605  -2.174  1.00  0.00    -0.254 N 
ATOM     81  C   UNL     1      -3.079  -3.283  -0.126  1.00  0.00     0.247 A 
ATOM     82  N   UNL     1      -3.696  -4.020  -1.056  1.00  0.00    -0.162 NA
ATOM     83  H   UNL     1      -3.286  -3.916  -3.083  1.00  0.00     0.192 HD
ENDBRANCH  77  78
ENDBRANCH  69  77
ENDBRANCH  63  65
ENDBRANCH  62  63
ENDBRANCH  61  62
ENDBRANCH   1  61
TORSDOF 15
