REMARK SMILES C=C(C)COc1ccc2nc(C)n(-c3cccc(C(=O)OCCOC(=O)c4ccc(-c5c6nc(c(-c7c(F)cccc7F)c7ccc([nH]7)c(-c7c(F)cccc7F)c7nc(c(-c8c(F)cccc8F)c8ccc5[nH]8)C=C7)C=C6)cc4)c3)c(=O)c2c1
REMARK SMILES IDX 22 1 21 2 19 3 20 4 18 5 14 6 15 7 81 8 16 9 17 10 13 11
REMARK SMILES IDX 6 12 7 13 85 14 8 15 84 16 9 17 82 18 10 19 83 20 11 21
REMARK SMILES IDX 12 22 5 23 4 24 2 25 1 26 3 27 23 28 24 29 25 30 26 31 27 32
REMARK SMILES IDX 28 33 80 34 29 35 79 36 30 37 31 38 32 39 73 40 33 41 78 42
REMARK SMILES IDX 72 43 74 44 34 45 77 46 71 47 70 48 35 50 61 51 44 52 60 53
REMARK SMILES IDX 45 54 48 55 59 56 75 57 46 58 47 59 58 61 76 62 49 63 36 64
REMARK SMILES IDX 37 65 42 66 38 67 39 68 41 69 43 70 40 71 62 72 63 73 68 74
REMARK SMILES IDX 64 75 65 76 67 77 69 78 66 79 50 80 51 81 56 82 52 83 53 84
REMARK SMILES IDX 55 85 57 86 54 87
REMARK H PARENT 74 49 48 60
REMARK Flexibility Score: inf
ROOT
ATOM      1  C   UNL     1      -0.825  11.457   5.607  1.00  0.00     0.275 C 
ENDROOT
BRANCH   1   2
ATOM      2  O   UNL     1      -0.254  10.171   5.915  1.00  0.00    -0.458 OA
BRANCH   2   3
ATOM      3  C   UNL     1       0.946  10.173   6.554  1.00  0.00     0.338 C 
ATOM      4  O   UNL     1       1.592  11.145   6.881  1.00  0.00    -0.246 OA
BRANCH   3   5
ATOM      5  C   UNL     1       1.311   8.782   6.943  1.00  0.00     0.062 A 
ATOM      6  C   UNL     1       1.085   6.378   6.746  1.00  0.00     0.051 A 
ATOM      7  C   UNL     1       1.864   6.209   7.898  1.00  0.00     0.027 A 
ATOM      8  C   UNL     1       0.795   7.668   6.281  1.00  0.00     0.042 A 
ATOM      9  C   UNL     1       2.419   7.318   8.532  1.00  0.00     0.003 A 
ATOM     10  C   UNL     1       2.174   8.598   8.032  1.00  0.00     0.016 A 
BRANCH   6  11
ATOM     11  N   UNL     1       0.700   5.247   5.975  1.00  0.00    -0.264 N 
ATOM     12  C   UNL     1       1.302   2.532   2.018  1.00  0.00     0.120 A 
ATOM     13  C   UNL     1       0.581   1.519   2.650  1.00  0.00     0.049 A 
ATOM     14  C   UNL     1       1.521   3.741   2.664  1.00  0.00     0.062 A 
ATOM     15  C   UNL     1       0.036   1.732   3.917  1.00  0.00     0.033 A 
ATOM     16  C   UNL     1       0.974   3.938   3.938  1.00  0.00     0.070 A 
ATOM     17  C   UNL     1       0.235   2.945   4.574  1.00  0.00     0.078 A 
ATOM     18  C   UNL     1       1.203   5.190   4.668  1.00  0.00     0.266 A 
ATOM     19  N   UNL     1      -0.302   3.111   5.853  1.00  0.00    -0.234 NA
ATOM     20  O   UNL     1       1.848   6.078   4.110  1.00  0.00    -0.268 OA
ATOM     21  C   UNL     1      -0.062   4.213   6.493  1.00  0.00     0.113 A 
ATOM     22  C   UNL     1      -0.702   4.348   7.859  1.00  0.00     0.088 C 
BRANCH  12  23
ATOM     23  O   UNL     1       1.883   2.325   0.797  1.00  0.00    -0.489 OA
BRANCH  23  24
ATOM     24  C   UNL     1       0.927   2.421  -0.271  1.00  0.00     0.260 C 
BRANCH  24  25
ATOM     25  C   UNL     1       0.248   1.094  -0.536  1.00  0.00    -0.043 C 
ATOM     26  C   UNL     1       0.931  -0.061  -0.617  1.00  0.00     0.011 C 
ATOM     27  C   UNL     1      -1.249   1.137  -0.639  1.00  0.00     0.042 C 
ENDBRANCH  24  25
ENDBRANCH  23  24
ENDBRANCH  12  23
ENDBRANCH   6  11
ENDBRANCH   3   5
ENDBRANCH   2   3
ENDBRANCH   1   2
BRANCH   1  28
ATOM     28  C   UNL     1      -2.017  11.762   6.519  1.00  0.00     0.275 C 
BRANCH  28  29
ATOM     29  O   UNL     1      -1.581  12.024   7.866  1.00  0.00    -0.458 OA
BRANCH  29  30
ATOM     30  C   UNL     1      -1.725  10.999   8.738  1.00  0.00     0.338 C 
ATOM     31  O   UNL     1      -2.234   9.910   8.535  1.00  0.00    -0.246 OA
BRANCH  30  32
ATOM     32  C   UNL     1      -0.997  11.328   9.973  1.00  0.00     0.060 A 
ATOM     33  C   UNL     1      -1.494  12.215  10.923  1.00  0.00     0.016 A 
ATOM     34  C   UNL     1       0.210  10.667  10.193  1.00  0.00     0.016 A 
ATOM     35  C   UNL     1      -0.745  12.460  12.083  1.00  0.00     0.010 A 
ATOM     36  C   UNL     1       0.949  10.896  11.349  1.00  0.00     0.010 A 
ATOM     37  C   UNL     1       0.487  11.808  12.303  1.00  0.00    -0.014 A 
BRANCH  37  38
ATOM     38  C   UNL     1       1.270  12.039  13.544  1.00  0.00     0.031 A 
ATOM     39  C   UNL     1       2.621  12.705  13.502  1.00  0.00     0.074 A 
ATOM     40  C   UNL     1       0.784  11.592  14.718  1.00  0.00     0.049 A 
ATOM     41  N   UNL     1       3.407  13.040  14.495  1.00  0.00    -0.248 NA
ATOM     42  C   UNL     1       3.176  13.005  12.173  1.00  0.00     0.031 C 
ATOM     43  C   UNL     1      -0.456  10.832  14.884  1.00  0.00     0.029 A 
ATOM     44  N   UNL     1       1.272  11.717  15.995  1.00  0.00    -0.354 N 
ATOM     45  C   UNL     1       4.545  13.587  13.914  1.00  0.00     0.074 A 
ATOM     46  C   UNL     1       4.375  13.480  12.481  1.00  0.00     0.031 C 
ATOM     47  C   UNL     1      -0.658  10.602  16.191  1.00  0.00     0.029 A 
ATOM     48  C   UNL     1       0.444  11.184  16.952  1.00  0.00     0.049 A 
ATOM     49  H   UNL     1       2.132  12.147  16.204  1.00  0.00     0.167 HD
ATOM     50  C   UNL     1       5.620  14.152  14.517  1.00  0.00     0.037 A 
ATOM     51  C   UNL     1       0.548  11.187  18.294  1.00  0.00     0.037 A 
ATOM     52  C   UNL     1       5.779  14.277  15.943  1.00  0.00     0.049 A 
ATOM     53  C   UNL     1       1.719  11.873  18.940  1.00  0.00     0.074 A 
ATOM     54  C   UNL     1       6.790  14.906  16.650  1.00  0.00     0.029 A 
ATOM     55  N   UNL     1       4.899  13.760  16.882  1.00  0.00    -0.354 N 
ATOM     56  N   UNL     1       2.731  12.489  18.379  1.00  0.00    -0.248 NA
ATOM     57  C   UNL     1       1.752  11.876  20.409  1.00  0.00     0.031 C 
ATOM     58  C   UNL     1       6.539  14.740  18.017  1.00  0.00     0.029 A 
ATOM     59  C   UNL     1       5.350  14.043  18.161  1.00  0.00     0.049 A 
ATOM     60  H   UNL     1       4.076  13.264  16.671  1.00  0.00     0.167 HD
ATOM     61  C   UNL     1       3.506  12.975  19.424  1.00  0.00     0.074 A 
ATOM     62  C   UNL     1       2.835  12.600  20.652  1.00  0.00     0.031 C 
ATOM     63  C   UNL     1       4.671  13.665  19.373  1.00  0.00     0.037 A 
BRANCH  50  64
ATOM     64  C   UNL     1       6.701  14.705  13.631  1.00  0.00     0.057 A 
ATOM     65  C   UNL     1       7.969  14.111  13.581  1.00  0.00     0.134 A 
ATOM     66  C   UNL     1       6.497  15.853  12.853  1.00  0.00     0.134 A 
ATOM     67  F   UNL     1       8.239  13.017  14.309  1.00  0.00    -0.206 F 
ATOM     68  C   UNL     1       8.991  14.637  12.788  1.00  0.00     0.040 A 
ATOM     69  C   UNL     1       7.503  16.372  12.036  1.00  0.00     0.040 A 
ATOM     70  F   UNL     1       5.306  16.469  12.851  1.00  0.00    -0.206 F 
ATOM     71  C   UNL     1       8.757  15.766  12.006  1.00  0.00     0.006 A 
ENDBRANCH  50  64
BRANCH  51  72
ATOM     72  C   UNL     1      -0.518  10.576  19.125  1.00  0.00     0.057 A 
ATOM     73  C   UNL     1      -0.687   9.190  19.199  1.00  0.00     0.134 A 
ATOM     74  C   UNL     1      -1.384  11.374  19.883  1.00  0.00     0.134 A 
ATOM     75  F   UNL     1       0.104   8.372  18.488  1.00  0.00    -0.206 F 
ATOM     76  C   UNL     1      -1.676   8.617  20.000  1.00  0.00     0.040 A 
ATOM     77  C   UNL     1      -2.361  10.815  20.707  1.00  0.00     0.040 A 
ATOM     78  F   UNL     1      -1.260  12.710  19.865  1.00  0.00    -0.206 F 
ATOM     79  C   UNL     1      -2.510   9.431  20.765  1.00  0.00     0.006 A 
ENDBRANCH  51  72
BRANCH  63  80
ATOM     80  C   UNL     1       5.272  14.079  20.684  1.00  0.00     0.057 A 
ATOM     81  C   UNL     1       5.259  15.421  21.084  1.00  0.00     0.134 A 
ATOM     82  C   UNL     1       5.864  13.151  21.551  1.00  0.00     0.134 A 
ATOM     83  F   UNL     1       4.714  16.361  20.297  1.00  0.00    -0.206 F 
ATOM     84  C   UNL     1       5.808  15.825  22.302  1.00  0.00     0.040 A 
ATOM     85  C   UNL     1       6.392  13.539  22.784  1.00  0.00     0.040 A 
ATOM     86  F   UNL     1       5.894  11.848  21.234  1.00  0.00    -0.206 F 
ATOM     87  C   UNL     1       6.367  14.880  23.160  1.00  0.00     0.006 A 
ENDBRANCH  63  80
ENDBRANCH  37  38
ENDBRANCH  30  32
ENDBRANCH  29  30
ENDBRANCH  28  29
ENDBRANCH   1  28
TORSDOF 15
