REMARK SMILES C[C@H]1CCc2sc3ncn4nc(/C=C\C(=O)OCCOC(=O)c5ccc(-c6c7nc(c(-c8c(F)cccc8F)c8ccc([nH]8)c(-c8c(F)cccc8F)c8nc(c(-c9c(F)cccc9F)c9ccc6[nH]9)C=C8)C=C7)cc5)nc4c3c2C1
REMARK SMILES IDX 19 1 18 2 17 3 15 4 16 5 14 6 13 7 12 8 1 9 2 10 3 11 81 12
REMARK SMILES IDX 4 13 80 14 5 15 79 16 6 17 7 18 78 19 8 20 10 21 77 22 9 23
REMARK SMILES IDX 11 24 20 25 21 26 22 27 23 28 24 29 76 30 25 31 75 32 26 33
REMARK SMILES IDX 27 34 28 35 69 36 29 37 74 38 68 39 70 40 30 41 73 42 67 43
REMARK SMILES IDX 66 44 31 46 57 47 40 48 56 49 41 50 44 51 55 52 71 53 42 54
REMARK SMILES IDX 43 55 54 57 72 58 45 59 32 60 33 61 38 62 34 63 35 64 37 65
REMARK SMILES IDX 39 66 36 67 58 68 59 69 64 70 60 71 61 72 63 73 65 74 62 75
REMARK SMILES IDX 46 76 47 77 52 78 48 79 49 80 51 81 53 82 50 83
REMARK H PARENT 70 45 44 56
REMARK Flexibility Score: inf
ROOT
ATOM      1  C   UNL     1       1.569  -2.061   1.936  1.00  0.00     0.275 C 
ENDROOT
BRANCH   1   2
ATOM      2  C   UNL     1       2.965  -2.253   1.368  1.00  0.00     0.275 C 
BRANCH   2   3
ATOM      3  O   UNL     1       3.472  -3.452   1.934  1.00  0.00    -0.459 OA
BRANCH   3   4
ATOM      4  C   UNL     1       4.791  -3.588   2.055  1.00  0.00     0.331 C 
ATOM      5  O   UNL     1       5.635  -2.707   2.000  1.00  0.00    -0.247 OA
BRANCH   4   6
ATOM      6  C   UNL     1       5.078  -4.995   2.346  1.00  0.00     0.097 C 
ATOM      7  C   UNL     1       4.495  -6.057   1.762  1.00  0.00     0.058 C 
BRANCH   7   8
ATOM      8  C   UNL     1       3.498  -6.164   0.730  1.00  0.00     0.175 A 
ATOM      9  C   UNL     1       1.026  -0.637  -2.908  1.00  0.00     0.008 C 
ATOM     10  C   UNL     1       0.237  -1.205  -1.728  1.00  0.00    -0.009 C 
ATOM     11  C   UNL     1      -1.252  -1.424  -2.044  1.00  0.00     0.009 C 
ATOM     12  C   UNL     1       0.896  -2.493  -1.210  1.00  0.00     0.041 C 
ATOM     13  C   UNL     1      -1.506  -2.602  -3.001  1.00  0.00     0.047 C 
ATOM     14  C   UNL     1       0.422  -3.767  -1.797  1.00  0.00    -0.020 A 
ATOM     15  C   UNL     1      -0.697  -3.803  -2.604  1.00  0.00     0.011 A 
ATOM     16  C   UNL     1       0.913  -5.079  -1.538  1.00  0.00     0.060 A 
ATOM     17  S   UNL     1      -1.079  -5.382  -3.117  1.00  0.00    -0.120 S 
ATOM     18  C   UNL     1       0.195  -6.069  -2.197  1.00  0.00     0.129 A 
ATOM     19  C   UNL     1       1.997  -5.616  -0.668  1.00  0.00     0.168 A 
ATOM     20  N   UNL     1       0.388  -7.430  -2.147  1.00  0.00    -0.225 NA
ATOM     21  N   UNL     1       2.122  -6.972  -0.607  1.00  0.00    -0.201 N 
ATOM     22  N   UNL     1       2.894  -5.071   0.118  1.00  0.00    -0.207 NA
ATOM     23  C   UNL     1       1.336  -7.849  -1.347  1.00  0.00     0.227 A 
ATOM     24  N   UNL     1       3.070  -7.352   0.267  1.00  0.00    -0.145 NA
ENDBRANCH   7   8
ENDBRANCH   4   6
ENDBRANCH   3   4
ENDBRANCH   2   3
ENDBRANCH   1   2
BRANCH   1  25
ATOM     25  O   UNL     1       1.729  -1.536   3.232  1.00  0.00    -0.458 OA
BRANCH  25  26
ATOM     26  C   UNL     1       2.200  -2.401   4.152  1.00  0.00     0.338 C 
ATOM     27  O   UNL     1       2.150  -3.617   4.148  1.00  0.00    -0.246 OA
BRANCH  26  28
ATOM     28  C   UNL     1       2.665  -1.575   5.266  1.00  0.00     0.060 A 
ATOM     29  C   UNL     1       2.857  -2.285   6.447  1.00  0.00     0.016 A 
ATOM     30  C   UNL     1       2.332  -0.211   5.230  1.00  0.00     0.016 A 
ATOM     31  C   UNL     1       2.301  -1.745   7.572  1.00  0.00     0.010 A 
ATOM     32  C   UNL     1       1.731   0.304   6.336  1.00  0.00     0.010 A 
ATOM     33  C   UNL     1       1.626  -0.526   7.444  1.00  0.00    -0.014 A 
BRANCH  33  34
ATOM     34  C   UNL     1       0.862  -0.061   8.561  1.00  0.00     0.031 A 
ATOM     35  C   UNL     1       1.737   0.567   9.558  1.00  0.00     0.074 A 
ATOM     36  C   UNL     1      -0.477  -0.101   8.591  1.00  0.00     0.049 A 
ATOM     37  N   UNL     1       2.182   0.033  10.643  1.00  0.00    -0.248 NA
ATOM     38  C   UNL     1       2.421   1.808   9.157  1.00  0.00     0.031 C 
ATOM     39  C   UNL     1      -1.435  -0.405   7.528  1.00  0.00     0.029 A 
ATOM     40  N   UNL     1      -1.268   0.231   9.637  1.00  0.00    -0.354 N 
ATOM     41  C   UNL     1       3.042   0.982  11.169  1.00  0.00     0.074 A 
ATOM     42  C   UNL     1       3.355   1.895  10.103  1.00  0.00     0.031 C 
ATOM     43  C   UNL     1      -2.672  -0.017   7.928  1.00  0.00     0.029 A 
ATOM     44  C   UNL     1      -2.600   0.424   9.311  1.00  0.00     0.049 A 
ATOM     45  H   UNL     1      -0.925   0.327  10.555  1.00  0.00     0.167 HD
ATOM     46  C   UNL     1       3.185   1.132  12.509  1.00  0.00     0.037 A 
ATOM     47  C   UNL     1      -3.487   1.030  10.139  1.00  0.00     0.037 A 
ATOM     48  C   UNL     1       2.648   0.008  13.231  1.00  0.00     0.049 A 
ATOM     49  C   UNL     1      -2.900   0.981  11.514  1.00  0.00     0.074 A 
ATOM     50  C   UNL     1       2.940  -1.343  13.266  1.00  0.00     0.029 A 
ATOM     51  N   UNL     1       1.373   0.131  13.734  1.00  0.00    -0.354 N 
ATOM     52  N   UNL     1      -2.730  -0.122  12.191  1.00  0.00    -0.248 NA
ATOM     53  C   UNL     1      -2.055   2.096  11.926  1.00  0.00     0.031 C 
ATOM     54  C   UNL     1       1.675  -1.997  13.350  1.00  0.00     0.029 A 
ATOM     55  C   UNL     1       0.685  -1.016  13.417  1.00  0.00     0.049 A 
ATOM     56  H   UNL     1       1.018   0.902  14.231  1.00  0.00     0.167 HD
ATOM     57  C   UNL     1      -1.502   0.026  12.826  1.00  0.00     0.074 A 
ATOM     58  C   UNL     1      -1.165   1.440  12.677  1.00  0.00     0.031 C 
ATOM     59  C   UNL     1      -0.737  -1.058  13.151  1.00  0.00     0.037 A 
BRANCH  46  60
ATOM     60  C   UNL     1       3.468   2.461  13.140  1.00  0.00     0.057 A 
ATOM     61  C   UNL     1       3.944   2.511  14.454  1.00  0.00     0.134 A 
ATOM     62  C   UNL     1       3.074   3.699  12.586  1.00  0.00     0.134 A 
ATOM     63  F   UNL     1       4.306   1.389  15.095  1.00  0.00    -0.206 F 
ATOM     64  C   UNL     1       4.003   3.708  15.175  1.00  0.00     0.040 A 
ATOM     65  C   UNL     1       3.190   4.906  13.270  1.00  0.00     0.040 A 
ATOM     66  F   UNL     1       2.463   3.794  11.397  1.00  0.00    -0.206 F 
ATOM     67  C   UNL     1       3.632   4.911  14.581  1.00  0.00     0.006 A 
ENDBRANCH  46  60
BRANCH  47  68
ATOM     68  C   UNL     1      -4.544   2.002   9.781  1.00  0.00     0.057 A 
ATOM     69  C   UNL     1      -5.517   2.369  10.722  1.00  0.00     0.134 A 
ATOM     70  C   UNL     1      -4.450   2.817   8.639  1.00  0.00     0.134 A 
ATOM     71  F   UNL     1      -5.659   1.670  11.858  1.00  0.00    -0.206 F 
ATOM     72  C   UNL     1      -6.317   3.506  10.561  1.00  0.00     0.040 A 
ATOM     73  C   UNL     1      -5.248   3.951   8.462  1.00  0.00     0.040 A 
ATOM     74  F   UNL     1      -3.517   2.597   7.701  1.00  0.00    -0.206 F 
ATOM     75  C   UNL     1      -6.172   4.312   9.435  1.00  0.00     0.006 A 
ENDBRANCH  47  68
BRANCH  59  76
ATOM     76  C   UNL     1      -1.359  -2.421  12.993  1.00  0.00     0.057 A 
ATOM     77  C   UNL     1      -1.760  -2.962  11.760  1.00  0.00     0.134 A 
ATOM     78  C   UNL     1      -1.424  -3.269  14.101  1.00  0.00     0.134 A 
ATOM     79  F   UNL     1      -1.637  -2.262  10.626  1.00  0.00    -0.206 F 
ATOM     80  C   UNL     1      -2.246  -4.269  11.646  1.00  0.00     0.040 A 
ATOM     81  C   UNL     1      -1.875  -4.588  13.997  1.00  0.00     0.040 A 
ATOM     82  F   UNL     1      -1.004  -2.844  15.303  1.00  0.00    -0.206 F 
ATOM     83  C   UNL     1      -2.299  -5.089  12.769  1.00  0.00     0.006 A 
ENDBRANCH  59  76
ENDBRANCH  33  34
ENDBRANCH  26  28
ENDBRANCH  25  26
ENDBRANCH   1  25
TORSDOF 12
