REMARK SMILES COc1ccc(N2/C(=[NH+]/C(=O)CCCC(=O)OCCOC(=O)c3ccc(-c4c5nc(c(-c6c(F)cccc6F)c6ccc([nH]6)c(-c6c(F)cccc6F)c6nc(c(-c7c(F)cccc7F)c7ccc4[nH]7)C=C6)C=C5)cc3)S[C@@H]3CS(=O)(=O)C[C@H]32)cc1Cl
REMARK SMILES IDX 17 1 15 2 16 3 14 4 13 5 12 6 10 7 7 8 8 9 84 10 9 11 77 12
REMARK SMILES IDX 78 13 83 14 79 16 80 17 11 18 81 19 82 20 6 21 3 22 4 23
REMARK SMILES IDX 86 24 5 25 85 26 87 27 2 28 1 29 18 30 19 31 20 32 21 33
REMARK SMILES IDX 22 34 23 35 24 36 76 37 25 38 75 39 26 40 27 41 28 42 69 43
REMARK SMILES IDX 29 44 74 45 68 46 70 47 30 48 73 49 67 50 66 51 31 53 57 54
REMARK SMILES IDX 40 55 56 56 41 57 44 58 55 59 71 60 42 61 43 62 54 64 72 65
REMARK SMILES IDX 45 66 32 67 33 68 38 69 34 70 35 71 37 72 39 73 36 74 58 75
REMARK SMILES IDX 59 76 64 77 60 78 61 79 63 80 65 81 62 82 46 83 47 84 52 85
REMARK SMILES IDX 48 86 49 87 51 88 53 89 50 90
REMARK H PARENT 9 15 70 52 44 63
REMARK Flexibility Score: inf
ROOT
ATOM      1  O   UNL     1       4.687   5.423  -2.505  1.00  0.00    -0.462 OA
ENDROOT
BRANCH   1   2
ATOM      2  C   UNL     1       4.860   4.617  -1.434  1.00  0.00     0.305 C 
ATOM      3  O   UNL     1       4.439   3.468  -1.358  1.00  0.00    -0.252 OA
BRANCH   2   4
ATOM      4  C   UNL     1       5.640   5.259  -0.303  1.00  0.00     0.123 C 
BRANCH   4   5
ATOM      5  C   UNL     1       6.490   6.488  -0.603  1.00  0.00     0.024 C 
BRANCH   5   6
ATOM      6  C   UNL     1       5.819   7.716  -1.215  1.00  0.00     0.128 C 
BRANCH   6   7
ATOM      7  C   UNL     1       4.519   8.224  -0.611  1.00  0.00     0.307 C 
ATOM      8  N   UNL     1       1.962   6.595   1.409  1.00  0.00    -0.217 N 
ATOM      9  C   UNL     1       2.979   7.413   0.909  1.00  0.00     0.319 C 
ATOM     10  C   UNL     1       1.453   7.011   2.716  1.00  0.00     0.212 C 
ATOM     11  N   UNL     1       3.622   7.268  -0.201  1.00  0.00    -0.204 N 
ATOM     12  S   UNL     1       3.255   8.752   2.082  1.00  0.00    -0.029 SA
ATOM     13  C   UNL     1       1.576   8.538   2.691  1.00  0.00     0.120 C 
ATOM     14  C   UNL     1      -0.003   6.776   3.055  1.00  0.00     0.188 C 
ATOM     15  H   UNL     1       3.469   6.469  -0.755  1.00  0.00     0.316 HD
ATOM     16  C   UNL     1       1.156   9.016   4.055  1.00  0.00     0.156 C 
ATOM     17  S   UNL     1      -0.283   7.977   4.365  1.00  0.00     0.155 S 
ATOM     18  O   UNL     1       4.253   9.423  -0.680  1.00  0.00    -0.247 OA
ATOM     19  O   UNL     1      -1.477   8.728   4.041  1.00  0.00    -0.229 OA
ATOM     20  O   UNL     1      -0.100   7.316   5.638  1.00  0.00    -0.229 OA
BRANCH   8  21
ATOM     21  C   UNL     1       1.667   5.299   0.974  1.00  0.00     0.130 A 
ATOM     22  C   UNL     1       0.976   2.657   0.162  1.00  0.00     0.137 A 
ATOM     23  C   UNL     1       0.155   3.754  -0.133  1.00  0.00     0.052 A 
ATOM     24  C   UNL     1       2.160   2.893   0.870  1.00  0.00     0.087 A 
ATOM     25  C   UNL     1       0.492   5.051   0.264  1.00  0.00     0.056 A 
ATOM     26  C   UNL     1       2.486   4.205   1.280  1.00  0.00     0.076 A 
ATOM     27  Cl  UNL     1       3.327   1.681   1.273  1.00  0.00    -0.080 Cl
BRANCH  22  28
ATOM     28  O   UNL     1       0.468   1.496  -0.352  1.00  0.00    -0.495 OA
ATOM     29  C   UNL     1       0.857   0.250   0.201  1.00  0.00     0.278 C 
ENDBRANCH  22  28
ENDBRANCH   8  21
ENDBRANCH   6   7
ENDBRANCH   5   6
ENDBRANCH   4   5
ENDBRANCH   2   4
ENDBRANCH   1   2
BRANCH   1  30
ATOM     30  C   UNL     1       3.980   4.868  -3.630  1.00  0.00     0.274 C 
BRANCH  30  31
ATOM     31  C   UNL     1       4.954   4.417  -4.721  1.00  0.00     0.275 C 
BRANCH  31  32
ATOM     32  O   UNL     1       5.742   3.289  -4.294  1.00  0.00    -0.458 OA
BRANCH  32  33
ATOM     33  C   UNL     1       6.931   3.598  -3.728  1.00  0.00     0.338 C 
ATOM     34  O   UNL     1       7.429   4.702  -3.593  1.00  0.00    -0.246 OA
BRANCH  33  35
ATOM     35  C   UNL     1       7.514   2.387  -3.135  1.00  0.00     0.060 A 
ATOM     36  C   UNL     1       7.492   2.266  -1.745  1.00  0.00     0.016 A 
ATOM     37  C   UNL     1       8.146   1.424  -3.917  1.00  0.00     0.016 A 
ATOM     38  C   UNL     1       8.097   1.187  -1.118  1.00  0.00     0.010 A 
ATOM     39  C   UNL     1       8.745   0.327  -3.290  1.00  0.00     0.010 A 
ATOM     40  C   UNL     1       8.725   0.206  -1.887  1.00  0.00    -0.014 A 
BRANCH  40  41
ATOM     41  C   UNL     1       9.387  -0.930  -1.211  1.00  0.00     0.031 A 
ATOM     42  C   UNL     1      10.883  -1.016  -1.198  1.00  0.00     0.074 A 
ATOM     43  C   UNL     1       8.642  -1.861  -0.590  1.00  0.00     0.049 A 
ATOM     44  N   UNL     1      11.651  -1.996  -0.799  1.00  0.00    -0.248 NA
ATOM     45  C   UNL     1      11.612   0.159  -1.702  1.00  0.00     0.031 C 
ATOM     46  C   UNL     1       7.183  -1.838  -0.473  1.00  0.00     0.029 A 
ATOM     47  N   UNL     1       9.011  -3.015   0.053  1.00  0.00    -0.354 N 
ATOM     48  C   UNL     1      12.952  -1.571  -1.030  1.00  0.00     0.074 A 
ATOM     49  C   UNL     1      12.870  -0.247  -1.610  1.00  0.00     0.031 C 
ATOM     50  C   UNL     1       6.780  -2.933   0.190  1.00  0.00     0.029 A 
ATOM     51  C   UNL     1       7.944  -3.761   0.487  1.00  0.00     0.049 A 
ATOM     52  H   UNL     1       9.949  -3.282   0.189  1.00  0.00     0.167 HD
ATOM     53  C   UNL     1      14.106  -2.232  -0.779  1.00  0.00     0.037 A 
ATOM     54  C   UNL     1       7.907  -4.997   1.019  1.00  0.00     0.037 A 
ATOM     55  C   UNL     1      14.171  -3.544  -0.190  1.00  0.00     0.049 A 
ATOM     56  C   UNL     1       9.197  -5.742   1.216  1.00  0.00     0.074 A 
ATOM     57  C   UNL     1      15.288  -4.309   0.096  1.00  0.00     0.029 A 
ATOM     58  N   UNL     1      13.066  -4.283   0.208  1.00  0.00    -0.354 N 
ATOM     59  N   UNL     1      10.422  -5.355   0.955  1.00  0.00    -0.248 NA
ATOM     60  C   UNL     1       9.098  -7.100   1.767  1.00  0.00     0.031 C 
ATOM     61  C   UNL     1      14.856  -5.527   0.634  1.00  0.00     0.029 A 
ATOM     62  C   UNL     1      13.473  -5.503   0.722  1.00  0.00     0.049 A 
ATOM     63  H   UNL     1      12.131  -3.985   0.136  1.00  0.00     0.167 HD
ATOM     64  C   UNL     1      11.242  -6.413   1.321  1.00  0.00     0.074 A 
ATOM     65  C   UNL     1      10.374  -7.452   1.841  1.00  0.00     0.031 C 
ATOM     66  C   UNL     1      12.590  -6.520   1.232  1.00  0.00     0.037 A 
BRANCH  53  67
ATOM     67  C   UNL     1      15.386  -1.561  -1.179  1.00  0.00     0.057 A 
ATOM     68  C   UNL     1      15.907  -0.472  -0.470  1.00  0.00     0.134 A 
ATOM     69  C   UNL     1      16.117  -2.025  -2.281  1.00  0.00     0.134 A 
ATOM     70  F   UNL     1      15.246   0.032   0.583  1.00  0.00    -0.206 F 
ATOM     71  C   UNL     1      17.100   0.144  -0.853  1.00  0.00     0.040 A 
ATOM     72  C   UNL     1      17.322  -1.432  -2.660  1.00  0.00     0.040 A 
ATOM     73  F   UNL     1      15.673  -3.064  -3.003  1.00  0.00    -0.206 F 
ATOM     74  C   UNL     1      17.814  -0.340  -1.947  1.00  0.00     0.006 A 
ENDBRANCH  53  67
BRANCH  54  75
ATOM     75  C   UNL     1       6.603  -5.623   1.346  1.00  0.00     0.057 A 
ATOM     76  C   UNL     1       6.219  -5.856   2.670  1.00  0.00     0.134 A 
ATOM     77  C   UNL     1       5.708  -6.005   0.338  1.00  0.00     0.134 A 
ATOM     78  F   UNL     1       7.042  -5.532   3.678  1.00  0.00    -0.206 F 
ATOM     79  C   UNL     1       4.997  -6.456   2.982  1.00  0.00     0.040 A 
ATOM     80  C   UNL     1       4.473  -6.582   0.635  1.00  0.00     0.040 A 
ATOM     81  F   UNL     1       6.016  -5.808  -0.953  1.00  0.00    -0.206 F 
ATOM     82  C   UNL     1       4.118  -6.815   1.962  1.00  0.00     0.006 A 
ENDBRANCH  54  75
BRANCH  66  83
ATOM     83  C   UNL     1      13.203  -7.794   1.730  1.00  0.00     0.057 A 
ATOM     84  C   UNL     1      13.108  -8.989   1.006  1.00  0.00     0.134 A 
ATOM     85  C   UNL     1      13.921  -7.818   2.932  1.00  0.00     0.134 A 
ATOM     86  F   UNL     1      12.420  -9.033  -0.145  1.00  0.00    -0.206 F 
ATOM     87  C   UNL     1      13.690 -10.169   1.471  1.00  0.00     0.040 A 
ATOM     88  C   UNL     1      14.527  -8.986   3.395  1.00  0.00     0.040 A 
ATOM     89  F   UNL     1      14.054  -6.704   3.669  1.00  0.00    -0.206 F 
ATOM     90  C   UNL     1      14.407 -10.167   2.666  1.00  0.00     0.006 A 
ENDBRANCH  66  83
ENDBRANCH  40  41
ENDBRANCH  33  35
ENDBRANCH  32  33
ENDBRANCH  31  32
ENDBRANCH  30  31
ENDBRANCH   1  30
TORSDOF 16
