REMARK SMILES Cc1c(CC(=O)OCCOC(=O)c2ccc(-c3c4nc(c(-c5c(F)cccc5F)c5ccc([nH]5)c(-c5c(F)cccc5F)c5nc(c(-c6c(F)cccc6F)c6ccc3[nH]6)C=C5)C=C4)cc2)c2cc(O)ccc2n1C(=O)c1ccc(Cl)cc1
REMARK SMILES IDX 8 1 7 2 5 3 6 4 4 5 3 6 1 7 2 8 74 9 67 10 73 11 68 12 72 13
REMARK SMILES IDX 69 14 71 15 75 16 76 17 77 18 78 19 83 20 79 21 82 22 80 23
REMARK SMILES IDX 81 24 70 25 9 27 10 28 11 29 12 30 13 31 14 32 66 33 15 34
REMARK SMILES IDX 65 35 16 36 17 37 18 38 59 39 19 40 64 41 58 42 60 43 20 44
REMARK SMILES IDX 63 45 57 46 56 47 21 49 47 50 30 51 46 52 31 53 34 54 45 55
REMARK SMILES IDX 61 56 32 57 33 58 44 60 62 61 35 62 22 63 23 64 28 65 24 66
REMARK SMILES IDX 25 67 27 68 29 69 26 70 48 71 49 72 54 73 50 74 51 75 53 76
REMARK SMILES IDX 55 77 52 78 36 79 37 80 42 81 38 82 39 83 41 84 43 85 40 86
REMARK H PARENT 70 26 60 48 34 59
REMARK Flexibility Score: inf
ROOT
ATOM      1  C   UNL     1       1.938  -0.658   5.525  1.00  0.00     0.274 C 
ENDROOT
BRANCH   1   2
ATOM      2  O   UNL     1       1.470  -0.099   4.278  1.00  0.00    -0.462 OA
BRANCH   2   3
ATOM      3  C   UNL     1       0.596  -0.873   3.593  1.00  0.00     0.310 C 
ATOM      4  O   UNL     1       0.210  -1.977   3.970  1.00  0.00    -0.252 OA
BRANCH   3   5
ATOM      5  C   UNL     1       0.185  -0.342   2.252  1.00  0.00     0.160 C 
BRANCH   5   6
ATOM      6  C   UNL     1       0.540   1.046   1.789  1.00  0.00    -0.008 A 
ATOM      7  C   UNL     1       1.379   0.322  -0.567  1.00  0.00     0.065 C 
ATOM      8  C   UNL     1       1.050   1.301   0.520  1.00  0.00     0.028 A 
ATOM      9  N   UNL     1       1.242   2.672   0.366  1.00  0.00    -0.280 N 
ATOM     10  C   UNL     1       0.263   2.329   2.377  1.00  0.00     0.008 A 
ATOM     11  C   UNL     1       0.606   3.313   1.438  1.00  0.00     0.057 A 
ATOM     12  C   UNL     1      -0.300   2.772   3.597  1.00  0.00     0.056 A 
ATOM     13  C   UNL     1       0.300   4.678   1.675  1.00  0.00     0.031 A 
ATOM     14  C   UNL     1      -0.600   4.119   3.816  1.00  0.00     0.116 A 
ATOM     15  C   UNL     1      -0.306   5.070   2.866  1.00  0.00     0.048 A 
BRANCH   9  16
ATOM     16  C   UNL     1       1.935   3.293  -0.707  1.00  0.00     0.262 C 
ATOM     17  O   UNL     1       2.333   2.610  -1.649  1.00  0.00    -0.268 OA
BRANCH  16  18
ATOM     18  C   UNL     1       2.225   4.727  -0.783  1.00  0.00     0.040 A 
ATOM     19  C   UNL     1       3.083   5.322   0.149  1.00  0.00     0.015 A 
ATOM     20  C   UNL     1       1.560   5.485  -1.751  1.00  0.00     0.015 A 
ATOM     21  C   UNL     1       3.221   6.709   0.149  1.00  0.00     0.021 A 
ATOM     22  C   UNL     1       1.707   6.870  -1.746  1.00  0.00     0.021 A 
ATOM     23  C   UNL     1       2.524   7.476  -0.788  1.00  0.00     0.041 A 
ATOM     24  Cl  UNL     1       2.647   9.190  -0.743  1.00  0.00    -0.084 Cl
ENDBRANCH  16  18
ENDBRANCH   9  16
BRANCH  14  25
ATOM     25  O   UNL     1      -1.211   4.462   4.985  1.00  0.00    -0.508 OA
ATOM     26  H   UNL     1      -1.405   3.803   5.623  1.00  0.00     0.293 HD
ENDBRANCH  14  25
ENDBRANCH   5   6
ENDBRANCH   3   5
ENDBRANCH   2   3
ENDBRANCH   1   2
BRANCH   1  27
ATOM     27  C   UNL     1       1.152  -0.083   6.706  1.00  0.00     0.275 C 
BRANCH  27  28
ATOM     28  O   UNL     1      -0.183  -0.611   6.672  1.00  0.00    -0.458 OA
BRANCH  28  29
ATOM     29  C   UNL     1      -1.190   0.274   6.474  1.00  0.00     0.338 C 
ATOM     30  O   UNL     1      -1.172   1.475   6.677  1.00  0.00    -0.246 OA
BRANCH  29  31
ATOM     31  C   UNL     1      -2.184  -0.434   5.647  1.00  0.00     0.060 A 
ATOM     32  C   UNL     1      -2.601  -1.719   5.989  1.00  0.00     0.016 A 
ATOM     33  C   UNL     1      -2.513   0.115   4.402  1.00  0.00     0.016 A 
ATOM     34  C   UNL     1      -3.229  -2.496   5.025  1.00  0.00     0.010 A 
ATOM     35  C   UNL     1      -3.081  -0.681   3.422  1.00  0.00     0.010 A 
ATOM     36  C   UNL     1      -3.395  -1.999   3.721  1.00  0.00    -0.014 A 
BRANCH  36  37
ATOM     37  C   UNL     1      -4.189  -2.767   2.778  1.00  0.00     0.031 A 
ATOM     38  C   UNL     1      -5.637  -2.624   3.041  1.00  0.00     0.074 A 
ATOM     39  C   UNL     1      -3.796  -3.465   1.698  1.00  0.00     0.049 A 
ATOM     40  N   UNL     1      -6.385  -3.460   3.675  1.00  0.00    -0.248 NA
ATOM     41  C   UNL     1      -6.288  -1.355   2.700  1.00  0.00     0.031 C 
ATOM     42  C   UNL     1      -2.511  -3.507   1.008  1.00  0.00     0.029 A 
ATOM     43  N   UNL     1      -4.576  -4.309   0.960  1.00  0.00    -0.354 N 
ATOM     44  C   UNL     1      -7.655  -2.907   3.672  1.00  0.00     0.074 A 
ATOM     45  C   UNL     1      -7.508  -1.553   3.202  1.00  0.00     0.031 C 
ATOM     46  C   UNL     1      -2.646  -4.219  -0.141  1.00  0.00     0.029 A 
ATOM     47  C   UNL     1      -3.977  -4.811  -0.183  1.00  0.00     0.049 A 
ATOM     48  H   UNL     1      -5.496  -4.543   1.221  1.00  0.00     0.167 HD
ATOM     49  C   UNL     1      -8.751  -3.687   3.863  1.00  0.00     0.037 A 
ATOM     50  C   UNL     1      -4.554  -5.650  -1.080  1.00  0.00     0.037 A 
ATOM     51  C   UNL     1      -8.393  -4.973   4.417  1.00  0.00     0.049 A 
ATOM     52  C   UNL     1      -5.678  -6.337  -0.395  1.00  0.00     0.074 A 
ATOM     53  C   UNL     1      -7.726  -5.391   5.555  1.00  0.00     0.029 A 
ATOM     54  N   UNL     1      -8.387  -6.059   3.576  1.00  0.00    -0.354 N 
ATOM     55  N   UNL     1      -5.529  -7.252   0.519  1.00  0.00    -0.248 NA
ATOM     56  C   UNL     1      -7.003  -5.740  -0.464  1.00  0.00     0.031 C 
ATOM     57  C   UNL     1      -6.938  -6.507   5.137  1.00  0.00     0.029 A 
ATOM     58  C   UNL     1      -7.204  -6.723   3.785  1.00  0.00     0.049 A 
ATOM     59  H   UNL     1      -9.096  -6.313   2.943  1.00  0.00     0.167 HD
ATOM     60  C   UNL     1      -6.568  -7.036   1.409  1.00  0.00     0.074 A 
ATOM     61  C   UNL     1      -7.506  -6.177   0.693  1.00  0.00     0.031 C 
ATOM     62  C   UNL     1      -6.439  -7.348   2.732  1.00  0.00     0.037 A 
BRANCH  49  63
ATOM     63  C   UNL     1     -10.084  -3.433   3.213  1.00  0.00     0.057 A 
ATOM     64  C   UNL     1     -10.265  -2.668   2.042  1.00  0.00     0.134 A 
ATOM     65  C   UNL     1     -11.186  -4.220   3.590  1.00  0.00     0.134 A 
ATOM     66  F   UNL     1      -9.290  -1.923   1.508  1.00  0.00    -0.206 F 
ATOM     67  C   UNL     1     -11.438  -2.709   1.286  1.00  0.00     0.040 A 
ATOM     68  C   UNL     1     -12.344  -4.310   2.811  1.00  0.00     0.040 A 
ATOM     69  F   UNL     1     -11.135  -4.995   4.684  1.00  0.00    -0.206 F 
ATOM     70  C   UNL     1     -12.469  -3.561   1.648  1.00  0.00     0.006 A 
ENDBRANCH  49  63
BRANCH  50  71
ATOM     71  C   UNL     1      -4.344  -5.814  -2.533  1.00  0.00     0.057 A 
ATOM     72  C   UNL     1      -3.984  -4.722  -3.338  1.00  0.00     0.134 A 
ATOM     73  C   UNL     1      -4.798  -6.958  -3.208  1.00  0.00     0.134 A 
ATOM     74  F   UNL     1      -3.593  -3.562  -2.791  1.00  0.00    -0.206 F 
ATOM     75  C   UNL     1      -4.111  -4.751  -4.732  1.00  0.00     0.040 A 
ATOM     76  C   UNL     1      -4.934  -6.999  -4.601  1.00  0.00     0.040 A 
ATOM     77  F   UNL     1      -5.193  -8.043  -2.526  1.00  0.00    -0.206 F 
ATOM     78  C   UNL     1      -4.606  -5.885  -5.367  1.00  0.00     0.006 A 
ENDBRANCH  50  71
BRANCH  62  79
ATOM     79  C   UNL     1      -5.265  -8.200   3.130  1.00  0.00     0.057 A 
ATOM     80  C   UNL     1      -5.501  -9.396   3.817  1.00  0.00     0.134 A 
ATOM     81  C   UNL     1      -3.923  -7.840   2.933  1.00  0.00     0.134 A 
ATOM     82  F   UNL     1      -6.756  -9.782   4.096  1.00  0.00    -0.206 F 
ATOM     83  C   UNL     1      -4.456 -10.213   4.259  1.00  0.00     0.040 A 
ATOM     84  C   UNL     1      -2.869  -8.666   3.336  1.00  0.00     0.040 A 
ATOM     85  F   UNL     1      -3.593  -6.664   2.381  1.00  0.00    -0.206 F 
ATOM     86  C   UNL     1      -3.135  -9.858   4.003  1.00  0.00     0.006 A 
ENDBRANCH  62  79
ENDBRANCH  36  37
ENDBRANCH  29  31
ENDBRANCH  28  29
ENDBRANCH  27  28
ENDBRANCH   1  27
TORSDOF 15
