REMARK SMILES NS(=O)(=O)c1ccc(-n2nc(C(=O)NCCCCCCCCCCC(=O)OCCOC(=O)c3ccc(-c4c5nc(c(-c6c(F)cccc6F)c6ccc([nH]6)c(-c6c(F)cccc6F)c6nc(c(-c7c(F)cccc7F)c7ccc4[nH]7)C=C6)C=C5)cc3)cc2-c2ccccc2)cc1
REMARK SMILES IDX 21 1 20 2 19 3 18 4 17 5 16 6 15 7 14 8 12 9 13 10 11 12
REMARK SMILES IDX 9 13 10 14 88 15 87 16 8 17 5 18 6 19 96 20 7 21 95 22 2 23
REMARK SMILES IDX 3 24 4 25 1 26 89 29 90 30 94 31 91 32 93 33 92 34 22 35
REMARK SMILES IDX 23 36 24 37 25 38 26 39 27 40 28 41 29 42 30 43 31 44 32 45
REMARK SMILES IDX 33 46 34 47 86 48 35 49 85 50 36 51 37 52 38 53 79 54 39 55
REMARK SMILES IDX 84 56 78 57 80 58 40 59 83 60 77 61 76 62 41 64 67 65 50 66
REMARK SMILES IDX 66 67 51 68 54 69 65 70 81 71 52 72 53 73 64 75 82 76 55 77
REMARK SMILES IDX 42 78 43 79 48 80 44 81 45 82 47 83 49 84 46 85 68 86 69 87
REMARK SMILES IDX 74 88 70 89 71 90 73 91 75 92 72 93 56 94 57 95 62 96 58 97
REMARK SMILES IDX 59 98 61 99 63 100 60 101
REMARK H PARENT 14 11 1 27 1 28 80 63 54 74
REMARK Flexibility Score: inf
ROOT
ATOM      1  C   UNL     1       1.260  11.338 -12.543  1.00  0.00     0.000 C 
ENDROOT
BRANCH   1   2
ATOM      2  C   UNL     1       0.930   9.918 -12.085  1.00  0.00     0.000 C 
BRANCH   2   3
ATOM      3  C   UNL     1       2.175   9.163 -11.614  1.00  0.00     0.000 C 
BRANCH   3   4
ATOM      4  C   UNL     1       2.880   9.880 -10.457  1.00  0.00     0.000 C 
BRANCH   4   5
ATOM      5  C   UNL     1       2.031   9.918  -9.179  1.00  0.00     0.002 C 
BRANCH   5   6
ATOM      6  C   UNL     1       1.599   8.525  -8.717  1.00  0.00     0.021 C 
BRANCH   6   7
ATOM      7  C   UNL     1       2.816   7.650  -8.441  1.00  0.00     0.116 C 
BRANCH   7   8
ATOM      8  N   UNL     1       3.228   7.807  -7.071  1.00  0.00    -0.351 N 
ATOM      9  C   UNL     1       2.990   7.064  -5.944  1.00  0.00     0.271 C 
ATOM     10  O   UNL     1       3.366   7.574  -4.884  1.00  0.00    -0.267 OA
ATOM     11  H   UNL     1       3.788   8.601  -6.912  1.00  0.00     0.163 HD
BRANCH   9  12
ATOM     12  C   UNL     1       2.383   5.718  -6.007  1.00  0.00     0.151 A 
ATOM     13  N   UNL     1       1.893   3.758  -5.272  1.00  0.00    -0.232 N 
ATOM     14  N   UNL     1       2.253   4.997  -4.877  1.00  0.00    -0.162 NA
ATOM     15  C   UNL     1       1.665   3.684  -6.630  1.00  0.00     0.075 A 
ATOM     16  C   UNL     1       1.869   4.966  -7.086  1.00  0.00     0.065 A 
BRANCH  13  17
ATOM     17  C   UNL     1       1.716   2.738  -4.317  1.00  0.00     0.065 A 
ATOM     18  C   UNL     1       1.065   0.694  -2.581  1.00  0.00     0.082 A 
ATOM     19  C   UNL     1       1.849   0.413  -3.704  1.00  0.00     0.024 A 
ATOM     20  C   UNL     1       0.644   1.998  -2.294  1.00  0.00     0.024 A 
ATOM     21  C   UNL     1       2.164   1.440  -4.587  1.00  0.00     0.030 A 
ATOM     22  C   UNL     1       1.001   3.035  -3.151  1.00  0.00     0.030 A 
BRANCH  18  23
ATOM     23  S   UNL     1       0.561  -0.624  -1.523  1.00  0.00     0.238 S 
ATOM     24  O   UNL     1       1.231  -1.839  -1.916  1.00  0.00    -0.207 OA
ATOM     25  O   UNL     1      -0.872  -0.546  -1.345  1.00  0.00    -0.207 OA
BRANCH  23  26
ATOM     26  N   UNL     1       1.248  -0.182  -0.059  1.00  0.00    -0.225 NA
ATOM     27  H   UNL     1       1.022  -0.882   0.648  1.00  0.00     0.137 HD
ATOM     28  H   UNL     1       0.880   0.724   0.230  1.00  0.00     0.137 HD
ENDBRANCH  23  26
ENDBRANCH  18  23
ENDBRANCH  13  17
BRANCH  15  29
ATOM     29  C   UNL     1       1.150   2.560  -7.402  1.00  0.00     0.000 A 
ATOM     30  C   UNL     1      -0.092   1.990  -7.106  1.00  0.00     0.010 A 
ATOM     31  C   UNL     1       1.862   2.113  -8.524  1.00  0.00     0.010 A 
ATOM     32  C   UNL     1      -0.611   0.982  -7.918  1.00  0.00     0.001 A 
ATOM     33  C   UNL     1       1.340   1.107  -9.336  1.00  0.00     0.001 A 
ATOM     34  C   UNL     1       0.102   0.544  -9.034  1.00  0.00     0.000 A 
ENDBRANCH  15  29
ENDBRANCH   9  12
ENDBRANCH   7   8
ENDBRANCH   6   7
ENDBRANCH   5   6
ENDBRANCH   4   5
ENDBRANCH   3   4
ENDBRANCH   2   3
ENDBRANCH   1   2
BRANCH   1  35
ATOM     35  C   UNL     1       2.219  11.339 -13.733  1.00  0.00     0.001 C 
BRANCH  35  36
ATOM     36  C   UNL     1       1.541  10.856 -15.018  1.00  0.00     0.012 C 
BRANCH  36  37
ATOM     37  C   UNL     1       0.276  11.618 -15.430  1.00  0.00     0.123 C 
BRANCH  37  38
ATOM     38  C   UNL     1       0.391  13.117 -15.632  1.00  0.00     0.305 C 
ATOM     39  O   UNL     1      -0.135  13.702 -16.572  1.00  0.00    -0.252 OA
BRANCH  38  40
ATOM     40  O   UNL     1       1.086  13.729 -14.641  1.00  0.00    -0.462 OA
BRANCH  40  41
ATOM     41  C   UNL     1       1.454  15.107 -14.828  1.00  0.00     0.274 C 
BRANCH  41  42
ATOM     42  C   UNL     1       2.765  15.238 -15.593  1.00  0.00     0.275 C 
BRANCH  42  43
ATOM     43  O   UNL     1       2.629  14.724 -16.916  1.00  0.00    -0.458 OA
BRANCH  43  44
ATOM     44  C   UNL     1       3.110  13.473 -17.071  1.00  0.00     0.338 C 
ATOM     45  O   UNL     1       3.520  12.722 -16.204  1.00  0.00    -0.246 OA
BRANCH  44  46
ATOM     46  C   UNL     1       3.293  13.185 -18.487  1.00  0.00     0.060 A 
ATOM     47  C   UNL     1       3.354  11.847 -18.896  1.00  0.00     0.016 A 
ATOM     48  C   UNL     1       3.752  14.238 -19.282  1.00  0.00     0.016 A 
ATOM     49  C   UNL     1       4.031  11.551 -20.060  1.00  0.00     0.010 A 
ATOM     50  C   UNL     1       4.454  13.939 -20.418  1.00  0.00     0.010 A 
ATOM     51  C   UNL     1       4.641  12.599 -20.756  1.00  0.00    -0.014 A 
BRANCH  51  52
ATOM     52  C   UNL     1       5.413  12.302 -21.941  1.00  0.00     0.031 A 
ATOM     53  C   UNL     1       4.570  11.998 -23.119  1.00  0.00     0.074 A 
ATOM     54  C   UNL     1       6.743  12.508 -21.987  1.00  0.00     0.049 A 
ATOM     55  N   UNL     1       4.530  10.906 -23.804  1.00  0.00    -0.248 NA
ATOM     56  C   UNL     1       3.534  12.980 -23.488  1.00  0.00     0.031 C 
ATOM     57  C   UNL     1       7.596  13.102 -20.953  1.00  0.00     0.029 A 
ATOM     58  N   UNL     1       7.598  12.344 -23.030  1.00  0.00    -0.354 N 
ATOM     59  C   UNL     1       3.620  11.150 -24.826  1.00  0.00     0.074 A 
ATOM     60  C   UNL     1       2.897  12.340 -24.466  1.00  0.00     0.031 C 
ATOM     61  C   UNL     1       8.780  13.455 -21.503  1.00  0.00     0.029 A 
ATOM     62  C   UNL     1       8.809  13.010 -22.886  1.00  0.00     0.049 A 
ATOM     63  H   UNL     1       7.379  11.800 -23.820  1.00  0.00     0.167 HD
ATOM     64  C   UNL     1       3.738  10.527 -26.028  1.00  0.00     0.037 A 
ATOM     65  C   UNL     1       9.721  13.239 -23.865  1.00  0.00     0.037 A 
ATOM     66  C   UNL     1       4.548   9.341 -25.930  1.00  0.00     0.049 A 
ATOM     67  C   UNL     1       9.425  12.302 -24.978  1.00  0.00     0.074 A 
ATOM     68  C   UNL     1       4.484   8.183 -25.178  1.00  0.00     0.029 A 
ATOM     69  N   UNL     1       5.833   9.402 -26.410  1.00  0.00    -0.354 N 
ATOM     70  N   UNL     1       9.602  11.013 -24.913  1.00  0.00    -0.248 NA
ATOM     71  C   UNL     1       8.510  12.750 -26.018  1.00  0.00     0.031 C 
ATOM     72  C   UNL     1       5.838   7.874 -24.855  1.00  0.00     0.029 A 
ATOM     73  C   UNL     1       6.652   8.822 -25.476  1.00  0.00     0.049 A 
ATOM     74  H   UNL     1       6.115   9.790 -27.270  1.00  0.00     0.167 HD
ATOM     75  C   UNL     1       8.509  10.473 -25.573  1.00  0.00     0.074 A 
ATOM     76  C   UNL     1       7.931  11.586 -26.323  1.00  0.00     0.031 C 
ATOM     77  C   UNL     1       8.006   9.254 -25.217  1.00  0.00     0.037 A 
BRANCH  64  78
ATOM     78  C   UNL     1       3.462  11.223 -27.336  1.00  0.00     0.057 A 
ATOM     79  C   UNL     1       3.413  10.465 -28.516  1.00  0.00     0.134 A 
ATOM     80  C   UNL     1       3.529  12.621 -27.520  1.00  0.00     0.134 A 
ATOM     81  F   UNL     1       3.380   9.125 -28.470  1.00  0.00    -0.206 F 
ATOM     82  C   UNL     1       3.484  11.053 -29.784  1.00  0.00     0.040 A 
ATOM     83  C   UNL     1       3.541  13.221 -28.780  1.00  0.00     0.040 A 
ATOM     84  F   UNL     1       3.694  13.477 -26.504  1.00  0.00    -0.206 F 
ATOM     85  C   UNL     1       3.550  12.435 -29.919  1.00  0.00     0.006 A 
ENDBRANCH  64  78
BRANCH  65  86
ATOM     86  C   UNL     1      10.633  14.394 -24.037  1.00  0.00     0.057 A 
ATOM     87  C   UNL     1      11.692  14.347 -24.956  1.00  0.00     0.134 A 
ATOM     88  C   UNL     1      10.331  15.664 -23.515  1.00  0.00     0.134 A 
ATOM     89  F   UNL     1      12.036  13.190 -25.541  1.00  0.00    -0.206 F 
ATOM     90  C   UNL     1      12.387  15.496 -25.356  1.00  0.00     0.040 A 
ATOM     91  C   UNL     1      11.023  16.818 -23.897  1.00  0.00     0.040 A 
ATOM     92  F   UNL     1       9.293  15.847 -22.686  1.00  0.00    -0.206 F 
ATOM     93  C   UNL     1      12.045  16.740 -24.834  1.00  0.00     0.006 A 
ENDBRANCH  65  86
BRANCH  77  94
ATOM     94  C   UNL     1       8.833   8.407 -24.287  1.00  0.00     0.057 A 
ATOM     95  C   UNL     1       9.182   8.778 -22.978  1.00  0.00     0.134 A 
ATOM     96  C   UNL     1       9.194   7.118 -24.691  1.00  0.00     0.134 A 
ATOM     97  F   UNL     1       8.789   9.947 -22.458  1.00  0.00    -0.206 F 
ATOM     98  C   UNL     1       9.910   7.931 -22.137  1.00  0.00     0.040 A 
ATOM     99  C   UNL     1       9.889   6.247 -23.848  1.00  0.00     0.040 A 
ATOM    100  F   UNL     1       8.844   6.668 -25.906  1.00  0.00    -0.206 F 
ATOM    101  C   UNL     1      10.263   6.658 -22.572  1.00  0.00     0.006 A 
ENDBRANCH  77  94
ENDBRANCH  51  52
ENDBRANCH  44  46
ENDBRANCH  43  44
ENDBRANCH  42  43
ENDBRANCH  41  42
ENDBRANCH  40  41
ENDBRANCH  38  40
ENDBRANCH  37  38
ENDBRANCH  36  37
ENDBRANCH  35  36
ENDBRANCH   1  35
TORSDOF 26
