REMARK SMILES Cc1cc(C[N@H+]2CC[C@@H](C(=O)OCCOC(=O)c3ccc(-c4c5nc(c(-c6c(F)cccc6F)c6ccc([nH]6)c(-c6c(F)cccc6F)c6nc(c(-c7c(F)cccc7F)c7ccc4[nH]7)C=C6)C=C5)cc3)[C@@H]2C)ccc1Br
REMARK SMILES IDX 13 1 12 2 10 3 11 4 9 5 6 6 7 7 72 8 8 10 73 11 5 12 4 13
REMARK SMILES IDX 1 14 2 15 3 16 76 17 75 18 77 19 74 20 14 21 15 22 16 23
REMARK SMILES IDX 17 24 18 25 19 26 71 27 20 28 70 29 21 30 22 31 23 32 64 33
REMARK SMILES IDX 24 34 69 35 63 36 65 37 25 38 68 39 62 40 61 41 26 43 52 44
REMARK SMILES IDX 35 45 51 46 36 47 39 48 50 49 66 50 37 51 38 52 49 54 67 55
REMARK SMILES IDX 40 56 27 57 28 58 33 59 29 60 30 61 32 62 34 63 31 64 53 65
REMARK SMILES IDX 54 66 59 67 55 68 56 69 58 70 60 71 57 72 41 73 42 74 47 75
REMARK SMILES IDX 43 76 44 77 46 78 48 79 45 80
REMARK H PARENT 6 9 65 42 39 53
REMARK Flexibility Score: inf
ROOT
ATOM      1  C   UNL     1       0.158   3.003  -1.214  1.00  0.00     0.274 C 
ENDROOT
BRANCH   1   2
ATOM      2  O   UNL     1       1.484   2.450  -1.362  1.00  0.00    -0.462 OA
BRANCH   2   3
ATOM      3  C   UNL     1       2.029   2.443  -2.599  1.00  0.00     0.315 C 
ATOM      4  O   UNL     1       1.442   2.798  -3.617  1.00  0.00    -0.252 OA
BRANCH   3   5
ATOM      5  C   UNL     1       3.451   1.914  -2.644  1.00  0.00     0.162 C 
ATOM      6  N   UNL     1       4.952   0.786  -1.128  1.00  0.00    -0.328 N 
ATOM      7  C   UNL     1       4.737  -0.057  -2.299  1.00  0.00     0.263 C 
ATOM      8  C   UNL     1       4.322   2.096  -1.388  1.00  0.00     0.195 C 
ATOM      9  H   UNL     1       5.956   0.921  -1.006  1.00  0.00     0.348 HD
ATOM     10  C   UNL     1       3.445   0.422  -2.923  1.00  0.00     0.083 C 
ATOM     11  C   UNL     1       5.460   3.101  -1.615  1.00  0.00     0.076 C 
BRANCH   6  12
ATOM     12  C   UNL     1       4.623   0.175   0.167  1.00  0.00     0.299 C 
BRANCH  12  13
ATOM     13  C   UNL     1       3.159  -0.052   0.483  1.00  0.00     0.007 A 
ATOM     14  C   UNL     1       0.476  -2.681  -0.159  1.00  0.00     0.045 C 
ATOM     15  C   UNL     1       1.127  -1.412   0.314  1.00  0.00    -0.036 A 
ATOM     16  C   UNL     1       2.502  -1.226   0.084  1.00  0.00     0.014 A 
ATOM     17  C   UNL     1       0.406  -0.384   0.938  1.00  0.00     0.020 A 
ATOM     18  C   UNL     1       1.059   0.762   1.393  1.00  0.00     0.016 A 
ATOM     19  Br  UNL     1      -1.478  -0.461   1.165  1.00  0.00    -0.051 Br
ATOM     20  C   UNL     1       2.427   0.921   1.176  1.00  0.00     0.011 A 
ENDBRANCH  12  13
ENDBRANCH   6  12
ENDBRANCH   3   5
ENDBRANCH   2   3
ENDBRANCH   1   2
BRANCH   1  21
ATOM     21  C   UNL     1       0.220   4.300  -0.406  1.00  0.00     0.275 C 
BRANCH  21  22
ATOM     22  O   UNL     1       0.757   5.355  -1.220  1.00  0.00    -0.458 OA
BRANCH  22  23
ATOM     23  C   UNL     1       2.104   5.459  -1.214  1.00  0.00     0.338 C 
ATOM     24  O   UNL     1       2.899   4.888  -0.489  1.00  0.00    -0.246 OA
BRANCH  23  25
ATOM     25  C   UNL     1       2.487   6.262  -2.379  1.00  0.00     0.060 A 
ATOM     26  C   UNL     1       3.193   5.646  -3.418  1.00  0.00     0.016 A 
ATOM     27  C   UNL     1       2.140   7.607  -2.447  1.00  0.00     0.016 A 
ATOM     28  C   UNL     1       3.557   6.369  -4.543  1.00  0.00     0.010 A 
ATOM     29  C   UNL     1       2.498   8.333  -3.578  1.00  0.00     0.010 A 
ATOM     30  C   UNL     1       3.209   7.716  -4.625  1.00  0.00    -0.014 A 
BRANCH  30  31
ATOM     31  C   UNL     1       3.639   8.534  -5.772  1.00  0.00     0.031 A 
ATOM     32  C   UNL     1       4.704   9.558  -5.554  1.00  0.00     0.074 A 
ATOM     33  C   UNL     1       3.021   8.400  -6.957  1.00  0.00     0.049 A 
ATOM     34  N   UNL     1       5.059  10.558  -6.313  1.00  0.00    -0.248 NA
ATOM     35  C   UNL     1       5.455   9.453  -4.291  1.00  0.00     0.031 C 
ATOM     36  C   UNL     1       2.014   7.388  -7.278  1.00  0.00     0.029 A 
ATOM     37  N   UNL     1       3.124   9.150  -8.099  1.00  0.00    -0.354 N 
ATOM     38  C   UNL     1       6.044  11.230  -5.603  1.00  0.00     0.074 A 
ATOM     39  C   UNL     1       6.222  10.530  -4.349  1.00  0.00     0.031 C 
ATOM     40  C   UNL     1       1.565   7.603  -8.525  1.00  0.00     0.029 A 
ATOM     41  C   UNL     1       2.207   8.800  -9.059  1.00  0.00     0.049 A 
ATOM     42  H   UNL     1       3.789   9.866  -8.219  1.00  0.00     0.167 HD
ATOM     43  C   UNL     1       6.724  12.339  -5.972  1.00  0.00     0.037 A 
ATOM     44  C   UNL     1       1.886   9.417 -10.211  1.00  0.00     0.037 A 
ATOM     45  C   UNL     1       6.522  13.007  -7.230  1.00  0.00     0.049 A 
ATOM     46  C   UNL     1       2.611  10.684 -10.575  1.00  0.00     0.074 A 
ATOM     47  C   UNL     1       7.164  14.125  -7.727  1.00  0.00     0.029 A 
ATOM     48  N   UNL     1       5.595  12.614  -8.188  1.00  0.00    -0.354 N 
ATOM     49  N   UNL     1       3.540  11.325  -9.905  1.00  0.00    -0.248 NA
ATOM     50  C   UNL     1       2.242  11.318 -11.847  1.00  0.00     0.031 C 
ATOM     51  C   UNL     1       6.587  14.443  -8.960  1.00  0.00     0.029 A 
ATOM     52  C   UNL     1       5.632  13.483  -9.263  1.00  0.00     0.049 A 
ATOM     53  H   UNL     1       5.001  11.833  -8.112  1.00  0.00     0.167 HD
ATOM     54  C   UNL     1       3.895  12.414 -10.690  1.00  0.00     0.074 A 
ATOM     55  C   UNL     1       3.076  12.348 -11.885  1.00  0.00     0.031 C 
ATOM     56  C   UNL     1       4.818  13.377 -10.450  1.00  0.00     0.037 A 
BRANCH  43  57
ATOM     57  C   UNL     1       7.696  12.915  -4.986  1.00  0.00     0.057 A 
ATOM     58  C   UNL     1       8.886  12.262  -4.638  1.00  0.00     0.134 A 
ATOM     59  C   UNL     1       7.435  14.146  -4.371  1.00  0.00     0.134 A 
ATOM     60  F   UNL     1       9.190  11.070  -5.175  1.00  0.00    -0.206 F 
ATOM     61  C   UNL     1       9.764  12.796  -3.692  1.00  0.00     0.040 A 
ATOM     62  C   UNL     1       8.319  14.706  -3.448  1.00  0.00     0.040 A 
ATOM     63  F   UNL     1       6.314  14.827  -4.656  1.00  0.00    -0.206 F 
ATOM     64  C   UNL     1       9.484  14.026  -3.099  1.00  0.00     0.006 A 
ENDBRANCH  43  57
BRANCH  44  65
ATOM     65  C   UNL     1       0.819   8.858 -11.076  1.00  0.00     0.057 A 
ATOM     66  C   UNL     1       1.121   8.286 -12.316  1.00  0.00     0.134 A 
ATOM     67  C   UNL     1      -0.525   8.860 -10.679  1.00  0.00     0.134 A 
ATOM     68  F   UNL     1       2.386   8.268 -12.760  1.00  0.00    -0.206 F 
ATOM     69  C   UNL     1       0.127   7.746 -13.135  1.00  0.00     0.040 A 
ATOM     70  C   UNL     1      -1.525   8.299 -11.475  1.00  0.00     0.040 A 
ATOM     71  F   UNL     1      -0.882   9.386  -9.498  1.00  0.00    -0.206 F 
ATOM     72  C   UNL     1      -1.200   7.745 -12.711  1.00  0.00     0.006 A 
ENDBRANCH  44  65
BRANCH  56  73
ATOM     73  C   UNL     1       5.046  14.400 -11.523  1.00  0.00     0.057 A 
ATOM     74  C   UNL     1       4.132  15.428 -11.779  1.00  0.00     0.134 A 
ATOM     75  C   UNL     1       6.244  14.399 -12.251  1.00  0.00     0.134 A 
ATOM     76  F   UNL     1       2.961  15.476 -11.125  1.00  0.00    -0.206 F 
ATOM     77  C   UNL     1       4.398  16.416 -12.728  1.00  0.00     0.040 A 
ATOM     78  C   UNL     1       6.533  15.397 -13.180  1.00  0.00     0.040 A 
ATOM     79  F   UNL     1       7.165  13.445 -12.044  1.00  0.00    -0.206 F 
ATOM     80  C   UNL     1       5.607  16.409 -13.422  1.00  0.00     0.006 A 
ENDBRANCH  56  73
ENDBRANCH  30  31
ENDBRANCH  23  25
ENDBRANCH  22  23
ENDBRANCH  21  22
ENDBRANCH   1  21
TORSDOF 13
