REMARK SMILES Cc1ccc(C(=O)N2CCC3(CCC(=O)N(CC(=O)OCCOC(=O)c4ccc(-c5c6nc(c(-c7c(F)cccc7F)c7ccc([nH]7)c(-c7c(F)cccc7F)c7nc(c(-c8c(F)cccc8F)c8ccc5[nH]8)C=C7)C=C6)cc4)C3)CC2)cc1O
REMARK SMILES IDX 21 1 20 2 18 3 19 4 17 5 16 6 6 7 7 8 8 9 9 10 82 11 10 12
REMARK SMILES IDX 81 13 11 14 12 15 80 16 13 17 14 18 15 19 5 20 1 21 2 22
REMARK SMILES IDX 3 23 84 24 4 25 83 26 85 27 22 29 23 30 24 31 25 32 26 33
REMARK SMILES IDX 27 34 79 35 28 36 78 37 29 38 30 39 31 40 72 41 32 42 77 43
REMARK SMILES IDX 71 44 73 45 33 46 76 47 70 48 69 49 34 51 60 52 43 53 59 54
REMARK SMILES IDX 44 55 47 56 58 57 74 58 45 59 46 60 57 62 75 63 48 64 35 65
REMARK SMILES IDX 36 66 41 67 37 68 38 69 40 70 42 71 39 72 61 73 62 74 67 75
REMARK SMILES IDX 63 76 64 77 66 78 68 79 65 80 49 81 50 82 55 83 51 84 52 85
REMARK SMILES IDX 54 86 56 87 53 88
REMARK H PARENT 85 28 73 50 47 61
REMARK Flexibility Score: inf
ROOT
ATOM      1  C   UNL     1      10.006  -5.333   4.112  1.00  0.00     0.274 C 
ENDROOT
BRANCH   1   2
ATOM      2  O   UNL     1       9.073  -4.546   3.349  1.00  0.00    -0.461 OA
BRANCH   2   3
ATOM      3  C   UNL     1       8.315  -3.682   4.063  1.00  0.00     0.325 C 
ATOM      4  O   UNL     1       8.210  -3.682   5.287  1.00  0.00    -0.250 OA
BRANCH   3   5
ATOM      5  C   UNL     1       7.576  -2.656   3.210  1.00  0.00     0.242 C 
BRANCH   5   6
ATOM      6  N   UNL     1       7.762  -2.607   1.762  1.00  0.00    -0.331 N 
ATOM      7  C   UNL     1       2.929   1.474   0.409  1.00  0.00     0.253 C 
ATOM      8  O   UNL     1       2.799   2.552   0.985  1.00  0.00    -0.269 OA
ATOM      9  N   UNL     1       4.172   0.888   0.200  1.00  0.00    -0.339 N 
ATOM     10  C   UNL     1       5.245   1.165   1.137  1.00  0.00     0.120 C 
ATOM     11  C   UNL     1       4.562   0.183  -1.012  1.00  0.00     0.120 C 
ATOM     12  C   UNL     1       5.846  -0.165   1.596  1.00  0.00     0.030 C 
ATOM     13  C   UNL     1       5.237  -1.144  -0.681  1.00  0.00     0.030 C 
ATOM     14  C   UNL     1       6.336  -1.053   0.417  1.00  0.00    -0.008 C 
ATOM     15  C   UNL     1       7.654  -0.515  -0.194  1.00  0.00     0.019 C 
ATOM     16  C   UNL     1       6.602  -2.495   0.905  1.00  0.00     0.127 C 
ATOM     17  C   UNL     1       8.863  -0.710   0.715  1.00  0.00     0.101 C 
ATOM     18  C   UNL     1       8.969  -2.104   1.300  1.00  0.00     0.223 C 
ATOM     19  O   UNL     1      10.051  -2.616   1.557  1.00  0.00    -0.275 OA
BRANCH   7  20
ATOM     20  C   UNL     1       1.702   0.696   0.080  1.00  0.00     0.043 A 
ATOM     21  C   UNL     1      -2.003  -1.517  -0.177  1.00  0.00     0.048 C 
ATOM     22  C   UNL     1      -0.725  -0.731  -0.135  1.00  0.00    -0.009 A 
ATOM     23  C   UNL     1       0.480  -1.404   0.100  1.00  0.00     0.008 A 
ATOM     24  C   UNL     1      -0.692   0.665  -0.258  1.00  0.00     0.119 A 
ATOM     25  C   UNL     1       1.678  -0.696   0.225  1.00  0.00     0.014 A 
ATOM     26  C   UNL     1       0.507   1.375  -0.163  1.00  0.00     0.060 A 
BRANCH  24  27
ATOM     27  O   UNL     1      -1.821   1.413  -0.438  1.00  0.00    -0.508 OA
ATOM     28  H   UNL     1      -2.655   0.993  -0.509  1.00  0.00     0.293 HD
ENDBRANCH  24  27
ENDBRANCH   7  20
ENDBRANCH   5   6
ENDBRANCH   3   5
ENDBRANCH   2   3
ENDBRANCH   1   2
BRANCH   1  29
ATOM     29  C   UNL     1      11.346  -4.607   4.223  1.00  0.00     0.275 C 
BRANCH  29  30
ATOM     30  O   UNL     1      11.170  -3.385   4.965  1.00  0.00    -0.458 OA
BRANCH  30  31
ATOM     31  C   UNL     1      11.747  -2.290   4.422  1.00  0.00     0.338 C 
ATOM     32  O   UNL     1      12.460  -2.227   3.437  1.00  0.00    -0.246 OA
BRANCH  31  33
ATOM     33  C   UNL     1      11.494  -1.117   5.275  1.00  0.00     0.060 A 
ATOM     34  C   UNL     1      10.201  -0.660   5.538  1.00  0.00     0.016 A 
ATOM     35  C   UNL     1      12.604  -0.399   5.726  1.00  0.00     0.016 A 
ATOM     36  C   UNL     1      10.019   0.557   6.198  1.00  0.00     0.010 A 
ATOM     37  C   UNL     1      12.420   0.785   6.436  1.00  0.00     0.010 A 
ATOM     38  C   UNL     1      11.128   1.291   6.648  1.00  0.00    -0.014 A 
BRANCH  38  39
ATOM     39  C   UNL     1      10.955   2.599   7.325  1.00  0.00     0.031 A 
ATOM     40  C   UNL     1      11.434   3.862   6.664  1.00  0.00     0.074 A 
ATOM     41  C   UNL     1      10.401   2.645   8.551  1.00  0.00     0.049 A 
ATOM     42  N   UNL     1      11.496   5.076   7.148  1.00  0.00    -0.248 NA
ATOM     43  C   UNL     1      11.916   3.743   5.278  1.00  0.00     0.031 C 
ATOM     44  C   UNL     1       9.895   1.490   9.294  1.00  0.00     0.029 A 
ATOM     45  N   UNL     1      10.185   3.706   9.393  1.00  0.00    -0.354 N 
ATOM     46  C   UNL     1      12.054   5.857   6.144  1.00  0.00     0.074 A 
ATOM     47  C   UNL     1      12.316   4.981   5.022  1.00  0.00     0.031 C 
ATOM     48  C   UNL     1       9.423   1.905  10.479  1.00  0.00     0.029 A 
ATOM     49  C   UNL     1       9.640   3.343  10.600  1.00  0.00     0.049 A 
ATOM     50  H   UNL     1      10.400   4.637   9.156  1.00  0.00     0.167 HD
ATOM     51  C   UNL     1      12.321   7.184   6.159  1.00  0.00     0.037 A 
ATOM     52  C   UNL     1       9.374   4.080  11.694  1.00  0.00     0.037 A 
ATOM     53  C   UNL     1      12.026   8.061   7.262  1.00  0.00     0.049 A 
ATOM     54  C   UNL     1       9.683   5.549  11.684  1.00  0.00     0.074 A 
ATOM     55  C   UNL     1      12.226   9.427   7.356  1.00  0.00     0.029 A 
ATOM     56  N   UNL     1      11.462   7.655   8.461  1.00  0.00    -0.354 N 
ATOM     57  N   UNL     1      10.208   6.275  10.727  1.00  0.00    -0.248 NA
ATOM     58  C   UNL     1       9.370   6.301  12.907  1.00  0.00     0.031 C 
ATOM     59  C   UNL     1      11.806   9.845   8.624  1.00  0.00     0.029 A 
ATOM     60  C   UNL     1      11.318   8.742   9.306  1.00  0.00     0.049 A 
ATOM     61  H   UNL     1      11.201   6.731   8.679  1.00  0.00     0.167 HD
ATOM     62  C   UNL     1      10.280   7.567  11.227  1.00  0.00     0.074 A 
ATOM     63  C   UNL     1       9.728   7.530  12.566  1.00  0.00     0.031 C 
ATOM     64  C   UNL     1      10.765   8.684  10.633  1.00  0.00     0.037 A 
BRANCH  51  65
ATOM     65  C   UNL     1      12.983   7.777   4.952  1.00  0.00     0.057 A 
ATOM     66  C   UNL     1      12.272   8.048   3.777  1.00  0.00     0.134 A 
ATOM     67  C   UNL     1      14.336   8.140   4.990  1.00  0.00     0.134 A 
ATOM     68  F   UNL     1      10.977   7.713   3.674  1.00  0.00    -0.206 F 
ATOM     69  C   UNL     1      12.885   8.654   2.679  1.00  0.00     0.040 A 
ATOM     70  C   UNL     1      14.955   8.761   3.905  1.00  0.00     0.040 A 
ATOM     71  F   UNL     1      15.071   7.910   6.089  1.00  0.00    -0.206 F 
ATOM     72  C   UNL     1      14.229   9.020   2.744  1.00  0.00     0.006 A 
ENDBRANCH  51  65
BRANCH  52  73
ATOM     73  C   UNL     1       8.806   3.430  12.899  1.00  0.00     0.057 A 
ATOM     74  C   UNL     1       7.477   3.643  13.277  1.00  0.00     0.134 A 
ATOM     75  C   UNL     1       9.578   2.575  13.694  1.00  0.00     0.134 A 
ATOM     76  F   UNL     1       6.696   4.469  12.565  1.00  0.00    -0.206 F 
ATOM     77  C   UNL     1       6.936   3.036  14.411  1.00  0.00     0.040 A 
ATOM     78  C   UNL     1       9.044   1.943  14.817  1.00  0.00     0.040 A 
ATOM     79  F   UNL     1      10.858   2.329  13.379  1.00  0.00    -0.206 F 
ATOM     80  C   UNL     1       7.719   2.178  15.181  1.00  0.00     0.006 A 
ENDBRANCH  52  73
BRANCH  64  81
ATOM     81  C   UNL     1      10.701   9.953  11.424  1.00  0.00     0.057 A 
ATOM     82  C   UNL     1      11.606  10.218  12.458  1.00  0.00     0.134 A 
ATOM     83  C   UNL     1       9.742  10.930  11.130  1.00  0.00     0.134 A 
ATOM     84  F   UNL     1      12.538   9.313  12.794  1.00  0.00    -0.206 F 
ATOM     85  C   UNL     1      11.548  11.406  13.187  1.00  0.00     0.040 A 
ATOM     86  C   UNL     1       9.685  12.129  11.841  1.00  0.00     0.040 A 
ATOM     87  F   UNL     1       8.850  10.735  10.147  1.00  0.00    -0.206 F 
ATOM     88  C   UNL     1      10.588  12.367  12.876  1.00  0.00     0.006 A 
ENDBRANCH  64  81
ENDBRANCH  38  39
ENDBRANCH  31  33
ENDBRANCH  30  31
ENDBRANCH  29  30
ENDBRANCH   1  29
TORSDOF 14
