REMARK SMILES Cc1nonc1C[C@@H](C(=O)OCCOC(=O)c1ccc(-c2c3nc(c(-c4c(F)cccc4F)c4ccc([nH]4)c(-c4c(F)cccc4F)c4nc(c(-c5c(F)cccc5F)c5ccc2[nH]5)C=C4)C=C3)cc1)c1ccccc1Br
REMARK SMILES IDX 12 1 11 2 9 3 10 4 8 5 7 6 6 7 1 8 2 9 3 10 4 11 5 12 71 13
REMARK SMILES IDX 72 14 76 15 73 16 75 17 77 18 74 19 13 20 14 21 15 22 16 23
REMARK SMILES IDX 17 24 18 25 70 26 19 27 69 28 20 29 21 30 22 31 63 32 23 33
REMARK SMILES IDX 68 34 62 35 64 36 24 37 67 38 61 39 60 40 25 42 51 43 34 44
REMARK SMILES IDX 50 45 35 46 38 47 49 48 65 49 36 50 37 51 48 53 66 54 39 55
REMARK SMILES IDX 26 56 27 57 32 58 28 59 29 60 31 61 33 62 30 63 52 64 53 65
REMARK SMILES IDX 58 66 54 67 55 68 57 69 59 70 56 71 40 72 41 73 46 74 42 75
REMARK SMILES IDX 43 76 45 77 47 78 44 79
REMARK H PARENT 64 41 38 52
REMARK Flexibility Score: inf
ROOT
ATOM      1  C   UNL     1      -3.874   2.200  -1.318  1.00  0.00     0.274 C 
ENDROOT
BRANCH   1   2
ATOM      2  O   UNL     1      -2.439   2.110  -1.448  1.00  0.00    -0.462 OA
BRANCH   2   3
ATOM      3  C   UNL     1      -1.759   3.270  -1.618  1.00  0.00     0.313 C 
ATOM      4  O   UNL     1      -2.317   4.348  -1.772  1.00  0.00    -0.252 OA
BRANCH   3   5
ATOM      5  C   UNL     1      -0.225   3.055  -1.625  1.00  0.00     0.136 C 
BRANCH   5   6
ATOM      6  C   UNL     1       0.217   2.399  -0.286  1.00  0.00     0.082 C 
BRANCH   6   7
ATOM      7  C   UNL     1       0.020   0.925  -0.119  1.00  0.00     0.109 A 
ATOM      8  C   UNL     1       2.450  -0.067  -0.259  1.00  0.00     0.073 C 
ATOM      9  C   UNL     1       0.982  -0.110  -0.093  1.00  0.00     0.105 A 
ATOM     10  N   UNL     1       0.380  -1.271   0.175  1.00  0.00    -0.055 NA
ATOM     11  O   UNL     1      -0.957  -0.950   0.362  1.00  0.00    -0.244 OA
ATOM     12  N   UNL     1      -1.166   0.412   0.215  1.00  0.00    -0.055 NA
ENDBRANCH   6   7
ENDBRANCH   5   6
BRANCH   5  13
ATOM     13  C   UNL     1       0.505   4.407  -1.914  1.00  0.00    -0.019 A 
ATOM     14  C   UNL     1       1.398   4.985  -0.981  1.00  0.00     0.006 A 
ATOM     15  C   UNL     1       0.253   5.161  -3.084  1.00  0.00     0.022 A 
ATOM     16  C   UNL     1       1.946   6.260  -1.163  1.00  0.00     0.000 A 
ATOM     17  C   UNL     1       0.758   6.464  -3.233  1.00  0.00     0.016 A 
ATOM     18  Br  UNL     1      -0.739   4.486  -4.564  1.00  0.00    -0.051 Br
ATOM     19  C   UNL     1       1.597   7.016  -2.271  1.00  0.00     0.001 A 
ENDBRANCH   5  13
ENDBRANCH   3   5
ENDBRANCH   2   3
ENDBRANCH   1   2
BRANCH   1  20
ATOM     20  C   UNL     1      -4.320   2.578   0.104  1.00  0.00     0.275 C 
BRANCH  20  21
ATOM     21  O   UNL     1      -4.215   4.001   0.328  1.00  0.00    -0.458 OA
BRANCH  21  22
ATOM     22  C   UNL     1      -3.221   4.400   1.155  1.00  0.00     0.338 C 
ATOM     23  O   UNL     1      -2.494   3.686   1.833  1.00  0.00    -0.246 OA
BRANCH  22  24
ATOM     24  C   UNL     1      -2.944   5.835   0.956  1.00  0.00     0.060 A 
ATOM     25  C   UNL     1      -1.657   6.156   0.522  1.00  0.00     0.016 A 
ATOM     26  C   UNL     1      -3.873   6.849   1.191  1.00  0.00     0.016 A 
ATOM     27  C   UNL     1      -1.301   7.470   0.262  1.00  0.00     0.010 A 
ATOM     28  C   UNL     1      -3.498   8.187   0.972  1.00  0.00     0.010 A 
ATOM     29  C   UNL     1      -2.213   8.500   0.496  1.00  0.00    -0.014 A 
BRANCH  29  30
ATOM     30  C   UNL     1      -1.733   9.891   0.326  1.00  0.00     0.031 A 
ATOM     31  C   UNL     1      -1.119  10.599   1.497  1.00  0.00     0.074 A 
ATOM     32  C   UNL     1      -1.702  10.462  -0.892  1.00  0.00     0.049 A 
ATOM     33  N   UNL     1      -0.637  11.813   1.573  1.00  0.00    -0.248 NA
ATOM     34  C   UNL     1      -1.006   9.823   2.742  1.00  0.00     0.031 C 
ATOM     35  C   UNL     1      -2.124   9.822  -2.137  1.00  0.00     0.029 A 
ATOM     36  N   UNL     1      -1.273  11.707  -1.280  1.00  0.00    -0.354 N 
ATOM     37  C   UNL     1      -0.170  11.951   2.872  1.00  0.00     0.074 A 
ATOM     38  C   UNL     1      -0.424  10.697   3.550  1.00  0.00     0.031 C 
ATOM     39  C   UNL     1      -1.941  10.684  -3.152  1.00  0.00     0.029 A 
ATOM     40  C   UNL     1      -1.433  11.949  -2.623  1.00  0.00     0.049 A 
ATOM     41  H   UNL     1      -0.887  12.363  -0.656  1.00  0.00     0.167 HD
ATOM     42  C   UNL     1       0.408  13.030   3.451  1.00  0.00     0.037 A 
ATOM     43  C   UNL     1      -1.226  13.076  -3.333  1.00  0.00     0.037 A 
ATOM     44  C   UNL     1       0.645  14.282   2.784  1.00  0.00     0.049 A 
ATOM     45  C   UNL     1      -0.724  14.311  -2.630  1.00  0.00     0.074 A 
ATOM     46  C   UNL     1       1.173  15.450   3.305  1.00  0.00     0.029 A 
ATOM     47  N   UNL     1       0.360  14.531   1.450  1.00  0.00    -0.354 N 
ATOM     48  N   UNL     1      -0.340  14.458  -1.385  1.00  0.00    -0.248 NA
ATOM     49  C   UNL     1      -0.645  15.544  -3.429  1.00  0.00     0.031 C 
ATOM     50  C   UNL     1       1.162  16.422   2.298  1.00  0.00     0.029 A 
ATOM     51  C   UNL     1       0.674  15.844   1.137  1.00  0.00     0.049 A 
ATOM     52  H   UNL     1      -0.011  13.873   0.819  1.00  0.00     0.167 HD
ATOM     53  C   UNL     1       0.042  15.788  -1.257  1.00  0.00     0.074 A 
ATOM     54  C   UNL     1      -0.138  16.402  -2.555  1.00  0.00     0.031 C 
ATOM     55  C   UNL     1       0.496  16.444  -0.160  1.00  0.00     0.037 A 
BRANCH  42  56
ATOM     56  C   UNL     1       0.757  12.917   4.903  1.00  0.00     0.057 A 
ATOM     57  C   UNL     1       1.860  12.179   5.349  1.00  0.00     0.134 A 
ATOM     58  C   UNL     1      -0.024  13.565   5.868  1.00  0.00     0.134 A 
ATOM     59  F   UNL     1       2.634  11.517   4.475  1.00  0.00    -0.206 F 
ATOM     60  C   UNL     1       2.163  12.074   6.707  1.00  0.00     0.040 A 
ATOM     61  C   UNL     1       0.281  13.486   7.226  1.00  0.00     0.040 A 
ATOM     62  F   UNL     1      -1.095  14.287   5.503  1.00  0.00    -0.206 F 
ATOM     63  C   UNL     1       1.374  12.734   7.650  1.00  0.00     0.006 A 
ENDBRANCH  42  56
BRANCH  43  64
ATOM     64  C   UNL     1      -1.553  13.123  -4.781  1.00  0.00     0.057 A 
ATOM     65  C   UNL     1      -0.559  13.313  -5.748  1.00  0.00     0.134 A 
ATOM     66  C   UNL     1      -2.878  13.040  -5.228  1.00  0.00     0.134 A 
ATOM     67  F   UNL     1       0.726  13.433  -5.382  1.00  0.00    -0.206 F 
ATOM     68  C   UNL     1      -0.872  13.438  -7.104  1.00  0.00     0.040 A 
ATOM     69  C   UNL     1      -3.203  13.134  -6.582  1.00  0.00     0.040 A 
ATOM     70  F   UNL     1      -3.879  12.870  -4.352  1.00  0.00    -0.206 F 
ATOM     71  C   UNL     1      -2.198  13.344  -7.523  1.00  0.00     0.006 A 
ENDBRANCH  43  64
BRANCH  55  72
ATOM     72  C   UNL     1       0.854  17.893  -0.319  1.00  0.00     0.057 A 
ATOM     73  C   UNL     1      -0.125  18.884  -0.467  1.00  0.00     0.134 A 
ATOM     74  C   UNL     1       2.191  18.308  -0.274  1.00  0.00     0.134 A 
ATOM     75  F   UNL     1      -1.424  18.552  -0.530  1.00  0.00    -0.206 F 
ATOM     76  C   UNL     1       0.214  20.233  -0.583  1.00  0.00     0.040 A 
ATOM     77  C   UNL     1       2.541  19.656  -0.364  1.00  0.00     0.040 A 
ATOM     78  F   UNL     1       3.178  17.411  -0.126  1.00  0.00    -0.206 F 
ATOM     79  C   UNL     1       1.551  20.623  -0.524  1.00  0.00     0.006 A 
ENDBRANCH  55  72
ENDBRANCH  29  30
ENDBRANCH  22  24
ENDBRANCH  21  22
ENDBRANCH  20  21
ENDBRANCH   1  20
TORSDOF 14
