REMARK SMILES C[C@H](Oc1ccnc2c(F)cc(F)cc12)C(=O)OCCOC(=O)c1ccc(-c2c3nc(c(-c4c(F)cccc4F)c4ccc([nH]4)c(-c4c(F)cccc4F)c4nc(c(-c5c(F)cccc5F)c5ccc2[nH]5)C=C4)C=C3)cc1
REMARK SMILES IDX 19 1 18 2 16 3 17 4 2 5 1 6 3 7 4 8 5 9 15 10 6 11 8 12
REMARK SMILES IDX 14 13 7 14 9 15 12 16 10 17 11 18 13 19 20 20 21 21 22 22
REMARK SMILES IDX 23 23 24 24 25 25 77 26 26 27 76 28 27 29 28 30 29 31 70 32
REMARK SMILES IDX 30 33 75 34 69 35 71 36 31 37 74 38 68 39 67 40 32 42 58 43
REMARK SMILES IDX 41 44 57 45 42 46 45 47 56 48 72 49 43 50 44 51 55 53 73 54
REMARK SMILES IDX 46 55 33 56 34 57 39 58 35 59 36 60 38 61 40 62 37 63 59 64
REMARK SMILES IDX 60 65 65 66 61 67 62 68 64 69 66 70 63 71 47 72 48 73 53 74
REMARK SMILES IDX 49 75 50 76 52 77 54 78 51 79
REMARK H PARENT 71 41 45 52
REMARK Flexibility Score: inf
ROOT
ATOM      1  C   UNL     1      -2.779   1.263  -0.741  1.00  0.00     0.274 C 
ENDROOT
BRANCH   1   2
ATOM      2  O   UNL     1      -1.401   0.856  -0.611  1.00  0.00    -0.459 OA
BRANCH   2   3
ATOM      3  C   UNL     1      -0.601   1.715   0.077  1.00  0.00     0.347 C 
ATOM      4  O   UNL     1      -0.975   2.776   0.570  1.00  0.00    -0.248 OA
BRANCH   3   5
ATOM      5  C   UNL     1       0.856   1.242   0.165  1.00  0.00     0.279 C 
ATOM      6  C   UNL     1       1.693   2.225  -0.653  1.00  0.00     0.066 C 
BRANCH   5   7
ATOM      7  O   UNL     1       1.154  -0.054  -0.338  1.00  0.00    -0.478 OA
BRANCH   7   8
ATOM      8  C   UNL     1       0.948  -1.168   0.435  1.00  0.00     0.131 A 
ATOM      9  C   UNL     1       0.557  -1.149   1.766  1.00  0.00     0.067 A 
ATOM     10  C   UNL     1       1.169  -2.411  -0.201  1.00  0.00     0.048 A 
ATOM     11  C   UNL     1       0.354  -2.355   2.408  1.00  0.00     0.115 A 
ATOM     12  C   UNL     1       0.933  -3.591   0.541  1.00  0.00     0.110 A 
ATOM     13  C   UNL     1       1.621  -2.512  -1.536  1.00  0.00     0.053 A 
ATOM     14  N   UNL     1       0.531  -3.554   1.826  1.00  0.00    -0.253 NA
ATOM     15  C   UNL     1       1.137  -4.817  -0.100  1.00  0.00     0.152 A 
ATOM     16  C   UNL     1       1.825  -3.754  -2.122  1.00  0.00     0.127 A 
ATOM     17  F   UNL     1       0.910  -5.962   0.565  1.00  0.00    -0.204 F 
ATOM     18  C   UNL     1       1.580  -4.914  -1.416  1.00  0.00     0.080 A 
ATOM     19  F   UNL     1       2.268  -3.824  -3.383  1.00  0.00    -0.207 F 
ENDBRANCH   7   8
ENDBRANCH   5   7
ENDBRANCH   3   5
ENDBRANCH   2   3
ENDBRANCH   1   2
BRANCH   1  20
ATOM     20  C   UNL     1      -3.647   0.611   0.332  1.00  0.00     0.275 C 
BRANCH  20  21
ATOM     21  O   UNL     1      -3.113   0.900   1.636  1.00  0.00    -0.458 OA
BRANCH  21  22
ATOM     22  C   UNL     1      -2.934  -0.169   2.442  1.00  0.00     0.338 C 
ATOM     23  O   UNL     1      -3.250  -1.327   2.203  1.00  0.00    -0.246 OA
BRANCH  22  24
ATOM     24  C   UNL     1      -2.270   0.222   3.704  1.00  0.00     0.060 A 
ATOM     25  C   UNL     1      -1.346   1.272   3.769  1.00  0.00     0.016 A 
ATOM     26  C   UNL     1      -2.511  -0.559   4.838  1.00  0.00     0.016 A 
ATOM     27  C   UNL     1      -0.625   1.497   4.944  1.00  0.00     0.010 A 
ATOM     28  C   UNL     1      -1.845  -0.285   6.033  1.00  0.00     0.010 A 
ATOM     29  C   UNL     1      -0.880   0.733   6.093  1.00  0.00    -0.014 A 
BRANCH  29  30
ATOM     30  C   UNL     1      -0.184   1.006   7.376  1.00  0.00     0.031 A 
ATOM     31  C   UNL     1       0.716  -0.027   7.998  1.00  0.00     0.074 A 
ATOM     32  C   UNL     1      -0.418   2.165   8.020  1.00  0.00     0.049 A 
ATOM     33  N   UNL     1       1.272  -0.033   9.183  1.00  0.00    -0.248 NA
ATOM     34  C   UNL     1       1.023  -1.213   7.183  1.00  0.00     0.031 C 
ATOM     35  C   UNL     1      -1.265   3.252   7.527  1.00  0.00     0.029 A 
ATOM     36  N   UNL     1       0.019   2.610   9.242  1.00  0.00    -0.354 N 
ATOM     37  C   UNL     1       1.977  -1.227   9.267  1.00  0.00     0.074 A 
ATOM     38  C   UNL     1       1.764  -1.929   8.018  1.00  0.00     0.031 C 
ATOM     39  C   UNL     1      -1.285   4.239   8.436  1.00  0.00     0.029 A 
ATOM     40  C   UNL     1      -0.503   3.830   9.597  1.00  0.00     0.049 A 
ATOM     41  H   UNL     1       0.645   2.105   9.809  1.00  0.00     0.167 HD
ATOM     42  C   UNL     1       2.734  -1.694  10.289  1.00  0.00     0.037 A 
ATOM     43  C   UNL     1      -0.398   4.526  10.743  1.00  0.00     0.037 A 
ATOM     44  C   UNL     1       2.956  -0.992  11.527  1.00  0.00     0.049 A 
ATOM     45  C   UNL     1       0.397   3.961  11.882  1.00  0.00     0.074 A 
ATOM     46  C   UNL     1       3.736  -1.371  12.607  1.00  0.00     0.029 A 
ATOM     47  N   UNL     1       2.393   0.232  11.853  1.00  0.00    -0.354 N 
ATOM     48  N   UNL     1       1.061   2.833  11.946  1.00  0.00    -0.248 NA
ATOM     49  C   UNL     1       0.446   4.761  13.113  1.00  0.00     0.031 C 
ATOM     50  C   UNL     1       3.617  -0.391  13.600  1.00  0.00     0.029 A 
ATOM     51  C   UNL     1       2.791   0.614  13.124  1.00  0.00     0.049 A 
ATOM     52  H   UNL     1       1.798   0.753  11.267  1.00  0.00     0.167 HD
ATOM     53  C   UNL     1       1.619   2.794  13.216  1.00  0.00     0.074 A 
ATOM     54  C   UNL     1       1.226   4.018  13.884  1.00  0.00     0.031 C 
ATOM     55  C   UNL     1       2.386   1.830  13.779  1.00  0.00     0.037 A 
BRANCH  42  56
ATOM     56  C   UNL     1       3.372  -3.040  10.117  1.00  0.00     0.057 A 
ATOM     57  C   UNL     1       2.892  -4.153  10.820  1.00  0.00     0.134 A 
ATOM     58  C   UNL     1       4.486  -3.228   9.290  1.00  0.00     0.134 A 
ATOM     59  F   UNL     1       1.831  -4.038  11.633  1.00  0.00    -0.206 F 
ATOM     60  C   UNL     1       3.498  -5.405  10.707  1.00  0.00     0.040 A 
ATOM     61  C   UNL     1       5.090  -4.480   9.154  1.00  0.00     0.040 A 
ATOM     62  F   UNL     1       4.987  -2.205   8.582  1.00  0.00    -0.206 F 
ATOM     63  C   UNL     1       4.599  -5.571   9.868  1.00  0.00     0.006 A 
ENDBRANCH  42  56
BRANCH  43  64
ATOM     64  C   UNL     1      -1.090   5.830  10.877  1.00  0.00     0.057 A 
ATOM     65  C   UNL     1      -2.482   5.907  11.002  1.00  0.00     0.134 A 
ATOM     66  C   UNL     1      -0.370   7.029  10.880  1.00  0.00     0.134 A 
ATOM     67  F   UNL     1      -3.225   4.791  11.002  1.00  0.00    -0.206 F 
ATOM     68  C   UNL     1      -3.136   7.134  11.114  1.00  0.00     0.040 A 
ATOM     69  C   UNL     1      -1.009   8.261  11.013  1.00  0.00     0.040 A 
ATOM     70  F   UNL     1       0.967   7.012  10.784  1.00  0.00    -0.206 F 
ATOM     71  C   UNL     1      -2.398   8.316  11.125  1.00  0.00     0.006 A 
ENDBRANCH  43  64
BRANCH  55  72
ATOM     72  C   UNL     1       2.864   2.079  15.177  1.00  0.00     0.057 A 
ATOM     73  C   UNL     1       4.194   2.444  15.423  1.00  0.00     0.134 A 
ATOM     74  C   UNL     1       2.008   1.960  16.279  1.00  0.00     0.134 A 
ATOM     75  F   UNL     1       5.063   2.573  14.410  1.00  0.00    -0.206 F 
ATOM     76  C   UNL     1       4.654   2.685  16.718  1.00  0.00     0.040 A 
ATOM     77  C   UNL     1       2.452   2.217  17.576  1.00  0.00     0.040 A 
ATOM     78  F   UNL     1       0.719   1.632  16.105  1.00  0.00    -0.206 F 
ATOM     79  C   UNL     1       3.780   2.578  17.799  1.00  0.00     0.006 A 
ENDBRANCH  55  72
ENDBRANCH  29  30
ENDBRANCH  22  24
ENDBRANCH  21  22
ENDBRANCH  20  21
ENDBRANCH   1  20
TORSDOF 13
