REMARK SMILES O=C(OCCOC(=O)c1ccc(-c2c3nc(c(-c4c(F)cccc4F)c4ccc([nH]4)c(-c4c(F)cccc4F)c4nc(c(-c5c(F)cccc5F)c5ccc2[nH]5)C=C4)C=C3)cc1)C1=Cc2cc(Cl)cc(-c3ccccc3)c2O[C@@H]1C(F)(F)F
REMARK SMILES IDX 5 1 4 2 3 3 2 4 1 5 63 6 64 7 79 8 65 9 78 10 66 11 77 12
REMARK SMILES IDX 67 13 70 14 68 15 69 16 80 17 81 18 82 19 83 20 71 21 72 22
REMARK SMILES IDX 76 23 73 24 75 25 74 26 6 27 7 28 8 29 9 30 10 31 62 32
REMARK SMILES IDX 11 33 61 34 12 35 13 36 14 37 55 38 15 39 60 40 54 41 56 42
REMARK SMILES IDX 16 43 59 44 53 45 52 46 17 48 43 49 26 50 42 51 27 52 30 53
REMARK SMILES IDX 41 54 57 55 28 56 29 57 40 59 58 60 31 61 18 62 19 63 24 64
REMARK SMILES IDX 20 65 21 66 23 67 25 68 22 69 44 70 45 71 50 72 46 73 47 74
REMARK SMILES IDX 49 75 51 76 48 77 32 78 33 79 38 80 34 81 35 82 37 83 39 84
REMARK SMILES IDX 36 85
REMARK H PARENT 56 47 30 58
REMARK Flexibility Score: inf
ROOT
ATOM      1  C   UNL     1       4.714   0.800  -0.157  1.00  0.00     0.275 C 
ENDROOT
BRANCH   1   2
ATOM      2  C   UNL     1       3.986  -0.910   0.938  1.00  0.00     0.275 C 
BRANCH   2   3
ATOM      3  O   UNL     1       3.197  -0.873   2.297  1.00  0.00    -0.459 OA
BRANCH   3   4
ATOM      4  C   UNL     1       3.380   0.257   2.989  1.00  0.00     0.338 C 
ATOM      5  O   UNL     1       2.869   0.658   4.003  1.00  0.00    -0.246 OA
BRANCH   4   6
ATOM      6  C   UNL     1       4.128   0.912   1.952  1.00  0.00     0.087 C 
ATOM      7  C   UNL     1       5.515   0.404   1.925  1.00  0.00     0.027 C 
ATOM      8  C   UNL     1       2.834   0.686   0.534  1.00  0.00     0.316 C 
ATOM      9  C   UNL     1       6.159  -0.638   0.594  1.00  0.00     0.019 A 
ATOM     10  O   UNL     1       3.496  -0.450  -0.875  1.00  0.00    -0.475 OA
ATOM     11  C   UNL     1       7.385  -1.212   0.806  1.00  0.00     0.032 A 
ATOM     12  C   UNL     1       5.170  -1.161  -0.749  1.00  0.00     0.135 A 
ATOM     13  C   UNL     1       7.732  -2.204  -0.112  1.00  0.00     0.042 A 
ATOM     14  C   UNL     1       5.591  -2.177  -1.579  1.00  0.00     0.026 A 
ATOM     15  Cl  UNL     1       9.243  -3.017   0.139  1.00  0.00    -0.084 Cl
ATOM     16  C   UNL     1       6.901  -2.646  -1.213  1.00  0.00     0.033 A 
BRANCH   8  17
ATOM     17  C   UNL     1       2.199   2.119   0.552  1.00  0.00     0.430 C 
ATOM     18  F   UNL     1       0.977   2.139   0.002  1.00  0.00    -0.167 F 
ATOM     19  F   UNL     1       1.986   2.470   1.859  1.00  0.00    -0.167 F 
ATOM     20  F   UNL     1       2.956   3.131   0.097  1.00  0.00    -0.167 F 
ENDBRANCH   8  17
BRANCH  14  21
ATOM     21  C   UNL     1       4.908  -2.901  -2.640  1.00  0.00    -0.015 A 
ATOM     22  C   UNL     1       4.561  -4.253  -2.430  1.00  0.00     0.009 A 
ATOM     23  C   UNL     1       4.831  -2.392  -3.940  1.00  0.00     0.009 A 
ATOM     24  C   UNL     1       4.168  -5.073  -3.488  1.00  0.00     0.001 A 
ATOM     25  C   UNL     1       4.436  -3.216  -5.001  1.00  0.00     0.001 A 
ATOM     26  C   UNL     1       4.111  -4.554  -4.776  1.00  0.00     0.000 A 
ENDBRANCH  14  21
ENDBRANCH   4   6
ENDBRANCH   3   4
ENDBRANCH   2   3
ENDBRANCH   1   2
BRANCH   1  27
ATOM     27  O   UNL     1       3.878   1.679  -1.348  1.00  0.00    -0.458 OA
BRANCH  27  28
ATOM     28  C   UNL     1       3.103   1.565  -2.468  1.00  0.00     0.338 C 
ATOM     29  O   UNL     1       2.772   0.577  -3.092  1.00  0.00    -0.246 OA
BRANCH  28  30
ATOM     30  C   UNL     1       2.432   2.899  -2.604  1.00  0.00     0.060 A 
ATOM     31  C   UNL     1       1.055   2.991  -2.339  1.00  0.00     0.016 A 
ATOM     32  C   UNL     1       3.214   4.055  -2.597  1.00  0.00     0.016 A 
ATOM     33  C   UNL     1       0.523   4.188  -1.823  1.00  0.00     0.010 A 
ATOM     34  C   UNL     1       2.671   5.253  -2.122  1.00  0.00     0.010 A 
ATOM     35  C   UNL     1       1.346   5.311  -1.654  1.00  0.00    -0.014 A 
BRANCH  35  36
ATOM     36  C   UNL     1       0.802   6.618  -1.197  1.00  0.00     0.031 A 
ATOM     37  C   UNL     1       0.269   7.522  -2.266  1.00  0.00     0.074 A 
ATOM     38  C   UNL     1       0.857   7.047   0.082  1.00  0.00     0.049 A 
ATOM     39  N   UNL     1      -0.153   8.755  -2.189  1.00  0.00    -0.248 NA
ATOM     40  C   UNL     1       0.243   6.951  -3.623  1.00  0.00     0.031 C 
ATOM     41  C   UNL     1       1.351   6.285   1.228  1.00  0.00     0.029 A 
ATOM     42  N   UNL     1       0.505   8.264   0.628  1.00  0.00    -0.354 N 
ATOM     43  C   UNL     1      -0.494   9.105  -3.487  1.00  0.00     0.074 A 
ATOM     44  C   UNL     1      -0.177   7.980  -4.336  1.00  0.00     0.031 C 
ATOM     45  C   UNL     1       1.288   7.055   2.333  1.00  0.00     0.029 A 
ATOM     46  C   UNL     1       0.765   8.374   1.977  1.00  0.00     0.049 A 
ATOM     47  H   UNL     1       0.104   8.992   0.100  1.00  0.00     0.167 HD
ATOM     48  C   UNL     1      -1.041  10.255  -3.940  1.00  0.00     0.037 A 
ATOM     49  C   UNL     1       0.605   9.423   2.815  1.00  0.00     0.037 A 
ATOM     50  C   UNL     1      -1.323  11.392  -3.115  1.00  0.00     0.049 A 
ATOM     51  C   UNL     1       0.054  10.726   2.274  1.00  0.00     0.074 A 
ATOM     52  C   UNL     1      -1.868  12.608  -3.479  1.00  0.00     0.029 A 
ATOM     53  N   UNL     1      -1.066  11.452  -1.754  1.00  0.00    -0.354 N 
ATOM     54  N   UNL     1      -0.332  11.023   1.056  1.00  0.00    -0.248 NA
ATOM     55  C   UNL     1      -0.086  11.841   3.227  1.00  0.00     0.031 C 
ATOM     56  C   UNL     1      -1.907  13.421  -2.342  1.00  0.00     0.029 A 
ATOM     57  C   UNL     1      -1.430  12.693  -1.263  1.00  0.00     0.049 A 
ATOM     58  H   UNL     1      -0.682  10.722  -1.217  1.00  0.00     0.167 HD
ATOM     59  C   UNL     1      -0.801  12.332   1.109  1.00  0.00     0.074 A 
ATOM     60  C   UNL     1      -0.655  12.775   2.478  1.00  0.00     0.031 C 
ATOM     61  C   UNL     1      -1.310  13.100   0.113  1.00  0.00     0.037 A 
BRANCH  48  62
ATOM     62  C   UNL     1      -1.334  10.309  -5.407  1.00  0.00     0.057 A 
ATOM     63  C   UNL     1      -2.352   9.529  -5.975  1.00  0.00     0.134 A 
ATOM     64  C   UNL     1      -0.541  11.073  -6.268  1.00  0.00     0.134 A 
ATOM     65  F   UNL     1      -3.122   8.748  -5.201  1.00  0.00    -0.206 F 
ATOM     66  C   UNL     1      -2.539   9.472  -7.355  1.00  0.00     0.040 A 
ATOM     67  C   UNL     1      -0.739  11.046  -7.649  1.00  0.00     0.040 A 
ATOM     68  F   UNL     1       0.456  11.831  -5.787  1.00  0.00    -0.206 F 
ATOM     69  C   UNL     1      -1.730  10.233  -8.196  1.00  0.00     0.006 A 
ENDBRANCH  48  62
BRANCH  49  70
ATOM     70  C   UNL     1       0.950   9.326   4.264  1.00  0.00     0.057 A 
ATOM     71  C   UNL     1      -0.046   9.395   5.249  1.00  0.00     0.134 A 
ATOM     72  C   UNL     1       2.278   9.270   4.705  1.00  0.00     0.134 A 
ATOM     73  F   UNL     1      -1.336   9.491   4.896  1.00  0.00    -0.206 F 
ATOM     74  C   UNL     1       0.264   9.444   6.612  1.00  0.00     0.040 A 
ATOM     75  C   UNL     1       2.601   9.293   6.067  1.00  0.00     0.040 A 
ATOM     76  F   UNL     1       3.284   9.217   3.822  1.00  0.00    -0.206 F 
ATOM     77  C   UNL     1       1.593   9.392   7.024  1.00  0.00     0.006 A 
ENDBRANCH  49  70
BRANCH  61  78
ATOM     78  C   UNL     1      -1.807  14.472   0.466  1.00  0.00     0.057 A 
ATOM     79  C   UNL     1      -0.935  15.529   0.752  1.00  0.00     0.134 A 
ATOM     80  C   UNL     1      -3.179  14.757   0.426  1.00  0.00     0.134 A 
ATOM     81  F   UNL     1       0.389  15.321   0.814  1.00  0.00    -0.206 F 
ATOM     82  C   UNL     1      -1.410  16.819   0.994  1.00  0.00     0.040 A 
ATOM     83  C   UNL     1      -3.663  16.047   0.639  1.00  0.00     0.040 A 
ATOM     84  F   UNL     1      -4.067  13.791   0.146  1.00  0.00    -0.206 F 
ATOM     85  C   UNL     1      -2.777  17.083   0.926  1.00  0.00     0.006 A 
ENDBRANCH  61  78
ENDBRANCH  35  36
ENDBRANCH  28  30
ENDBRANCH  27  28
ENDBRANCH   1  27
TORSDOF 13
