REMARK SMILES Cc1ccc(NC(=O)c2ccccc2NC(=O)[C@H]2CCCC[C@H]2C(=O)OCCOC(=O)c2ccc(-c3c4nc(c(-c5c(F)cccc5F)c5ccc([nH]5)c(-c5c(F)cccc5F)c5nc(c(-c6c(F)cccc6F)c6ccc3[nH]6)C=C5)C=C4)cc2)cc1
REMARK SMILES IDX 27 1 26 2 24 3 25 4 23 5 18 6 19 7 20 8 22 9 21 10 16 11
REMARK SMILES IDX 15 12 17 14 14 15 9 16 10 17 11 18 13 19 12 20 7 21 6 22
REMARK SMILES IDX 8 24 5 25 1 26 2 27 3 28 87 29 4 30 86 31 28 32 29 33 30 34
REMARK SMILES IDX 31 35 32 36 33 37 85 38 34 39 84 40 35 41 36 42 37 43 78 44
REMARK SMILES IDX 38 45 83 46 77 47 79 48 39 49 82 50 76 51 75 52 40 54 66 55
REMARK SMILES IDX 49 56 65 57 50 58 53 59 64 60 80 61 51 62 52 63 63 65 81 66
REMARK SMILES IDX 54 67 41 68 42 69 47 70 43 71 44 72 46 73 48 74 45 75 67 76
REMARK SMILES IDX 68 77 73 78 69 79 70 80 72 81 74 82 71 83 55 84 56 85 61 86
REMARK SMILES IDX 57 87 58 88 60 89 62 90 59 91
REMARK H PARENT 15 13 6 23 79 53 53 64
REMARK Flexibility Score: inf
ROOT
ATOM      1  C   UNL     1      -0.818   2.319   7.104  1.00  0.00     0.274 C 
ENDROOT
BRANCH   1   2
ATOM      2  O   UNL     1      -0.711   0.888   7.020  1.00  0.00    -0.462 OA
BRANCH   2   3
ATOM      3  C   UNL     1      -1.744   0.180   6.264  1.00  0.00     0.309 C 
ATOM      4  O   UNL     1      -2.784   0.871   6.468  1.00  0.00    -0.252 OA
BRANCH   3   5
ATOM      5  C   UNL     1      -1.390  -1.649   5.088  1.00  0.00     0.111 C 
ATOM      6  C   UNL     1      -0.289  -1.992   3.730  1.00  0.00     0.093 C 
ATOM      7  C   UNL     1      -0.367  -3.352   3.007  1.00  0.00     0.014 C 
ATOM      8  C   UNL     1      -0.235  -4.544   3.921  1.00  0.00     0.001 C 
ATOM      9  C   UNL     1      -1.648  -3.381   5.634  1.00  0.00     0.016 C 
ATOM     10  C   UNL     1      -1.492  -4.596   4.729  1.00  0.00     0.001 C 
BRANCH   6  11
ATOM     11  C   UNL     1       1.196  -1.781   3.937  1.00  0.00     0.228 C 
ATOM     12  N   UNL     1       1.856  -0.774   3.299  1.00  0.00    -0.325 N 
ATOM     13  H   UNL     1       2.762  -0.665   3.668  1.00  0.00     0.169 HD
ATOM     14  O   UNL     1       1.805  -2.413   4.806  1.00  0.00    -0.274 OA
BRANCH  12  15
ATOM     15  C   UNL     1       1.625   0.160   2.265  1.00  0.00     0.054 A 
ATOM     16  C   UNL     1       2.506   1.262   2.129  1.00  0.00     0.063 A 
ATOM     17  C   UNL     1       2.155   2.315   1.253  1.00  0.00     0.016 A 
ATOM     18  C   UNL     1       0.990   2.272   0.493  1.00  0.00     0.001 A 
ATOM     19  C   UNL     1       0.533   0.082   1.389  1.00  0.00     0.027 A 
ATOM     20  C   UNL     1       0.191   1.144   0.546  1.00  0.00     0.002 A 
BRANCH  16  21
ATOM     21  C   UNL     1       3.717   1.540   2.970  1.00  0.00     0.257 C 
ATOM     22  N   UNL     1       4.574   0.598   3.503  1.00  0.00    -0.322 N 
ATOM     23  H   UNL     1       5.184   0.974   4.178  1.00  0.00     0.170 HD
ATOM     24  O   UNL     1       3.913   2.714   3.306  1.00  0.00    -0.269 OA
BRANCH  22  25
ATOM     25  C   UNL     1       4.769  -0.779   3.298  1.00  0.00     0.041 A 
ATOM     26  C   UNL     1       3.991  -4.996   3.402  1.00  0.00     0.044 C 
ATOM     27  C   UNL     1       4.423  -3.560   3.323  1.00  0.00    -0.051 A 
ATOM     28  C   UNL     1       4.227  -2.829   2.144  1.00  0.00     0.005 A 
ATOM     29  C   UNL     1       4.913  -2.903   4.456  1.00  0.00     0.005 A 
ATOM     30  C   UNL     1       4.417  -1.442   2.124  1.00  0.00     0.026 A 
ATOM     31  C   UNL     1       5.108  -1.520   4.438  1.00  0.00     0.026 A 
ENDBRANCH  22  25
ENDBRANCH  16  21
ENDBRANCH  12  15
ENDBRANCH   6  11
ENDBRANCH   3   5
ENDBRANCH   2   3
ENDBRANCH   1   2
BRANCH   1  32
ATOM     32  C   UNL     1      -0.435   2.943   5.754  1.00  0.00     0.275 C 
BRANCH  32  33
ATOM     33  O   UNL     1      -1.413   2.822   4.668  1.00  0.00    -0.458 OA
BRANCH  33  34
ATOM     34  C   UNL     1      -1.617   1.817   3.767  1.00  0.00     0.338 C 
ATOM     35  O   UNL     1      -2.126   2.005   2.671  1.00  0.00    -0.246 OA
BRANCH  34  36
ATOM     36  C   UNL     1      -1.509   0.421   4.252  1.00  0.00     0.060 A 
ATOM     37  C   UNL     1      -3.078  -0.315   4.718  1.00  0.00     0.016 A 
ATOM     38  C   UNL     1      -0.021   0.009   5.142  1.00  0.00     0.016 A 
ATOM     39  C   UNL     1      -3.154  -1.327   6.224  1.00  0.00     0.010 A 
ATOM     40  C   UNL     1      -0.062  -1.077   6.574  1.00  0.00     0.010 A 
ATOM     41  C   UNL     1      -1.653  -1.608   7.200  1.00  0.00    -0.014 A 
BRANCH  41  42
ATOM     42  C   UNL     1      -1.628  -1.776   8.639  1.00  0.00     0.031 A 
ATOM     43  C   UNL     1      -0.851  -2.903   9.187  1.00  0.00     0.074 A 
ATOM     44  C   UNL     1      -2.167  -0.779   9.377  1.00  0.00     0.049 A 
ATOM     45  N   UNL     1      -1.209  -3.565  10.230  1.00  0.00    -0.248 NA
ATOM     46  C   UNL     1       0.323  -3.495   8.532  1.00  0.00     0.031 C 
ATOM     47  C   UNL     1      -2.063  -0.551  10.810  1.00  0.00     0.029 A 
ATOM     48  N   UNL     1      -3.049   0.227   8.983  1.00  0.00    -0.354 N 
ATOM     49  C   UNL     1      -0.149  -4.386  10.561  1.00  0.00     0.074 A 
ATOM     50  C   UNL     1       0.622  -4.494   9.361  1.00  0.00     0.031 C 
ATOM     51  C   UNL     1      -3.078   0.254  11.190  1.00  0.00     0.029 A 
ATOM     52  C   UNL     1      -3.922   0.486  10.025  1.00  0.00     0.049 A 
ATOM     53  H   UNL     1      -3.050   0.679   8.108  1.00  0.00     0.167 HD
ATOM     54  C   UNL     1       0.079  -4.666  11.876  1.00  0.00     0.037 A 
ATOM     55  C   UNL     1      -5.255   0.206   9.915  1.00  0.00     0.037 A 
ATOM     56  C   UNL     1      -0.978  -4.042  12.680  1.00  0.00     0.049 A 
ATOM     57  C   UNL     1      -5.602  -0.957  10.823  1.00  0.00     0.074 A 
ATOM     58  C   UNL     1      -1.025  -2.849  13.385  1.00  0.00     0.029 A 
ATOM     59  N   UNL     1      -2.301  -4.423  12.473  1.00  0.00    -0.354 N 
ATOM     60  N   UNL     1      -4.720  -1.814  11.272  1.00  0.00    -0.248 NA
ATOM     61  C   UNL     1      -6.940  -1.216  11.342  1.00  0.00     0.031 C 
ATOM     62  C   UNL     1      -2.393  -2.480  13.528  1.00  0.00     0.029 A 
ATOM     63  C   UNL     1      -3.176  -3.454  12.929  1.00  0.00     0.049 A 
ATOM     64  H   UNL     1      -2.577  -5.272  12.057  1.00  0.00     0.167 HD
ATOM     65  C   UNL     1      -5.315  -2.675  12.152  1.00  0.00     0.074 A 
ATOM     66  C   UNL     1      -6.707  -2.261  12.156  1.00  0.00     0.031 C 
ATOM     67  C   UNL     1      -4.620  -3.649  12.816  1.00  0.00     0.037 A 
BRANCH  54  68
ATOM     68  C   UNL     1       1.388  -5.189  12.450  1.00  0.00     0.057 A 
ATOM     69  C   UNL     1       1.661  -5.045  13.826  1.00  0.00     0.134 A 
ATOM     70  C   UNL     1       2.435  -5.805  11.733  1.00  0.00     0.134 A 
ATOM     71  F   UNL     1       0.754  -4.543  14.673  1.00  0.00    -0.206 F 
ATOM     72  C   UNL     1       2.881  -5.417  14.415  1.00  0.00     0.040 A 
ATOM     73  C   UNL     1       3.671  -6.154  12.302  1.00  0.00     0.040 A 
ATOM     74  F   UNL     1       2.319  -6.163  10.453  1.00  0.00    -0.206 F 
ATOM     75  C   UNL     1       3.901  -5.957  13.650  1.00  0.00     0.006 A 
ENDBRANCH  54  68
BRANCH  55  76
ATOM     76  C   UNL     1      -5.867   0.521   8.583  1.00  0.00     0.057 A 
ATOM     77  C   UNL     1      -5.795   1.853   8.125  1.00  0.00     0.134 A 
ATOM     78  C   UNL     1      -6.219  -0.437   7.628  1.00  0.00     0.134 A 
ATOM     79  F   UNL     1      -5.528   2.845   8.990  1.00  0.00    -0.206 F 
ATOM     80  C   UNL     1      -5.900   2.192   6.772  1.00  0.00     0.040 A 
ATOM     81  C   UNL     1      -6.351  -0.105   6.265  1.00  0.00     0.040 A 
ATOM     82  F   UNL     1      -6.304  -1.733   7.958  1.00  0.00    -0.206 F 
ATOM     83  C   UNL     1      -6.144   1.203   5.829  1.00  0.00     0.006 A 
ENDBRANCH  55  76
BRANCH  67  84
ATOM     84  C   UNL     1      -5.240  -4.847  13.502  1.00  0.00     0.057 A 
ATOM     85  C   UNL     1      -6.510  -5.356  13.196  1.00  0.00     0.134 A 
ATOM     86  C   UNL     1      -4.486  -5.641  14.400  1.00  0.00     0.134 A 
ATOM     87  F   UNL     1      -7.287  -4.805  12.256  1.00  0.00    -0.206 F 
ATOM     88  C   UNL     1      -7.026  -6.508  13.802  1.00  0.00     0.040 A 
ATOM     89  C   UNL     1      -4.957  -6.838  14.942  1.00  0.00     0.040 A 
ATOM     90  F   UNL     1      -3.241  -5.312  14.774  1.00  0.00    -0.206 F 
ATOM     91  C   UNL     1      -6.245  -7.262  14.666  1.00  0.00     0.006 A 
ENDBRANCH  67  84
ENDBRANCH  41  42
ENDBRANCH  34  36
ENDBRANCH  33  34
ENDBRANCH  32  33
ENDBRANCH   1  32
TORSDOF 15
