REMARK SMILES C[NH+]1CCC2(CC1)OC[C@@H](C(=O)OCCOC(=O)c1ccc(-c3c4nc(c(-c5c(F)cccc5F)c5ccc([nH]5)c(-c5c(F)cccc5F)c5nc(c(-c6c(F)cccc6F)c6ccc3[nH]6)C=C5)C=C4)cc1)N2C(=O)c1ccc2ccccc2c1
REMARK SMILES IDX 14 1 13 2 11 3 12 4 10 5 1 6 2 7 3 8 7 9 4 11 6 12 5 13 8 14
REMARK SMILES IDX 73 15 9 16 74 17 75 18 76 19 77 20 85 21 78 22 84 23 79 24
REMARK SMILES IDX 83 25 80 26 82 27 81 28 15 29 16 30 17 31 18 32 19 33 20 34
REMARK SMILES IDX 72 35 21 36 71 37 22 38 23 39 24 40 65 41 25 42 70 43 64 44
REMARK SMILES IDX 66 45 26 46 69 47 63 48 62 49 27 51 53 52 36 53 52 54 37 55
REMARK SMILES IDX 40 56 51 57 67 58 38 59 39 60 50 62 68 63 41 64 28 65 29 66
REMARK SMILES IDX 34 67 30 68 31 69 33 70 35 71 32 72 54 73 55 74 60 75 56 76
REMARK SMILES IDX 57 77 59 78 61 79 58 80 42 81 43 82 48 83 44 84 45 85 47 86
REMARK SMILES IDX 49 87 46 88
REMARK H PARENT 2 10 66 50 40 61
REMARK Flexibility Score: inf
ROOT
ATOM      1  C   UNL     1      -4.969   6.207  -0.846  1.00  0.00     0.274 C 
ENDROOT
BRANCH   1   2
ATOM      2  O   UNL     1      -4.024   5.122  -0.946  1.00  0.00    -0.460 OA
BRANCH   2   3
ATOM      3  C   UNL     1      -2.990   5.365  -1.790  1.00  0.00     0.331 C 
ATOM      4  O   UNL     1      -2.965   6.276  -2.618  1.00  0.00    -0.250 OA
BRANCH   3   5
ATOM      5  C   UNL     1      -1.817   4.402  -1.649  1.00  0.00     0.224 C 
ATOM      6  C   UNL     1       1.675  -0.553  -0.591  1.00  0.00     0.332 C 
ATOM      7  N   UNL     1       0.822   0.316   0.205  1.00  0.00    -0.337 N 
ATOM      8  C   UNL     1       1.180   1.725   0.100  1.00  0.00     0.267 C 
ATOM      9  C   UNL     1      -0.601   0.042   0.025  1.00  0.00     0.267 C 
ATOM     10  H   UNL     1       1.009   0.079   1.180  1.00  0.00     0.347 HD
ATOM     11  C   UNL     1       0.605   2.439  -1.108  1.00  0.00     0.120 C 
ATOM     12  C   UNL     1      -1.314   0.779  -1.103  1.00  0.00     0.120 C 
ATOM     13  C   UNL     1      -0.912   2.240  -1.301  1.00  0.00     0.155 C 
ATOM     14  O   UNL     1      -1.089   2.444  -2.740  1.00  0.00    -0.352 OA
ATOM     15  N   UNL     1      -1.740   3.306  -0.694  1.00  0.00    -0.293 N 
ATOM     16  C   UNL     1      -1.721   3.697  -2.979  1.00  0.00     0.200 C 
BRANCH  15  17
ATOM     17  C   UNL     1      -1.860   3.651   0.651  1.00  0.00     0.256 C 
ATOM     18  O   UNL     1      -1.890   4.823   1.024  1.00  0.00    -0.269 OA
BRANCH  17  19
ATOM     19  C   UNL     1      -2.017   2.615   1.689  1.00  0.00     0.040 A 
ATOM     20  C   UNL     1      -3.155   1.807   1.732  1.00  0.00     0.014 A 
ATOM     21  C   UNL     1      -1.025   2.479   2.666  1.00  0.00     0.022 A 
ATOM     22  C   UNL     1      -3.236   0.780   2.682  1.00  0.00     0.009 A 
ATOM     23  C   UNL     1      -1.048   1.393   3.555  1.00  0.00    -0.018 A 
ATOM     24  C   UNL     1      -2.165   0.526   3.562  1.00  0.00    -0.018 A 
ATOM     25  C   UNL     1       0.049   1.115   4.386  1.00  0.00     0.009 A 
ATOM     26  C   UNL     1      -2.154  -0.592   4.415  1.00  0.00     0.009 A 
ATOM     27  C   UNL     1       0.058  -0.019   5.199  1.00  0.00     0.001 A 
ATOM     28  C   UNL     1      -1.043  -0.869   5.216  1.00  0.00     0.001 A 
ENDBRANCH  17  19
ENDBRANCH  15  17
ENDBRANCH   3   5
ENDBRANCH   2   3
ENDBRANCH   1   2
BRANCH   1  29
ATOM     29  C   UNL     1      -4.534   7.169   0.259  1.00  0.00     0.275 C 
BRANCH  29  30
ATOM     30  O   UNL     1      -3.224   7.684  -0.035  1.00  0.00    -0.458 OA
BRANCH  30  31
ATOM     31  C   UNL     1      -2.530   8.093   1.054  1.00  0.00     0.338 C 
ATOM     32  O   UNL     1      -2.948   8.160   2.198  1.00  0.00    -0.246 OA
BRANCH  31  33
ATOM     33  C   UNL     1      -1.181   8.563   0.660  1.00  0.00     0.060 A 
ATOM     34  C   UNL     1      -0.428   7.950  -0.347  1.00  0.00     0.016 A 
ATOM     35  C   UNL     1      -0.639   9.634   1.373  1.00  0.00     0.016 A 
ATOM     36  C   UNL     1       0.882   8.371  -0.605  1.00  0.00     0.010 A 
ATOM     37  C   UNL     1       0.644  10.093   1.076  1.00  0.00     0.010 A 
ATOM     38  C   UNL     1       1.429   9.448   0.106  1.00  0.00    -0.014 A 
BRANCH  38  39
ATOM     39  C   UNL     1       2.822   9.915  -0.109  1.00  0.00     0.031 A 
ATOM     40  C   UNL     1       3.822   9.815   1.011  1.00  0.00     0.074 A 
ATOM     41  C   UNL     1       3.168  10.508  -1.267  1.00  0.00     0.049 A 
ATOM     42  N   UNL     1       5.008  10.359   1.119  1.00  0.00    -0.248 NA
ATOM     43  C   UNL     1       3.421   9.009   2.174  1.00  0.00     0.031 C 
ATOM     44  C   UNL     1       2.301  10.652  -2.436  1.00  0.00     0.029 A 
ATOM     45  N   UNL     1       4.335  11.128  -1.637  1.00  0.00    -0.354 N 
ATOM     46  C   UNL     1       5.476   9.998   2.377  1.00  0.00     0.074 A 
ATOM     47  C   UNL     1       4.442   9.197   2.998  1.00  0.00     0.031 C 
ATOM     48  C   UNL     1       2.964  11.320  -3.393  1.00  0.00     0.029 A 
ATOM     49  C   UNL     1       4.277  11.704  -2.882  1.00  0.00     0.049 A 
ATOM     50  H   UNL     1       5.136  11.157  -1.065  1.00  0.00     0.167 HD
ATOM     51  C   UNL     1       6.659  10.308   2.959  1.00  0.00     0.037 A 
ATOM     52  C   UNL     1       5.163  12.487  -3.525  1.00  0.00     0.037 A 
ATOM     53  C   UNL     1       7.692  11.087   2.327  1.00  0.00     0.049 A 
ATOM     54  C   UNL     1       6.452  12.852  -2.846  1.00  0.00     0.074 A 
ATOM     55  C   UNL     1       8.942  11.426   2.816  1.00  0.00     0.029 A 
ATOM     56  N   UNL     1       7.591  11.652   1.064  1.00  0.00    -0.354 N 
ATOM     57  N   UNL     1       6.885  12.510  -1.657  1.00  0.00    -0.248 NA
ATOM     58  C   UNL     1       7.370  13.722  -3.594  1.00  0.00     0.031 C 
ATOM     59  C   UNL     1       9.583  12.227   1.863  1.00  0.00     0.029 A 
ATOM     60  C   UNL     1       8.748  12.353   0.764  1.00  0.00     0.049 A 
ATOM     61  H   UNL     1       6.812  11.567   0.468  1.00  0.00     0.167 HD
ATOM     62  C   UNL     1       8.131  13.106  -1.520  1.00  0.00     0.074 A 
ATOM     63  C   UNL     1       8.390  13.823  -2.752  1.00  0.00     0.031 C 
ATOM     64  C   UNL     1       8.985  13.063  -0.467  1.00  0.00     0.037 A 
BRANCH  51  65
ATOM     65  C   UNL     1       6.884   9.827   4.364  1.00  0.00     0.057 A 
ATOM     66  C   UNL     1       7.109   8.476   4.662  1.00  0.00     0.134 A 
ATOM     67  C   UNL     1       6.891  10.732   5.434  1.00  0.00     0.134 A 
ATOM     68  F   UNL     1       7.102   7.555   3.686  1.00  0.00    -0.206 F 
ATOM     69  C   UNL     1       7.302   8.040   5.974  1.00  0.00     0.040 A 
ATOM     70  C   UNL     1       7.108  10.311   6.747  1.00  0.00     0.040 A 
ATOM     71  F   UNL     1       6.689  12.041   5.220  1.00  0.00    -0.206 F 
ATOM     72  C   UNL     1       7.307   8.960   7.021  1.00  0.00     0.006 A 
ENDBRANCH  51  65
BRANCH  52  73
ATOM     73  C   UNL     1       4.848  12.982  -4.887  1.00  0.00     0.057 A 
ATOM     74  C   UNL     1       5.503  12.461  -6.008  1.00  0.00     0.134 A 
ATOM     75  C   UNL     1       3.865  13.954  -5.106  1.00  0.00     0.134 A 
ATOM     76  F   UNL     1       6.470  11.544  -5.858  1.00  0.00    -0.206 F 
ATOM     77  C   UNL     1       5.190  12.887  -7.300  1.00  0.00     0.040 A 
ATOM     78  C   UNL     1       3.526  14.373  -6.393  1.00  0.00     0.040 A 
ATOM     79  F   UNL     1       3.200  14.490  -4.072  1.00  0.00    -0.206 F 
ATOM     80  C   UNL     1       4.191  13.839  -7.495  1.00  0.00     0.006 A 
ENDBRANCH  52  73
BRANCH  64  81
ATOM     81  C   UNL     1      10.288  13.790  -0.620  1.00  0.00     0.057 A 
ATOM     82  C   UNL     1      10.365  15.186  -0.552  1.00  0.00     0.134 A 
ATOM     83  C   UNL     1      11.480  13.082  -0.813  1.00  0.00     0.134 A 
ATOM     84  F   UNL     1       9.256  15.921  -0.383  1.00  0.00    -0.206 F 
ATOM     85  C   UNL     1      11.583  15.855  -0.692  1.00  0.00     0.040 A 
ATOM     86  C   UNL     1      12.706  13.738  -0.932  1.00  0.00     0.040 A 
ATOM     87  F   UNL     1      11.474  11.742  -0.881  1.00  0.00    -0.206 F 
ATOM     88  C   UNL     1      12.758  15.129  -0.878  1.00  0.00     0.006 A 
ENDBRANCH  64  81
ENDBRANCH  38  39
ENDBRANCH  31  33
ENDBRANCH  30  31
ENDBRANCH  29  30
ENDBRANCH   1  29
TORSDOF 13
