REMARK SMILES Cc1ccc(-c2ncccc2C(=O)OCCOC(=O)c2ccc(-c3c4nc(c(-c5c(F)cccc5F)c5ccc([nH]5)c(-c5c(F)cccc5F)c5nc(c(-c6c(F)cccc6F)c6ccc3[nH]6)C=C5)C=C4)cc2)c(C)c1
REMARK SMILES IDX 16 1 15 2 14 3 12 4 13 5 11 6 6 7 7 8 8 9 10 10 9 11 5 12
REMARK SMILES IDX 1 13 2 14 3 15 76 16 4 17 74 18 75 19 17 20 18 21 19 22
REMARK SMILES IDX 20 23 21 24 73 25 22 26 72 27 23 28 24 29 25 30 66 31 26 32
REMARK SMILES IDX 71 33 65 34 67 35 27 36 70 37 64 38 63 39 28 41 54 42 37 43
REMARK SMILES IDX 53 44 38 45 41 46 52 47 68 48 39 49 40 50 51 52 69 53 42 54
REMARK SMILES IDX 29 55 30 56 35 57 31 58 32 59 34 60 36 61 33 62 55 63 56 64
REMARK SMILES IDX 61 65 57 66 58 67 60 68 62 69 59 70 43 71 44 72 49 73 45 74
REMARK SMILES IDX 46 75 48 76 50 77 47 78
REMARK H PARENT 67 40 41 51
REMARK Flexibility Score: inf
ROOT
ATOM      1  C   UNL     1      -0.271  -4.300   4.198  1.00  0.00     0.275 C 
ENDROOT
BRANCH   1   2
ATOM      2  C   UNL     1      -1.736  -3.877   4.178  1.00  0.00     0.275 C 
BRANCH   2   3
ATOM      3  O   UNL     1      -2.219  -3.842   2.813  1.00  0.00    -0.458 OA
BRANCH   3   4
ATOM      4  C   UNL     1      -2.608  -2.627   2.347  1.00  0.00     0.340 C 
ATOM      5  O   UNL     1      -2.674  -1.593   2.989  1.00  0.00    -0.246 OA
BRANCH   4   6
ATOM      6  C   UNL     1      -3.095  -2.754   0.959  1.00  0.00     0.086 A 
ATOM      7  C   UNL     1      -2.549  -2.070  -0.148  1.00  0.00     0.085 A 
ATOM      8  N   UNL     1      -3.160  -2.085  -1.361  1.00  0.00    -0.255 NA
ATOM      9  C   UNL     1      -4.334  -2.761  -1.460  1.00  0.00     0.112 A 
ATOM     10  C   UNL     1      -4.290  -3.466   0.809  1.00  0.00     0.019 A 
ATOM     11  C   UNL     1      -4.928  -3.462  -0.421  1.00  0.00     0.021 A 
BRANCH   7  12
ATOM     12  C   UNL     1      -1.379  -1.172  -0.048  1.00  0.00     0.004 A 
ATOM     13  C   UNL     1       2.570   1.537   2.034  1.00  0.00     0.044 C 
ATOM     14  C   UNL     1       1.450   0.694   1.524  1.00  0.00    -0.051 A 
ATOM     15  C   UNL     1       1.833  -0.736   0.516  1.00  0.00     0.004 A 
ATOM     16  C   UNL     1      -0.229   1.168   1.690  1.00  0.00     0.007 A 
ATOM     17  C   UNL     1       0.315  -1.733  -0.380  1.00  0.00     0.011 A 
ATOM     18  C   UNL     1      -1.580   0.289   0.941  1.00  0.00    -0.041 A 
ATOM     19  C   UNL     1      -2.912   0.994   0.875  1.00  0.00     0.045 C 
ENDBRANCH   7  12
ENDBRANCH   4   6
ENDBRANCH   3   4
ENDBRANCH   2   3
ENDBRANCH   1   2
BRANCH   1  20
ATOM     20  O   UNL     1       0.479  -3.327   3.455  1.00  0.00    -0.458 OA
BRANCH  20  21
ATOM     21  C   UNL     1       0.796  -3.723   2.208  1.00  0.00     0.338 C 
ATOM     22  O   UNL     1       0.719  -4.844   1.733  1.00  0.00    -0.246 OA
BRANCH  21  23
ATOM     23  C   UNL     1       1.169  -2.575   1.392  1.00  0.00     0.060 A 
ATOM     24  C   UNL     1       0.194  -1.062   1.386  1.00  0.00     0.016 A 
ATOM     25  C   UNL     1       2.212  -2.897   0.016  1.00  0.00     0.016 A 
ATOM     26  C   UNL     1       0.336   0.142  -0.233  1.00  0.00     0.010 A 
ATOM     27  C   UNL     1       2.377  -1.789  -1.363  1.00  0.00     0.010 A 
ATOM     28  C   UNL     1       1.496  -0.256  -1.542  1.00  0.00    -0.014 A 
BRANCH  28  29
ATOM     29  C   UNL     1       2.076   0.821  -2.468  1.00  0.00     0.031 A 
ATOM     30  C   UNL     1       2.835   0.390  -3.707  1.00  0.00     0.074 A 
ATOM     31  C   UNL     1       2.156   2.140  -2.142  1.00  0.00     0.049 A 
ATOM     32  N   UNL     1       3.788   1.003  -4.370  1.00  0.00    -0.248 NA
ATOM     33  C   UNL     1       2.490  -0.930  -4.254  1.00  0.00     0.031 C 
ATOM     34  C   UNL     1       1.458   2.848  -1.075  1.00  0.00     0.029 A 
ATOM     35  N   UNL     1       2.967   3.143  -2.661  1.00  0.00    -0.354 N 
ATOM     36  C   UNL     1       4.181   0.123  -5.374  1.00  0.00     0.074 A 
ATOM     37  C   UNL     1       3.443  -1.105  -5.158  1.00  0.00     0.031 C 
ATOM     38  C   UNL     1       1.941   4.083  -0.918  1.00  0.00     0.029 A 
ATOM     39  C   UNL     1       2.983   4.295  -1.894  1.00  0.00     0.049 A 
ATOM     40  H   UNL     1       3.481   3.043  -3.495  1.00  0.00     0.167 HD
ATOM     41  C   UNL     1       5.015   0.328  -6.425  1.00  0.00     0.037 A 
ATOM     42  C   UNL     1       3.729   5.415  -1.923  1.00  0.00     0.037 A 
ATOM     43  C   UNL     1       5.665   1.578  -6.724  1.00  0.00     0.049 A 
ATOM     44  C   UNL     1       4.684   5.621  -3.051  1.00  0.00     0.074 A 
ATOM     45  C   UNL     1       6.452   1.902  -7.817  1.00  0.00     0.029 A 
ATOM     46  N   UNL     1       5.573   2.723  -5.948  1.00  0.00    -0.354 N 
ATOM     47  N   UNL     1       5.020   4.783  -3.996  1.00  0.00    -0.248 NA
ATOM     48  C   UNL     1       5.308   6.946  -3.162  1.00  0.00     0.031 C 
ATOM     49  C   UNL     1       6.844   3.240  -7.699  1.00  0.00     0.029 A 
ATOM     50  C   UNL     1       6.278   3.756  -6.546  1.00  0.00     0.049 A 
ATOM     51  H   UNL     1       5.080   2.792  -5.099  1.00  0.00     0.167 HD
ATOM     52  C   UNL     1       5.822   5.506  -4.864  1.00  0.00     0.074 A 
ATOM     53  C   UNL     1       5.950   6.839  -4.316  1.00  0.00     0.031 C 
ATOM     54  C   UNL     1       6.372   5.095  -6.029  1.00  0.00     0.037 A 
BRANCH  41  55
ATOM     55  C   UNL     1       5.209  -0.817  -7.383  1.00  0.00     0.057 A 
ATOM     56  C   UNL     1       4.162  -1.273  -8.197  1.00  0.00     0.134 A 
ATOM     57  C   UNL     1       6.448  -1.455  -7.515  1.00  0.00     0.134 A 
ATOM     58  F   UNL     1       2.949  -0.704  -8.127  1.00  0.00    -0.206 F 
ATOM     59  C   UNL     1       4.322  -2.357  -9.061  1.00  0.00     0.040 A 
ATOM     60  C   UNL     1       6.632  -2.518  -8.403  1.00  0.00     0.040 A 
ATOM     61  F   UNL     1       7.504  -1.055  -6.789  1.00  0.00    -0.206 F 
ATOM     62  C   UNL     1       5.562  -2.981  -9.168  1.00  0.00     0.006 A 
ENDBRANCH  41  55
BRANCH  42  63
ATOM     63  C   UNL     1       3.550   6.467  -0.883  1.00  0.00     0.057 A 
ATOM     64  C   UNL     1       2.892   7.669  -1.170  1.00  0.00     0.134 A 
ATOM     65  C   UNL     1       4.042   6.298   0.418  1.00  0.00     0.134 A 
ATOM     66  F   UNL     1       2.400   7.891  -2.397  1.00  0.00    -0.206 F 
ATOM     67  C   UNL     1       2.768   8.683  -0.218  1.00  0.00     0.040 A 
ATOM     68  C   UNL     1       3.905   7.295   1.387  1.00  0.00     0.040 A 
ATOM     69  F   UNL     1       4.658   5.160   0.768  1.00  0.00    -0.206 F 
ATOM     70  C   UNL     1       3.278   8.498   1.066  1.00  0.00     0.006 A 
ENDBRANCH  42  63
BRANCH  54  71
ATOM     71  C   UNL     1       7.086   6.122  -6.849  1.00  0.00     0.057 A 
ATOM     72  C   UNL     1       8.345   6.616  -6.494  1.00  0.00     0.134 A 
ATOM     73  C   UNL     1       6.514   6.588  -8.040  1.00  0.00     0.134 A 
ATOM     74  F   UNL     1       8.931   6.228  -5.351  1.00  0.00    -0.206 F 
ATOM     75  C   UNL     1       9.011   7.545  -7.294  1.00  0.00     0.040 A 
ATOM     76  C   UNL     1       7.181   7.497  -8.860  1.00  0.00     0.040 A 
ATOM     77  F   UNL     1       5.306   6.157  -8.431  1.00  0.00    -0.206 F 
ATOM     78  C   UNL     1       8.434   7.979  -8.487  1.00  0.00     0.006 A 
ENDBRANCH  54  71
ENDBRANCH  28  29
ENDBRANCH  21  23
ENDBRANCH  20  21
ENDBRANCH   1  20
TORSDOF 12
