REMARK SMILES C[C@]([NH2+]Cc1noc(C2CC2)n1)(C(=O)OCCOC(=O)c1ccc(-c2c3nc(c(-c4c(F)cccc4F)c4ccc([nH]4)c(-c4c(F)cccc4F)c4nc(c(-c5c(F)cccc5F)c5ccc2[nH]5)C=C4)C=C3)cc1)C(F)(F)F
REMARK SMILES IDX 16 1 15 2 13 3 14 4 2 5 1 6 75 7 76 8 77 9 78 10 3 11 4 14
REMARK SMILES IDX 5 15 6 16 12 17 7 18 8 19 9 20 10 21 11 22 17 23 18 24 19 25
REMARK SMILES IDX 20 26 21 27 22 28 74 29 23 30 73 31 24 32 25 33 26 34 67 35
REMARK SMILES IDX 27 36 72 37 66 38 68 39 28 40 71 41 65 42 64 43 29 45 55 46
REMARK SMILES IDX 38 47 54 48 39 49 42 50 53 51 69 52 40 53 41 54 52 56 70 57
REMARK SMILES IDX 43 58 30 59 31 60 36 61 32 62 33 63 35 64 37 65 34 66 56 67
REMARK SMILES IDX 57 68 62 69 58 70 59 71 61 72 63 73 60 74 44 75 45 76 50 77
REMARK SMILES IDX 46 78 47 79 49 80 51 81 48 82
REMARK H PARENT 3 12 3 13 68 44 42 55
REMARK Flexibility Score: inf
ROOT
ATOM      1  C   UNL     1      -2.587  -0.378  -1.228  1.00  0.00     0.274 C 
ENDROOT
BRANCH   1   2
ATOM      2  O   UNL     1      -1.155  -0.431  -1.056  1.00  0.00    -0.457 OA
BRANCH   2   3
ATOM      3  C   UNL     1      -0.418   0.520  -1.714  1.00  0.00     0.377 C 
ATOM      4  O   UNL     1      -0.911   1.350  -2.468  1.00  0.00    -0.244 OA
BRANCH   3   5
ATOM      5  C   UNL     1       1.095   0.320  -1.500  1.00  0.00     0.287 C 
ATOM      6  C   UNL     1       1.553  -0.604  -2.642  1.00  0.00     0.103 C 
BRANCH   5   7
ATOM      7  C   UNL     1       1.760   1.708  -1.676  1.00  0.00     0.455 C 
ATOM      8  F   UNL     1       1.487   2.536  -0.644  1.00  0.00    -0.164 F 
ATOM      9  F   UNL     1       3.116   1.575  -1.704  1.00  0.00    -0.164 F 
ATOM     10  F   UNL     1       1.428   2.340  -2.819  1.00  0.00    -0.164 F 
ENDBRANCH   5   7
BRANCH   5  11
ATOM     11  N   UNL     1       1.318  -0.343  -0.166  1.00  0.00    -0.318 N 
ATOM     12  H   UNL     1       1.022  -1.317  -0.240  1.00  0.00     0.347 HD
ATOM     13  H   UNL     1       0.777   0.188   0.516  1.00  0.00     0.347 HD
BRANCH  11  14
ATOM     14  C   UNL     1       2.712  -0.322   0.301  1.00  0.00     0.344 C 
BRANCH  14  15
ATOM     15  C   UNL     1       2.887  -1.184   1.513  1.00  0.00     0.226 A 
ATOM     16  N   UNL     1       2.333  -2.401   1.628  1.00  0.00    -0.056 NA
ATOM     17  N   UNL     1       3.702  -0.820   2.554  1.00  0.00    -0.190 NA
ATOM     18  O   UNL     1       2.801  -2.843   2.868  1.00  0.00    -0.339 OA
ATOM     19  C   UNL     1       3.616  -1.858   3.357  1.00  0.00     0.229 A 
BRANCH  19  20
ATOM     20  C   UNL     1       4.357  -1.981   4.680  1.00  0.00     0.079 C 
ATOM     21  C   UNL     1       5.745  -1.378   4.784  1.00  0.00     0.014 C 
ATOM     22  C   UNL     1       4.609  -0.731   5.498  1.00  0.00     0.014 C 
ENDBRANCH  19  20
ENDBRANCH  14  15
ENDBRANCH  11  14
ENDBRANCH   5  11
ENDBRANCH   3   5
ENDBRANCH   2   3
ENDBRANCH   1   2
BRANCH   1  23
ATOM     23  C   UNL     1      -3.243   0.331  -0.046  1.00  0.00     0.275 C 
BRANCH  23  24
ATOM     24  O   UNL     1      -2.800   1.696  -0.027  1.00  0.00    -0.458 OA
BRANCH  24  25
ATOM     25  C   UNL     1      -2.544   2.220   1.190  1.00  0.00     0.338 C 
ATOM     26  O   UNL     1      -2.738   1.693   2.279  1.00  0.00    -0.246 OA
BRANCH  25  27
ATOM     27  C   UNL     1      -1.986   3.576   1.032  1.00  0.00     0.060 A 
ATOM     28  C   UNL     1      -1.026   3.837   0.055  1.00  0.00     0.016 A 
ATOM     29  C   UNL     1      -2.360   4.583   1.921  1.00  0.00     0.016 A 
ATOM     30  C   UNL     1      -0.373   5.068   0.018  1.00  0.00     0.010 A 
ATOM     31  C   UNL     1      -1.772   5.848   1.822  1.00  0.00     0.010 A 
ATOM     32  C   UNL     1      -0.744   6.094   0.894  1.00  0.00    -0.014 A 
BRANCH  32  33
ATOM     33  C   UNL     1      -0.026   7.398   0.890  1.00  0.00     0.031 A 
ATOM     34  C   UNL     1       0.667   7.873   2.139  1.00  0.00     0.074 A 
ATOM     35  C   UNL     1       0.021   8.160  -0.221  1.00  0.00     0.049 A 
ATOM     36  N   UNL     1       1.155   9.056   2.419  1.00  0.00    -0.248 NA
ATOM     37  C   UNL     1       0.815   6.891   3.225  1.00  0.00     0.031 C 
ATOM     38  C   UNL     1      -0.550   7.807  -1.521  1.00  0.00     0.029 A 
ATOM     39  N   UNL     1       0.585   9.395  -0.431  1.00  0.00    -0.354 N 
ATOM     40  C   UNL     1       1.602   8.979   3.732  1.00  0.00     0.074 A 
ATOM     41  C   UNL     1       1.335   7.633   4.192  1.00  0.00     0.031 C 
ATOM     42  C   UNL     1      -0.276   8.782  -2.401  1.00  0.00     0.029 A 
ATOM     43  C   UNL     1       0.414   9.866  -1.710  1.00  0.00     0.049 A 
ATOM     44  H   UNL     1       1.065   9.895   0.268  1.00  0.00     0.167 HD
ATOM     45  C   UNL     1       2.178   9.945   4.487  1.00  0.00     0.037 A 
ATOM     46  C   UNL     1       0.736  11.053  -2.258  1.00  0.00     0.037 A 
ATOM     47  C   UNL     1       2.509  11.261   4.007  1.00  0.00     0.049 A 
ATOM     48  C   UNL     1       1.365  12.114  -1.401  1.00  0.00     0.074 A 
ATOM     49  C   UNL     1       3.106  12.306   4.691  1.00  0.00     0.029 A 
ATOM     50  N   UNL     1       2.295  11.702   2.710  1.00  0.00    -0.354 N 
ATOM     51  N   UNL     1       1.704  12.060  -0.137  1.00  0.00    -0.248 NA
ATOM     52  C   UNL     1       1.629  13.410  -2.042  1.00  0.00     0.031 C 
ATOM     53  C   UNL     1       3.233  13.388   3.813  1.00  0.00     0.029 A 
ATOM     54  C   UNL     1       2.743  13.006   2.575  1.00  0.00     0.049 A 
ATOM     55  H   UNL     1       1.885  11.168   1.992  1.00  0.00     0.167 HD
ATOM     56  C   UNL     1       2.221  13.311   0.171  1.00  0.00     0.074 A 
ATOM     57  C   UNL     1       2.173  14.096  -1.046  1.00  0.00     0.031 C 
ATOM     58  C   UNL     1       2.685  13.771   1.358  1.00  0.00     0.037 A 
BRANCH  45  59
ATOM     59  C   UNL     1       2.454   9.624   5.925  1.00  0.00     0.057 A 
ATOM     60  C   UNL     1       3.510   8.793   6.316  1.00  0.00     0.134 A 
ATOM     61  C   UNL     1       1.657  10.178   6.936  1.00  0.00     0.134 A 
ATOM     62  F   UNL     1       4.299   8.218   5.397  1.00  0.00    -0.206 F 
ATOM     63  C   UNL     1       3.751   8.507   7.662  1.00  0.00     0.040 A 
ATOM     64  C   UNL     1       1.902   9.918   8.285  1.00  0.00     0.040 A 
ATOM     65  F   UNL     1       0.631  10.986   6.628  1.00  0.00    -0.206 F 
ATOM     66  C   UNL     1       2.949   9.075   8.651  1.00  0.00     0.006 A 
ENDBRANCH  45  59
BRANCH  46  67
ATOM     67  C   UNL     1       0.430  11.313  -3.686  1.00  0.00     0.057 A 
ATOM     68  C   UNL     1       1.450  11.393  -4.639  1.00  0.00     0.134 A 
ATOM     69  C   UNL     1      -0.888  11.472  -4.133  1.00  0.00     0.134 A 
ATOM     70  F   UNL     1       2.733  11.275  -4.266  1.00  0.00    -0.206 F 
ATOM     71  C   UNL     1       1.173  11.623  -5.987  1.00  0.00     0.040 A 
ATOM     72  C   UNL     1      -1.181  11.678  -5.481  1.00  0.00     0.040 A 
ATOM     73  F   UNL     1      -1.909  11.406  -3.267  1.00  0.00    -0.206 F 
ATOM     74  C   UNL     1      -0.148  11.758  -6.412  1.00  0.00     0.006 A 
ENDBRANCH  46  67
BRANCH  58  75
ATOM     75  C   UNL     1       3.189  15.181   1.389  1.00  0.00     0.057 A 
ATOM     76  C   UNL     1       2.312  16.272   1.407  1.00  0.00     0.134 A 
ATOM     77  C   UNL     1       4.563  15.449   1.427  1.00  0.00     0.134 A 
ATOM     78  F   UNL     1       0.985  16.078   1.357  1.00  0.00    -0.206 F 
ATOM     79  C   UNL     1       2.785  17.584   1.446  1.00  0.00     0.040 A 
ATOM     80  C   UNL     1       5.047  16.756   1.485  1.00  0.00     0.040 A 
ATOM     81  F   UNL     1       5.453  14.445   1.417  1.00  0.00    -0.206 F 
ATOM     82  C   UNL     1       4.157  17.828   1.490  1.00  0.00     0.006 A 
ENDBRANCH  58  75
ENDBRANCH  32  33
ENDBRANCH  25  27
ENDBRANCH  24  25
ENDBRANCH  23  24
ENDBRANCH   1  23
TORSDOF 16
