REMARK SMILES CC[C@H](c1ccccc1)[C@@H](C)OC(=O)c1ccccc1C(=O)OCCOC(=O)c1ccc(-c2c3nc(c(-c4c(F)cccc4F)c4ccc([nH]4)c(-c4c(F)cccc4F)c4nc(c(-c5c(F)cccc5F)c5ccc2[nH]5)C=C4)C=C3)cc1
REMARK SMILES IDX 23 1 21 2 22 3 20 4 15 5 16 6 17 7 19 8 18 9 13 10 14 11
REMARK SMILES IDX 12 12 10 13 11 14 3 15 2 16 1 17 4 18 5 19 9 20 6 21 8 22
REMARK SMILES IDX 7 23 24 24 25 25 26 26 27 27 28 28 29 29 30 30 82 31 31 32
REMARK SMILES IDX 81 33 32 34 33 35 34 36 75 37 35 38 80 39 74 40 76 41 36 42
REMARK SMILES IDX 79 43 73 44 72 45 37 47 63 48 46 49 62 50 47 51 50 52 61 53
REMARK SMILES IDX 77 54 48 55 49 56 60 58 78 59 51 60 38 61 39 62 44 63 40 64
REMARK SMILES IDX 41 65 43 66 45 67 42 68 64 69 65 70 70 71 66 72 67 73 69 74
REMARK SMILES IDX 71 75 68 76 52 77 53 78 58 79 54 80 55 81 57 82 59 83 56 84
REMARK H PARENT 76 46 50 57
REMARK Flexibility Score: inf
ROOT
ATOM      1  O   UNL     1       0.796  -6.380   2.852  1.00  0.00    -0.458 OA
ENDROOT
BRANCH   1   2
ATOM      2  C   UNL     1       0.984  -5.979   4.132  1.00  0.00     0.339 C 
ATOM      3  O   UNL     1       0.147  -5.998   5.022  1.00  0.00    -0.246 OA
BRANCH   2   4
ATOM      4  C   UNL     1       2.401  -5.646   4.412  1.00  0.00     0.074 A 
ATOM      5  C   UNL     1       3.185  -4.724   3.703  1.00  0.00     0.074 A 
ATOM      6  C   UNL     1       4.515  -4.502   4.127  1.00  0.00     0.016 A 
ATOM      7  C   UNL     1       5.060  -5.181   5.216  1.00  0.00     0.001 A 
ATOM      8  C   UNL     1       2.956  -6.298   5.536  1.00  0.00     0.016 A 
ATOM      9  C   UNL     1       4.280  -6.086   5.920  1.00  0.00     0.001 A 
BRANCH   5  10
ATOM     10  C   UNL     1       2.764  -3.917   2.529  1.00  0.00     0.339 C 
ATOM     11  O   UNL     1       3.567  -3.281   1.861  1.00  0.00    -0.246 OA
BRANCH  10  12
ATOM     12  O   UNL     1       1.436  -3.962   2.315  1.00  0.00    -0.458 OA
BRANCH  12  13
ATOM     13  C   UNL     1       0.907  -3.422   1.072  1.00  0.00     0.181 C 
ATOM     14  C   UNL     1       1.504  -4.188  -0.116  1.00  0.00     0.053 C 
BRANCH  13  15
ATOM     15  C   UNL     1       0.971  -1.861   1.030  1.00  0.00     0.060 C 
BRANCH  15  16
ATOM     16  C   UNL     1       0.343  -1.329   2.353  1.00  0.00     0.009 C 
ATOM     17  C   UNL     1       0.204   0.179   2.498  1.00  0.00     0.005 C 
ENDBRANCH  15  16
BRANCH  15  18
ATOM     18  C   UNL     1       0.354  -1.220  -0.212  1.00  0.00    -0.041 A 
ATOM     19  C   UNL     1       0.819   0.045  -0.621  1.00  0.00     0.004 A 
ATOM     20  C   UNL     1      -0.659  -1.818  -0.976  1.00  0.00     0.004 A 
ATOM     21  C   UNL     1       0.282   0.693  -1.734  1.00  0.00     0.000 A 
ATOM     22  C   UNL     1      -1.166  -1.189  -2.118  1.00  0.00     0.000 A 
ATOM     23  C   UNL     1      -0.704   0.070  -2.490  1.00  0.00     0.000 A 
ENDBRANCH  15  18
ENDBRANCH  13  15
ENDBRANCH  12  13
ENDBRANCH  10  12
ENDBRANCH   5  10
ENDBRANCH   2   4
ENDBRANCH   1   2
BRANCH   1  24
ATOM     24  C   UNL     1      -0.573  -6.649   2.474  1.00  0.00     0.275 C 
BRANCH  24  25
ATOM     25  C   UNL     1      -0.650  -7.868   1.558  1.00  0.00     0.275 C 
BRANCH  25  26
ATOM     26  O   UNL     1      -0.252  -9.035   2.298  1.00  0.00    -0.458 OA
BRANCH  26  27
ATOM     27  C   UNL     1       1.047  -9.373   2.142  1.00  0.00     0.338 C 
ATOM     28  O   UNL     1       1.849  -8.929   1.339  1.00  0.00    -0.246 OA
BRANCH  27  29
ATOM     29  C   UNL     1       1.445 -10.251   3.246  1.00  0.00     0.060 A 
ATOM     30  C   UNL     1       2.021  -9.640   4.356  1.00  0.00     0.016 A 
ATOM     31  C   UNL     1       1.405 -11.637   3.138  1.00  0.00     0.016 A 
ATOM     32  C   UNL     1       2.636 -10.409   5.335  1.00  0.00     0.010 A 
ATOM     33  C   UNL     1       1.969 -12.414   4.158  1.00  0.00     0.010 A 
ATOM     34  C   UNL     1       2.627 -11.809   5.248  1.00  0.00    -0.014 A 
BRANCH  34  35
ATOM     35  C   UNL     1       3.373 -12.610   6.259  1.00  0.00     0.031 A 
ATOM     36  C   UNL     1       4.525 -13.487   5.835  1.00  0.00     0.074 A 
ATOM     37  C   UNL     1       3.067 -12.505   7.568  1.00  0.00     0.049 A 
ATOM     38  N   UNL     1       5.238 -14.323   6.549  1.00  0.00    -0.248 NA
ATOM     39  C   UNL     1       4.924 -13.424   4.420  1.00  0.00     0.031 C 
ATOM     40  C   UNL     1       2.006 -11.663   8.125  1.00  0.00     0.029 A 
ATOM     41  N   UNL     1       3.633 -13.094   8.672  1.00  0.00    -0.354 N 
ATOM     42  C   UNL     1       6.134 -14.914   5.665  1.00  0.00     0.074 A 
ATOM     43  C   UNL     1       5.865 -14.355   4.358  1.00  0.00     0.031 C 
ATOM     44  C   UNL     1       2.030 -11.751   9.463  1.00  0.00     0.029 A 
ATOM     45  C   UNL     1       3.048 -12.717   9.858  1.00  0.00     0.049 A 
ATOM     46  H   UNL     1       4.386 -13.726   8.620  1.00  0.00     0.167 HD
ATOM     47  C   UNL     1       7.099 -15.831   5.921  1.00  0.00     0.037 A 
ATOM     48  C   UNL     1       3.280 -13.127  11.120  1.00  0.00     0.037 A 
ATOM     49  C   UNL     1       7.399 -16.352   7.230  1.00  0.00     0.049 A 
ATOM     50  C   UNL     1       4.330 -14.173  11.367  1.00  0.00     0.074 A 
ATOM     51  C   UNL     1       8.358 -17.285   7.590  1.00  0.00     0.029 A 
ATOM     52  N   UNL     1       6.755 -15.973   8.399  1.00  0.00    -0.354 N 
ATOM     53  N   UNL     1       5.138 -14.755  10.514  1.00  0.00    -0.248 NA
ATOM     54  C   UNL     1       4.491 -14.629  12.755  1.00  0.00     0.031 C 
ATOM     55  C   UNL     1       8.269 -17.497   8.970  1.00  0.00     0.029 A 
ATOM     56  C   UNL     1       7.290 -16.660   9.478  1.00  0.00     0.049 A 
ATOM     57  H   UNL     1       6.027 -15.314   8.454  1.00  0.00     0.167 HD
ATOM     58  C   UNL     1       5.912 -15.632  11.263  1.00  0.00     0.074 A 
ATOM     59  C   UNL     1       5.500 -15.480  12.643  1.00  0.00     0.031 C 
ATOM     60  C   UNL     1       6.871 -16.495  10.846  1.00  0.00     0.037 A 
BRANCH  47  61
ATOM     61  C   UNL     1       7.894 -16.352   4.756  1.00  0.00     0.057 A 
ATOM     62  C   UNL     1       8.850 -15.569   4.096  1.00  0.00     0.134 A 
ATOM     63  C   UNL     1       7.732 -17.674   4.321  1.00  0.00     0.134 A 
ATOM     64  F   UNL     1       9.045 -14.291   4.452  1.00  0.00    -0.206 F 
ATOM     65  C   UNL     1       9.602 -16.077   3.034  1.00  0.00     0.040 A 
ATOM     66  C   UNL     1       8.498 -18.201   3.279  1.00  0.00     0.040 A 
ATOM     67  F   UNL     1       6.839 -18.482   4.912  1.00  0.00    -0.206 F 
ATOM     68  C   UNL     1       9.433 -17.399   2.629  1.00  0.00     0.006 A 
ENDBRANCH  47  61
BRANCH  48  69
ATOM     69  C   UNL     1       2.478 -12.583  12.247  1.00  0.00     0.057 A 
ATOM     70  C   UNL     1       3.069 -11.813  13.255  1.00  0.00     0.134 A 
ATOM     71  C   UNL     1       1.108 -12.852  12.364  1.00  0.00     0.134 A 
ATOM     72  F   UNL     1       4.382 -11.542  13.215  1.00  0.00    -0.206 F 
ATOM     73  C   UNL     1       2.335 -11.349  14.348  1.00  0.00     0.040 A 
ATOM     74  C   UNL     1       0.354 -12.366  13.433  1.00  0.00     0.040 A 
ATOM     75  F   UNL     1       0.478 -13.584  11.433  1.00  0.00    -0.206 F 
ATOM     76  C   UNL     1       0.971 -11.621  14.436  1.00  0.00     0.006 A 
ENDBRANCH  48  69
BRANCH  60  77
ATOM     77  C   UNL     1       7.557 -17.307  11.907  1.00  0.00     0.057 A 
ATOM     78  C   UNL     1       6.899 -18.334  12.596  1.00  0.00     0.134 A 
ATOM     79  C   UNL     1       8.889 -17.047  12.252  1.00  0.00     0.134 A 
ATOM     80  F   UNL     1       5.617 -18.623  12.324  1.00  0.00    -0.206 F 
ATOM     81  C   UNL     1       7.527 -19.043  13.621  1.00  0.00     0.040 A 
ATOM     82  C   UNL     1       9.538 -17.771  13.253  1.00  0.00     0.040 A 
ATOM     83  F   UNL     1       9.582 -16.084  11.624  1.00  0.00    -0.206 F 
ATOM     84  C   UNL     1       8.852 -18.764  13.950  1.00  0.00     0.006 A 
ENDBRANCH  60  77
ENDBRANCH  34  35
ENDBRANCH  27  29
ENDBRANCH  26  27
ENDBRANCH  25  26
ENDBRANCH  24  25
ENDBRANCH   1  24
TORSDOF 17
