REMARK SMILES CCOc1cccc(C(=O)Nc2ccc(Cl)c(C(=O)OCCOC(=O)c3ccc(-c4c5nc(c(-c6c(F)cccc6F)c6ccc([nH]6)c(-c6c(F)cccc6F)c6nc(c(-c7c(F)cccc7F)c7ccc4[nH]7)C=C6)C=C5)cc3)c2)c1
REMARK SMILES IDX 21 1 20 2 18 3 19 4 17 5 12 6 13 7 80 8 14 9 15 10 16 11
REMARK SMILES IDX 11 12 9 13 10 14 8 16 4 17 5 18 81 19 6 20 7 21 3 22 2 23
REMARK SMILES IDX 1 24 22 25 23 26 24 27 25 28 26 29 27 30 79 31 28 32 78 33
REMARK SMILES IDX 29 34 30 35 31 36 72 37 32 38 77 39 71 40 73 41 33 42 76 43
REMARK SMILES IDX 70 44 69 45 34 47 60 48 43 49 59 50 44 51 47 52 58 53 74 54
REMARK SMILES IDX 45 55 46 56 57 58 75 59 48 60 35 61 36 62 41 63 37 64 38 65
REMARK SMILES IDX 40 66 42 67 39 68 61 69 62 70 67 71 63 72 64 73 66 74 68 75
REMARK SMILES IDX 65 76 49 77 50 78 55 79 51 80 52 81 54 82 56 83 53 84
REMARK H PARENT 11 15 73 46 47 57
REMARK Flexibility Score: inf
ROOT
ATOM      1  C   UNL     1      -0.192   3.981   0.629  1.00  0.00     0.275 C 
ENDROOT
BRANCH   1   2
ATOM      2  O   UNL     1       0.702   3.355  -0.316  1.00  0.00    -0.458 OA
BRANCH   2   3
ATOM      3  C   UNL     1       0.559   2.016  -0.468  1.00  0.00     0.339 C 
ATOM      4  O   UNL     1      -0.289   1.324   0.075  1.00  0.00    -0.246 OA
BRANCH   3   5
ATOM      5  C   UNL     1       1.650   1.457  -1.296  1.00  0.00     0.080 A 
ATOM      6  C   UNL     1       4.046   1.157  -1.444  1.00  0.00     0.042 A 
ATOM      7  C   UNL     1       3.879   0.175  -2.419  1.00  0.00     0.028 A 
ATOM      8  C   UNL     1       2.949   1.890  -0.995  1.00  0.00     0.043 A 
ATOM      9  C   UNL     1       2.595  -0.225  -2.769  1.00  0.00     0.023 A 
ATOM     10  C   UNL     1       1.483   0.366  -2.159  1.00  0.00     0.055 A 
ATOM     11  Cl  UNL     1      -0.018  -0.385  -2.507  1.00  0.00    -0.083 Cl
BRANCH   6  12
ATOM     12  N   UNL     1       5.311   1.254  -0.857  1.00  0.00    -0.322 N 
ATOM     13  C   UNL     1       5.693   1.489   0.452  1.00  0.00     0.255 C 
ATOM     14  O   UNL     1       6.894   1.657   0.675  1.00  0.00    -0.269 OA
ATOM     15  H   UNL     1       6.061   1.135  -1.484  1.00  0.00     0.170 HD
BRANCH  13  16
ATOM     16  C   UNL     1       4.750   1.480   1.617  1.00  0.00     0.043 A 
ATOM     17  C   UNL     1       2.631   0.984   2.687  1.00  0.00     0.120 A 
ATOM     18  C   UNL     1       2.981   1.767   3.781  1.00  0.00     0.046 A 
ATOM     19  C   UNL     1       3.541   0.774   1.650  1.00  0.00     0.060 A 
ATOM     20  C   UNL     1       4.245   2.351   3.833  1.00  0.00     0.005 A 
ATOM     21  C   UNL     1       5.114   2.231   2.745  1.00  0.00     0.014 A 
BRANCH  17  22
ATOM     22  O   UNL     1       1.314   0.652   2.529  1.00  0.00    -0.494 OA
BRANCH  22  23
ATOM     23  C   UNL     1       1.004  -0.721   2.764  1.00  0.00     0.226 C 
ATOM     24  C   UNL     1       0.842  -1.486   1.460  1.00  0.00     0.049 C 
ENDBRANCH  22  23
ENDBRANCH  17  22
ENDBRANCH  13  16
ENDBRANCH   6  12
ENDBRANCH   3   5
ENDBRANCH   2   3
ENDBRANCH   1   2
BRANCH   1  25
ATOM     25  C   UNL     1      -1.348   4.679  -0.082  1.00  0.00     0.275 C 
BRANCH  25  26
ATOM     26  O   UNL     1      -2.263   3.708  -0.620  1.00  0.00    -0.458 OA
BRANCH  26  27
ATOM     27  C   UNL     1      -2.145   3.480  -1.949  1.00  0.00     0.338 C 
ATOM     28  O   UNL     1      -1.413   4.046  -2.737  1.00  0.00    -0.246 OA
BRANCH  27  29
ATOM     29  C   UNL     1      -3.028   2.369  -2.345  1.00  0.00     0.060 A 
ATOM     30  C   UNL     1      -2.816   1.110  -1.801  1.00  0.00     0.016 A 
ATOM     31  C   UNL     1      -3.921   2.528  -3.401  1.00  0.00     0.016 A 
ATOM     32  C   UNL     1      -3.352  -0.014  -2.419  1.00  0.00     0.010 A 
ATOM     33  C   UNL     1      -4.576   1.405  -3.922  1.00  0.00     0.010 A 
ATOM     34  C   UNL     1      -4.252   0.109  -3.479  1.00  0.00    -0.014 A 
BRANCH  34  35
ATOM     35  C   UNL     1      -4.795  -1.099  -4.165  1.00  0.00     0.031 A 
ATOM     36  C   UNL     1      -4.715  -1.197  -5.668  1.00  0.00     0.074 A 
ATOM     37  C   UNL     1      -5.348  -2.117  -3.471  1.00  0.00     0.049 A 
ATOM     38  N   UNL     1      -5.404  -1.948  -6.488  1.00  0.00    -0.248 NA
ATOM     39  C   UNL     1      -3.743  -0.316  -6.338  1.00  0.00     0.031 C 
ATOM     40  C   UNL     1      -5.401  -2.234  -2.012  1.00  0.00     0.029 A 
ATOM     41  N   UNL     1      -5.985  -3.254  -3.910  1.00  0.00    -0.354 N 
ATOM     42  C   UNL     1      -5.017  -1.564  -7.768  1.00  0.00     0.074 A 
ATOM     43  C   UNL     1      -4.016  -0.532  -7.618  1.00  0.00     0.031 C 
ATOM     44  C   UNL     1      -6.005  -3.383  -1.678  1.00  0.00     0.029 A 
ATOM     45  C   UNL     1      -6.510  -4.012  -2.889  1.00  0.00     0.049 A 
ATOM     46  H   UNL     1      -6.058  -3.501  -4.860  1.00  0.00     0.167 HD
ATOM     47  C   UNL     1      -5.478  -2.026  -8.954  1.00  0.00     0.037 A 
ATOM     48  C   UNL     1      -7.377  -5.041  -2.912  1.00  0.00     0.037 A 
ATOM     49  C   UNL     1      -6.412  -3.114  -9.081  1.00  0.00     0.049 A 
ATOM     50  C   UNL     1      -7.924  -5.497  -4.234  1.00  0.00     0.074 A 
ATOM     51  C   UNL     1      -6.942  -3.667 -10.234  1.00  0.00     0.029 A 
ATOM     52  N   UNL     1      -6.933  -3.831  -8.015  1.00  0.00    -0.354 N 
ATOM     53  N   UNL     1      -7.644  -5.061  -5.438  1.00  0.00    -0.248 NA
ATOM     54  C   UNL     1      -8.930  -6.567  -4.201  1.00  0.00     0.031 C 
ATOM     55  C   UNL     1      -7.816  -4.693  -9.863  1.00  0.00     0.029 A 
ATOM     56  C   UNL     1      -7.787  -4.814  -8.483  1.00  0.00     0.049 A 
ATOM     57  H   UNL     1      -6.727  -3.666  -7.067  1.00  0.00     0.167 HD
ATOM     58  C   UNL     1      -8.415  -5.822  -6.306  1.00  0.00     0.074 A 
ATOM     59  C   UNL     1      -9.167  -6.753  -5.491  1.00  0.00     0.031 C 
ATOM     60  C   UNL     1      -8.496  -5.755  -7.656  1.00  0.00     0.037 A 
BRANCH  47  61
ATOM     61  C   UNL     1      -5.031  -1.334 -10.209  1.00  0.00     0.057 A 
ATOM     62  C   UNL     1      -3.747  -1.489 -10.741  1.00  0.00     0.134 A 
ATOM     63  C   UNL     1      -5.940  -0.551 -10.936  1.00  0.00     0.134 A 
ATOM     64  F   UNL     1      -2.824  -2.214 -10.091  1.00  0.00    -0.206 F 
ATOM     65  C   UNL     1      -3.379  -0.883 -11.946  1.00  0.00     0.040 A 
ATOM     66  C   UNL     1      -5.593   0.038 -12.152  1.00  0.00     0.040 A 
ATOM     67  F   UNL     1      -7.191  -0.366 -10.485  1.00  0.00    -0.206 F 
ATOM     68  C   UNL     1      -4.307  -0.127 -12.660  1.00  0.00     0.006 A 
ENDBRANCH  47  61
BRANCH  48  69
ATOM     69  C   UNL     1      -7.863  -5.642  -1.641  1.00  0.00     0.057 A 
ATOM     70  C   UNL     1      -7.582  -6.972  -1.310  1.00  0.00     0.134 A 
ATOM     71  C   UNL     1      -8.647  -4.909  -0.738  1.00  0.00     0.134 A 
ATOM     72  F   UNL     1      -6.858  -7.736  -2.143  1.00  0.00    -0.206 F 
ATOM     73  C   UNL     1      -8.077  -7.557  -0.143  1.00  0.00     0.040 A 
ATOM     74  C   UNL     1      -9.117  -5.469   0.450  1.00  0.00     0.040 A 
ATOM     75  F   UNL     1      -8.955  -3.628  -0.991  1.00  0.00    -0.206 F 
ATOM     76  C   UNL     1      -8.842  -6.802   0.744  1.00  0.00     0.006 A 
ENDBRANCH  48  69
BRANCH  60  77
ATOM     77  C   UNL     1      -9.365  -6.763  -8.342  1.00  0.00     0.057 A 
ATOM     78  C   UNL     1     -10.762  -6.680  -8.317  1.00  0.00     0.134 A 
ATOM     79  C   UNL     1      -8.787  -7.800  -9.086  1.00  0.00     0.134 A 
ATOM     80  F   UNL     1     -11.374  -5.718  -7.610  1.00  0.00    -0.206 F 
ATOM     81  C   UNL     1     -11.556  -7.604  -8.998  1.00  0.00     0.040 A 
ATOM     82  C   UNL     1      -9.569  -8.713  -9.791  1.00  0.00     0.040 A 
ATOM     83  F   UNL     1      -7.453  -7.928  -9.154  1.00  0.00    -0.206 F 
ATOM     84  C   UNL     1     -10.959  -8.618  -9.745  1.00  0.00     0.006 A 
ENDBRANCH  60  77
ENDBRANCH  34  35
ENDBRANCH  27  29
ENDBRANCH  26  27
ENDBRANCH  25  26
ENDBRANCH   1  25
TORSDOF 15
