REMARK SMILES Cc1ccc(-c2nc(C)cc(N3CCCC[C@H]3C(=O)OCCOC(=O)c3ccc(-c4c5nc(c(-c6c(F)cccc6F)c6ccc([nH]6)c(-c6c(F)cccc6F)c6nc(c(-c7c(F)cccc7F)c7ccc4[nH]7)C=C6)C=C5)cc3)n2)cc1
REMARK SMILES IDX 21 1 20 2 18 3 19 4 17 5 12 6 13 7 14 8 16 9 15 10 11 11
REMARK SMILES IDX 6 12 7 13 80 14 8 15 9 16 10 17 5 18 1 19 2 20 3 21 82 22
REMARK SMILES IDX 4 23 81 24 22 25 23 26 24 27 25 28 26 29 27 30 79 31 28 32
REMARK SMILES IDX 78 33 29 34 30 35 31 36 72 37 32 38 77 39 71 40 73 41 33 42
REMARK SMILES IDX 76 43 70 44 69 45 34 47 60 48 43 49 59 50 44 51 47 52 58 53
REMARK SMILES IDX 74 54 45 55 46 56 57 58 75 59 48 60 35 61 36 62 41 63 37 64
REMARK SMILES IDX 38 65 40 66 42 67 39 68 61 69 62 70 67 71 63 72 64 73 66 74
REMARK SMILES IDX 68 75 65 76 49 77 50 78 55 79 51 80 52 81 54 82 56 83 53 84
REMARK H PARENT 73 46 47 57
REMARK Flexibility Score: inf
ROOT
ATOM      1  C   UNL     1     -11.221   1.630  -4.297  1.00  0.00     0.274 C 
ENDROOT
BRANCH   1   2
ATOM      2  O   UNL     1     -10.207   2.488  -3.745  1.00  0.00    -0.461 OA
BRANCH   2   3
ATOM      3  C   UNL     1      -9.277   1.881  -2.791  1.00  0.00     0.328 C 
ATOM      4  O   UNL     1      -9.987   0.992  -2.234  1.00  0.00    -0.250 OA
BRANCH   3   5
ATOM      5  C   UNL     1      -7.163   2.463  -2.559  1.00  0.00     0.193 C 
ATOM      6  N   UNL     1      -5.785   1.392  -2.331  1.00  0.00    -0.343 N 
ATOM      7  C   UNL     1      -5.032   0.987  -3.546  1.00  0.00     0.119 C 
ATOM      8  C   UNL     1      -4.515   2.117  -4.419  1.00  0.00     0.022 C 
ATOM      9  C   UNL     1      -6.156   3.700  -3.334  1.00  0.00     0.037 C 
ATOM     10  C   UNL     1      -5.428   3.304  -4.612  1.00  0.00     0.005 C 
BRANCH   6  11
ATOM     11  C   UNL     1      -5.093   1.041  -1.138  1.00  0.00     0.133 A 
ATOM     12  C   UNL     1      -3.105   0.239  -0.212  1.00  0.00     0.161 A 
ATOM     13  N   UNL     1      -3.688  -0.404   0.802  1.00  0.00    -0.233 NA
ATOM     14  N   UNL     1      -3.744   0.950  -1.174  1.00  0.00    -0.211 NA
ATOM     15  C   UNL     1      -5.002  -0.242   0.908  1.00  0.00     0.043 A 
ATOM     16  C   UNL     1      -5.626  -0.999   2.039  1.00  0.00     0.067 C 
ATOM     17  C   UNL     1      -5.720   0.533  -0.001  1.00  0.00     0.070 A 
BRANCH  12  18
ATOM     18  C   UNL     1      -1.647   0.162  -0.212  1.00  0.00     0.019 A 
ATOM     19  C   UNL     1       2.666  -0.031   0.008  1.00  0.00     0.044 C 
ATOM     20  C   UNL     1       1.170   0.037  -0.042  1.00  0.00    -0.051 A 
ATOM     21  C   UNL     1       0.413  -1.138  -0.038  1.00  0.00     0.004 A 
ATOM     22  C   UNL     1       0.513   1.271  -0.108  1.00  0.00     0.004 A 
ATOM     23  C   UNL     1      -0.981  -1.075  -0.111  1.00  0.00     0.012 A 
ATOM     24  C   UNL     1      -0.878   1.331  -0.198  1.00  0.00     0.012 A 
ENDBRANCH  12  18
ENDBRANCH   6  11
ENDBRANCH   3   5
ENDBRANCH   2   3
ENDBRANCH   1   2
BRANCH   1  25
ATOM     25  C   UNL     1     -10.562   0.643  -5.271  1.00  0.00     0.275 C 
BRANCH  25  26
ATOM     26  O   UNL     1      -9.721  -0.374  -4.658  1.00  0.00    -0.458 OA
BRANCH  26  27
ATOM     27  C   UNL     1      -8.358  -0.290  -4.630  1.00  0.00     0.338 C 
ATOM     28  O   UNL     1      -7.608  -1.201  -4.937  1.00  0.00    -0.246 OA
BRANCH  27  29
ATOM     29  C   UNL     1      -7.870   0.842  -3.816  1.00  0.00     0.060 A 
ATOM     30  C   UNL     1      -7.922   0.536  -2.037  1.00  0.00     0.016 A 
ATOM     31  C   UNL     1      -8.133   2.491  -4.439  1.00  0.00     0.016 A 
ATOM     32  C   UNL     1      -8.398   1.875  -0.907  1.00  0.00     0.010 A 
ATOM     33  C   UNL     1      -8.614   3.817  -3.304  1.00  0.00     0.010 A 
ATOM     34  C   UNL     1      -8.820   3.476  -1.563  1.00  0.00    -0.014 A 
BRANCH  34  35
ATOM     35  C   UNL     1      -9.860   4.290  -0.964  1.00  0.00     0.031 A 
ATOM     36  C   UNL     1      -9.575   5.724  -0.888  1.00  0.00     0.074 A 
ATOM     37  C   UNL     1     -11.079   3.715  -0.786  1.00  0.00     0.049 A 
ATOM     38  N   UNL     1     -10.273   6.533  -0.192  1.00  0.00    -0.248 NA
ATOM     39  C   UNL     1      -8.419   6.383  -1.506  1.00  0.00     0.031 C 
ATOM     40  C   UNL     1     -12.409   4.311  -0.702  1.00  0.00     0.029 A 
ATOM     41  N   UNL     1     -11.341   2.373  -0.530  1.00  0.00    -0.354 N 
ATOM     42  C   UNL     1      -9.938   7.803  -0.595  1.00  0.00     0.074 A 
ATOM     43  C   UNL     1      -8.670   7.670  -1.248  1.00  0.00     0.031 C 
ATOM     44  C   UNL     1     -13.277   3.414  -0.188  1.00  0.00     0.029 A 
ATOM     45  C   UNL     1     -12.534   2.222   0.175  1.00  0.00     0.049 A 
ATOM     46  H   UNL     1     -10.761   1.628  -0.809  1.00  0.00     0.167 HD
ATOM     47  C   UNL     1     -10.896   8.756  -0.467  1.00  0.00     0.037 A 
ATOM     48  C   UNL     1     -12.488   1.674   1.425  1.00  0.00     0.037 A 
ATOM     49  C   UNL     1     -12.010   8.204   0.312  1.00  0.00     0.049 A 
ATOM     50  C   UNL     1     -12.550   2.770   2.473  1.00  0.00     0.074 A 
ATOM     51  C   UNL     1     -13.256   7.711  -0.028  1.00  0.00     0.029 A 
ATOM     52  N   UNL     1     -11.726   7.700   1.579  1.00  0.00    -0.354 N 
ATOM     53  N   UNL     1     -12.366   4.039   2.210  1.00  0.00    -0.248 NA
ATOM     54  C   UNL     1     -12.915   2.541   3.865  1.00  0.00     0.031 C 
ATOM     55  C   UNL     1     -13.669   6.829   1.021  1.00  0.00     0.029 A 
ATOM     56  C   UNL     1     -12.693   6.814   2.008  1.00  0.00     0.049 A 
ATOM     57  H   UNL     1     -10.930   7.945   2.106  1.00  0.00     0.167 HD
ATOM     58  C   UNL     1     -12.629   4.793   3.319  1.00  0.00     0.074 A 
ATOM     59  C   UNL     1     -12.979   3.804   4.324  1.00  0.00     0.031 C 
ATOM     60  C   UNL     1     -12.560   6.162   3.316  1.00  0.00     0.037 A 
BRANCH  47  61
ATOM     61  C   UNL     1     -10.939  10.079  -1.189  1.00  0.00     0.057 A 
ATOM     62  C   UNL     1     -11.982  10.981  -0.907  1.00  0.00     0.134 A 
ATOM     63  C   UNL     1     -10.074  10.500  -2.222  1.00  0.00     0.134 A 
ATOM     64  F   UNL     1     -12.894  10.715   0.039  1.00  0.00    -0.206 F 
ATOM     65  C   UNL     1     -12.151  12.194  -1.589  1.00  0.00     0.040 A 
ATOM     66  C   UNL     1     -10.209  11.729  -2.885  1.00  0.00     0.040 A 
ATOM     67  F   UNL     1      -9.081   9.736  -2.688  1.00  0.00    -0.206 F 
ATOM     68  C   UNL     1     -11.256  12.579  -2.576  1.00  0.00     0.006 A 
ENDBRANCH  47  61
BRANCH  48  69
ATOM     69  C   UNL     1     -11.651   0.436   1.441  1.00  0.00     0.057 A 
ATOM     70  C   UNL     1     -12.045  -0.621   0.588  1.00  0.00     0.134 A 
ATOM     71  C   UNL     1     -10.320   0.448   1.839  1.00  0.00     0.134 A 
ATOM     72  F   UNL     1     -13.327  -0.726   0.204  1.00  0.00    -0.206 F 
ATOM     73  C   UNL     1     -11.124  -1.486  -0.011  1.00  0.00     0.040 A 
ATOM     74  C   UNL     1      -9.404  -0.446   1.275  1.00  0.00     0.040 A 
ATOM     75  F   UNL     1      -9.834   1.425   2.617  1.00  0.00    -0.206 F 
ATOM     76  C   UNL     1      -9.781  -1.374   0.307  1.00  0.00     0.006 A 
ENDBRANCH  48  69
BRANCH  60  77
ATOM     77  C   UNL     1     -12.440   7.034   4.557  1.00  0.00     0.057 A 
ATOM     78  C   UNL     1     -12.137   6.558   5.840  1.00  0.00     0.134 A 
ATOM     79  C   UNL     1     -12.507   8.449   4.472  1.00  0.00     0.134 A 
ATOM     80  F   UNL     1     -11.840   5.275   6.076  1.00  0.00    -0.206 F 
ATOM     81  C   UNL     1     -12.049   7.394   6.960  1.00  0.00     0.040 A 
ATOM     82  C   UNL     1     -12.312   9.298   5.562  1.00  0.00     0.040 A 
ATOM     83  F   UNL     1     -12.736   9.097   3.323  1.00  0.00    -0.206 F 
ATOM     84  C   UNL     1     -12.127   8.771   6.824  1.00  0.00     0.006 A 
ENDBRANCH  60  77
ENDBRANCH  34  35
ENDBRANCH  27  29
ENDBRANCH  26  27
ENDBRANCH  25  26
ENDBRANCH   1  25
TORSDOF 13
