REMARK SMILES Cc1ccc(C(=O)OCCOC(=O)c2ccc(-c3c4nc(c(-c5c(F)cccc5F)c5ccc([nH]5)c(-c5c(F)cccc5F)c5nc(c(-c6c(F)cccc6F)c6ccc3[nH]6)C=C5)C=C4)cc2)cc1CNC(=O)C[N@@H+]1CCC[C@]2(CCOC2)C1
REMARK SMILES IDX 9 1 8 2 6 3 7 4 5 5 1 6 2 7 3 8 69 9 4 10 68 11 70 12 71 13
REMARK SMILES IDX 72 14 73 16 74 17 75 18 76 19 84 20 77 22 79 23 78 24 80 25
REMARK SMILES IDX 83 26 81 27 82 28 10 29 11 30 12 31 13 32 14 33 15 34 67 35
REMARK SMILES IDX 16 36 66 37 17 38 18 39 19 40 60 41 20 42 65 43 59 44 61 45
REMARK SMILES IDX 21 46 64 47 58 48 57 49 22 51 48 52 31 53 47 54 32 55 35 56
REMARK SMILES IDX 46 57 62 58 33 59 34 60 45 62 63 63 36 64 23 65 24 66 29 67
REMARK SMILES IDX 25 68 26 69 28 70 30 71 27 72 49 73 50 74 55 75 51 76 52 77
REMARK SMILES IDX 54 78 56 79 53 80 37 81 38 82 43 83 39 84 40 85 42 86 44 87
REMARK SMILES IDX 41 88
REMARK H PARENT 71 15 75 21 61 50 35 61
REMARK Flexibility Score: inf
ROOT
ATOM      1  C   UNL     1      -4.500   1.621  -2.220  1.00  0.00     0.275 C 
ENDROOT
BRANCH   1   2
ATOM      2  O   UNL     1      -3.237   0.938  -2.155  1.00  0.00    -0.458 OA
BRANCH   2   3
ATOM      3  C   UNL     1      -2.569   1.234  -1.011  1.00  0.00     0.338 C 
ATOM      4  O   UNL     1      -2.995   1.942  -0.106  1.00  0.00    -0.246 OA
BRANCH   3   5
ATOM      5  C   UNL     1      -1.170   0.778  -0.972  1.00  0.00     0.060 A 
ATOM      6  C   UNL     1       2.982  -0.072  -0.123  1.00  0.00     0.044 C 
ATOM      7  C   UNL     1       1.569   0.299  -0.479  1.00  0.00    -0.046 A 
ATOM      8  C   UNL     1       0.679  -0.745  -0.839  1.00  0.00     0.004 A 
ATOM      9  C   UNL     1       1.079   1.608  -0.430  1.00  0.00    -0.025 A 
ATOM     10  C   UNL     1      -0.676  -0.504  -1.129  1.00  0.00     0.016 A 
ATOM     11  C   UNL     1      -0.295   1.788  -0.611  1.00  0.00     0.021 A 
BRANCH   9  12
ATOM     12  C   UNL     1       1.867   2.885  -0.238  1.00  0.00     0.152 C 
BRANCH  12  13
ATOM     13  N   UNL     1       1.556   3.787  -1.346  1.00  0.00    -0.347 N 
ATOM     14  C   UNL     1       0.624   4.787  -1.391  1.00  0.00     0.275 C 
ATOM     15  H   UNL     1       2.086   3.657  -2.165  1.00  0.00     0.164 HD
ATOM     16  O   UNL     1       0.184   5.128  -2.493  1.00  0.00    -0.268 OA
BRANCH  14  17
ATOM     17  C   UNL     1       0.190   5.498  -0.108  1.00  0.00     0.363 C 
BRANCH  17  18
ATOM     18  N   UNL     1      -0.988   4.910   0.557  1.00  0.00    -0.327 N 
ATOM     19  C   UNL     1      -2.232   4.999  -0.224  1.00  0.00     0.262 C 
ATOM     20  C   UNL     1      -1.227   5.458   1.906  1.00  0.00     0.272 C 
ATOM     21  H   UNL     1      -0.740   3.924   0.638  1.00  0.00     0.348 HD
ATOM     22  C   UNL     1      -2.767   6.420  -0.359  1.00  0.00     0.062 C 
ATOM     23  C   UNL     1      -1.770   6.909   1.966  1.00  0.00     0.045 C 
ATOM     24  C   UNL     1      -2.959   7.078   1.002  1.00  0.00     0.021 C 
ATOM     25  C   UNL     1      -0.657   7.948   1.821  1.00  0.00     0.043 C 
ATOM     26  C   UNL     1      -2.250   7.241   3.380  1.00  0.00     0.173 C 
ATOM     27  C   UNL     1      -0.169   8.204   3.241  1.00  0.00     0.161 C 
ATOM     28  O   UNL     1      -1.090   7.580   4.136  1.00  0.00    -0.381 OA
ENDBRANCH  17  18
ENDBRANCH  14  17
ENDBRANCH  12  13
ENDBRANCH   9  12
ENDBRANCH   3   5
ENDBRANCH   2   3
ENDBRANCH   1   2
BRANCH   1  29
ATOM     29  C   UNL     1      -5.612   0.843  -2.932  1.00  0.00     0.275 C 
BRANCH  29  30
ATOM     30  O   UNL     1      -5.575  -0.611  -2.975  1.00  0.00    -0.458 OA
BRANCH  30  31
ATOM     31  C   UNL     1      -5.021  -1.480  -2.103  1.00  0.00     0.338 C 
ATOM     32  O   UNL     1      -4.628  -2.592  -2.449  1.00  0.00    -0.246 OA
BRANCH  31  33
ATOM     33  C   UNL     1      -4.880  -1.061  -0.705  1.00  0.00     0.060 A 
ATOM     34  C   UNL     1      -3.751  -1.493   0.015  1.00  0.00     0.016 A 
ATOM     35  C   UNL     1      -5.805  -0.187  -0.145  1.00  0.00     0.016 A 
ATOM     36  C   UNL     1      -3.497  -0.993   1.281  1.00  0.00     0.010 A 
ATOM     37  C   UNL     1      -5.495   0.415   1.046  1.00  0.00     0.010 A 
ATOM     38  C   UNL     1      -4.389  -0.053   1.784  1.00  0.00    -0.014 A 
BRANCH  38  39
ATOM     39  C   UNL     1      -4.579   0.128   3.208  1.00  0.00     0.031 A 
ATOM     40  C   UNL     1      -3.942   1.213   3.958  1.00  0.00     0.074 A 
ATOM     41  C   UNL     1      -5.625  -0.637   3.596  1.00  0.00     0.049 A 
ATOM     42  N   UNL     1      -4.008   1.314   5.237  1.00  0.00    -0.248 NA
ATOM     43  C   UNL     1      -3.134   2.273   3.356  1.00  0.00     0.031 C 
ATOM     44  C   UNL     1      -6.561  -0.528   4.693  1.00  0.00     0.029 A 
ATOM     45  N   UNL     1      -5.993  -1.845   2.971  1.00  0.00    -0.354 N 
ATOM     46  C   UNL     1      -3.629   2.598   5.566  1.00  0.00     0.074 A 
ATOM     47  C   UNL     1      -2.950   3.094   4.400  1.00  0.00     0.031 C 
ATOM     48  C   UNL     1      -7.151  -1.730   4.867  1.00  0.00     0.029 A 
ATOM     49  C   UNL     1      -6.487  -2.675   3.972  1.00  0.00     0.049 A 
ATOM     50  H   UNL     1      -5.915  -2.059   2.013  1.00  0.00     0.167 HD
ATOM     51  C   UNL     1      -4.134   3.139   6.713  1.00  0.00     0.037 A 
ATOM     52  C   UNL     1      -5.684  -3.714   4.356  1.00  0.00     0.037 A 
ATOM     53  C   UNL     1      -4.879   2.117   7.437  1.00  0.00     0.049 A 
ATOM     54  C   UNL     1      -5.168  -3.474   5.756  1.00  0.00     0.074 A 
ATOM     55  C   UNL     1      -6.221   1.776   7.439  1.00  0.00     0.029 A 
ATOM     56  N   UNL     1      -4.188   1.007   7.904  1.00  0.00    -0.354 N 
ATOM     57  N   UNL     1      -4.929  -2.292   6.263  1.00  0.00    -0.248 NA
ATOM     58  C   UNL     1      -5.001  -4.549   6.726  1.00  0.00     0.031 C 
ATOM     59  C   UNL     1      -6.319   0.409   7.813  1.00  0.00     0.029 A 
ATOM     60  C   UNL     1      -5.039  -0.075   8.022  1.00  0.00     0.049 A 
ATOM     61  H   UNL     1      -3.228   0.992   8.119  1.00  0.00     0.167 HD
ATOM     62  C   UNL     1      -4.682  -2.420   7.604  1.00  0.00     0.074 A 
ATOM     63  C   UNL     1      -4.705  -3.853   7.838  1.00  0.00     0.031 C 
ATOM     64  C   UNL     1      -4.517  -1.360   8.449  1.00  0.00     0.037 A 
BRANCH  51  65
ATOM     65  C   UNL     1      -4.251   4.617   6.993  1.00  0.00     0.057 A 
ATOM     66  C   UNL     1      -5.374   5.135   7.674  1.00  0.00     0.134 A 
ATOM     67  C   UNL     1      -3.322   5.587   6.590  1.00  0.00     0.134 A 
ATOM     68  F   UNL     1      -6.312   4.336   8.198  1.00  0.00    -0.206 F 
ATOM     69  C   UNL     1      -5.606   6.505   7.848  1.00  0.00     0.040 A 
ATOM     70  C   UNL     1      -3.552   6.968   6.737  1.00  0.00     0.040 A 
ATOM     71  F   UNL     1      -2.143   5.236   6.060  1.00  0.00    -0.206 F 
ATOM     72  C   UNL     1      -4.707   7.432   7.353  1.00  0.00     0.006 A 
ENDBRANCH  51  65
BRANCH  52  73
ATOM     73  C   UNL     1      -4.926  -4.339   3.214  1.00  0.00     0.057 A 
ATOM     74  C   UNL     1      -5.654  -4.792   2.088  1.00  0.00     0.134 A 
ATOM     75  C   UNL     1      -3.541  -4.243   3.046  1.00  0.00     0.134 A 
ATOM     76  F   UNL     1      -6.990  -4.915   2.156  1.00  0.00    -0.206 F 
ATOM     77  C   UNL     1      -5.057  -5.033   0.844  1.00  0.00     0.040 A 
ATOM     78  C   UNL     1      -2.925  -4.509   1.807  1.00  0.00     0.040 A 
ATOM     79  F   UNL     1      -2.758  -3.810   4.043  1.00  0.00    -0.206 F 
ATOM     80  C   UNL     1      -3.686  -4.876   0.696  1.00  0.00     0.006 A 
ENDBRANCH  52  73
BRANCH  64  81
ATOM     81  C   UNL     1      -3.880  -1.437   9.810  1.00  0.00     0.057 A 
ATOM     82  C   UNL     1      -2.909  -2.387  10.148  1.00  0.00     0.134 A 
ATOM     83  C   UNL     1      -4.072  -0.401  10.754  1.00  0.00     0.134 A 
ATOM     84  F   UNL     1      -2.545  -3.356   9.298  1.00  0.00    -0.206 F 
ATOM     85  C   UNL     1      -2.215  -2.342  11.360  1.00  0.00     0.040 A 
ATOM     86  C   UNL     1      -3.329  -0.305  11.929  1.00  0.00     0.040 A 
ATOM     87  F   UNL     1      -4.955   0.589  10.554  1.00  0.00    -0.206 F 
ATOM     88  C   UNL     1      -2.408  -1.289  12.245  1.00  0.00     0.006 A 
ENDBRANCH  64  81
ENDBRANCH  38  39
ENDBRANCH  31  33
ENDBRANCH  30  31
ENDBRANCH  29  30
ENDBRANCH   1  29
TORSDOF 15
