REMARK SMILES O=C(OCCOC(=O)[C@H](CCc1ccccn1)c1ccccc1Br)c1ccc(-c2c3nc(c(-c4c(F)cccc4F)c4ccc([nH]4)c(-c4c(F)cccc4F)c4nc(c(-c5c(F)cccc5F)c5ccc2[nH]5)C=C4)C=C3)cc1
REMARK SMILES IDX 5 1 4 2 3 3 2 4 1 5 25 6 26 7 78 8 27 9 77 10 28 11 29 12
REMARK SMILES IDX 30 13 71 14 31 15 76 16 70 17 72 18 32 19 75 20 69 21 68 22
REMARK SMILES IDX 33 24 59 25 42 26 58 27 43 28 46 29 57 30 73 31 44 32 45 33
REMARK SMILES IDX 56 35 74 36 47 37 34 38 35 39 40 40 36 41 37 42 39 43 41 44
REMARK SMILES IDX 38 45 60 46 61 47 66 48 62 49 63 50 65 51 67 52 64 53 48 54
REMARK SMILES IDX 49 55 54 56 50 57 51 58 53 59 55 60 52 61 6 62 7 63 8 64
REMARK SMILES IDX 9 65 18 66 19 67 23 68 20 69 22 70 24 71 21 72 10 73 11 74
REMARK SMILES IDX 12 75 13 76 17 77 14 78 16 79 15 80
REMARK H PARENT 72 23 46 34
REMARK Flexibility Score: inf
ROOT
ATOM      1  C   UNL     1       3.854  -4.675  -1.154  1.00  0.00     0.274 C 
ENDROOT
BRANCH   1   2
ATOM      2  C   UNL     1       2.714  -4.805  -2.166  1.00  0.00     0.275 C 
BRANCH   2   3
ATOM      3  O   UNL     1       2.146  -3.537  -2.537  1.00  0.00    -0.458 OA
BRANCH   3   4
ATOM      4  C   UNL     1       1.433  -2.667  -1.787  1.00  0.00     0.338 C 
ATOM      5  O   UNL     1       1.357  -1.504  -2.187  1.00  0.00    -0.246 OA
BRANCH   4   6
ATOM      6  C   UNL     1       0.738  -2.992  -0.486  1.00  0.00     0.060 A 
ATOM      7  C   UNL     1       0.699  -4.218   0.190  1.00  0.00     0.016 A 
ATOM      8  C   UNL     1       0.121  -1.902   0.149  1.00  0.00     0.016 A 
ATOM      9  C   UNL     1       0.173  -4.326   1.488  1.00  0.00     0.010 A 
ATOM     10  C   UNL     1      -0.395  -2.002   1.443  1.00  0.00     0.010 A 
ATOM     11  C   UNL     1      -0.360  -3.213   2.132  1.00  0.00    -0.014 A 
BRANCH  11  12
ATOM     12  C   UNL     1      -1.033  -3.337   3.446  1.00  0.00     0.031 A 
ATOM     13  C   UNL     1      -2.524  -3.265   3.479  1.00  0.00     0.074 A 
ATOM     14  C   UNL     1      -0.342  -3.517   4.586  1.00  0.00     0.049 A 
ATOM     15  N   UNL     1      -3.331  -3.378   4.498  1.00  0.00    -0.248 NA
ATOM     16  C   UNL     1      -3.197  -3.017   2.193  1.00  0.00     0.031 C 
ATOM     17  C   UNL     1       1.109  -3.571   4.668  1.00  0.00     0.029 A 
ATOM     18  N   UNL     1      -0.750  -3.693   5.886  1.00  0.00    -0.354 N 
ATOM     19  C   UNL     1      -4.603  -3.227   3.974  1.00  0.00     0.074 A 
ATOM     20  C   UNL     1      -4.461  -2.929   2.567  1.00  0.00     0.031 C 
ATOM     21  C   UNL     1       1.475  -3.800   5.938  1.00  0.00     0.029 A 
ATOM     22  C   UNL     1       0.287  -3.877   6.772  1.00  0.00     0.049 A 
ATOM     23  H   UNL     1      -1.696  -3.688   6.158  1.00  0.00     0.167 HD
ATOM     24  C   UNL     1      -5.789  -3.367   4.604  1.00  0.00     0.037 A 
ATOM     25  C   UNL     1       0.285  -4.088   8.102  1.00  0.00     0.037 A 
ATOM     26  C   UNL     1      -5.918  -3.650   6.005  1.00  0.00     0.049 A 
ATOM     27  C   UNL     1      -1.045  -4.178   8.795  1.00  0.00     0.074 A 
ATOM     28  C   UNL     1      -7.070  -3.803   6.750  1.00  0.00     0.029 A 
ATOM     29  N   UNL     1      -4.847  -3.811   6.876  1.00  0.00    -0.354 N 
ATOM     30  N   UNL     1      -2.247  -4.088   8.277  1.00  0.00    -0.248 NA
ATOM     31  C   UNL     1      -1.030  -4.409  10.245  1.00  0.00     0.031 C 
ATOM     32  C   UNL     1      -6.698  -4.008   8.083  1.00  0.00     0.029 A 
ATOM     33  C   UNL     1      -5.313  -4.040   8.158  1.00  0.00     0.049 A 
ATOM     34  H   UNL     1      -3.898  -3.768   6.618  1.00  0.00     0.167 HD
ATOM     35  C   UNL     1      -3.130  -4.280   9.328  1.00  0.00     0.074 A 
ATOM     36  C   UNL     1      -2.324  -4.510  10.511  1.00  0.00     0.031 C 
ATOM     37  C   UNL     1      -4.485  -4.267   9.317  1.00  0.00     0.037 A 
BRANCH  24  38
ATOM     38  C   UNL     1      -7.010  -3.186   3.757  1.00  0.00     0.057 A 
ATOM     39  C   UNL     1      -7.354  -4.106   2.755  1.00  0.00     0.134 A 
ATOM     40  C   UNL     1      -7.801  -2.040   3.885  1.00  0.00     0.134 A 
ATOM     41  F   UNL     1      -6.611  -5.206   2.556  1.00  0.00    -0.206 F 
ATOM     42  C   UNL     1      -8.418  -3.871   1.885  1.00  0.00     0.040 A 
ATOM     43  C   UNL     1      -8.886  -1.809   3.040  1.00  0.00     0.040 A 
ATOM     44  F   UNL     1      -7.514  -1.115   4.813  1.00  0.00    -0.206 F 
ATOM     45  C   UNL     1      -9.189  -2.719   2.028  1.00  0.00     0.006 A 
ENDBRANCH  24  38
BRANCH  25  46
ATOM     46  C   UNL     1       1.558  -4.247   8.863  1.00  0.00     0.057 A 
ATOM     47  C   UNL     1       1.896  -5.461   9.475  1.00  0.00     0.134 A 
ATOM     48  C   UNL     1       2.451  -3.181   9.031  1.00  0.00     0.134 A 
ATOM     49  F   UNL     1       1.079  -6.520   9.372  1.00  0.00    -0.206 F 
ATOM     50  C   UNL     1       3.054  -5.602  10.247  1.00  0.00     0.040 A 
ATOM     51  C   UNL     1       3.627  -3.314   9.777  1.00  0.00     0.040 A 
ATOM     52  F   UNL     1       2.197  -1.988   8.474  1.00  0.00    -0.206 F 
ATOM     53  C   UNL     1       3.925  -4.525  10.398  1.00  0.00     0.006 A 
ENDBRANCH  25  46
BRANCH  37  54
ATOM     54  C   UNL     1      -5.174  -4.540  10.619  1.00  0.00     0.057 A 
ATOM     55  C   UNL     1      -5.175  -3.610  11.666  1.00  0.00     0.134 A 
ATOM     56  C   UNL     1      -5.879  -5.735  10.809  1.00  0.00     0.134 A 
ATOM     57  F   UNL     1      -4.504  -2.453  11.550  1.00  0.00    -0.206 F 
ATOM     58  C   UNL     1      -5.834  -3.869  12.867  1.00  0.00     0.040 A 
ATOM     59  C   UNL     1      -6.568  -5.992  11.993  1.00  0.00     0.040 A 
ATOM     60  F   UNL     1      -5.922  -6.663   9.841  1.00  0.00    -0.206 F 
ATOM     61  C   UNL     1      -6.541  -5.060  13.028  1.00  0.00     0.006 A 
ENDBRANCH  37  54
ENDBRANCH  11  12
ENDBRANCH   4   6
ENDBRANCH   3   4
ENDBRANCH   2   3
ENDBRANCH   1   2
BRANCH   1  62
ATOM     62  O   UNL     1       3.463  -3.805  -0.076  1.00  0.00    -0.462 OA
BRANCH  62  63
ATOM     63  C   UNL     1       4.401  -3.010   0.506  1.00  0.00     0.313 C 
ATOM     64  O   UNL     1       5.576  -2.961   0.152  1.00  0.00    -0.252 OA
BRANCH  63  65
ATOM     65  C   UNL     1       3.786  -2.197   1.666  1.00  0.00     0.131 C 
BRANCH  65  66
ATOM     66  C   UNL     1       4.269  -2.706   3.046  1.00  0.00    -0.020 A 
ATOM     67  C   UNL     1       4.460  -1.772   4.085  1.00  0.00     0.006 A 
ATOM     68  C   UNL     1       4.431  -4.064   3.416  1.00  0.00     0.022 A 
ATOM     69  C   UNL     1       4.865  -2.136   5.373  1.00  0.00     0.000 A 
ATOM     70  C   UNL     1       4.872  -4.426   4.704  1.00  0.00     0.016 A 
ATOM     71  Br  UNL     1       3.926  -5.571   2.370  1.00  0.00    -0.051 Br
ATOM     72  C   UNL     1       5.102  -3.464   5.677  1.00  0.00     0.001 A 
ENDBRANCH  65  66
BRANCH  65  73
ATOM     73  C   UNL     1       4.061  -0.680   1.336  1.00  0.00     0.026 C 
BRANCH  73  74
ATOM     74  C   UNL     1       2.846   0.249   1.095  1.00  0.00     0.057 C 
BRANCH  74  75
ATOM     75  C   UNL     1       1.923   0.660   2.224  1.00  0.00     0.040 A 
ATOM     76  C   UNL     1       0.632   1.106   1.918  1.00  0.00     0.024 A 
ATOM     77  N   UNL     1       2.394   0.705   3.487  1.00  0.00    -0.261 NA
ATOM     78  C   UNL     1      -0.232   1.499   2.940  1.00  0.00     0.003 A 
ATOM     79  C   UNL     1       1.544   1.123   4.462  1.00  0.00     0.111 A 
ATOM     80  C   UNL     1       0.232   1.505   4.244  1.00  0.00     0.020 A 
ENDBRANCH  74  75
ENDBRANCH  73  74
ENDBRANCH  65  73
ENDBRANCH  63  65
ENDBRANCH  62  63
ENDBRANCH   1  62
TORSDOF 15
