REMARK SMILES C[C@H]1CCC[C@@H]([NH2+]Cc2ccc(C(=O)OCCOC(=O)c3ccc(-c4c5nc(c(-c6c(F)cccc6F)c6ccc([nH]6)c(-c6c(F)cccc6F)c6nc(c(-c7c(F)cccc7F)c7ccc4[nH]7)C=C6)C=C5)cc3)cn2)C1
REMARK SMILES IDX 16 1 15 2 13 3 14 4 12 5 9 6 10 7 76 8 11 9 75 10 8 11 7 12
REMARK SMILES IDX 6 15 1 16 2 17 3 18 77 19 4 20 5 21 17 22 18 23 19 24 20 25
REMARK SMILES IDX 21 26 22 27 74 28 23 29 73 30 24 31 25 32 26 33 67 34 27 35
REMARK SMILES IDX 72 36 66 37 68 38 28 39 71 40 65 41 64 42 29 44 55 45 38 46
REMARK SMILES IDX 54 47 39 48 42 49 53 50 69 51 40 52 41 53 52 55 70 56 43 57
REMARK SMILES IDX 30 58 31 59 36 60 32 61 33 62 35 63 37 64 34 65 56 66 57 67
REMARK SMILES IDX 62 68 58 69 59 70 61 71 63 72 60 73 44 74 45 75 50 76 46 77
REMARK SMILES IDX 47 78 49 79 51 80 48 81
REMARK H PARENT 7 13 7 14 68 43 42 54
REMARK Flexibility Score: inf
ROOT
ATOM      1  C   UNL     1      -5.370  -9.405  -3.024  1.00  0.00     0.275 C 
ENDROOT
BRANCH   1   2
ATOM      2  O   UNL     1      -4.719  -8.324  -2.324  1.00  0.00    -0.458 OA
BRANCH   2   3
ATOM      3  C   UNL     1      -4.956  -7.083  -2.817  1.00  0.00     0.339 C 
ATOM      4  O   UNL     1      -5.621  -6.809  -3.798  1.00  0.00    -0.246 OA
BRANCH   3   5
ATOM      5  C   UNL     1      -4.369  -6.050  -1.943  1.00  0.00     0.078 A 
ATOM      6  C   UNL     1      -3.395  -3.936  -0.466  1.00  0.00     0.094 A 
ATOM      7  C   UNL     1      -2.669  -5.132  -0.522  1.00  0.00     0.031 A 
ATOM      8  N   UNL     1      -4.581  -3.789  -1.095  1.00  0.00    -0.254 NA
ATOM      9  C   UNL     1      -3.164  -6.204  -1.268  1.00  0.00     0.019 A 
ATOM     10  C   UNL     1      -5.019  -4.829  -1.835  1.00  0.00     0.127 A 
BRANCH   6  11
ATOM     11  C   UNL     1      -2.862  -2.707   0.245  1.00  0.00     0.318 C 
BRANCH  11  12
ATOM     12  N   UNL     1      -1.518  -2.364  -0.227  1.00  0.00    -0.339 N 
ATOM     13  H   UNL     1      -0.886  -3.120   0.036  1.00  0.00     0.346 HD
ATOM     14  H   UNL     1      -1.589  -2.237  -1.237  1.00  0.00     0.346 HD
BRANCH  12  15
ATOM     15  C   UNL     1      -0.987  -1.114   0.314  1.00  0.00     0.182 C 
ATOM     16  C   UNL     1       2.648   0.194  -0.092  1.00  0.00     0.008 C 
ATOM     17  C   UNL     1       1.193   0.202   0.371  1.00  0.00    -0.008 C 
ATOM     18  C   UNL     1       0.454   1.437  -0.156  1.00  0.00     0.004 C 
ATOM     19  C   UNL     1       0.496  -1.081  -0.087  1.00  0.00     0.068 C 
ATOM     20  C   UNL     1      -1.023   1.416   0.230  1.00  0.00     0.006 C 
ATOM     21  C   UNL     1      -1.711   0.129  -0.224  1.00  0.00     0.065 C 
ENDBRANCH  12  15
ENDBRANCH  11  12
ENDBRANCH   6  11
ENDBRANCH   3   5
ENDBRANCH   2   3
ENDBRANCH   1   2
BRANCH   1  22
ATOM     22  C   UNL     1      -6.634  -9.865  -2.294  1.00  0.00     0.275 C 
BRANCH  22  23
ATOM     23  O   UNL     1      -7.675  -8.871  -2.373  1.00  0.00    -0.458 OA
BRANCH  23  24
ATOM     24  C   UNL     1      -7.840  -8.130  -1.256  1.00  0.00     0.338 C 
ATOM     25  O   UNL     1      -7.222  -8.221  -0.207  1.00  0.00    -0.246 OA
BRANCH  24  26
ATOM     26  C   UNL     1      -8.837  -7.073  -1.473  1.00  0.00     0.060 A 
ATOM     27  C   UNL     1      -8.408  -5.901  -2.080  1.00  0.00     0.016 A 
ATOM     28  C   UNL     1     -10.095  -7.128  -0.881  1.00  0.00     0.016 A 
ATOM     29  C   UNL     1      -9.150  -4.733  -1.957  1.00  0.00     0.010 A 
ATOM     30  C   UNL     1     -10.911  -5.987  -0.897  1.00  0.00     0.010 A 
ATOM     31  C   UNL     1     -10.429  -4.757  -1.388  1.00  0.00    -0.014 A 
BRANCH  31  32
ATOM     32  C   UNL     1     -11.238  -3.503  -1.293  1.00  0.00     0.031 A 
ATOM     33  C   UNL     1     -11.814  -3.058   0.029  1.00  0.00     0.074 A 
ATOM     34  C   UNL     1     -11.456  -2.745  -2.389  1.00  0.00     0.049 A 
ATOM     35  N   UNL     1     -12.697  -2.123   0.279  1.00  0.00    -0.248 NA
ATOM     36  C   UNL     1     -11.351  -3.773   1.229  1.00  0.00     0.031 C 
ATOM     37  C   UNL     1     -10.927  -3.014  -3.729  1.00  0.00     0.029 A 
ATOM     38  N   UNL     1     -12.180  -1.588  -2.553  1.00  0.00    -0.354 N 
ATOM     39  C   UNL     1     -12.941  -2.181   1.647  1.00  0.00     0.074 A 
ATOM     40  C   UNL     1     -12.122  -3.252   2.173  1.00  0.00     0.031 C 
ATOM     41  C   UNL     1     -11.300  -2.032  -4.560  1.00  0.00     0.029 A 
ATOM     42  C   UNL     1     -12.191  -1.126  -3.848  1.00  0.00     0.049 A 
ATOM     43  H   UNL     1     -12.645  -1.134  -1.814  1.00  0.00     0.167 HD
ATOM     44  C   UNL     1     -13.770  -1.412   2.395  1.00  0.00     0.037 A 
ATOM     45  C   UNL     1     -12.881  -0.124  -4.424  1.00  0.00     0.037 A 
ATOM     46  C   UNL     1     -14.541  -0.309   1.874  1.00  0.00     0.049 A 
ATOM     47  C   UNL     1     -13.831   0.681  -3.588  1.00  0.00     0.074 A 
ATOM     48  C   UNL     1     -15.393   0.545   2.554  1.00  0.00     0.029 A 
ATOM     49  N   UNL     1     -14.543   0.099   0.548  1.00  0.00    -0.354 N 
ATOM     50  N   UNL     1     -14.091   0.584  -2.307  1.00  0.00    -0.248 NA
ATOM     51  C   UNL     1     -14.599   1.724  -4.281  1.00  0.00     0.031 C 
ATOM     52  C   UNL     1     -15.949   1.436   1.631  1.00  0.00     0.029 A 
ATOM     53  C   UNL     1     -15.399   1.177   0.386  1.00  0.00     0.049 A 
ATOM     54  H   UNL     1     -14.015  -0.317  -0.171  1.00  0.00     0.167 HD
ATOM     55  C   UNL     1     -15.034   1.565  -2.035  1.00  0.00     0.074 A 
ATOM     56  C   UNL     1     -15.287   2.258  -3.282  1.00  0.00     0.031 C 
ATOM     57  C   UNL     1     -15.637   1.863  -0.859  1.00  0.00     0.037 A 
BRANCH  44  58
ATOM     58  C   UNL     1     -13.922  -1.758   3.851  1.00  0.00     0.057 A 
ATOM     59  C   UNL     1     -12.896  -1.558   4.784  1.00  0.00     0.134 A 
ATOM     60  C   UNL     1     -15.134  -2.275   4.332  1.00  0.00     0.134 A 
ATOM     61  F   UNL     1     -11.707  -1.075   4.394  1.00  0.00    -0.206 F 
ATOM     62  C   UNL     1     -13.058  -1.889   6.132  1.00  0.00     0.040 A 
ATOM     63  C   UNL     1     -15.318  -2.579   5.682  1.00  0.00     0.040 A 
ATOM     64  F   UNL     1     -16.165  -2.482   3.499  1.00  0.00    -0.206 F 
ATOM     65  C   UNL     1     -14.275  -2.395   6.585  1.00  0.00     0.006 A 
ENDBRANCH  44  58
BRANCH  45  66
ATOM     66  C   UNL     1     -12.734   0.136  -5.880  1.00  0.00     0.057 A 
ATOM     67  C   UNL     1     -12.139   1.311  -6.350  1.00  0.00     0.134 A 
ATOM     68  C   UNL     1     -13.176  -0.789  -6.836  1.00  0.00     0.134 A 
ATOM     69  F   UNL     1     -11.718   2.247  -5.487  1.00  0.00    -0.206 F 
ATOM     70  C   UNL     1     -11.997   1.563  -7.716  1.00  0.00     0.040 A 
ATOM     71  C   UNL     1     -13.010  -0.566  -8.203  1.00  0.00     0.040 A 
ATOM     72  F   UNL     1     -13.752  -1.938  -6.453  1.00  0.00    -0.206 F 
ATOM     73  C   UNL     1     -12.425   0.618  -8.647  1.00  0.00     0.006 A 
ENDBRANCH  45  66
BRANCH  57  74
ATOM     74  C   UNL     1     -16.595   3.019  -0.857  1.00  0.00     0.057 A 
ATOM     75  C   UNL     1     -17.850   2.945  -1.474  1.00  0.00     0.134 A 
ATOM     76  C   UNL     1     -16.262   4.214  -0.207  1.00  0.00     0.134 A 
ATOM     77  F   UNL     1     -18.223   1.835  -2.127  1.00  0.00    -0.206 F 
ATOM     78  C   UNL     1     -18.730   4.029  -1.466  1.00  0.00     0.040 A 
ATOM     79  C   UNL     1     -17.145   5.294  -0.167  1.00  0.00     0.040 A 
ATOM     80  F   UNL     1     -15.078   4.349   0.410  1.00  0.00    -0.206 F 
ATOM     81  C   UNL     1     -18.380   5.205  -0.805  1.00  0.00     0.006 A 
ENDBRANCH  57  74
ENDBRANCH  31  32
ENDBRANCH  24  26
ENDBRANCH  23  24
ENDBRANCH  22  23
ENDBRANCH   1  22
TORSDOF 14
