REMARK SMILES Cc1ccc(C(=O)OCCOC(=O)c2ccc(-c3c4nc(c(-c5c(F)cccc5F)c5ccc([nH]5)c(-c5c(F)cccc5F)c5nc(c(-c6c(F)cccc6F)c6ccc3[nH]6)C=C5)C=C4)cc2)c(Oc2cccc(F)c2C(N)=O)c1
REMARK SMILES IDX 9 1 8 2 6 3 7 4 5 5 1 6 2 7 3 8 80 9 4 10 68 11 69 12 70 13
REMARK SMILES IDX 71 14 76 15 72 16 74 17 73 18 75 19 77 20 78 21 79 22 10 25
REMARK SMILES IDX 11 26 12 27 13 28 14 29 15 30 67 31 16 32 66 33 17 34 18 35
REMARK SMILES IDX 19 36 60 37 20 38 65 39 59 40 61 41 21 42 64 43 58 44 57 45
REMARK SMILES IDX 22 47 48 48 31 49 47 50 32 51 35 52 46 53 62 54 33 55 34 56
REMARK SMILES IDX 45 58 63 59 36 60 23 61 24 62 29 63 25 64 26 65 28 66 30 67
REMARK SMILES IDX 27 68 49 69 50 70 55 71 51 72 52 73 54 74 56 75 53 76 37 77
REMARK SMILES IDX 38 78 43 79 39 80 40 81 42 82 44 83 41 84
REMARK H PARENT 78 23 78 24 61 46 35 57
REMARK Flexibility Score: inf
ROOT
ATOM      1  C   UNL     1      -4.481   1.561  -2.240  1.00  0.00     0.275 C 
ENDROOT
BRANCH   1   2
ATOM      2  O   UNL     1      -3.187   0.942  -2.089  1.00  0.00    -0.458 OA
BRANCH   2   3
ATOM      3  C   UNL     1      -2.604   1.309  -0.912  1.00  0.00     0.342 C 
ATOM      4  O   UNL     1      -3.152   2.041  -0.099  1.00  0.00    -0.246 OA
BRANCH   3   5
ATOM      5  C   UNL     1      -1.191   0.881  -0.736  1.00  0.00     0.102 A 
ATOM      6  C   UNL     1       2.970  -0.036  -0.018  1.00  0.00     0.044 C 
ATOM      7  C   UNL     1       1.523   0.273  -0.272  1.00  0.00    -0.047 A 
ATOM      8  C   UNL     1       0.671  -0.659  -0.887  1.00  0.00     0.004 A 
ATOM      9  C   UNL     1       1.000   1.497   0.147  1.00  0.00     0.051 A 
ATOM     10  C   UNL     1      -0.677  -0.352  -1.142  1.00  0.00     0.020 A 
ATOM     11  C   UNL     1      -0.339   1.796  -0.097  1.00  0.00     0.142 A 
BRANCH  11  12
ATOM     12  O   UNL     1      -0.887   2.962   0.364  1.00  0.00    -0.455 OA
BRANCH  12  13
ATOM     13  C   UNL     1      -0.411   4.178  -0.043  1.00  0.00     0.143 A 
ATOM     14  C   UNL     1      -0.681   5.174   0.909  1.00  0.00     0.048 A 
ATOM     15  C   UNL     1       0.244   4.513  -1.234  1.00  0.00     0.117 A 
ATOM     16  C   UNL     1      -0.218   6.472   0.736  1.00  0.00     0.007 A 
ATOM     17  C   UNL     1       0.733   5.813  -1.381  1.00  0.00     0.139 A 
ATOM     18  C   UNL     1       0.518   6.783  -0.401  1.00  0.00     0.040 A 
ATOM     19  F   UNL     1       1.393   6.179  -2.489  1.00  0.00    -0.206 F 
BRANCH  15  20
ATOM     20  C   UNL     1       0.431   3.603  -2.381  1.00  0.00     0.255 C 
ATOM     21  N   UNL     1      -0.698   3.039  -2.910  1.00  0.00    -0.365 N 
ATOM     22  O   UNL     1       1.535   3.382  -2.857  1.00  0.00    -0.269 OA
ATOM     23  H   UNL     1      -1.577   3.230  -2.511  1.00  0.00     0.159 HD
ATOM     24  H   UNL     1      -0.630   2.441  -3.690  1.00  0.00     0.159 HD
ENDBRANCH  15  20
ENDBRANCH  12  13
ENDBRANCH  11  12
ENDBRANCH   3   5
ENDBRANCH   2   3
ENDBRANCH   1   2
BRANCH   1  25
ATOM     25  C   UNL     1      -5.526   0.740  -3.002  1.00  0.00     0.275 C 
BRANCH  25  26
ATOM     26  O   UNL     1      -5.425  -0.708  -3.053  1.00  0.00    -0.458 OA
BRANCH  26  27
ATOM     27  C   UNL     1      -4.869  -1.554  -2.159  1.00  0.00     0.338 C 
ATOM     28  O   UNL     1      -4.390  -2.635  -2.495  1.00  0.00    -0.246 OA
BRANCH  27  29
ATOM     29  C   UNL     1      -4.827  -1.142  -0.753  1.00  0.00     0.060 A 
ATOM     30  C   UNL     1      -3.707  -1.506   0.018  1.00  0.00     0.016 A 
ATOM     31  C   UNL     1      -5.834  -0.331  -0.238  1.00  0.00     0.016 A 
ATOM     32  C   UNL     1      -3.548  -0.994   1.294  1.00  0.00     0.010 A 
ATOM     33  C   UNL     1      -5.617   0.286   0.965  1.00  0.00     0.010 A 
ATOM     34  C   UNL     1      -4.514  -0.102   1.746  1.00  0.00    -0.014 A 
BRANCH  34  35
ATOM     35  C   UNL     1      -4.719   0.154   3.156  1.00  0.00     0.031 A 
ATOM     36  C   UNL     1      -4.041   1.266   3.833  1.00  0.00     0.074 A 
ATOM     37  C   UNL     1      -5.741  -0.618   3.591  1.00  0.00     0.049 A 
ATOM     38  N   UNL     1      -3.914   1.372   5.107  1.00  0.00    -0.248 NA
ATOM     39  C   UNL     1      -3.367   2.353   3.126  1.00  0.00     0.031 C 
ATOM     40  C   UNL     1      -6.635  -0.531   4.724  1.00  0.00     0.029 A 
ATOM     41  N   UNL     1      -6.097  -1.843   2.990  1.00  0.00    -0.354 N 
ATOM     42  C   UNL     1      -3.576   2.689   5.364  1.00  0.00     0.074 A 
ATOM     43  C   UNL     1      -3.047   3.183   4.124  1.00  0.00     0.031 C 
ATOM     44  C   UNL     1      -7.174  -1.753   4.932  1.00  0.00     0.029 A 
ATOM     45  C   UNL     1      -6.523  -2.684   4.011  1.00  0.00     0.049 A 
ATOM     46  H   UNL     1      -6.052  -2.060   2.031  1.00  0.00     0.167 HD
ATOM     47  C   UNL     1      -4.040   3.255   6.518  1.00  0.00     0.037 A 
ATOM     48  C   UNL     1      -5.676  -3.699   4.359  1.00  0.00     0.037 A 
ATOM     49  C   UNL     1      -4.745   2.227   7.287  1.00  0.00     0.049 A 
ATOM     50  C   UNL     1      -5.113  -3.423   5.732  1.00  0.00     0.074 A 
ATOM     51  C   UNL     1      -6.091   1.903   7.352  1.00  0.00     0.029 A 
ATOM     52  N   UNL     1      -4.046   1.112   7.738  1.00  0.00    -0.354 N 
ATOM     53  N   UNL     1      -4.809  -2.232   6.183  1.00  0.00    -0.248 NA
ATOM     54  C   UNL     1      -4.999  -4.466   6.742  1.00  0.00     0.031 C 
ATOM     55  C   UNL     1      -6.189   0.544   7.753  1.00  0.00     0.029 A 
ATOM     56  C   UNL     1      -4.907   0.043   7.908  1.00  0.00     0.049 A 
ATOM     57  H   UNL     1      -3.078   1.088   7.911  1.00  0.00     0.167 HD
ATOM     58  C   UNL     1      -4.582  -2.319   7.531  1.00  0.00     0.074 A 
ATOM     59  C   UNL     1      -4.673  -3.741   7.824  1.00  0.00     0.031 C 
ATOM     60  C   UNL     1      -4.401  -1.243   8.354  1.00  0.00     0.037 A 
BRANCH  47  61
ATOM     61  C   UNL     1      -4.208   4.743   6.780  1.00  0.00     0.057 A 
ATOM     62  C   UNL     1      -5.160   5.190   7.725  1.00  0.00     0.134 A 
ATOM     63  C   UNL     1      -3.523   5.786   6.132  1.00  0.00     0.134 A 
ATOM     64  F   UNL     1      -5.843   4.335   8.498  1.00  0.00    -0.206 F 
ATOM     65  C   UNL     1      -5.468   6.541   7.936  1.00  0.00     0.040 A 
ATOM     66  C   UNL     1      -3.833   7.146   6.321  1.00  0.00     0.040 A 
ATOM     67  F   UNL     1      -2.488   5.557   5.316  1.00  0.00    -0.206 F 
ATOM     68  C   UNL     1      -4.818   7.528   7.218  1.00  0.00     0.006 A 
ENDBRANCH  47  61
BRANCH  48  69
ATOM     69  C   UNL     1      -4.933  -4.308   3.198  1.00  0.00     0.057 A 
ATOM     70  C   UNL     1      -5.670  -4.752   2.074  1.00  0.00     0.134 A 
ATOM     71  C   UNL     1      -3.547  -4.239   3.027  1.00  0.00     0.134 A 
ATOM     72  F   UNL     1      -7.008  -4.861   2.146  1.00  0.00    -0.206 F 
ATOM     73  C   UNL     1      -5.080  -5.006   0.830  1.00  0.00     0.040 A 
ATOM     74  C   UNL     1      -2.939  -4.516   1.788  1.00  0.00     0.040 A 
ATOM     75  F   UNL     1      -2.753  -3.830   4.026  1.00  0.00    -0.206 F 
ATOM     76  C   UNL     1      -3.707  -4.872   0.679  1.00  0.00     0.006 A 
ENDBRANCH  48  69
BRANCH  60  77
ATOM     77  C   UNL     1      -3.803  -1.320   9.731  1.00  0.00     0.057 A 
ATOM     78  C   UNL     1      -2.875  -2.299  10.110  1.00  0.00     0.134 A 
ATOM     79  C   UNL     1      -3.998  -0.275  10.663  1.00  0.00     0.134 A 
ATOM     80  F   UNL     1      -2.503  -3.277   9.273  1.00  0.00    -0.206 F 
ATOM     81  C   UNL     1      -2.239  -2.280  11.353  1.00  0.00     0.040 A 
ATOM     82  C   UNL     1      -3.312  -0.207  11.873  1.00  0.00     0.040 A 
ATOM     83  F   UNL     1      -4.834   0.747  10.424  1.00  0.00    -0.206 F 
ATOM     84  C   UNL     1      -2.443  -1.224  12.232  1.00  0.00     0.006 A 
ENDBRANCH  60  77
ENDBRANCH  34  35
ENDBRANCH  27  29
ENDBRANCH  26  27
ENDBRANCH  25  26
ENDBRANCH   1  25
TORSDOF 14
