REMARK SMILES Cc1ccccc1/[NH+]=C1\S[C@@H](CC(=O)Nc2ccc(C(=O)OCCOC(=O)c3ccc(-c4c5nc(c(-c6c(F)cccc6F)c6ccc([nH]6)c(-c6c(F)cccc6F)c6nc(c(-c7c(F)cccc7F)c7ccc4[nH]7)C=C6)C=C5)cc3)cc2)C(=O)N1C
REMARK SMILES IDX 23 1 22 2 20 3 21 4 19 5 16 6 17 7 83 8 18 9 82 10 15 11
REMARK SMILES IDX 13 12 14 13 12 15 11 16 8 17 9 18 10 20 86 21 84 22 87 23
REMARK SMILES IDX 85 24 7 25 1 26 2 27 3 28 4 29 6 30 5 31 24 32 25 33 26 34
REMARK SMILES IDX 27 35 28 36 29 37 81 38 30 39 80 40 31 41 32 42 33 43 74 44
REMARK SMILES IDX 34 45 79 46 73 47 75 48 35 49 78 50 72 51 71 52 36 54 62 55
REMARK SMILES IDX 45 56 61 57 46 58 49 59 60 60 76 61 47 62 48 63 59 65 77 66
REMARK SMILES IDX 50 67 37 68 38 69 43 70 39 71 40 72 42 73 44 74 41 75 63 76
REMARK SMILES IDX 64 77 69 78 65 79 66 80 68 81 70 82 67 83 51 84 52 85 57 86
REMARK SMILES IDX 53 87 54 88 56 89 58 90 55 91
REMARK H PARENT 15 14 8 19 75 53 49 64
REMARK Flexibility Score: inf
ROOT
ATOM      1  C   UNL     1       3.045   7.491  -2.195  1.00  0.00     0.275 C 
ENDROOT
BRANCH   1   2
ATOM      2  O   UNL     1       4.159   7.198  -1.343  1.00  0.00    -0.458 OA
BRANCH   2   3
ATOM      3  C   UNL     1       4.486   5.885  -1.310  1.00  0.00     0.338 C 
ATOM      4  O   UNL     1       3.916   4.965  -1.875  1.00  0.00    -0.246 OA
BRANCH   3   5
ATOM      5  C   UNL     1       5.602   5.645  -0.385  1.00  0.00     0.060 A 
ATOM      6  C   UNL     1       7.157   4.211   1.375  1.00  0.00     0.041 A 
ATOM      7  C   UNL     1       6.119   5.002   1.867  1.00  0.00     0.027 A 
ATOM      8  C   UNL     1       7.575   4.323   0.054  1.00  0.00     0.027 A 
ATOM      9  C   UNL     1       5.315   5.706   0.976  1.00  0.00     0.018 A 
ATOM     10  C   UNL     1       6.774   5.027  -0.839  1.00  0.00     0.018 A 
BRANCH   6  11
ATOM     11  N   UNL     1       7.515   3.074   2.110  1.00  0.00    -0.326 N 
ATOM     12  C   UNL     1       6.789   1.897   2.056  1.00  0.00     0.226 C 
ATOM     13  O   UNL     1       6.878   1.087   2.980  1.00  0.00    -0.275 OA
ATOM     14  H   UNL     1       8.313   3.114   2.685  1.00  0.00     0.169 HD
BRANCH  12  15
ATOM     15  C   UNL     1       5.929   1.591   0.833  1.00  0.00     0.128 C 
BRANCH  15  16
ATOM     16  C   UNL     1       4.436   1.538   1.102  1.00  0.00     0.183 C 
ATOM     17  N   UNL     1       0.921   1.789   0.210  1.00  0.00    -0.234 N 
ATOM     18  C   UNL     1       2.174   2.056   0.157  1.00  0.00     0.319 C 
ATOM     19  H   UNL     1       0.367   2.535   0.536  1.00  0.00     0.313 HD
ATOM     20  S   UNL     1       3.535   1.196  -0.466  1.00  0.00    -0.022 SA
ATOM     21  N   UNL     1       2.650   3.135   0.834  1.00  0.00    -0.193 N 
ATOM     22  C   UNL     1       3.744   2.805   1.603  1.00  0.00     0.324 C 
ATOM     23  C   UNL     1       1.849   4.321   1.073  1.00  0.00     0.301 C 
ATOM     24  O   UNL     1       4.009   3.333   2.679  1.00  0.00    -0.245 OA
BRANCH  17  25
ATOM     25  C   UNL     1       0.195   0.636  -0.109  1.00  0.00     0.128 A 
ATOM     26  C   UNL     1       1.898  -1.217   0.513  1.00  0.00     0.049 C 
ATOM     27  C   UNL     1       0.551  -0.716   0.084  1.00  0.00    -0.004 A 
ATOM     28  C   UNL     1      -0.425  -1.722  -0.087  1.00  0.00     0.008 A 
ATOM     29  C   UNL     1      -1.757  -1.411  -0.335  1.00  0.00     0.001 A 
ATOM     30  C   UNL     1      -1.160   0.915  -0.379  1.00  0.00     0.052 A 
ATOM     31  C   UNL     1      -2.130  -0.085  -0.470  1.00  0.00     0.004 A 
ENDBRANCH  17  25
ENDBRANCH  15  16
ENDBRANCH  12  15
ENDBRANCH   6  11
ENDBRANCH   3   5
ENDBRANCH   2   3
ENDBRANCH   1   2
BRANCH   1  32
ATOM     32  C   UNL     1       3.172   8.875  -2.846  1.00  0.00     0.275 C 
BRANCH  32  33
ATOM     33  O   UNL     1       4.511   9.387  -3.112  1.00  0.00    -0.458 OA
BRANCH  33  34
ATOM     34  C   UNL     1       5.591   8.724  -3.613  1.00  0.00     0.338 C 
ATOM     35  O   UNL     1       6.729   9.102  -3.466  1.00  0.00    -0.246 OA
BRANCH  34  36
ATOM     36  C   UNL     1       5.306   7.463  -4.312  1.00  0.00     0.060 A 
ATOM     37  C   UNL     1       6.105   6.351  -4.023  1.00  0.00     0.016 A 
ATOM     38  C   UNL     1       4.198   7.372  -5.146  1.00  0.00     0.016 A 
ATOM     39  C   UNL     1       5.716   5.096  -4.465  1.00  0.00     0.010 A 
ATOM     40  C   UNL     1       3.741   6.126  -5.486  1.00  0.00     0.010 A 
ATOM     41  C   UNL     1       4.516   5.001  -5.168  1.00  0.00    -0.014 A 
BRANCH  41  42
ATOM     42  C   UNL     1       4.200   3.846  -5.980  1.00  0.00     0.031 A 
ATOM     43  C   UNL     1       3.498   2.683  -5.426  1.00  0.00     0.074 A 
ATOM     44  C   UNL     1       4.574   4.054  -7.261  1.00  0.00     0.049 A 
ATOM     45  N   UNL     1       3.748   1.472  -5.782  1.00  0.00    -0.248 NA
ATOM     46  C   UNL     1       2.482   2.768  -4.374  1.00  0.00     0.031 C 
ATOM     47  C   UNL     1       4.283   3.350  -8.489  1.00  0.00     0.029 A 
ATOM     48  N   UNL     1       5.514   5.025  -7.648  1.00  0.00    -0.354 N 
ATOM     49  C   UNL     1       2.692   0.709  -5.329  1.00  0.00     0.074 A 
ATOM     50  C   UNL     1       2.040   1.502  -4.316  1.00  0.00     0.031 C 
ATOM     51  C   UNL     1       5.221   3.685  -9.401  1.00  0.00     0.029 A 
ATOM     52  C   UNL     1       6.217   4.519  -8.732  1.00  0.00     0.049 A 
ATOM     53  H   UNL     1       5.649   5.904  -7.226  1.00  0.00     0.167 HD
ATOM     54  C   UNL     1       2.312  -0.384  -6.051  1.00  0.00     0.037 A 
ATOM     55  C   UNL     1       7.536   4.218  -8.547  1.00  0.00     0.037 A 
ATOM     56  C   UNL     1       3.111  -0.460  -7.268  1.00  0.00     0.049 A 
ATOM     57  C   UNL     1       7.737   2.729  -8.662  1.00  0.00     0.074 A 
ATOM     58  C   UNL     1       2.870   0.071  -8.525  1.00  0.00     0.029 A 
ATOM     59  N   UNL     1       4.473  -0.718  -7.197  1.00  0.00    -0.354 N 
ATOM     60  N   UNL     1       6.875   1.836  -8.254  1.00  0.00    -0.248 NA
ATOM     61  C   UNL     1       8.880   2.151  -9.354  1.00  0.00     0.031 C 
ATOM     62  C   UNL     1       4.104   0.157  -9.208  1.00  0.00     0.029 A 
ATOM     63  C   UNL     1       5.095  -0.305  -8.360  1.00  0.00     0.049 A 
ATOM     64  H   UNL     1       4.929  -1.136  -6.431  1.00  0.00     0.167 HD
ATOM     65  C   UNL     1       7.273   0.601  -8.706  1.00  0.00     0.074 A 
ATOM     66  C   UNL     1       8.543   0.852  -9.366  1.00  0.00     0.031 C 
ATOM     67  C   UNL     1       6.512  -0.527  -8.572  1.00  0.00     0.037 A 
BRANCH  54  68
ATOM     68  C   UNL     1       1.004  -1.112  -5.874  1.00  0.00     0.057 A 
ATOM     69  C   UNL     1       0.271  -1.581  -6.984  1.00  0.00     0.134 A 
ATOM     70  C   UNL     1       0.426  -1.393  -4.625  1.00  0.00     0.134 A 
ATOM     71  F   UNL     1       0.712  -1.435  -8.239  1.00  0.00    -0.206 F 
ATOM     72  C   UNL     1      -0.967  -2.224  -6.870  1.00  0.00     0.040 A 
ATOM     73  C   UNL     1      -0.826  -2.019  -4.497  1.00  0.00     0.040 A 
ATOM     74  F   UNL     1       1.067  -1.094  -3.486  1.00  0.00    -0.206 F 
ATOM     75  C   UNL     1      -1.530  -2.432  -5.623  1.00  0.00     0.006 A 
ENDBRANCH  54  68
BRANCH  55  76
ATOM     76  C   UNL     1       8.272   5.130  -7.606  1.00  0.00     0.057 A 
ATOM     77  C   UNL     1       8.197   6.528  -7.806  1.00  0.00     0.134 A 
ATOM     78  C   UNL     1       8.844   4.717  -6.400  1.00  0.00     0.134 A 
ATOM     79  F   UNL     1       7.679   7.019  -8.945  1.00  0.00    -0.206 F 
ATOM     80  C   UNL     1       8.563   7.456  -6.825  1.00  0.00     0.040 A 
ATOM     81  C   UNL     1       9.243   5.640  -5.415  1.00  0.00     0.040 A 
ATOM     82  F   UNL     1       8.970   3.415  -6.110  1.00  0.00    -0.206 F 
ATOM     83  C   UNL     1       9.074   7.011  -5.613  1.00  0.00     0.006 A 
ENDBRANCH  55  76
BRANCH  67  84
ATOM     84  C   UNL     1       6.968  -1.952  -8.779  1.00  0.00     0.057 A 
ATOM     85  C   UNL     1       8.303  -2.366  -8.705  1.00  0.00     0.134 A 
ATOM     86  C   UNL     1       6.025  -3.004  -8.903  1.00  0.00     0.134 A 
ATOM     87  F   UNL     1       9.297  -1.506  -8.454  1.00  0.00    -0.206 F 
ATOM     88  C   UNL     1       8.679  -3.709  -8.823  1.00  0.00     0.040 A 
ATOM     89  C   UNL     1       6.385  -4.351  -8.944  1.00  0.00     0.040 A 
ATOM     90  F   UNL     1       4.704  -2.783  -8.960  1.00  0.00    -0.206 F 
ATOM     91  C   UNL     1       7.720  -4.708  -8.927  1.00  0.00     0.006 A 
ENDBRANCH  67  84
ENDBRANCH  41  42
ENDBRANCH  34  36
ENDBRANCH  33  34
ENDBRANCH  32  33
ENDBRANCH   1  32
TORSDOF 15
