REMARK SMILES Cc1ccc2c(c1C)O[C@@H](C(=O)OCCOC(=O)c1ccc(-c3c4nc(c(-c5c(F)cccc5F)c5ccc([nH]5)c(-c5c(F)cccc5F)c5nc(c(-c6c(F)cccc6F)c6ccc3[nH]6)C=C5)C=C4)cc1)CC2=O
REMARK SMILES IDX 15 1 14 2 13 3 11 4 12 5 10 6 1 7 2 8 3 9 7 10 4 11 6 12
REMARK SMILES IDX 8 13 5 14 9 15 74 16 73 17 75 18 16 19 17 20 18 21 19 22
REMARK SMILES IDX 20 23 72 24 21 25 71 26 22 27 23 28 24 29 65 30 25 31 70 32
REMARK SMILES IDX 64 33 66 34 26 35 69 36 63 37 62 38 27 40 53 41 36 42 52 43
REMARK SMILES IDX 37 44 40 45 51 46 67 47 38 48 39 49 50 51 68 52 41 53 28 54
REMARK SMILES IDX 29 55 34 56 30 57 31 58 33 59 35 60 32 61 54 62 55 63 60 64
REMARK SMILES IDX 56 65 57 66 59 67 61 68 58 69 42 70 43 71 48 72 44 73 45 74
REMARK SMILES IDX 47 75 49 76 46 77
REMARK H PARENT 66 39 40 50
REMARK Flexibility Score: inf
ROOT
ATOM      1  C   UNL     1       3.274   2.590  -7.213  1.00  0.00     0.275 C 
ENDROOT
BRANCH   1   2
ATOM      2  C   UNL     1       3.086   2.168  -5.756  1.00  0.00     0.274 C 
BRANCH   2   3
ATOM      3  O   UNL     1       1.766   2.514  -5.293  1.00  0.00    -0.459 OA
BRANCH   3   4
ATOM      4  C   UNL     1       1.667   3.589  -4.469  1.00  0.00     0.347 C 
ATOM      5  O   UNL     1       2.620   4.252  -4.072  1.00  0.00    -0.248 OA
BRANCH   4   6
ATOM      6  C   UNL     1       0.218   3.876  -4.040  1.00  0.00     0.290 C 
ATOM      7  C   UNL     1       0.919  -0.343   0.217  1.00  0.00     0.045 C 
ATOM      8  C   UNL     1       0.397   0.273  -1.052  1.00  0.00    -0.044 A 
ATOM      9  C   UNL     1      -0.101  -0.579  -2.056  1.00  0.00     0.005 A 
ATOM     10  C   UNL     1       0.414   1.668  -1.266  1.00  0.00    -0.005 A 
ATOM     11  C   UNL     1      -0.587  -0.066  -3.257  1.00  0.00     0.016 A 
ATOM     12  C   UNL     1      -0.060   2.168  -2.491  1.00  0.00     0.134 A 
ATOM     13  C   UNL     1       0.966   2.639  -0.254  1.00  0.00     0.049 C 
ATOM     14  C   UNL     1      -0.566   1.308  -3.469  1.00  0.00     0.060 A 
ATOM     15  O   UNL     1      -0.010   3.527  -2.677  1.00  0.00    -0.477 OA
ATOM     16  C   UNL     1      -1.067   1.873  -4.737  1.00  0.00     0.170 C 
ATOM     17  C   UNL     1      -0.878   3.348  -4.948  1.00  0.00     0.138 C 
ATOM     18  O   UNL     1      -1.647   1.164  -5.554  1.00  0.00    -0.294 OA
ENDBRANCH   4   6
ENDBRANCH   3   4
ENDBRANCH   2   3
ENDBRANCH   1   2
BRANCH   1  19
ATOM     19  O   UNL     1       3.297   4.024  -7.335  1.00  0.00    -0.458 OA
BRANCH  19  20
ATOM     20  C   UNL     1       2.104   4.593  -7.611  1.00  0.00     0.338 C 
ATOM     21  O   UNL     1       1.035   4.041  -7.800  1.00  0.00    -0.246 OA
BRANCH  20  22
ATOM     22  C   UNL     1       2.234   6.050  -7.546  1.00  0.00     0.060 A 
ATOM     23  C   UNL     1       1.855   6.704  -6.371  1.00  0.00     0.016 A 
ATOM     24  C   UNL     1       2.615   6.768  -8.679  1.00  0.00     0.016 A 
ATOM     25  C   UNL     1       1.833   8.093  -6.328  1.00  0.00     0.010 A 
ATOM     26  C   UNL     1       2.610   8.163  -8.629  1.00  0.00     0.010 A 
ATOM     27  C   UNL     1       2.201   8.828  -7.460  1.00  0.00    -0.014 A 
BRANCH  27  28
ATOM     28  C   UNL     1       2.107  10.302  -7.436  1.00  0.00     0.031 A 
ATOM     29  C   UNL     1       0.966  10.984  -8.128  1.00  0.00     0.074 A 
ATOM     30  C   UNL     1       3.039  11.015  -6.779  1.00  0.00     0.049 A 
ATOM     31  N   UNL     1       0.746  12.262  -8.297  1.00  0.00    -0.248 NA
ATOM     32  C   UNL     1      -0.068  10.110  -8.705  1.00  0.00     0.031 C 
ATOM     33  C   UNL     1       4.159  10.450  -6.025  1.00  0.00     0.029 A 
ATOM     34  N   UNL     1       3.193  12.370  -6.649  1.00  0.00    -0.354 N 
ATOM     35  C   UNL     1      -0.445  12.348  -9.004  1.00  0.00     0.074 A 
ATOM     36  C   UNL     1      -0.891  10.993  -9.252  1.00  0.00     0.031 C 
ATOM     37  C   UNL     1       4.891  11.454  -5.516  1.00  0.00     0.029 A 
ATOM     38  C   UNL     1       4.316  12.725  -5.945  1.00  0.00     0.049 A 
ATOM     39  H   UNL     1       2.560  13.024  -7.023  1.00  0.00     0.167 HD
ATOM     40  C   UNL     1      -1.107  13.459  -9.404  1.00  0.00     0.037 A 
ATOM     41  C   UNL     1       4.834  13.943  -5.703  1.00  0.00     0.037 A 
ATOM     42  C   UNL     1      -0.651  14.802  -9.161  1.00  0.00     0.049 A 
ATOM     43  C   UNL     1       4.131  15.156  -6.242  1.00  0.00     0.074 A 
ATOM     44  C   UNL     1      -1.240  15.997  -9.532  1.00  0.00     0.029 A 
ATOM     45  N   UNL     1       0.516  15.124  -8.484  1.00  0.00    -0.354 N 
ATOM     46  N   UNL     1       3.011  15.229  -6.919  1.00  0.00    -0.248 NA
ATOM     47  C   UNL     1       4.769  16.455  -5.990  1.00  0.00     0.031 C 
ATOM     48  C   UNL     1      -0.411  17.043  -9.110  1.00  0.00     0.029 A 
ATOM     49  C   UNL     1       0.676  16.499  -8.443  1.00  0.00     0.049 A 
ATOM     50  H   UNL     1       1.139  14.471  -8.090  1.00  0.00     0.167 HD
ATOM     51  C   UNL     1       2.797  16.581  -7.155  1.00  0.00     0.074 A 
ATOM     52  C   UNL     1       3.900  17.291  -6.539  1.00  0.00     0.031 C 
ATOM     53  C   UNL     1       1.781  17.181  -7.821  1.00  0.00     0.037 A 
BRANCH  40  54
ATOM     54  C   UNL     1      -2.379  13.258 -10.171  1.00  0.00     0.057 A 
ATOM     55  C   UNL     1      -2.426  13.495 -11.550  1.00  0.00     0.134 A 
ATOM     56  C   UNL     1      -3.559  12.835  -9.545  1.00  0.00     0.134 A 
ATOM     57  F   UNL     1      -1.331  13.900 -12.210  1.00  0.00    -0.206 F 
ATOM     58  C   UNL     1      -3.603  13.318 -12.281  1.00  0.00     0.040 A 
ATOM     59  C   UNL     1      -4.736  12.635 -10.268  1.00  0.00     0.040 A 
ATOM     60  F   UNL     1      -3.574  12.574  -8.229  1.00  0.00    -0.206 F 
ATOM     61  C   UNL     1      -4.761  12.881 -11.640  1.00  0.00     0.006 A 
ENDBRANCH  40  54
BRANCH  41  62
ATOM     62  C   UNL     1       6.097  14.074  -4.936  1.00  0.00     0.057 A 
ATOM     63  C   UNL     1       7.324  13.680  -5.482  1.00  0.00     0.134 A 
ATOM     64  C   UNL     1       6.105  14.613  -3.646  1.00  0.00     0.134 A 
ATOM     65  F   UNL     1       7.381  13.155  -6.715  1.00  0.00    -0.206 F 
ATOM     66  C   UNL     1       8.516  13.810  -4.767  1.00  0.00     0.040 A 
ATOM     67  C   UNL     1       7.291  14.769  -2.928  1.00  0.00     0.040 A 
ATOM     68  F   UNL     1       4.962  15.028  -3.081  1.00  0.00    -0.206 F 
ATOM     69  C   UNL     1       8.501  14.363  -3.488  1.00  0.00     0.006 A 
ENDBRANCH  41  62
BRANCH  53  70
ATOM     70  C   UNL     1       1.806  18.678  -7.883  1.00  0.00     0.057 A 
ATOM     71  C   UNL     1       0.928  19.438  -7.100  1.00  0.00     0.134 A 
ATOM     72  C   UNL     1       2.686  19.366  -8.727  1.00  0.00     0.134 A 
ATOM     73  F   UNL     1       0.057  18.837  -6.275  1.00  0.00    -0.206 F 
ATOM     74  C   UNL     1       0.924  20.832  -7.156  1.00  0.00     0.040 A 
ATOM     75  C   UNL     1       2.706  20.760  -8.775  1.00  0.00     0.040 A 
ATOM     76  F   UNL     1       3.563  18.694  -9.488  1.00  0.00    -0.206 F 
ATOM     77  C   UNL     1       1.820  21.497  -7.991  1.00  0.00     0.006 A 
ENDBRANCH  53  70
ENDBRANCH  27  28
ENDBRANCH  20  22
ENDBRANCH  19  20
ENDBRANCH   1  19
TORSDOF 11
