REMARK SMILES C[C@H](C(=O)OCCOC(=O)c1ccc(-c2c3nc(c(-c4c(F)cccc4F)c4ccc([nH]4)c(-c4c(F)cccc4F)c4nc(c(-c5c(F)cccc5F)c5ccc2[nH]5)C=C4)C=C3)cc1)c1ccc2c3cc(Cl)ccc3n(C(=O)c3ccc(Cl)cc3)c2c1
REMARK SMILES IDX 6 1 5 2 3 3 4 4 2 5 1 6 65 7 66 8 87 9 67 10 86 11 68 12
REMARK SMILES IDX 76 13 69 14 75 15 70 16 74 17 71 18 73 19 72 20 77 21 78 22
REMARK SMILES IDX 79 23 80 24 85 25 81 26 84 27 82 28 83 29 7 30 8 31 9 32
REMARK SMILES IDX 10 33 11 34 12 35 64 36 13 37 63 38 14 39 15 40 16 41 57 42
REMARK SMILES IDX 17 43 62 44 56 45 58 46 18 47 61 48 55 49 54 50 19 52 45 53
REMARK SMILES IDX 28 54 44 55 29 56 32 57 43 58 59 59 30 60 31 61 42 63 60 64
REMARK SMILES IDX 33 65 20 66 21 67 26 68 22 69 23 70 25 71 27 72 24 73 46 74
REMARK SMILES IDX 47 75 52 76 48 77 49 78 51 79 53 80 50 81 34 82 35 83 40 84
REMARK SMILES IDX 36 85 37 86 39 87 41 88 38 89
REMARK H PARENT 58 51 32 62
REMARK Flexibility Score: inf
ROOT
ATOM      1  C   UNL     1       1.375   2.295   0.520  1.00  0.00     0.274 C 
ENDROOT
BRANCH   1   2
ATOM      2  O   UNL     1       0.578   1.096   0.518  1.00  0.00    -0.462 OA
BRANCH   2   3
ATOM      3  C   UNL     1       0.770   0.255  -0.536  1.00  0.00     0.313 C 
ATOM      4  O   UNL     1       1.442   0.512  -1.529  1.00  0.00    -0.252 OA
BRANCH   3   5
ATOM      5  C   UNL     1       0.058  -1.070  -0.341  1.00  0.00     0.126 C 
ATOM      6  C   UNL     1       0.311  -1.618   1.077  1.00  0.00     0.025 C 
BRANCH   5   7
ATOM      7  C   UNL     1      -1.431  -1.060  -0.639  1.00  0.00    -0.032 A 
ATOM      8  C   UNL     1      -2.153   0.081  -0.990  1.00  0.00     0.005 A 
ATOM      9  C   UNL     1      -2.117  -2.268  -0.454  1.00  0.00     0.032 A 
ATOM     10  C   UNL     1      -3.552   0.047  -1.078  1.00  0.00     0.011 A 
ATOM     11  C   UNL     1      -3.517  -2.265  -0.410  1.00  0.00     0.057 A 
ATOM     12  C   UNL     1      -4.247  -1.136  -0.746  1.00  0.00     0.008 A 
ATOM     13  N   UNL     1      -4.395  -3.279  -0.026  1.00  0.00    -0.276 N 
ATOM     14  C   UNL     1      -5.622  -1.481  -0.628  1.00  0.00     0.009 A 
ATOM     15  C   UNL     1      -5.702  -2.797  -0.146  1.00  0.00     0.057 A 
ATOM     16  C   UNL     1      -6.805  -0.740  -0.834  1.00  0.00     0.031 A 
ATOM     17  C   UNL     1      -6.944  -3.354   0.213  1.00  0.00     0.029 A 
ATOM     18  C   UNL     1      -8.035  -1.315  -0.523  1.00  0.00     0.041 A 
ATOM     19  C   UNL     1      -8.105  -2.598   0.004  1.00  0.00     0.023 A 
ATOM     20  Cl  UNL     1      -9.477  -0.405  -0.757  1.00  0.00    -0.084 Cl
BRANCH  13  21
ATOM     21  C   UNL     1      -3.946  -4.513   0.509  1.00  0.00     0.262 C 
ATOM     22  O   UNL     1      -2.924  -4.463   1.196  1.00  0.00    -0.268 OA
BRANCH  21  23
ATOM     23  C   UNL     1      -4.519  -5.869   0.295  1.00  0.00     0.040 A 
ATOM     24  C   UNL     1      -3.985  -6.922   1.062  1.00  0.00     0.015 A 
ATOM     25  C   UNL     1      -5.445  -6.165  -0.709  1.00  0.00     0.015 A 
ATOM     26  C   UNL     1      -4.387  -8.242   0.852  1.00  0.00     0.021 A 
ATOM     27  C   UNL     1      -5.870  -7.487  -0.900  1.00  0.00     0.021 A 
ATOM     28  C   UNL     1      -5.338  -8.517  -0.123  1.00  0.00     0.041 A 
ATOM     29  Cl  UNL     1      -5.841 -10.139  -0.387  1.00  0.00    -0.084 Cl
ENDBRANCH  21  23
ENDBRANCH  13  21
ENDBRANCH   5   7
ENDBRANCH   3   5
ENDBRANCH   2   3
ENDBRANCH   1   2
BRANCH   1  30
ATOM     30  C   UNL     1       2.535   2.128   1.498  1.00  0.00     0.275 C 
BRANCH  30  31
ATOM     31  O   UNL     1       3.305   0.973   1.118  1.00  0.00    -0.458 OA
BRANCH  31  32
ATOM     32  C   UNL     1       3.648   0.138   2.124  1.00  0.00     0.338 C 
ATOM     33  O   UNL     1       3.475   0.322   3.322  1.00  0.00    -0.246 OA
BRANCH  32  34
ATOM     34  C   UNL     1       4.258  -1.096   1.585  1.00  0.00     0.060 A 
ATOM     35  C   UNL     1       3.776  -1.694   0.418  1.00  0.00     0.016 A 
ATOM     36  C   UNL     1       5.253  -1.732   2.328  1.00  0.00     0.016 A 
ATOM     37  C   UNL     1       4.210  -2.967   0.051  1.00  0.00     0.010 A 
ATOM     38  C   UNL     1       5.771  -2.954   1.892  1.00  0.00     0.010 A 
ATOM     39  C   UNL     1       5.235  -3.602   0.765  1.00  0.00    -0.014 A 
BRANCH  39  40
ATOM     40  C   UNL     1       5.754  -4.936   0.354  1.00  0.00     0.031 A 
ATOM     41  C   UNL     1       5.764  -6.077   1.336  1.00  0.00     0.074 A 
ATOM     42  C   UNL     1       6.253  -5.123  -0.884  1.00  0.00     0.049 A 
ATOM     43  N   UNL     1       6.415  -7.211   1.280  1.00  0.00    -0.248 NA
ATOM     44  C   UNL     1       4.950  -5.911   2.550  1.00  0.00     0.031 C 
ATOM     45  C   UNL     1       6.268  -4.128  -1.958  1.00  0.00     0.029 A 
ATOM     46  N   UNL     1       6.856  -6.222  -1.446  1.00  0.00    -0.354 N 
ATOM     47  C   UNL     1       6.151  -7.859   2.482  1.00  0.00     0.074 A 
ATOM     48  C   UNL     1       5.267  -6.999   3.239  1.00  0.00     0.031 C 
ATOM     49  C   UNL     1       6.818  -4.669  -3.054  1.00  0.00     0.029 A 
ATOM     50  C   UNL     1       7.286  -6.011  -2.733  1.00  0.00     0.049 A 
ATOM     51  H   UNL     1       6.969  -7.077  -0.972  1.00  0.00     0.167 HD
ATOM     52  C   UNL     1       6.617  -9.055   2.913  1.00  0.00     0.037 A 
ATOM     53  C   UNL     1       8.026  -6.784  -3.550  1.00  0.00     0.037 A 
ATOM     54  C   UNL     1       7.440  -9.936   2.126  1.00  0.00     0.049 A 
ATOM     55  C   UNL     1       8.540  -8.099  -3.047  1.00  0.00     0.074 A 
ATOM     56  C   UNL     1       7.946 -11.180   2.465  1.00  0.00     0.029 A 
ATOM     57  N   UNL     1       7.860  -9.674   0.831  1.00  0.00    -0.354 N 
ATOM     58  N   UNL     1       8.355  -8.665  -1.880  1.00  0.00    -0.248 NA
ATOM     59  C   UNL     1       9.392  -8.869  -3.965  1.00  0.00     0.031 C 
ATOM     60  C   UNL     1       8.690 -11.660   1.382  1.00  0.00     0.029 A 
ATOM     61  C   UNL     1       8.622 -10.729   0.358  1.00  0.00     0.049 A 
ATOM     62  H   UNL     1       7.648  -8.858   0.323  1.00  0.00     0.167 HD
ATOM     63  C   UNL     1       9.063  -9.858  -1.922  1.00  0.00     0.074 A 
ATOM     64  C   UNL     1       9.664  -9.944  -3.237  1.00  0.00     0.031 C 
ATOM     65  C   UNL     1       9.210 -10.794  -0.954  1.00  0.00     0.037 A 
BRANCH  52  66
ATOM     66  C   UNL     1       6.279  -9.468   4.315  1.00  0.00     0.057 A 
ATOM     67  C   UNL     1       5.007  -9.927   4.674  1.00  0.00     0.134 A 
ATOM     68  C   UNL     1       7.263  -9.441   5.314  1.00  0.00     0.134 A 
ATOM     69  F   UNL     1       4.017  -9.964   3.769  1.00  0.00    -0.206 F 
ATOM     70  C   UNL     1       4.719 -10.329   5.981  1.00  0.00     0.040 A 
ATOM     71  C   UNL     1       6.994  -9.861   6.617  1.00  0.00     0.040 A 
ATOM     72  F   UNL     1       8.504  -9.017   5.035  1.00  0.00    -0.206 F 
ATOM     73  C   UNL     1       5.716 -10.303   6.955  1.00  0.00     0.006 A 
ENDBRANCH  52  66
BRANCH  53  74
ATOM     74  C   UNL     1       8.364  -6.301  -4.911  1.00  0.00     0.057 A 
ATOM     75  C   UNL     1       7.782  -6.878  -6.044  1.00  0.00     0.134 A 
ATOM     76  C   UNL     1       9.255  -5.239  -5.110  1.00  0.00     0.134 A 
ATOM     77  F   UNL     1       6.939  -7.913  -5.916  1.00  0.00    -0.206 F 
ATOM     78  C   UNL     1       8.073  -6.416  -7.328  1.00  0.00     0.040 A 
ATOM     79  C   UNL     1       9.536  -4.751  -6.386  1.00  0.00     0.040 A 
ATOM     80  F   UNL     1       9.844  -4.643  -4.063  1.00  0.00    -0.206 F 
ATOM     81  C   UNL     1       8.946  -5.343  -7.501  1.00  0.00     0.006 A 
ENDBRANCH  53  74
BRANCH  65  82
ATOM     82  C   UNL     1      10.032 -11.998  -1.298  1.00  0.00     0.057 A 
ATOM     83  C   UNL     1      11.430 -11.944  -1.337  1.00  0.00     0.134 A 
ATOM     84  C   UNL     1       9.418 -13.225  -1.575  1.00  0.00     0.134 A 
ATOM     85  F   UNL     1      12.073 -10.791  -1.096  1.00  0.00    -0.206 F 
ATOM     86  C   UNL     1      12.191 -13.068  -1.658  1.00  0.00     0.040 A 
ATOM     87  C   UNL     1      10.169 -14.360  -1.879  1.00  0.00     0.040 A 
ATOM     88  F   UNL     1       8.082 -13.339  -1.549  1.00  0.00    -0.206 F 
ATOM     89  C   UNL     1      11.560 -14.282  -1.926  1.00  0.00     0.006 A 
ENDBRANCH  65  82
ENDBRANCH  39  40
ENDBRANCH  32  34
ENDBRANCH  31  32
ENDBRANCH  30  31
ENDBRANCH   1  30
TORSDOF 14
