REMARK SMILES COC(=O)c1c(NC(=O)[C@@H]2C[C@@H]2C(=O)OCCOC(=O)c2ccc(-c3c4nc(c(-c5c(F)cccc5F)c5ccc([nH]5)c(-c5c(F)cccc5F)c5nc(c(-c6c(F)cccc6F)c6ccc3[nH]6)C=C5)C=C4)cc2)sc2c1CC[N@@H+](Cc1ccccc1)C2
REMARK SMILES IDX 16 1 15 2 13 3 14 4 12 5 10 6 11 7 8 8 7 9 9 11 6 12 5 13
REMARK SMILES IDX 77 14 75 15 76 16 78 17 88 18 79 19 80 20 3 22 4 23 2 24
REMARK SMILES IDX 1 25 81 26 82 27 83 28 87 29 84 30 86 31 85 32 17 33 18 34
REMARK SMILES IDX 19 35 20 36 21 37 22 38 74 39 23 40 73 41 24 42 25 43 26 44
REMARK SMILES IDX 67 45 27 46 72 47 66 48 68 49 28 50 71 51 65 52 64 53 29 55
REMARK SMILES IDX 55 56 38 57 54 58 39 59 42 60 53 61 69 62 40 63 41 64 52 66
REMARK SMILES IDX 70 67 43 68 30 69 31 70 36 71 32 72 33 73 35 74 37 75 34 76
REMARK SMILES IDX 56 77 57 78 62 79 58 80 59 81 61 82 63 83 60 84 44 85 45 86
REMARK SMILES IDX 50 87 46 88 47 89 49 90 51 91 48 92
REMARK H PARENT 7 10 80 21 68 54 42 65
REMARK Flexibility Score: inf
ROOT
ATOM      1  C   UNL     1      -3.178  -4.249   0.240  1.00  0.00     0.274 C 
ENDROOT
BRANCH   1   2
ATOM      2  O   UNL     1      -2.124  -3.293   0.479  1.00  0.00    -0.462 OA
BRANCH   2   3
ATOM      3  C   UNL     1      -2.322  -2.054  -0.046  1.00  0.00     0.309 C 
ATOM      4  O   UNL     1      -3.321  -1.707  -0.675  1.00  0.00    -0.252 OA
BRANCH   3   5
ATOM      5  C   UNL     1      -1.130  -1.175   0.075  1.00  0.00     0.112 C 
ATOM      6  C   UNL     1      -0.910   0.073   0.911  1.00  0.00     0.094 C 
ATOM      7  C   UNL     1      -1.298   0.201  -0.537  1.00  0.00     0.030 C 
BRANCH   6   8
ATOM      8  C   UNL     1      -1.778   0.600   1.963  1.00  0.00     0.229 C 
ATOM      9  N   UNL     1      -1.723   0.163   3.256  1.00  0.00    -0.317 N 
ATOM     10  H   UNL     1      -2.562   0.308   3.750  1.00  0.00     0.170 HD
ATOM     11  O   UNL     1      -2.519   1.542   1.682  1.00  0.00    -0.274 OA
BRANCH   9  12
ATOM     12  C   UNL     1      -0.747  -0.437   4.016  1.00  0.00     0.110 A 
ATOM     13  C   UNL     1       0.533  -0.951   3.899  1.00  0.00     0.098 A 
ATOM     14  C   UNL     1       1.134  -1.092   5.215  1.00  0.00    -0.006 A 
ATOM     15  S   UNL     1      -1.293  -0.445   5.652  1.00  0.00    -0.116 S 
ATOM     16  C   UNL     1       0.272  -0.718   6.225  1.00  0.00     0.065 A 
ATOM     17  C   UNL     1       2.576  -1.383   5.522  1.00  0.00     0.099 C 
ATOM     18  C   UNL     1       0.665  -0.484   7.653  1.00  0.00     0.310 C 
ATOM     19  C   UNL     1       2.913  -1.184   7.025  1.00  0.00     0.267 C 
ATOM     20  N   UNL     1       2.108  -0.203   7.777  1.00  0.00    -0.326 N 
ATOM     21  H   UNL     1       2.346  -0.348   8.759  1.00  0.00     0.348 HD
BRANCH  13  22
ATOM     22  C   UNL     1       1.268  -1.205   2.674  1.00  0.00     0.341 C 
ATOM     23  O   UNL     1       1.368  -2.316   2.172  1.00  0.00    -0.246 OA
BRANCH  22  24
ATOM     24  O   UNL     1       1.863  -0.080   2.183  1.00  0.00    -0.465 OA
ATOM     25  C   UNL     1       2.446  -0.185   0.877  1.00  0.00     0.282 C 
ENDBRANCH  22  24
ENDBRANCH  13  22
BRANCH  20  26
ATOM     26  C   UNL     1       2.494   1.210   7.615  1.00  0.00     0.299 C 
BRANCH  26  27
ATOM     27  C   UNL     1       2.387   1.836   6.240  1.00  0.00     0.006 A 
ATOM     28  C   UNL     1       3.510   1.921   5.403  1.00  0.00     0.009 A 
ATOM     29  C   UNL     1       1.159   2.311   5.756  1.00  0.00     0.009 A 
ATOM     30  C   UNL     1       3.387   2.381   4.090  1.00  0.00     0.001 A 
ATOM     31  C   UNL     1       1.030   2.749   4.436  1.00  0.00     0.001 A 
ATOM     32  C   UNL     1       2.143   2.773   3.600  1.00  0.00     0.000 A 
ENDBRANCH  26  27
ENDBRANCH  20  26
ENDBRANCH   9  12
ENDBRANCH   6   8
ENDBRANCH   3   5
ENDBRANCH   2   3
ENDBRANCH   1   2
BRANCH   1  33
ATOM     33  C   UNL     1      -4.289  -4.237   1.290  1.00  0.00     0.275 C 
BRANCH  33  34
ATOM     34  O   UNL     1      -5.093  -3.058   1.259  1.00  0.00    -0.458 OA
BRANCH  34  35
ATOM     35  C   UNL     1      -4.561  -2.066   2.000  1.00  0.00     0.338 C 
ATOM     36  O   UNL     1      -3.428  -2.003   2.452  1.00  0.00    -0.246 OA
BRANCH  35  37
ATOM     37  C   UNL     1      -5.585  -1.153   2.478  1.00  0.00     0.060 A 
ATOM     38  C   UNL     1      -5.148   0.120   2.824  1.00  0.00     0.016 A 
ATOM     39  C   UNL     1      -6.761  -1.693   2.987  1.00  0.00     0.016 A 
ATOM     40  C   UNL     1      -5.737   0.774   3.872  1.00  0.00     0.010 A 
ATOM     41  C   UNL     1      -7.421  -0.995   3.972  1.00  0.00     0.010 A 
ATOM     42  C   UNL     1      -6.862   0.194   4.459  1.00  0.00    -0.014 A 
BRANCH  42  43
ATOM     43  C   UNL     1      -7.629   1.031   5.369  1.00  0.00     0.031 A 
ATOM     44  C   UNL     1      -8.019   2.314   4.706  1.00  0.00     0.074 A 
ATOM     45  C   UNL     1      -8.052   0.559   6.560  1.00  0.00     0.049 A 
ATOM     46  N   UNL     1      -7.852   3.517   5.144  1.00  0.00    -0.248 NA
ATOM     47  C   UNL     1      -8.449   2.263   3.287  1.00  0.00     0.031 C 
ATOM     48  C   UNL     1      -7.806  -0.780   7.109  1.00  0.00     0.029 A 
ATOM     49  N   UNL     1      -8.916   1.095   7.467  1.00  0.00    -0.354 N 
ATOM     50  C   UNL     1      -8.382   4.348   4.156  1.00  0.00     0.074 A 
ATOM     51  C   UNL     1      -8.526   3.554   2.973  1.00  0.00     0.031 C 
ATOM     52  C   UNL     1      -8.709  -1.041   8.078  1.00  0.00     0.029 A 
ATOM     53  C   UNL     1      -9.513   0.145   8.298  1.00  0.00     0.049 A 
ATOM     54  H   UNL     1      -9.102   2.059   7.530  1.00  0.00     0.167 HD
ATOM     55  C   UNL     1      -8.994   5.508   4.510  1.00  0.00     0.037 A 
ATOM     56  C   UNL     1     -10.646   0.308   9.029  1.00  0.00     0.037 A 
ATOM     57  C   UNL     1      -8.505   5.952   5.791  1.00  0.00     0.049 A 
ATOM     58  C   UNL     1     -10.894   1.764   9.123  1.00  0.00     0.074 A 
ATOM     59  C   UNL     1      -7.294   6.372   6.298  1.00  0.00     0.029 A 
ATOM     60  N   UNL     1      -9.280   5.582   6.856  1.00  0.00    -0.354 N 
ATOM     61  N   UNL     1     -10.154   2.584   9.812  1.00  0.00    -0.248 NA
ATOM     62  C   UNL     1     -11.736   2.380   8.110  1.00  0.00     0.031 C 
ATOM     63  C   UNL     1      -7.276   5.929   7.655  1.00  0.00     0.029 A 
ATOM     64  C   UNL     1      -8.501   5.328   7.946  1.00  0.00     0.049 A 
ATOM     65  H   UNL     1     -10.261   5.510   6.838  1.00  0.00     0.167 HD
ATOM     66  C   UNL     1     -10.078   3.720   9.024  1.00  0.00     0.074 A 
ATOM     67  C   UNL     1     -11.182   3.594   8.075  1.00  0.00     0.031 C 
ATOM     68  C   UNL     1      -8.943   4.481   9.031  1.00  0.00     0.037 A 
BRANCH  55  69
ATOM     69  C   UNL     1     -10.392   5.864   4.021  1.00  0.00     0.057 A 
ATOM     70  C   UNL     1     -10.981   7.053   4.492  1.00  0.00     0.134 A 
ATOM     71  C   UNL     1     -11.294   4.964   3.409  1.00  0.00     0.134 A 
ATOM     72  F   UNL     1     -10.242   7.989   5.107  1.00  0.00    -0.206 F 
ATOM     73  C   UNL     1     -12.363   7.280   4.445  1.00  0.00     0.040 A 
ATOM     74  C   UNL     1     -12.668   5.203   3.317  1.00  0.00     0.040 A 
ATOM     75  F   UNL     1     -10.932   3.762   2.951  1.00  0.00    -0.206 F 
ATOM     76  C   UNL     1     -13.214   6.348   3.866  1.00  0.00     0.006 A 
ENDBRANCH  55  69
BRANCH  56  77
ATOM     77  C   UNL     1     -11.699  -0.676   9.387  1.00  0.00     0.057 A 
ATOM     78  C   UNL     1     -12.670  -0.372  10.355  1.00  0.00     0.134 A 
ATOM     79  C   UNL     1     -11.957  -1.811   8.599  1.00  0.00     0.134 A 
ATOM     80  F   UNL     1     -12.540   0.713  11.133  1.00  0.00    -0.206 F 
ATOM     81  C   UNL     1     -13.841  -1.127  10.507  1.00  0.00     0.040 A 
ATOM     82  C   UNL     1     -13.118  -2.579   8.747  1.00  0.00     0.040 A 
ATOM     83  F   UNL     1     -11.141  -2.161   7.596  1.00  0.00    -0.206 F 
ATOM     84  C   UNL     1     -14.074  -2.229   9.692  1.00  0.00     0.006 A 
ENDBRANCH  56  77
BRANCH  68  85
ATOM     85  C   UNL     1      -8.001   4.308  10.189  1.00  0.00     0.057 A 
ATOM     86  C   UNL     1      -7.316   3.127  10.508  1.00  0.00     0.134 A 
ATOM     87  C   UNL     1      -7.710   5.439  10.962  1.00  0.00     0.134 A 
ATOM     88  F   UNL     1      -7.456   2.017   9.770  1.00  0.00    -0.206 F 
ATOM     89  C   UNL     1      -6.421   3.067  11.583  1.00  0.00     0.040 A 
ATOM     90  C   UNL     1      -6.789   5.402  12.008  1.00  0.00     0.040 A 
ATOM     91  F   UNL     1      -8.293   6.615  10.684  1.00  0.00    -0.206 F 
ATOM     92  C   UNL     1      -6.152   4.209  12.332  1.00  0.00     0.006 A 
ENDBRANCH  68  85
ENDBRANCH  42  43
ENDBRANCH  35  37
ENDBRANCH  34  35
ENDBRANCH  33  34
ENDBRANCH   1  33
TORSDOF 17
