REMARK SMILES Nc1cccc(CC(=O)N2CC(C(=O)OCCOC(=O)c3ccc(-c4c5nc(c(-c6c(F)cccc6F)c6ccc([nH]6)c(-c6c(F)cccc6F)c6nc(c(-c7c(F)cccc7F)c7ccc4[nH]7)C=C6)C=C5)cc3)C2)c1
REMARK SMILES IDX 16 1 15 2 13 3 14 4 12 5 8 6 9 7 10 8 11 9 75 10 7 11 6 12
REMARK SMILES IDX 2 13 3 14 76 15 4 16 5 17 1 18 17 21 18 22 19 23 20 24 21 25
REMARK SMILES IDX 22 26 74 27 23 28 73 29 24 30 25 31 26 32 67 33 27 34 72 35
REMARK SMILES IDX 66 36 68 37 28 38 71 39 65 40 64 41 29 43 55 44 38 45 54 46
REMARK SMILES IDX 39 47 42 48 53 49 69 50 40 51 41 52 52 54 70 55 43 56 30 57
REMARK SMILES IDX 31 58 36 59 32 60 33 61 35 62 37 63 34 64 56 65 57 66 62 67
REMARK SMILES IDX 58 68 59 69 61 70 63 71 60 72 44 73 45 74 50 75 46 76 47 77
REMARK SMILES IDX 49 78 51 79 48 80
REMARK H PARENT 1 19 1 20 68 42 42 53
REMARK Flexibility Score: inf
ROOT
ATOM      1  C   UNL     1       0.608   2.955  -7.103  1.00  0.00     0.274 C 
ENDROOT
BRANCH   1   2
ATOM      2  O   UNL     1       0.051   2.967  -5.772  1.00  0.00    -0.462 OA
BRANCH   2   3
ATOM      3  C   UNL     1      -1.311   2.997  -5.679  1.00  0.00     0.312 C 
ATOM      4  O   UNL     1      -2.048   3.131  -6.657  1.00  0.00    -0.252 OA
BRANCH   3   5
ATOM      5  C   UNL     1      -1.837   2.776  -4.262  1.00  0.00     0.138 C 
ATOM      6  C   UNL     1      -2.580   2.981  -1.176  1.00  0.00     0.227 C 
ATOM      7  O   UNL     1      -3.799   3.147  -1.099  1.00  0.00    -0.275 OA
ATOM      8  N   UNL     1      -1.870   3.332  -2.300  1.00  0.00    -0.341 N 
ATOM      9  C   UNL     1      -2.385   3.983  -3.502  1.00  0.00     0.136 C 
ATOM     10  C   UNL     1      -0.897   2.551  -3.065  1.00  0.00     0.136 C 
BRANCH   6  11
ATOM     11  C   UNL     1      -1.771   2.554   0.032  1.00  0.00     0.135 C 
BRANCH  11  12
ATOM     12  C   UNL     1      -1.088   1.214  -0.044  1.00  0.00    -0.037 A 
ATOM     13  C   UNL     1       0.986  -0.081  -0.039  1.00  0.00     0.032 A 
ATOM     14  C   UNL     1       0.232  -1.252  -0.093  1.00  0.00     0.025 A 
ATOM     15  C   UNL     1       0.317   1.145  -0.040  1.00  0.00     0.029 A 
ATOM     16  C   UNL     1      -1.165  -1.203  -0.096  1.00  0.00     0.002 A 
ATOM     17  C   UNL     1      -1.825   0.025  -0.067  1.00  0.00     0.004 A 
BRANCH  13  18
ATOM     18  N   UNL     1       2.369  -0.124  -0.098  1.00  0.00    -0.399 N 
ATOM     19  H   UNL     1       2.835  -0.991  -0.097  1.00  0.00     0.156 HD
ATOM     20  H   UNL     1       2.886   0.713  -0.140  1.00  0.00     0.156 HD
ENDBRANCH  13  18
ENDBRANCH  11  12
ENDBRANCH   6  11
ENDBRANCH   3   5
ENDBRANCH   2   3
ENDBRANCH   1   2
BRANCH   1  21
ATOM     21  C   UNL     1       1.089   1.551  -7.490  1.00  0.00     0.275 C 
BRANCH  21  22
ATOM     22  O   UNL     1      -0.004   0.634  -7.696  1.00  0.00    -0.458 OA
BRANCH  22  23
ATOM     23  C   UNL     1      -0.431  -0.005  -6.582  1.00  0.00     0.338 C 
ATOM     24  O   UNL     1       0.011   0.112  -5.450  1.00  0.00    -0.246 OA
BRANCH  23  25
ATOM     25  C   UNL     1      -1.637  -0.794  -6.879  1.00  0.00     0.060 A 
ATOM     26  C   UNL     1      -2.776  -0.539  -6.112  1.00  0.00     0.016 A 
ATOM     27  C   UNL     1      -1.637  -1.825  -7.820  1.00  0.00     0.016 A 
ATOM     28  C   UNL     1      -3.918  -1.314  -6.268  1.00  0.00     0.010 A 
ATOM     29  C   UNL     1      -2.787  -2.606  -7.980  1.00  0.00     0.010 A 
ATOM     30  C   UNL     1      -3.929  -2.363  -7.195  1.00  0.00    -0.014 A 
BRANCH  30  31
ATOM     31  C   UNL     1      -5.127  -3.228  -7.283  1.00  0.00     0.031 A 
ATOM     32  C   UNL     1      -5.106  -4.598  -6.672  1.00  0.00     0.074 A 
ATOM     33  C   UNL     1      -6.252  -2.755  -7.847  1.00  0.00     0.049 A 
ATOM     34  N   UNL     1      -6.039  -5.515  -6.662  1.00  0.00    -0.248 NA
ATOM     35  C   UNL     1      -3.870  -4.987  -5.975  1.00  0.00     0.031 C 
ATOM     36  C   UNL     1      -6.414  -1.415  -8.410  1.00  0.00     0.029 A 
ATOM     37  N   UNL     1      -7.478  -3.344  -8.022  1.00  0.00    -0.354 N 
ATOM     38  C   UNL     1      -5.502  -6.593  -5.971  1.00  0.00     0.074 A 
ATOM     39  C   UNL     1      -4.153  -6.225  -5.596  1.00  0.00     0.031 C 
ATOM     40  C   UNL     1      -7.675  -1.276  -8.851  1.00  0.00     0.029 A 
ATOM     41  C   UNL     1      -8.392  -2.530  -8.643  1.00  0.00     0.049 A 
ATOM     42  H   UNL     1      -7.682  -4.262  -7.731  1.00  0.00     0.167 HD
ATOM     43  C   UNL     1      -6.084  -7.779  -5.674  1.00  0.00     0.037 A 
ATOM     44  C   UNL     1      -9.662  -2.777  -9.017  1.00  0.00     0.037 A 
ATOM     45  C   UNL     1      -7.429  -8.138  -6.041  1.00  0.00     0.049 A 
ATOM     46  C   UNL     1     -10.255  -4.131  -8.750  1.00  0.00     0.074 A 
ATOM     47  C   UNL     1      -8.108  -9.318  -5.792  1.00  0.00     0.029 A 
ATOM     48  N   UNL     1      -8.303  -7.314  -6.735  1.00  0.00    -0.354 N 
ATOM     49  N   UNL     1      -9.730  -5.156  -8.124  1.00  0.00    -0.248 NA
ATOM     50  C   UNL     1     -11.615  -4.367  -9.255  1.00  0.00     0.031 C 
ATOM     51  C   UNL     1      -9.381  -9.221  -6.368  1.00  0.00     0.029 A 
ATOM     52  C   UNL     1      -9.507  -7.967  -6.942  1.00  0.00     0.049 A 
ATOM     53  H   UNL     1      -8.097  -6.400  -7.037  1.00  0.00     0.167 HD
ATOM     54  C   UNL     1     -10.698  -6.150  -8.142  1.00  0.00     0.074 A 
ATOM     55  C   UNL     1     -11.848  -5.602  -8.833  1.00  0.00     0.031 C 
ATOM     56  C   UNL     1     -10.640  -7.405  -7.633  1.00  0.00     0.037 A 
BRANCH  43  57
ATOM     57  C   UNL     1      -5.247  -8.786  -4.943  1.00  0.00     0.057 A 
ATOM     58  C   UNL     1      -4.935  -8.644  -3.585  1.00  0.00     0.134 A 
ATOM     59  C   UNL     1      -4.748  -9.914  -5.606  1.00  0.00     0.134 A 
ATOM     60  F   UNL     1      -5.368  -7.577  -2.896  1.00  0.00    -0.206 F 
ATOM     61  C   UNL     1      -4.135  -9.575  -2.919  1.00  0.00     0.040 A 
ATOM     62  C   UNL     1      -3.966 -10.863  -4.947  1.00  0.00     0.040 A 
ATOM     63  F   UNL     1      -5.012 -10.111  -6.907  1.00  0.00    -0.206 F 
ATOM     64  C   UNL     1      -3.651 -10.690  -3.600  1.00  0.00     0.006 A 
ENDBRANCH  43  57
BRANCH  44  65
ATOM     65  C   UNL     1     -10.451  -1.720  -9.692  1.00  0.00     0.057 A 
ATOM     66  C   UNL     1     -11.518  -1.090  -9.042  1.00  0.00     0.134 A 
ATOM     67  C   UNL     1     -10.158  -1.312 -10.999  1.00  0.00     0.134 A 
ATOM     68  F   UNL     1     -11.861  -1.455  -7.798  1.00  0.00    -0.206 F 
ATOM     69  C   UNL     1     -12.268  -0.094  -9.669  1.00  0.00     0.040 A 
ATOM     70  C   UNL     1     -10.886  -0.303 -11.630  1.00  0.00     0.040 A 
ATOM     71  F   UNL     1      -9.149  -1.881 -11.675  1.00  0.00    -0.206 F 
ATOM     72  C   UNL     1     -11.948   0.307 -10.965  1.00  0.00     0.006 A 
ENDBRANCH  44  65
BRANCH  56  73
ATOM     73  C   UNL     1     -11.864  -8.257  -7.785  1.00  0.00     0.057 A 
ATOM     74  C   UNL     1     -12.207  -8.839  -9.011  1.00  0.00     0.134 A 
ATOM     75  C   UNL     1     -12.691  -8.519  -6.686  1.00  0.00     0.134 A 
ATOM     76  F   UNL     1     -11.463  -8.612 -10.104  1.00  0.00    -0.206 F 
ATOM     77  C   UNL     1     -13.345  -9.637  -9.144  1.00  0.00     0.040 A 
ATOM     78  C   UNL     1     -13.819  -9.333  -6.802  1.00  0.00     0.040 A 
ATOM     79  F   UNL     1     -12.413  -7.996  -5.483  1.00  0.00    -0.206 F 
ATOM     80  C   UNL     1     -14.151  -9.890  -8.035  1.00  0.00     0.006 A 
ENDBRANCH  56  73
ENDBRANCH  30  31
ENDBRANCH  23  25
ENDBRANCH  22  23
ENDBRANCH  21  22
ENDBRANCH   1  21
TORSDOF 14
