REMARK SMILES CC(C)(C)OC(=O)N1CC(Cc2ccc(C(=O)OCCOC(=O)c3ccc(-c4c5nc(c(-c6c(F)cccc6F)c6ccc([nH]6)c(-c6c(F)cccc6F)c6nc(c(-c7c(F)cccc7F)c7ccc4[nH]7)C=C6)C=C5)cc3)cc2)C1
REMARK SMILES IDX 19 1 18 2 16 3 17 4 15 5 12 6 13 7 79 8 14 9 78 10 11 11
REMARK SMILES IDX 10 12 6 13 7 14 8 15 9 16 80 17 5 18 2 19 1 20 3 21 4 22
REMARK SMILES IDX 20 23 21 24 22 25 23 26 24 27 25 28 77 29 26 30 76 31 27 32
REMARK SMILES IDX 28 33 29 34 70 35 30 36 75 37 69 38 71 39 31 40 74 41 68 42
REMARK SMILES IDX 67 43 32 45 58 46 41 47 57 48 42 49 45 50 56 51 72 52 43 53
REMARK SMILES IDX 44 54 55 56 73 57 46 58 33 59 34 60 39 61 35 62 36 63 38 64
REMARK SMILES IDX 40 65 37 66 59 67 60 68 65 69 61 70 62 71 64 72 66 73 63 74
REMARK SMILES IDX 47 75 48 76 53 77 49 78 50 79 52 80 54 81 51 82
REMARK H PARENT 71 44 45 55
REMARK Flexibility Score: inf
ROOT
ATOM      1  C   UNL     1       9.637   7.375  -5.954  1.00  0.00     0.275 C 
ENDROOT
BRANCH   1   2
ATOM      2  O   UNL     1       8.223   7.337  -5.676  1.00  0.00    -0.458 OA
BRANCH   2   3
ATOM      3  C   UNL     1       7.888   6.925  -4.428  1.00  0.00     0.338 C 
ATOM      4  O   UNL     1       8.656   6.561  -3.552  1.00  0.00    -0.246 OA
BRANCH   3   5
ATOM      5  C   UNL     1       6.426   7.041  -4.206  1.00  0.00     0.060 A 
ATOM      6  C   UNL     1       3.678   7.170  -3.658  1.00  0.00    -0.048 A 
ATOM      7  C   UNL     1       4.605   7.256  -2.616  1.00  0.00     0.004 A 
ATOM      8  C   UNL     1       4.137   7.041  -4.979  1.00  0.00     0.004 A 
ATOM      9  C   UNL     1       5.970   7.175  -2.888  1.00  0.00     0.016 A 
ATOM     10  C   UNL     1       5.505   6.984  -5.255  1.00  0.00     0.016 A 
BRANCH   6  11
ATOM     11  C   UNL     1       2.202   7.129  -3.353  1.00  0.00     0.042 C 
BRANCH  11  12
ATOM     12  C   UNL     1       1.735   5.682  -3.367  1.00  0.00     0.033 C 
ATOM     13  C   UNL     1       0.183   3.026  -2.261  1.00  0.00     0.410 C 
ATOM     14  O   UNL     1      -0.872   2.740  -2.822  1.00  0.00    -0.224 OA
ATOM     15  N   UNL     1       0.727   4.269  -2.313  1.00  0.00    -0.307 N 
ATOM     16  C   UNL     1       0.258   5.462  -2.987  1.00  0.00     0.128 C 
ATOM     17  C   UNL     1       2.084   4.756  -2.168  1.00  0.00     0.128 C 
BRANCH  13  18
ATOM     18  O   UNL     1       0.932   2.177  -1.516  1.00  0.00    -0.444 OA
BRANCH  18  19
ATOM     19  C   UNL     1       0.544   0.787  -1.344  1.00  0.00     0.106 C 
ATOM     20  C   UNL     1       1.338   0.297  -0.123  1.00  0.00     0.056 C 
ATOM     21  C   UNL     1       0.976  -0.008  -2.579  1.00  0.00     0.056 C 
ATOM     22  C   UNL     1      -0.950   0.587  -1.044  1.00  0.00     0.056 C 
ENDBRANCH  18  19
ENDBRANCH  13  18
ENDBRANCH  11  12
ENDBRANCH   6  11
ENDBRANCH   3   5
ENDBRANCH   2   3
ENDBRANCH   1   2
BRANCH   1  23
ATOM     23  C   UNL     1      10.192   8.779  -5.723  1.00  0.00     0.275 C 
BRANCH  23  24
ATOM     24  O   UNL     1      10.033   9.133  -4.338  1.00  0.00    -0.458 OA
BRANCH  24  25
ATOM     25  C   UNL     1       9.739  10.430  -4.093  1.00  0.00     0.338 C 
ATOM     26  O   UNL     1       9.676  11.338  -4.903  1.00  0.00    -0.246 OA
BRANCH  25  27
ATOM     27  C   UNL     1       9.505  10.620  -2.647  1.00  0.00     0.060 A 
ATOM     28  C   UNL     1       8.631   9.781  -1.955  1.00  0.00     0.016 A 
ATOM     29  C   UNL     1      10.080  11.712  -1.997  1.00  0.00     0.016 A 
ATOM     30  C   UNL     1       8.277  10.068  -0.635  1.00  0.00     0.010 A 
ATOM     31  C   UNL     1       9.781  11.958  -0.652  1.00  0.00     0.010 A 
ATOM     32  C   UNL     1       8.843  11.164   0.034  1.00  0.00    -0.014 A 
BRANCH  32  33
ATOM     33  C   UNL     1       8.389  11.535   1.406  1.00  0.00     0.031 A 
ATOM     34  C   UNL     1       7.746  12.879   1.648  1.00  0.00     0.074 A 
ATOM     35  C   UNL     1       8.508  10.675   2.438  1.00  0.00     0.049 A 
ATOM     36  N   UNL     1       7.425  13.456   2.780  1.00  0.00    -0.248 NA
ATOM     37  C   UNL     1       7.433  13.686   0.457  1.00  0.00     0.031 C 
ATOM     38  C   UNL     1       9.068   9.326   2.361  1.00  0.00     0.029 A 
ATOM     39  N   UNL     1       8.145  10.808   3.757  1.00  0.00    -0.354 N 
ATOM     40  C   UNL     1       6.933  14.711   2.442  1.00  0.00     0.074 A 
ATOM     41  C   UNL     1       6.994  14.813   0.999  1.00  0.00     0.031 C 
ATOM     42  C   UNL     1       8.967   8.739   3.565  1.00  0.00     0.029 A 
ATOM     43  C   UNL     1       8.400   9.691   4.515  1.00  0.00     0.049 A 
ATOM     44  H   UNL     1       7.740  11.627   4.124  1.00  0.00     0.167 HD
ATOM     45  C   UNL     1       6.470  15.690   3.255  1.00  0.00     0.037 A 
ATOM     46  C   UNL     1       8.220   9.464   5.831  1.00  0.00     0.037 A 
ATOM     47  C   UNL     1       6.343  15.576   4.684  1.00  0.00     0.049 A 
ATOM     48  C   UNL     1       7.683  10.557   6.710  1.00  0.00     0.074 A 
ATOM     49  C   UNL     1       5.912  16.527   5.594  1.00  0.00     0.029 A 
ATOM     50  N   UNL     1       6.612  14.426   5.408  1.00  0.00    -0.354 N 
ATOM     51  N   UNL     1       7.313  11.772   6.387  1.00  0.00    -0.248 NA
ATOM     52  C   UNL     1       7.556  10.252   8.144  1.00  0.00     0.031 C 
ATOM     53  C   UNL     1       5.925  15.953   6.871  1.00  0.00     0.029 A 
ATOM     54  C   UNL     1       6.341  14.638   6.750  1.00  0.00     0.049 A 
ATOM     55  H   UNL     1       6.947  13.583   5.025  1.00  0.00     0.167 HD
ATOM     56  C   UNL     1       6.911  12.374   7.572  1.00  0.00     0.074 A 
ATOM     57  C   UNL     1       7.053  11.383   8.617  1.00  0.00     0.031 C 
ATOM     58  C   UNL     1       6.478  13.641   7.777  1.00  0.00     0.037 A 
BRANCH  45  59
ATOM     59  C   UNL     1       6.081  16.990   2.616  1.00  0.00     0.057 A 
ATOM     60  C   UNL     1       4.885  17.137   1.905  1.00  0.00     0.134 A 
ATOM     61  C   UNL     1       6.902  18.117   2.746  1.00  0.00     0.134 A 
ATOM     62  F   UNL     1       4.065  16.089   1.731  1.00  0.00    -0.206 F 
ATOM     63  C   UNL     1       4.525  18.357   1.331  1.00  0.00     0.040 A 
ATOM     64  C   UNL     1       6.543  19.348   2.195  1.00  0.00     0.040 A 
ATOM     65  F   UNL     1       8.060  18.043   3.420  1.00  0.00    -0.206 F 
ATOM     66  C   UNL     1       5.353  19.469   1.481  1.00  0.00     0.006 A 
ENDBRANCH  45  59
BRANCH  46  67
ATOM     67  C   UNL     1       8.574   8.145   6.411  1.00  0.00     0.057 A 
ATOM     68  C   UNL     1       7.582   7.263   6.854  1.00  0.00     0.134 A 
ATOM     69  C   UNL     1       9.907   7.744   6.555  1.00  0.00     0.134 A 
ATOM     70  F   UNL     1       6.287   7.605   6.768  1.00  0.00    -0.206 F 
ATOM     71  C   UNL     1       7.902   6.033   7.430  1.00  0.00     0.040 A 
ATOM     72  C   UNL     1      10.241   6.507   7.106  1.00  0.00     0.040 A 
ATOM     73  F   UNL     1      10.903   8.546   6.151  1.00  0.00    -0.206 F 
ATOM     74  C   UNL     1       9.237   5.650   7.551  1.00  0.00     0.006 A 
ENDBRANCH  46  67
BRANCH  58  75
ATOM     75  C   UNL     1       6.106  14.013   9.180  1.00  0.00     0.057 A 
ATOM     76  C   UNL     1       7.081  14.274  10.151  1.00  0.00     0.134 A 
ATOM     77  C   UNL     1       4.764  14.122   9.559  1.00  0.00     0.134 A 
ATOM     78  F   UNL     1       8.384  14.173   9.851  1.00  0.00    -0.206 F 
ATOM     79  C   UNL     1       6.731  14.610  11.460  1.00  0.00     0.040 A 
ATOM     80  C   UNL     1       4.402  14.473  10.861  1.00  0.00     0.040 A 
ATOM     81  F   UNL     1       3.784  13.888   8.673  1.00  0.00    -0.206 F 
ATOM     82  C   UNL     1       5.388  14.712  11.817  1.00  0.00     0.006 A 
ENDBRANCH  58  75
ENDBRANCH  32  33
ENDBRANCH  25  27
ENDBRANCH  24  25
ENDBRANCH  23  24
ENDBRANCH   1  23
TORSDOF 15
