REMARK SMILES CCC[NH2+][C@@]1(C(=O)OCCOC(=O)c2ccc(-c3c4nc(c(-c5c(F)cccc5F)c5ccc([nH]5)c(-c5c(F)cccc5F)c5nc(c(-c6c(F)cccc6F)c6ccc3[nH]6)C=C5)C=C4)cc2)CC[C@@H](SC2CCCC2)C1
REMARK SMILES IDX 9 1 8 2 6 3 7 4 5 5 68 6 77 7 69 8 70 9 4 10 3 13 2 14 1 15
REMARK SMILES IDX 71 16 72 17 73 18 76 19 74 20 75 21 10 22 11 23 12 24 13 25
REMARK SMILES IDX 14 26 15 27 67 28 16 29 66 30 17 31 18 32 19 33 60 34 20 35
REMARK SMILES IDX 65 36 59 37 61 38 21 39 64 40 58 41 57 42 22 44 48 45 31 46
REMARK SMILES IDX 47 47 32 48 35 49 46 50 62 51 33 52 34 53 45 55 63 56 36 57
REMARK SMILES IDX 23 58 24 59 29 60 25 61 26 62 28 63 30 64 27 65 49 66 50 67
REMARK SMILES IDX 55 68 51 69 52 70 54 71 56 72 53 73 37 74 38 75 43 76 39 77
REMARK SMILES IDX 40 78 42 79 44 80 41 81
REMARK H PARENT 4 11 4 12 61 43 35 54
REMARK Flexibility Score: inf
ROOT
ATOM      1  C   UNL     1      -0.169   1.809   6.995  1.00  0.00     0.274 C 
ENDROOT
BRANCH   1   2
ATOM      2  O   UNL     1       0.451   2.408   5.840  1.00  0.00    -0.457 OA
BRANCH   2   3
ATOM      3  C   UNL     1       0.816   1.543   4.846  1.00  0.00     0.368 C 
ATOM      4  O   UNL     1       0.702   0.326   4.942  1.00  0.00    -0.245 OA
BRANCH   3   5
ATOM      5  C   UNL     1       1.443   2.294   3.621  1.00  0.00     0.195 C 
ATOM      6  C   UNL     1       2.915   2.622   3.895  1.00  0.00     0.082 C 
ATOM      7  C   UNL     1       0.766   3.670   3.396  1.00  0.00     0.095 C 
ATOM      8  C   UNL     1       2.923   4.003   4.538  1.00  0.00     0.022 C 
ATOM      9  C   UNL     1       1.699   4.728   3.987  1.00  0.00     0.054 C 
BRANCH   5  10
ATOM     10  N   UNL     1       1.264   1.483   2.382  1.00  0.00    -0.332 N 
ATOM     11  H   UNL     1       0.290   1.180   2.345  1.00  0.00     0.347 HD
ATOM     12  H   UNL     1       1.541   2.091   1.612  1.00  0.00     0.347 HD
BRANCH  10  13
ATOM     13  C   UNL     1       2.109   0.290   2.270  1.00  0.00     0.261 C 
BRANCH  13  14
ATOM     14  C   UNL     1       1.535  -0.690   1.240  1.00  0.00     0.058 C 
ATOM     15  C   UNL     1       1.461  -0.129  -0.173  1.00  0.00     0.010 C 
ENDBRANCH  13  14
ENDBRANCH  10  13
ENDBRANCH   5  10
BRANCH   9  16
ATOM     16  S   UNL     1       1.976   6.272   3.012  1.00  0.00    -0.155 SA
BRANCH  16  17
ATOM     17  C   UNL     1       2.859   5.872   1.454  1.00  0.00     0.047 C 
ATOM     18  C   UNL     1       4.209   5.186   1.552  1.00  0.00     0.014 C 
ATOM     19  C   UNL     1       2.084   5.116   0.382  1.00  0.00     0.014 C 
ATOM     20  C   UNL     1       4.487   4.675   0.144  1.00  0.00     0.001 C 
ATOM     21  C   UNL     1       3.133   4.487  -0.530  1.00  0.00     0.001 C 
ENDBRANCH  16  17
ENDBRANCH   9  16
ENDBRANCH   3   5
ENDBRANCH   2   3
ENDBRANCH   1   2
BRANCH   1  22
ATOM     22  C   UNL     1      -1.698   1.853   6.912  1.00  0.00     0.275 C 
BRANCH  22  23
ATOM     23  O   UNL     1      -2.194   1.033   5.839  1.00  0.00    -0.458 OA
BRANCH  23  24
ATOM     24  C   UNL     1      -2.501   1.694   4.698  1.00  0.00     0.338 C 
ATOM     25  O   UNL     1      -2.474   2.899   4.515  1.00  0.00    -0.246 OA
BRANCH  24  26
ATOM     26  C   UNL     1      -2.763   0.726   3.618  1.00  0.00     0.060 A 
ATOM     27  C   UNL     1      -2.057   0.874   2.421  1.00  0.00     0.016 A 
ATOM     28  C   UNL     1      -3.718  -0.283   3.754  1.00  0.00     0.016 A 
ATOM     29  C   UNL     1      -2.274  -0.005   1.363  1.00  0.00     0.010 A 
ATOM     30  C   UNL     1      -3.962  -1.144   2.679  1.00  0.00     0.010 A 
ATOM     31  C   UNL     1      -3.240  -1.009   1.480  1.00  0.00    -0.014 A 
BRANCH  31  32
ATOM     32  C   UNL     1      -3.573  -1.862   0.319  1.00  0.00     0.031 A 
ATOM     33  C   UNL     1      -4.621  -1.399  -0.647  1.00  0.00     0.074 A 
ATOM     34  C   UNL     1      -2.950  -3.039   0.134  1.00  0.00     0.049 A 
ATOM     35  N   UNL     1      -5.186  -2.050  -1.630  1.00  0.00    -0.248 NA
ATOM     36  C   UNL     1      -5.086  -0.012  -0.492  1.00  0.00     0.031 C 
ATOM     37  C   UNL     1      -1.842  -3.545   0.942  1.00  0.00     0.029 A 
ATOM     38  N   UNL     1      -3.177  -4.029  -0.788  1.00  0.00    -0.354 N 
ATOM     39  C   UNL     1      -6.078  -1.156  -2.206  1.00  0.00     0.074 A 
ATOM     40  C   UNL     1      -5.979   0.083  -1.466  1.00  0.00     0.031 C 
ATOM     41  C   UNL     1      -1.504  -4.768   0.497  1.00  0.00     0.029 A 
ATOM     42  C   UNL     1      -2.406  -5.148  -0.589  1.00  0.00     0.049 A 
ATOM     43  H   UNL     1      -3.829  -3.945  -1.522  1.00  0.00     0.167 HD
ATOM     44  C   UNL     1      -6.914  -1.358  -3.251  1.00  0.00     0.037 A 
ATOM     45  C   UNL     1      -2.462  -6.355  -1.186  1.00  0.00     0.037 A 
ATOM     46  C   UNL     1      -7.037  -2.605  -3.956  1.00  0.00     0.049 A 
ATOM     47  C   UNL     1      -3.501  -6.603  -2.249  1.00  0.00     0.074 A 
ATOM     48  C   UNL     1      -7.902  -2.935  -4.985  1.00  0.00     0.029 A 
ATOM     49  N   UNL     1      -6.274  -3.733  -3.695  1.00  0.00    -0.354 N 
ATOM     50  N   UNL     1      -4.373  -5.771  -2.764  1.00  0.00    -0.248 NA
ATOM     51  C   UNL     1      -3.576  -7.964  -2.802  1.00  0.00     0.031 C 
ATOM     52  C   UNL     1      -7.688  -4.276  -5.319  1.00  0.00     0.029 A 
ATOM     53  C   UNL     1      -6.659  -4.766  -4.530  1.00  0.00     0.049 A 
ATOM     54  H   UNL     1      -5.564  -3.790  -3.015  1.00  0.00     0.167 HD
ATOM     55  C   UNL     1      -5.074  -6.494  -3.722  1.00  0.00     0.074 A 
ATOM     56  C   UNL     1      -4.527  -7.834  -3.717  1.00  0.00     0.031 C 
ATOM     57  C   UNL     1      -6.079  -6.084  -4.533  1.00  0.00     0.037 A 
BRANCH  44  58
ATOM     58  C   UNL     1      -7.798  -0.217  -3.648  1.00  0.00     0.057 A 
ATOM     59  C   UNL     1      -7.302   0.895  -4.339  1.00  0.00     0.134 A 
ATOM     60  C   UNL     1      -9.164  -0.234  -3.341  1.00  0.00     0.134 A 
ATOM     61  F   UNL     1      -5.999   0.979  -4.646  1.00  0.00    -0.206 F 
ATOM     62  C   UNL     1      -8.132   1.960  -4.694  1.00  0.00     0.040 A 
ATOM     63  C   UNL     1     -10.007   0.815  -3.708  1.00  0.00     0.040 A 
ATOM     64  F   UNL     1      -9.700  -1.272  -2.680  1.00  0.00    -0.206 F 
ATOM     65  C   UNL     1      -9.490   1.919  -4.381  1.00  0.00     0.006 A 
ENDBRANCH  44  58
BRANCH  45  66
ATOM     66  C   UNL     1      -1.546  -7.446  -0.764  1.00  0.00     0.057 A 
ATOM     67  C   UNL     1      -0.564  -7.942  -1.628  1.00  0.00     0.134 A 
ATOM     68  C   UNL     1      -1.662  -8.052   0.494  1.00  0.00     0.134 A 
ATOM     69  F   UNL     1      -0.422  -7.423  -2.857  1.00  0.00    -0.206 F 
ATOM     70  C   UNL     1       0.258  -9.011  -1.266  1.00  0.00     0.040 A 
ATOM     71  C   UNL     1      -0.830  -9.104   0.879  1.00  0.00     0.040 A 
ATOM     72  F   UNL     1      -2.588  -7.630   1.367  1.00  0.00    -0.206 F 
ATOM     73  C   UNL     1       0.128  -9.592  -0.006  1.00  0.00     0.006 A 
ENDBRANCH  45  66
BRANCH  57  74
ATOM     74  C   UNL     1      -6.613  -7.067  -5.531  1.00  0.00     0.057 A 
ATOM     75  C   UNL     1      -7.475  -8.105  -5.160  1.00  0.00     0.134 A 
ATOM     76  C   UNL     1      -6.326  -6.916  -6.894  1.00  0.00     0.134 A 
ATOM     77  F   UNL     1      -7.780  -8.308  -3.869  1.00  0.00    -0.206 F 
ATOM     78  C   UNL     1      -8.031  -8.963  -6.111  1.00  0.00     0.040 A 
ATOM     79  C   UNL     1      -6.891  -7.754  -7.855  1.00  0.00     0.040 A 
ATOM     80  F   UNL     1      -5.513  -5.935  -7.314  1.00  0.00    -0.206 F 
ATOM     81  C   UNL     1      -7.747  -8.781  -7.464  1.00  0.00     0.006 A 
ENDBRANCH  57  74
ENDBRANCH  31  32
ENDBRANCH  24  26
ENDBRANCH  23  24
ENDBRANCH  22  23
ENDBRANCH   1  22
TORSDOF 16
