REMARK SMILES Cc1c(C(=O)N[C@H]2C=C[C@@H](C(=O)OCCOC(=O)c3ccc(-c4c5nc(c(-c6c(F)cccc6F)c6ccc([nH]6)c(-c6c(F)cccc6F)c6nc(c(-c7c(F)cccc7F)c7ccc4[nH]7)C=C6)C=C5)cc3)C2)oc2ccccc12
REMARK SMILES IDX 14 1 13 2 11 3 12 4 10 5 7 6 8 7 73 8 9 9 6 10 4 11 5 12
REMARK SMILES IDX 3 14 1 15 2 16 80 17 74 18 75 19 79 20 76 21 78 22 77 23
REMARK SMILES IDX 15 24 16 25 17 26 18 27 19 28 20 29 72 30 21 31 71 32 22 33
REMARK SMILES IDX 23 34 24 35 65 36 25 37 70 38 64 39 66 40 26 41 69 42 63 43
REMARK SMILES IDX 62 44 27 46 53 47 36 48 52 49 37 50 40 51 51 52 67 53 38 54
REMARK SMILES IDX 39 55 50 57 68 58 41 59 28 60 29 61 34 62 30 63 31 64 33 65
REMARK SMILES IDX 35 66 32 67 54 68 55 69 60 70 56 71 57 72 59 73 61 74 58 75
REMARK SMILES IDX 42 76 43 77 48 78 44 79 45 80 47 81 49 82 46 83
REMARK H PARENT 6 13 66 45 40 56
REMARK Flexibility Score: inf
ROOT
ATOM      1  C   UNL     1       7.242  -4.610   3.097  1.00  0.00     0.274 C 
ENDROOT
BRANCH   1   2
ATOM      2  O   UNL     1       6.673  -3.679   2.154  1.00  0.00    -0.462 OA
BRANCH   2   3
ATOM      3  C   UNL     1       5.839  -4.216   1.232  1.00  0.00     0.312 C 
ATOM      4  O   UNL     1       5.605  -5.416   1.117  1.00  0.00    -0.252 OA
BRANCH   3   5
ATOM      5  C   UNL     1       5.189  -3.197   0.318  1.00  0.00     0.124 C 
ATOM      6  C   UNL     1       4.404  -1.085  -0.344  1.00  0.00     0.106 C 
ATOM      7  C   UNL     1       5.549  -1.480  -1.227  1.00  0.00    -0.006 C 
ATOM      8  C   UNL     1       4.790  -1.855   0.919  1.00  0.00     0.048 C 
ATOM      9  C   UNL     1       5.974  -2.709  -0.874  1.00  0.00    -0.014 C 
BRANCH   6  10
ATOM     10  N   UNL     1       4.247   0.309  -0.137  1.00  0.00    -0.343 N 
ATOM     11  C   UNL     1       3.094   1.043   0.068  1.00  0.00     0.287 C 
ATOM     12  O   UNL     1       3.312   2.248   0.250  1.00  0.00    -0.266 OA
ATOM     13  H   UNL     1       5.081   0.831  -0.140  1.00  0.00     0.164 HD
BRANCH  11  14
ATOM     14  C   UNL     1       1.719   0.509   0.041  1.00  0.00     0.195 A 
ATOM     15  C   UNL     1       1.459  -2.116   0.248  1.00  0.00     0.049 C 
ATOM     16  C   UNL     1       1.022  -0.711   0.089  1.00  0.00     0.008 A 
ATOM     17  C   UNL     1      -0.379  -0.402   0.006  1.00  0.00     0.024 A 
ATOM     18  O   UNL     1       0.765   1.517  -0.024  1.00  0.00    -0.451 OA
ATOM     19  C   UNL     1      -0.472   0.972  -0.036  1.00  0.00     0.135 A 
ATOM     20  C   UNL     1      -1.569  -1.159  -0.005  1.00  0.00     0.012 A 
ATOM     21  C   UNL     1      -1.675   1.672  -0.074  1.00  0.00     0.048 A 
ATOM     22  C   UNL     1      -2.797  -0.490  -0.046  1.00  0.00     0.001 A 
ATOM     23  C   UNL     1      -2.847   0.904  -0.075  1.00  0.00     0.004 A 
ENDBRANCH  11  14
ENDBRANCH   6  10
ENDBRANCH   3   5
ENDBRANCH   2   3
ENDBRANCH   1   2
BRANCH   1  24
ATOM     24  C   UNL     1       6.588  -4.486   4.477  1.00  0.00     0.275 C 
BRANCH  24  25
ATOM     25  O   UNL     1       5.227  -4.962   4.491  1.00  0.00    -0.458 OA
BRANCH  25  26
ATOM     26  C   UNL     1       4.293  -4.022   4.228  1.00  0.00     0.338 C 
ATOM     27  O   UNL     1       4.487  -2.849   3.945  1.00  0.00    -0.246 OA
BRANCH  26  28
ATOM     28  C   UNL     1       2.943  -4.606   4.239  1.00  0.00     0.060 A 
ATOM     29  C   UNL     1       2.156  -4.459   3.094  1.00  0.00     0.016 A 
ATOM     30  C   UNL     1       2.407  -5.178   5.394  1.00  0.00     0.016 A 
ATOM     31  C   UNL     1       0.816  -4.842   3.110  1.00  0.00     0.010 A 
ATOM     32  C   UNL     1       1.068  -5.587   5.401  1.00  0.00     0.010 A 
ATOM     33  C   UNL     1       0.256  -5.402   4.267  1.00  0.00    -0.014 A 
BRANCH  33  34
ATOM     34  C   UNL     1      -1.180  -5.780   4.291  1.00  0.00     0.031 A 
ATOM     35  C   UNL     1      -2.169  -4.974   5.086  1.00  0.00     0.074 A 
ATOM     36  C   UNL     1      -1.601  -6.849   3.591  1.00  0.00     0.049 A 
ATOM     37  N   UNL     1      -3.450  -5.181   5.267  1.00  0.00    -0.248 NA
ATOM     38  C   UNL     1      -1.649  -3.781   5.769  1.00  0.00     0.031 C 
ATOM     39  C   UNL     1      -0.752  -7.698   2.755  1.00  0.00     0.029 A 
ATOM     40  N   UNL     1      -2.850  -7.404   3.473  1.00  0.00    -0.354 N 
ATOM     41  C   UNL     1      -3.886  -4.159   6.101  1.00  0.00     0.074 A 
ATOM     42  C   UNL     1      -2.728  -3.343   6.404  1.00  0.00     0.031 C 
ATOM     43  C   UNL     1      -1.507  -8.658   2.199  1.00  0.00     0.029 A 
ATOM     44  C   UNL     1      -2.882  -8.520   2.673  1.00  0.00     0.049 A 
ATOM     45  H   UNL     1      -3.648  -7.038   3.919  1.00  0.00     0.167 HD
ATOM     46  C   UNL     1      -5.136  -3.919   6.567  1.00  0.00     0.037 A 
ATOM     47  C   UNL     1      -3.898  -9.349   2.370  1.00  0.00     0.037 A 
ATOM     48  C   UNL     1      -6.293  -4.718   6.253  1.00  0.00     0.049 A 
ATOM     49  C   UNL     1      -5.260  -9.100   2.953  1.00  0.00     0.074 A 
ATOM     50  C   UNL     1      -7.608  -4.523   6.642  1.00  0.00     0.029 A 
ATOM     51  N   UNL     1      -6.273  -5.869   5.481  1.00  0.00    -0.354 N 
ATOM     52  N   UNL     1      -5.663  -8.118   3.721  1.00  0.00    -0.248 NA
ATOM     53  C   UNL     1      -6.306 -10.081   2.631  1.00  0.00     0.031 C 
ATOM     54  C   UNL     1      -8.375  -5.581   6.141  1.00  0.00     0.029 A 
ATOM     55  C   UNL     1      -7.546  -6.412   5.406  1.00  0.00     0.049 A 
ATOM     56  H   UNL     1      -5.472  -6.246   5.050  1.00  0.00     0.167 HD
ATOM     57  C   UNL     1      -7.012  -8.349   3.956  1.00  0.00     0.074 A 
ATOM     58  C   UNL     1      -7.361  -9.560   3.242  1.00  0.00     0.031 C 
ATOM     59  C   UNL     1      -7.883  -7.619   4.694  1.00  0.00     0.037 A 
BRANCH  46  60
ATOM     60  C   UNL     1      -5.310  -2.753   7.495  1.00  0.00     0.057 A 
ATOM     61  C   UNL     1      -5.262  -1.429   7.042  1.00  0.00     0.134 A 
ATOM     62  C   UNL     1      -5.550  -2.961   8.860  1.00  0.00     0.134 A 
ATOM     63  F   UNL     1      -5.027  -1.162   5.748  1.00  0.00    -0.206 F 
ATOM     64  C   UNL     1      -5.416  -0.352   7.917  1.00  0.00     0.040 A 
ATOM     65  C   UNL     1      -5.729  -1.893   9.741  1.00  0.00     0.040 A 
ATOM     66  F   UNL     1      -5.616  -4.205   9.358  1.00  0.00    -0.206 F 
ATOM     67  C   UNL     1      -5.654  -0.584   9.271  1.00  0.00     0.006 A 
ENDBRANCH  46  60
BRANCH  47  68
ATOM     68  C   UNL     1      -3.664 -10.498   1.463  1.00  0.00     0.057 A 
ATOM     69  C   UNL     1      -4.177 -10.499   0.161  1.00  0.00     0.134 A 
ATOM     70  C   UNL     1      -2.920 -11.612   1.868  1.00  0.00     0.134 A 
ATOM     71  F   UNL     1      -4.916  -9.467  -0.273  1.00  0.00    -0.206 F 
ATOM     72  C   UNL     1      -3.964 -11.571  -0.706  1.00  0.00     0.040 A 
ATOM     73  C   UNL     1      -2.681 -12.681   1.004  1.00  0.00     0.040 A 
ATOM     74  F   UNL     1      -2.402 -11.667   3.103  1.00  0.00    -0.206 F 
ATOM     75  C   UNL     1      -3.207 -12.663  -0.286  1.00  0.00     0.006 A 
ENDBRANCH  47  68
BRANCH  59  76
ATOM     76  C   UNL     1      -9.305  -8.094   4.743  1.00  0.00     0.057 A 
ATOM     77  C   UNL     1      -9.684  -9.210   5.499  1.00  0.00     0.134 A 
ATOM     78  C   UNL     1     -10.310  -7.412   4.046  1.00  0.00     0.134 A 
ATOM     79  F   UNL     1      -8.767  -9.916   6.176  1.00  0.00    -0.206 F 
ATOM     80  C   UNL     1     -11.011  -9.642   5.545  1.00  0.00     0.040 A 
ATOM     81  C   UNL     1     -11.643  -7.821   4.101  1.00  0.00     0.040 A 
ATOM     82  F   UNL     1     -10.014  -6.333   3.306  1.00  0.00    -0.206 F 
ATOM     83  C   UNL     1     -11.996  -8.943   4.849  1.00  0.00     0.006 A 
ENDBRANCH  59  76
ENDBRANCH  33  34
ENDBRANCH  26  28
ENDBRANCH  25  26
ENDBRANCH  24  25
ENDBRANCH   1  24
TORSDOF 13
