REMARK SMILES O=C(OCCOC(=O)[C@@H](Cc1ccc(O)cc1)Nc1c2ccccc2nc2ccccc12)c1ccc(-c2c3nc(c(-c4c(F)cccc4F)c4ccc([nH]4)c(-c4c(F)cccc4F)c4nc(c(-c5c(F)cccc5F)c5ccc2[nH]5)C=C4)C=C3)cc1
REMARK SMILES IDX 5 1 4 2 3 3 2 4 1 5 33 6 34 7 86 8 35 9 85 10 36 11 37 12
REMARK SMILES IDX 38 13 79 14 39 15 84 16 78 17 80 18 40 19 83 20 77 21 76 22
REMARK SMILES IDX 41 24 67 25 50 26 66 27 51 28 54 29 65 30 81 31 52 32 53 33
REMARK SMILES IDX 64 35 82 36 55 37 42 38 43 39 48 40 44 41 45 42 47 43 49 44
REMARK SMILES IDX 46 45 68 46 69 47 74 48 70 49 71 50 73 51 75 52 72 53 56 54
REMARK SMILES IDX 57 55 62 56 58 57 59 58 61 59 63 60 60 61 6 62 7 63 8 64
REMARK SMILES IDX 9 65 10 66 11 67 12 68 17 69 13 70 16 71 14 72 15 73 18 75
REMARK SMILES IDX 19 77 20 78 32 79 21 80 25 81 27 82 31 83 22 84 24 85 26 86
REMARK SMILES IDX 28 87 30 88 23 89 29 90
REMARK H PARENT 80 23 54 34 15 74 18 76
REMARK Flexibility Score: inf
ROOT
ATOM      1  C   UNL     1       3.914   0.130  -2.441  1.00  0.00     0.274 C 
ENDROOT
BRANCH   1   2
ATOM      2  C   UNL     1       3.908  -1.250  -1.744  1.00  0.00     0.275 C 
BRANCH   2   3
ATOM      3  O   UNL     1       2.795  -1.452  -0.861  1.00  0.00    -0.458 OA
BRANCH   3   4
ATOM      4  C   UNL     1       2.660  -1.050   0.421  1.00  0.00     0.338 C 
ATOM      5  O   UNL     1       1.595  -1.251   1.002  1.00  0.00    -0.246 OA
BRANCH   4   6
ATOM      6  C   UNL     1       3.668  -0.234   1.157  1.00  0.00     0.060 A 
ATOM      7  C   UNL     1       5.169   0.310   0.447  1.00  0.00     0.016 A 
ATOM      8  C   UNL     1       3.024   0.437   2.686  1.00  0.00     0.016 A 
ATOM      9  C   UNL     1       6.047   1.650   1.215  1.00  0.00     0.010 A 
ATOM     10  C   UNL     1       3.749   1.806   3.528  1.00  0.00     0.010 A 
ATOM     11  C   UNL     1       5.304   2.502   2.901  1.00  0.00    -0.014 A 
BRANCH  11  12
ATOM     12  C   UNL     1       5.704   3.558   4.002  1.00  0.00     0.031 A 
ATOM     13  C   UNL     1       6.177   3.007   5.326  1.00  0.00     0.074 A 
ATOM     14  C   UNL     1       5.603   4.904   3.873  1.00  0.00     0.049 A 
ATOM     15  N   UNL     1       6.970   3.544   6.213  1.00  0.00    -0.248 NA
ATOM     16  C   UNL     1       5.668   1.683   5.731  1.00  0.00     0.031 C 
ATOM     17  C   UNL     1       4.848   5.626   2.856  1.00  0.00     0.029 A 
ATOM     18  N   UNL     1       6.353   5.900   4.464  1.00  0.00    -0.354 N 
ATOM     19  C   UNL     1       7.077   2.606   7.231  1.00  0.00     0.074 A 
ATOM     20  C   UNL     1       6.217   1.503   6.914  1.00  0.00     0.031 C 
ATOM     21  C   UNL     1       5.410   6.827   2.653  1.00  0.00     0.029 A 
ATOM     22  C   UNL     1       6.437   7.034   3.664  1.00  0.00     0.049 A 
ATOM     23  H   UNL     1       6.778   5.817   5.348  1.00  0.00     0.167 HD
ATOM     24  C   UNL     1       7.850   2.655   8.335  1.00  0.00     0.037 A 
ATOM     25  C   UNL     1       7.276   8.090   3.738  1.00  0.00     0.037 A 
ATOM     26  C   UNL     1       8.612   3.817   8.667  1.00  0.00     0.049 A 
ATOM     27  C   UNL     1       8.181   8.126   4.941  1.00  0.00     0.074 A 
ATOM     28  C   UNL     1       9.391   4.060   9.777  1.00  0.00     0.029 A 
ATOM     29  N   UNL     1       8.642   4.963   7.880  1.00  0.00    -0.354 N 
ATOM     30  N   UNL     1       8.379   7.199   5.851  1.00  0.00    -0.248 NA
ATOM     31  C   UNL     1       8.922   9.369   5.177  1.00  0.00     0.031 C 
ATOM     32  C   UNL     1       9.829   5.386   9.700  1.00  0.00     0.029 A 
ATOM     33  C   UNL     1       9.406   5.932   8.494  1.00  0.00     0.049 A 
ATOM     34  H   UNL     1       8.186   5.067   7.014  1.00  0.00     0.167 HD
ATOM     35  C   UNL     1       9.247   7.750   6.779  1.00  0.00     0.074 A 
ATOM     36  C   UNL     1       9.584   9.073   6.287  1.00  0.00     0.031 C 
ATOM     37  C   UNL     1       9.705   7.231   7.946  1.00  0.00     0.037 A 
BRANCH  24  38
ATOM     38  C   UNL     1       7.802   1.461   9.242  1.00  0.00     0.057 A 
ATOM     39  C   UNL     1       8.286   0.203   8.842  1.00  0.00     0.134 A 
ATOM     40  C   UNL     1       7.159   1.538  10.481  1.00  0.00     0.134 A 
ATOM     41  F   UNL     1       8.863   0.045   7.641  1.00  0.00    -0.206 F 
ATOM     42  C   UNL     1       8.096  -0.937   9.627  1.00  0.00     0.040 A 
ATOM     43  C   UNL     1       6.992   0.411  11.288  1.00  0.00     0.040 A 
ATOM     44  F   UNL     1       6.646   2.700  10.912  1.00  0.00    -0.206 F 
ATOM     45  C   UNL     1       7.449  -0.833  10.856  1.00  0.00     0.006 A 
ENDBRANCH  24  38
BRANCH  25  46
ATOM     46  C   UNL     1       7.285   9.191   2.718  1.00  0.00     0.057 A 
ATOM     47  C   UNL     1       8.452   9.563   2.029  1.00  0.00     0.134 A 
ATOM     48  C   UNL     1       6.134   9.936   2.425  1.00  0.00     0.134 A 
ATOM     49  F   UNL     1       9.612   8.931   2.265  1.00  0.00    -0.206 F 
ATOM     50  C   UNL     1       8.472  10.623   1.110  1.00  0.00     0.040 A 
ATOM     51  C   UNL     1       6.127  10.963   1.475  1.00  0.00     0.040 A 
ATOM     52  F   UNL     1       4.982   9.679   3.060  1.00  0.00    -0.206 F 
ATOM     53  C   UNL     1       7.301  11.318   0.821  1.00  0.00     0.006 A 
ENDBRANCH  25  46
BRANCH  37  54
ATOM     54  C   UNL     1      10.658   8.081   8.722  1.00  0.00     0.057 A 
ATOM     55  C   UNL     1      10.255   9.252   9.374  1.00  0.00     0.134 A 
ATOM     56  C   UNL     1      11.995   7.686   8.844  1.00  0.00     0.134 A 
ATOM     57  F   UNL     1       8.985   9.678   9.290  1.00  0.00    -0.206 F 
ATOM     58  C   UNL     1      11.165  10.029  10.086  1.00  0.00     0.040 A 
ATOM     59  C   UNL     1      12.903   8.431   9.589  1.00  0.00     0.040 A 
ATOM     60  F   UNL     1      12.431   6.561   8.258  1.00  0.00    -0.206 F 
ATOM     61  C   UNL     1      12.492   9.614  10.199  1.00  0.00     0.006 A 
ENDBRANCH  37  54
ENDBRANCH  11  12
ENDBRANCH   4   6
ENDBRANCH   3   4
ENDBRANCH   2   3
ENDBRANCH   1   2
BRANCH   1  62
ATOM     62  O   UNL     1       3.642   1.253  -1.568  1.00  0.00    -0.461 OA
BRANCH  62  63
ATOM     63  C   UNL     1       2.332   1.584  -1.395  1.00  0.00     0.329 C 
ATOM     64  O   UNL     1       1.424   1.090  -2.054  1.00  0.00    -0.250 OA
BRANCH  63  65
ATOM     65  C   UNL     1       2.101   2.644  -0.300  1.00  0.00     0.194 C 
BRANCH  65  66
ATOM     66  C   UNL     1       2.667   2.325   1.084  1.00  0.00     0.072 C 
BRANCH  66  67
ATOM     67  C   UNL     1       4.197   1.998   1.414  1.00  0.00    -0.045 A 
ATOM     68  C   UNL     1       5.203   0.637   2.538  1.00  0.00     0.007 A 
ATOM     69  C   UNL     1       5.130   3.492   0.955  1.00  0.00     0.007 A 
ATOM     70  C   UNL     1       6.912   0.968   3.006  1.00  0.00     0.046 A 
ATOM     71  C   UNL     1       6.797   3.686   1.512  1.00  0.00     0.046 A 
ATOM     72  C   UNL     1       7.630   2.473   2.486  1.00  0.00     0.115 A 
BRANCH  72  73
ATOM     73  O   UNL     1       8.973   2.669   2.665  1.00  0.00    -0.508 OA
ATOM     74  H   UNL     1       9.472   2.059   3.172  1.00  0.00     0.293 HD
ENDBRANCH  72  73
ENDBRANCH  66  67
ENDBRANCH  65  66
BRANCH  65  75
ATOM     75  N   UNL     1       2.540   3.968  -0.684  1.00  0.00    -0.371 N 
ATOM     76  H   UNL     1       3.470   4.045  -0.998  1.00  0.00     0.161 HD
BRANCH  75  77
ATOM     77  C   UNL     1       1.797   5.151  -0.663  1.00  0.00     0.054 A 
ATOM     78  C   UNL     1       0.738   5.474   0.277  1.00  0.00     0.024 A 
ATOM     79  C   UNL     1       2.074   6.051  -1.735  1.00  0.00     0.024 A 
ATOM     80  C   UNL     1       0.335   4.766   1.456  1.00  0.00     0.012 A 
ATOM     81  C   UNL     1       0.021   6.663   0.026  1.00  0.00     0.073 A 
ATOM     82  C   UNL     1       1.251   7.176  -1.867  1.00  0.00     0.073 A 
ATOM     83  C   UNL     1       3.103   5.852  -2.698  1.00  0.00     0.012 A 
ATOM     84  C   UNL     1      -0.687   5.190   2.313  1.00  0.00     0.001 A 
ATOM     85  C   UNL     1      -1.015   7.057   0.873  1.00  0.00     0.029 A 
ATOM     86  N   UNL     1       0.266   7.469  -1.011  1.00  0.00    -0.248 NA
ATOM     87  C   UNL     1       1.440   8.018  -2.954  1.00  0.00     0.029 A 
ATOM     88  C   UNL     1       3.279   6.709  -3.776  1.00  0.00     0.001 A 
ATOM     89  C   UNL     1      -1.379   6.340   2.010  1.00  0.00     0.002 A 
ATOM     90  C   UNL     1       2.431   7.791  -3.912  1.00  0.00     0.002 A 
ENDBRANCH  75  77
ENDBRANCH  65  75
ENDBRANCH  63  65
ENDBRANCH  62  63
ENDBRANCH   1  62
TORSDOF 16
