REMARK SMILES CC[C@](C)(NC(=O)c1ccc2ccccc2c1O)C(=O)OCCOC(=O)c1ccc(-c2c3nc(c(-c4c(F)cccc4F)c4ccc([nH]4)c(-c4c(F)cccc4F)c4nc(c(-c5c(F)cccc5F)c5ccc2[nH]5)C=C4)C=C3)cc1
REMARK SMILES IDX 22 1 21 2 19 3 20 4 3 5 4 6 2 7 1 8 5 9 6 10 7 12 8 13 9 14
REMARK SMILES IDX 17 15 10 16 16 17 11 18 15 19 12 20 14 21 13 22 18 23 23 25
REMARK SMILES IDX 24 26 25 27 26 28 27 29 28 30 80 31 29 32 79 33 30 34 31 35
REMARK SMILES IDX 32 36 73 37 33 38 78 39 72 40 74 41 34 42 77 43 71 44 70 45
REMARK SMILES IDX 35 47 61 48 44 49 60 50 45 51 48 52 59 53 75 54 46 55 47 56
REMARK SMILES IDX 58 58 76 59 49 60 36 61 37 62 42 63 38 64 39 65 41 66 43 67
REMARK SMILES IDX 40 68 62 69 63 70 68 71 64 72 65 73 67 74 69 75 66 76 50 77
REMARK SMILES IDX 51 78 56 79 52 80 53 81 55 82 57 83 54 84
REMARK H PARENT 5 11 18 24 74 46 48 57
REMARK Flexibility Score: inf
ROOT
ATOM      1  C   UNL     1       4.362  -0.120  -2.087  1.00  0.00     0.274 C 
ENDROOT
BRANCH   1   2
ATOM      2  O   UNL     1       3.201   0.548  -2.631  1.00  0.00    -0.460 OA
BRANCH   2   3
ATOM      3  C   UNL     1       2.004   0.275  -2.077  1.00  0.00     0.331 C 
ATOM      4  O   UNL     1       1.861  -0.476  -1.114  1.00  0.00    -0.249 OA
BRANCH   3   5
ATOM      5  C   UNL     1       0.791   0.973  -2.779  1.00  0.00     0.135 C 
ATOM      6  C   UNL     1       0.079   1.785  -1.676  1.00  0.00     0.047 C 
BRANCH   5   7
ATOM      7  C   UNL     1      -0.084  -0.230  -3.277  1.00  0.00     0.037 C 
ATOM      8  C   UNL     1      -1.593  -0.029  -3.216  1.00  0.00     0.007 C 
ENDBRANCH   5   7
BRANCH   5   9
ATOM      9  N   UNL     1       0.986   1.866  -3.981  1.00  0.00    -0.336 N 
ATOM     10  C   UNL     1       1.601   3.107  -3.946  1.00  0.00     0.255 C 
ATOM     11  H   UNL     1       0.654   1.543  -4.850  1.00  0.00     0.165 HD
ATOM     12  O   UNL     1       0.915   4.116  -3.825  1.00  0.00    -0.269 OA
BRANCH  10  13
ATOM     13  C   UNL     1       3.064   3.187  -4.204  1.00  0.00     0.082 A 
ATOM     14  C   UNL     1       3.746   4.313  -3.732  1.00  0.00     0.018 A 
ATOM     15  C   UNL     1       3.785   2.170  -4.845  1.00  0.00     0.136 A 
ATOM     16  C   UNL     1       5.143   4.343  -3.739  1.00  0.00     0.010 A 
ATOM     17  C   UNL     1       5.195   2.154  -4.803  1.00  0.00     0.024 A 
ATOM     18  C   UNL     1       5.876   3.241  -4.205  1.00  0.00    -0.015 A 
ATOM     19  C   UNL     1       5.945   1.041  -5.233  1.00  0.00     0.012 A 
ATOM     20  C   UNL     1       7.266   3.165  -4.015  1.00  0.00     0.009 A 
ATOM     21  C   UNL     1       7.319   0.966  -5.006  1.00  0.00     0.001 A 
ATOM     22  C   UNL     1       7.977   2.023  -4.388  1.00  0.00     0.001 A 
BRANCH  15  23
ATOM     23  O   UNL     1       3.151   1.107  -5.451  1.00  0.00    -0.506 OA
ATOM     24  H   UNL     1       2.216   1.085  -5.498  1.00  0.00     0.293 HD
ENDBRANCH  15  23
ENDBRANCH  10  13
ENDBRANCH   5   9
ENDBRANCH   3   5
ENDBRANCH   2   3
ENDBRANCH   1   2
BRANCH   1  25
ATOM     25  C   UNL     1       5.277   0.859  -1.355  1.00  0.00     0.275 C 
BRANCH  25  26
ATOM     26  O   UNL     1       4.684   1.258  -0.112  1.00  0.00    -0.458 OA
BRANCH  26  27
ATOM     27  C   UNL     1       3.969   2.399  -0.158  1.00  0.00     0.338 C 
ATOM     28  O   UNL     1       3.804   3.171  -1.087  1.00  0.00    -0.246 OA
BRANCH  27  29
ATOM     29  C   UNL     1       3.278   2.551   1.107  1.00  0.00     0.060 A 
ATOM     30  C   UNL     1       2.067   1.882   1.266  1.00  0.00     0.016 A 
ATOM     31  C   UNL     1       3.809   3.362   2.105  1.00  0.00     0.016 A 
ATOM     32  C   UNL     1       1.363   2.015   2.443  1.00  0.00     0.010 A 
ATOM     33  C   UNL     1       3.142   3.432   3.320  1.00  0.00     0.010 A 
ATOM     34  C   UNL     1       1.931   2.740   3.494  1.00  0.00    -0.014 A 
BRANCH  34  35
ATOM     35  C   UNL     1       1.287   2.684   4.814  1.00  0.00     0.031 A 
ATOM     36  C   UNL     1       0.662   3.909   5.386  1.00  0.00     0.074 A 
ATOM     37  C   UNL     1       1.297   1.505   5.463  1.00  0.00     0.049 A 
ATOM     38  N   UNL     1       0.173   4.096   6.581  1.00  0.00    -0.248 NA
ATOM     39  C   UNL     1       0.593   5.087   4.507  1.00  0.00     0.031 C 
ATOM     40  C   UNL     1       1.873   0.260   4.941  1.00  0.00     0.029 A 
ATOM     41  N   UNL     1       0.807   1.153   6.689  1.00  0.00    -0.354 N 
ATOM     42  C   UNL     1      -0.221   5.425   6.617  1.00  0.00     0.074 A 
ATOM     43  C   UNL     1       0.084   5.998   5.324  1.00  0.00     0.031 C 
ATOM     44  C   UNL     1       1.670  -0.725   5.826  1.00  0.00     0.029 A 
ATOM     45  C   UNL     1       1.026  -0.165   7.005  1.00  0.00     0.049 A 
ATOM     46  H   UNL     1       0.343   1.783   7.287  1.00  0.00     0.167 HD
ATOM     47  C   UNL     1      -0.777   6.093   7.653  1.00  0.00     0.037 A 
ATOM     48  C   UNL     1       0.764  -0.833   8.141  1.00  0.00     0.037 A 
ATOM     49  C   UNL     1      -1.077   5.474   8.918  1.00  0.00     0.049 A 
ATOM     50  C   UNL     1       0.143  -0.066   9.270  1.00  0.00     0.074 A 
ATOM     51  C   UNL     1      -1.631   6.039  10.051  1.00  0.00     0.029 A 
ATOM     52  N   UNL     1      -0.849   4.133   9.207  1.00  0.00    -0.354 N 
ATOM     53  N   UNL     1      -0.196   1.201   9.313  1.00  0.00    -0.248 NA
ATOM     54  C   UNL     1      -0.118  -0.807  10.507  1.00  0.00     0.031 C 
ATOM     55  C   UNL     1      -1.711   5.046  11.035  1.00  0.00     0.029 A 
ATOM     56  C   UNL     1      -1.245   3.853  10.502  1.00  0.00     0.049 A 
ATOM     57  H   UNL     1      -0.463   3.479   8.581  1.00  0.00     0.167 HD
ATOM     58  C   UNL     1      -0.713   1.414  10.580  1.00  0.00     0.074 A 
ATOM     59  C   UNL     1      -0.666   0.133  11.264  1.00  0.00     0.031 C 
ATOM     60  C   UNL     1      -1.175   2.560  11.137  1.00  0.00     0.037 A 
BRANCH  47  61
ATOM     61  C   UNL     1      -1.037   7.557   7.465  1.00  0.00     0.057 A 
ATOM     62  C   UNL     1      -2.054   8.034   6.627  1.00  0.00     0.134 A 
ATOM     63  C   UNL     1      -0.242   8.508   8.118  1.00  0.00     0.134 A 
ATOM     64  F   UNL     1      -2.836   7.177   5.953  1.00  0.00    -0.206 F 
ATOM     65  C   UNL     1      -2.254   9.401   6.426  1.00  0.00     0.040 A 
ATOM     66  C   UNL     1      -0.447   9.878   7.943  1.00  0.00     0.040 A 
ATOM     67  F   UNL     1       0.753   8.122   8.931  1.00  0.00    -0.206 F 
ATOM     68  C   UNL     1      -1.451  10.328   7.088  1.00  0.00     0.006 A 
ENDBRANCH  47  61
BRANCH  48  69
ATOM     69  C   UNL     1       1.109  -2.271   8.253  1.00  0.00     0.057 A 
ATOM     70  C   UNL     1       0.114  -3.252   8.305  1.00  0.00     0.134 A 
ATOM     71  C   UNL     1       2.441  -2.705   8.261  1.00  0.00     0.134 A 
ATOM     72  F   UNL     1      -1.181  -2.901   8.311  1.00  0.00    -0.206 F 
ATOM     73  C   UNL     1       0.428  -4.611   8.367  1.00  0.00     0.040 A 
ATOM     74  C   UNL     1       2.771  -4.061   8.296  1.00  0.00     0.040 A 
ATOM     75  F   UNL     1       3.444  -1.817   8.199  1.00  0.00    -0.206 F 
ATOM     76  C   UNL     1       1.761  -5.019   8.354  1.00  0.00     0.006 A 
ENDBRANCH  48  69
BRANCH  60  77
ATOM     77  C   UNL     1      -1.676   2.456  12.543  1.00  0.00     0.057 A 
ATOM     78  C   UNL     1      -0.797   2.350  13.628  1.00  0.00     0.134 A 
ATOM     79  C   UNL     1      -3.049   2.492  12.812  1.00  0.00     0.134 A 
ATOM     80  F   UNL     1       0.528   2.294  13.427  1.00  0.00    -0.206 F 
ATOM     81  C   UNL     1      -1.271   2.263  14.936  1.00  0.00     0.040 A 
ATOM     82  C   UNL     1      -3.533   2.429  14.118  1.00  0.00     0.040 A 
ATOM     83  F   UNL     1      -3.937   2.597  11.812  1.00  0.00    -0.206 F 
ATOM     84  C   UNL     1      -2.642   2.309  15.184  1.00  0.00     0.006 A 
ENDBRANCH  60  77
ENDBRANCH  34  35
ENDBRANCH  27  29
ENDBRANCH  26  27
ENDBRANCH  25  26
ENDBRANCH   1  25
TORSDOF 15
