REMARK SMILES CC(C)[C@H](C)n1c(SCC(=O)OCCOC(=O)c2ccc(-c3c4nc(c(-c5c(F)cccc5F)c5ccc([nH]5)c(-c5c(F)cccc5F)c5nc(c(-c6c(F)cccc6F)c6ccc3[nH]6)C=C5)C=C4)cc2)nc2cc(Br)cnc21
REMARK SMILES IDX 13 1 12 2 10 3 11 4 9 5 8 6 7 7 6 8 79 9 72 10 73 11 78 12
REMARK SMILES IDX 74 13 77 14 75 15 76 16 4 17 5 18 2 19 1 20 3 21 14 22 15 23
REMARK SMILES IDX 16 24 17 25 18 26 19 27 71 28 20 29 70 30 21 31 22 32 23 33
REMARK SMILES IDX 64 34 24 35 69 36 63 37 65 38 25 39 68 40 62 41 61 42 26 44
REMARK SMILES IDX 52 45 35 46 51 47 36 48 39 49 50 50 66 51 37 52 38 53 49 55
REMARK SMILES IDX 67 56 40 57 27 58 28 59 33 60 29 61 30 62 32 63 34 64 31 65
REMARK SMILES IDX 53 66 54 67 59 68 55 69 56 70 58 71 60 72 57 73 41 74 42 75
REMARK SMILES IDX 47 76 43 77 44 78 46 79 48 80 45 81
REMARK H PARENT 65 43 39 54
REMARK Flexibility Score: inf
ROOT
ATOM      1  C   UNL     1       2.362  -0.568   0.714  1.00  0.00     0.274 C 
ENDROOT
BRANCH   1   2
ATOM      2  O   UNL     1       1.487  -1.655   0.374  1.00  0.00    -0.461 OA
BRANCH   2   3
ATOM      3  C   UNL     1       1.025  -2.401   1.421  1.00  0.00     0.316 C 
ATOM      4  O   UNL     1       1.434  -2.307   2.573  1.00  0.00    -0.251 OA
BRANCH   3   5
ATOM      5  C   UNL     1      -0.104  -3.320   0.991  1.00  0.00     0.200 C 
BRANCH   5   6
ATOM      6  S   UNL     1       0.478  -4.527  -0.221  1.00  0.00    -0.076 SA
BRANCH   6   7
ATOM      7  C   UNL     1      -0.602  -4.365  -1.577  1.00  0.00     0.171 A 
ATOM      8  N   UNL     1      -0.381  -3.507  -2.638  1.00  0.00    -0.301 N 
ATOM      9  C   UNL     1      -1.107  -4.001  -3.697  1.00  0.00     0.161 A 
ATOM     10  N   UNL     1      -1.532  -5.257  -1.855  1.00  0.00    -0.221 NA
ATOM     11  C   UNL     1      -1.851  -5.050  -3.175  1.00  0.00     0.110 A 
ATOM     12  N   UNL     1      -1.130  -3.539  -4.963  1.00  0.00    -0.235 NA
ATOM     13  C   UNL     1      -2.730  -5.716  -4.040  1.00  0.00     0.049 A 
ATOM     14  C   UNL     1      -2.034  -4.166  -5.746  1.00  0.00     0.129 A 
ATOM     15  C   UNL     1      -2.815  -5.243  -5.352  1.00  0.00     0.038 A 
ATOM     16  Br  UNL     1      -3.949  -6.091  -6.599  1.00  0.00    -0.049 Br
BRANCH   8  17
ATOM     17  C   UNL     1       0.403  -2.268  -2.638  1.00  0.00     0.091 C 
ATOM     18  C   UNL     1       1.892  -2.567  -2.801  1.00  0.00     0.032 C 
BRANCH  17  19
ATOM     19  C   UNL     1      -0.056  -1.195  -3.669  1.00  0.00     0.006 C 
ATOM     20  C   UNL     1      -1.557  -0.956  -3.551  1.00  0.00     0.009 C 
ATOM     21  C   UNL     1       0.688   0.139  -3.522  1.00  0.00     0.009 C 
ENDBRANCH  17  19
ENDBRANCH   8  17
ENDBRANCH   6   7
ENDBRANCH   5   6
ENDBRANCH   3   5
ENDBRANCH   2   3
ENDBRANCH   1   2
BRANCH   1  22
ATOM     22  C   UNL     1       2.038   0.653  -0.143  1.00  0.00     0.275 C 
BRANCH  22  23
ATOM     23  O   UNL     1       0.839   1.426   0.104  1.00  0.00    -0.458 OA
BRANCH  23  24
ATOM     24  C   UNL     1      -0.355   0.830   0.354  1.00  0.00     0.338 C 
ATOM     25  O   UNL     1      -0.559  -0.118   1.068  1.00  0.00    -0.246 OA
BRANCH  24  26
ATOM     26  C   UNL     1      -1.394   1.393  -0.565  1.00  0.00     0.060 A 
ATOM     27  C   UNL     1      -2.596   0.689  -0.683  1.00  0.00     0.016 A 
ATOM     28  C   UNL     1      -1.114   2.441  -1.458  1.00  0.00     0.016 A 
ATOM     29  C   UNL     1      -3.424   0.927  -1.780  1.00  0.00     0.010 A 
ATOM     30  C   UNL     1      -1.925   2.652  -2.578  1.00  0.00     0.010 A 
ATOM     31  C   UNL     1      -3.040   1.842  -2.783  1.00  0.00    -0.014 A 
BRANCH  31  32
ATOM     32  C   UNL     1      -3.903   1.944  -3.976  1.00  0.00     0.031 A 
ATOM     33  C   UNL     1      -5.234   2.480  -3.624  1.00  0.00     0.074 A 
ATOM     34  C   UNL     1      -3.627   1.688  -5.279  1.00  0.00     0.049 A 
ATOM     35  N   UNL     1      -6.386   1.904  -3.725  1.00  0.00    -0.248 NA
ATOM     36  C   UNL     1      -5.239   3.782  -2.940  1.00  0.00     0.031 C 
ATOM     37  C   UNL     1      -2.336   1.387  -5.894  1.00  0.00     0.029 A 
ATOM     38  N   UNL     1      -4.474   1.700  -6.368  1.00  0.00    -0.354 N 
ATOM     39  C   UNL     1      -7.289   2.857  -3.281  1.00  0.00     0.074 A 
ATOM     40  C   UNL     1      -6.530   3.911  -2.654  1.00  0.00     0.031 C 
ATOM     41  C   UNL     1      -2.452   1.378  -7.239  1.00  0.00     0.029 A 
ATOM     42  C   UNL     1      -3.827   1.661  -7.604  1.00  0.00     0.049 A 
ATOM     43  H   UNL     1      -5.454   1.734  -6.281  1.00  0.00     0.167 HD
ATOM     44  C   UNL     1      -8.581   2.878  -3.691  1.00  0.00     0.037 A 
ATOM     45  C   UNL     1      -4.338   1.911  -8.840  1.00  0.00     0.037 A 
ATOM     46  C   UNL     1      -9.049   1.617  -4.182  1.00  0.00     0.049 A 
ATOM     47  C   UNL     1      -5.815   1.846  -8.757  1.00  0.00     0.074 A 
ATOM     48  C   UNL     1      -9.087   0.337  -3.661  1.00  0.00     0.029 A 
ATOM     49  N   UNL     1      -9.299   1.479  -5.524  1.00  0.00    -0.354 N 
ATOM     50  N   UNL     1      -6.516   0.751  -8.771  1.00  0.00    -0.248 NA
ATOM     51  C   UNL     1      -6.528   3.037  -8.320  1.00  0.00     0.031 C 
ATOM     52  C   UNL     1      -8.894  -0.530  -4.771  1.00  0.00     0.029 A 
ATOM     53  C   UNL     1      -8.778   0.268  -5.907  1.00  0.00     0.049 A 
ATOM     54  H   UNL     1      -9.764   2.126  -6.102  1.00  0.00     0.167 HD
ATOM     55  C   UNL     1      -7.581   1.014  -7.928  1.00  0.00     0.074 A 
ATOM     56  C   UNL     1      -7.610   2.466  -7.790  1.00  0.00     0.031 C 
ATOM     57  C   UNL     1      -8.156   0.023  -7.188  1.00  0.00     0.037 A 
BRANCH  44  58
ATOM     58  C   UNL     1      -9.257   4.188  -3.926  1.00  0.00     0.057 A 
ATOM     59  C   UNL     1     -10.643   4.315  -3.825  1.00  0.00     0.134 A 
ATOM     60  C   UNL     1      -8.565   5.311  -4.434  1.00  0.00     0.134 A 
ATOM     61  F   UNL     1     -11.398   3.278  -3.436  1.00  0.00    -0.206 F 
ATOM     62  C   UNL     1     -11.295   5.504  -4.167  1.00  0.00     0.040 A 
ATOM     63  C   UNL     1      -9.193   6.519  -4.715  1.00  0.00     0.040 A 
ATOM     64  F   UNL     1      -7.259   5.253  -4.739  1.00  0.00    -0.206 F 
ATOM     65  C   UNL     1     -10.569   6.616  -4.592  1.00  0.00     0.006 A 
ENDBRANCH  44  58
BRANCH  45  66
ATOM     66  C   UNL     1      -3.668   2.354 -10.095  1.00  0.00     0.057 A 
ATOM     67  C   UNL     1      -4.335   2.311 -11.332  1.00  0.00     0.134 A 
ATOM     68  C   UNL     1      -2.452   3.058 -10.093  1.00  0.00     0.134 A 
ATOM     69  F   UNL     1      -5.523   1.701 -11.454  1.00  0.00    -0.206 F 
ATOM     70  C   UNL     1      -3.839   2.947 -12.480  1.00  0.00     0.040 A 
ATOM     71  C   UNL     1      -1.933   3.678 -11.237  1.00  0.00     0.040 A 
ATOM     72  F   UNL     1      -1.756   3.251  -8.965  1.00  0.00    -0.206 F 
ATOM     73  C   UNL     1      -2.636   3.640 -12.433  1.00  0.00     0.006 A 
ENDBRANCH  45  66
BRANCH  57  74
ATOM     74  C   UNL     1      -7.883  -1.411  -7.559  1.00  0.00     0.057 A 
ATOM     75  C   UNL     1      -6.604  -1.975  -7.694  1.00  0.00     0.134 A 
ATOM     76  C   UNL     1      -8.970  -2.293  -7.662  1.00  0.00     0.134 A 
ATOM     77  F   UNL     1      -5.491  -1.256  -7.490  1.00  0.00    -0.206 F 
ATOM     78  C   UNL     1      -6.427  -3.331  -7.988  1.00  0.00     0.040 A 
ATOM     79  C   UNL     1      -8.801  -3.660  -7.894  1.00  0.00     0.040 A 
ATOM     80  F   UNL     1     -10.225  -1.844  -7.495  1.00  0.00    -0.206 F 
ATOM     81  C   UNL     1      -7.524  -4.181  -8.075  1.00  0.00     0.006 A 
ENDBRANCH  57  74
ENDBRANCH  31  32
ENDBRANCH  24  26
ENDBRANCH  23  24
ENDBRANCH  22  23
ENDBRANCH   1  22
TORSDOF 15
