REMARK SMILES C[C@@H](C(=O)OCCOC(=O)c1ccc(-c2c3nc(c(-c4c(F)cccc4F)c4ccc([nH]4)c(-c4c(F)cccc4F)c4nc(c(-c5c(F)cccc5F)c5ccc2[nH]5)C=C4)C=C3)cc1)c1ccc(C[C@H]2CCC[C@H]2O)cc1
REMARK SMILES IDX 6 1 5 2 3 3 4 4 2 5 1 6 65 7 66 8 77 9 67 10 76 11 68 12
REMARK SMILES IDX 69 13 70 14 71 15 74 16 72 17 73 18 75 19 7 21 8 22 9 23
REMARK SMILES IDX 10 24 11 25 12 26 64 27 13 28 63 29 14 30 15 31 16 32 57 33
REMARK SMILES IDX 17 34 62 35 56 36 58 37 18 38 61 39 55 40 54 41 19 43 45 44
REMARK SMILES IDX 28 45 44 46 29 47 32 48 43 49 59 50 30 51 31 52 42 54 60 55
REMARK SMILES IDX 33 56 20 57 21 58 26 59 22 60 23 61 25 62 27 63 24 64 46 65
REMARK SMILES IDX 47 66 52 67 48 68 49 69 51 70 53 71 50 72 34 73 35 74 40 75
REMARK SMILES IDX 36 76 37 77 39 78 41 79 38 80
REMARK H PARENT 75 20 58 42 32 53
REMARK Flexibility Score: inf
ROOT
ATOM      1  C   UNL     1       2.621  -3.791   0.970  1.00  0.00     0.274 C 
ENDROOT
BRANCH   1   2
ATOM      2  O   UNL     1       2.149  -2.579   0.346  1.00  0.00    -0.462 OA
BRANCH   2   3
ATOM      3  C   UNL     1       1.141  -2.682  -0.568  1.00  0.00     0.313 C 
ATOM      4  O   UNL     1       0.630  -3.753  -0.874  1.00  0.00    -0.252 OA
BRANCH   3   5
ATOM      5  C   UNL     1       0.802  -1.319  -1.227  1.00  0.00     0.126 C 
ATOM      6  C   UNL     1       1.516  -0.175  -0.470  1.00  0.00     0.025 C 
BRANCH   5   7
ATOM      7  C   UNL     1      -0.703  -1.036  -1.401  1.00  0.00    -0.034 A 
ATOM      8  C   UNL     1      -1.201   0.277  -1.403  1.00  0.00     0.005 A 
ATOM      9  C   UNL     1      -1.649  -2.052  -1.601  1.00  0.00     0.005 A 
ATOM     10  C   UNL     1      -2.573   0.543  -1.377  1.00  0.00     0.004 A 
ATOM     11  C   UNL     1      -3.025  -1.789  -1.536  1.00  0.00     0.004 A 
ATOM     12  C   UNL     1      -3.496  -0.494  -1.311  1.00  0.00    -0.048 A 
BRANCH  12  13
ATOM     13  C   UNL     1      -4.943  -0.239  -0.964  1.00  0.00     0.041 C 
BRANCH  13  14
ATOM     14  C   UNL     1      -5.256   0.302   0.455  1.00  0.00     0.022 C 
ATOM     15  C   UNL     1      -4.261   0.002   1.588  1.00  0.00     0.007 C 
ATOM     16  C   UNL     1      -5.515   1.809   0.586  1.00  0.00     0.117 C 
ATOM     17  C   UNL     1      -4.380   1.143   2.599  1.00  0.00     0.003 C 
ATOM     18  C   UNL     1      -5.526   2.012   2.098  1.00  0.00     0.032 C 
BRANCH  16  19
ATOM     19  O   UNL     1      -4.497   2.609   0.006  1.00  0.00    -0.393 OA
ATOM     20  H   UNL     1      -3.645   2.398   0.420  1.00  0.00     0.210 HD
ENDBRANCH  16  19
ENDBRANCH  13  14
ENDBRANCH  12  13
ENDBRANCH   5   7
ENDBRANCH   3   5
ENDBRANCH   2   3
ENDBRANCH   1   2
BRANCH   1  21
ATOM     21  C   UNL     1       2.214  -3.811   2.439  1.00  0.00     0.275 C 
BRANCH  21  22
ATOM     22  O   UNL     1       0.796  -4.038   2.527  1.00  0.00    -0.458 OA
BRANCH  22  23
ATOM     23  C   UNL     1       0.087  -3.132   3.229  1.00  0.00     0.338 C 
ATOM     24  O   UNL     1       0.504  -2.173   3.864  1.00  0.00    -0.246 OA
BRANCH  23  25
ATOM     25  C   UNL     1      -1.340  -3.433   3.069  1.00  0.00     0.060 A 
ATOM     26  C   UNL     1      -1.946  -3.093   1.867  1.00  0.00     0.016 A 
ATOM     27  C   UNL     1      -2.102  -3.942   4.123  1.00  0.00     0.016 A 
ATOM     28  C   UNL     1      -3.326  -3.212   1.738  1.00  0.00     0.010 A 
ATOM     29  C   UNL     1      -3.492  -4.088   3.973  1.00  0.00     0.010 A 
ATOM     30  C   UNL     1      -4.129  -3.675   2.793  1.00  0.00    -0.014 A 
BRANCH  30  31
ATOM     31  C   UNL     1      -5.617  -3.587   2.648  1.00  0.00     0.031 A 
ATOM     32  C   UNL     1      -6.419  -2.615   3.488  1.00  0.00     0.074 A 
ATOM     33  C   UNL     1      -6.241  -4.229   1.639  1.00  0.00     0.049 A 
ATOM     34  N   UNL     1      -7.687  -2.289   3.390  1.00  0.00    -0.248 NA
ATOM     35  C   UNL     1      -5.699  -1.876   4.537  1.00  0.00     0.031 C 
ATOM     36  C   UNL     1      -5.593  -5.115   0.671  1.00  0.00     0.029 A 
ATOM     37  N   UNL     1      -7.556  -4.202   1.234  1.00  0.00    -0.354 N 
ATOM     38  C   UNL     1      -7.901  -1.285   4.327  1.00  0.00     0.074 A 
ATOM     39  C   UNL     1      -6.646  -1.081   5.017  1.00  0.00     0.031 C 
ATOM     40  C   UNL     1      -6.499  -5.511  -0.238  1.00  0.00     0.029 A 
ATOM     41  C   UNL     1      -7.807  -4.971   0.122  1.00  0.00     0.049 A 
ATOM     42  H   UNL     1      -8.251  -3.681   1.696  1.00  0.00     0.167 HD
ATOM     43  C   UNL     1      -9.027  -0.576   4.582  1.00  0.00     0.037 A 
ATOM     44  C   UNL     1      -8.961  -5.244  -0.518  1.00  0.00     0.037 A 
ATOM     45  C   UNL     1     -10.298  -0.787   3.947  1.00  0.00     0.049 A 
ATOM     46  C   UNL     1     -10.249  -4.653  -0.019  1.00  0.00     0.074 A 
ATOM     47  C   UNL     1     -11.493  -0.121   4.166  1.00  0.00     0.029 A 
ATOM     48  N   UNL     1     -10.550  -1.756   2.993  1.00  0.00    -0.354 N 
ATOM     49  N   UNL     1     -10.434  -3.709   0.870  1.00  0.00    -0.248 NA
ATOM     50  C   UNL     1     -11.493  -5.195  -0.589  1.00  0.00     0.031 C 
ATOM     51  C   UNL     1     -12.483  -0.731   3.387  1.00  0.00     0.029 A 
ATOM     52  C   UNL     1     -11.895  -1.752   2.661  1.00  0.00     0.049 A 
ATOM     53  H   UNL     1      -9.874  -2.358   2.607  1.00  0.00     0.167 HD
ATOM     54  C   UNL     1     -11.810  -3.538   0.960  1.00  0.00     0.074 A 
ATOM     55  C   UNL     1     -12.413  -4.463   0.025  1.00  0.00     0.031 C 
ATOM     56  C   UNL     1     -12.505  -2.687   1.753  1.00  0.00     0.037 A 
BRANCH  43  57
ATOM     57  C   UNL     1      -8.941   0.500   5.620  1.00  0.00     0.057 A 
ATOM     58  C   UNL     1      -8.504   1.789   5.295  1.00  0.00     0.134 A 
ATOM     59  C   UNL     1      -9.350   0.264   6.936  1.00  0.00     0.134 A 
ATOM     60  F   UNL     1      -8.125   2.082   4.044  1.00  0.00    -0.206 F 
ATOM     61  C   UNL     1      -8.453   2.804   6.250  1.00  0.00     0.040 A 
ATOM     62  C   UNL     1      -9.318   1.276   7.898  1.00  0.00     0.040 A 
ATOM     63  F   UNL     1      -9.792  -0.947   7.304  1.00  0.00    -0.206 F 
ATOM     64  C   UNL     1      -8.864   2.549   7.556  1.00  0.00     0.006 A 
ENDBRANCH  43  57
BRANCH  44  65
ATOM     65  C   UNL     1      -8.973  -6.191  -1.662  1.00  0.00     0.057 A 
ATOM     66  C   UNL     1      -9.312  -5.773  -2.953  1.00  0.00     0.134 A 
ATOM     67  C   UNL     1      -8.681  -7.550  -1.479  1.00  0.00     0.134 A 
ATOM     68  F   UNL     1      -9.636  -4.493  -3.186  1.00  0.00    -0.206 F 
ATOM     69  C   UNL     1      -9.360  -6.671  -4.021  1.00  0.00     0.040 A 
ATOM     70  C   UNL     1      -8.700  -8.453  -2.541  1.00  0.00     0.040 A 
ATOM     71  F   UNL     1      -8.368  -8.017  -0.262  1.00  0.00    -0.206 F 
ATOM     72  C   UNL     1      -9.046  -8.014  -3.817  1.00  0.00     0.006 A 
ENDBRANCH  44  65
BRANCH  56  73
ATOM     73  C   UNL     1     -14.000  -2.724   1.664  1.00  0.00     0.057 A 
ATOM     74  C   UNL     1     -14.736  -3.772   2.232  1.00  0.00     0.134 A 
ATOM     75  C   UNL     1     -14.715  -1.694   1.041  1.00  0.00     0.134 A 
ATOM     76  F   UNL     1     -14.110  -4.796   2.829  1.00  0.00    -0.206 F 
ATOM     77  C   UNL     1     -16.131  -3.800   2.171  1.00  0.00     0.040 A 
ATOM     78  C   UNL     1     -16.110  -1.700   0.993  1.00  0.00     0.040 A 
ATOM     79  F   UNL     1     -14.070  -0.658   0.483  1.00  0.00    -0.206 F 
ATOM     80  C   UNL     1     -16.822  -2.758   1.556  1.00  0.00     0.006 A 
ENDBRANCH  56  73
ENDBRANCH  30  31
ENDBRANCH  23  25
ENDBRANCH  22  23
ENDBRANCH  21  22
ENDBRANCH   1  21
TORSDOF 15
