REMARK SMILES Cc1ccc(-c2nc(NC(=O)[C@H]3[C@@H](C(=O)OCCOC(=O)c4ccc(-c5c6nc(c(-c7c(F)cccc7F)c7ccc([nH]7)c(-c7c(F)cccc7F)c7nc(c(-c8c(F)cccc8F)c8ccc5[nH]8)C=C7)C=C6)cc4)[C@@H]4CC[C@H]3O4)sc2C)cc1
REMARK SMILES IDX 17 1 16 2 14 3 15 4 13 5 12 6 79 7 76 8 78 9 80 10 77 11
REMARK SMILES IDX 10 12 9 13 11 15 8 16 6 17 7 18 82 19 81 20 83 21 5 22 1 23
REMARK SMILES IDX 2 24 3 25 85 26 4 27 84 28 18 29 19 30 20 31 21 32 22 33
REMARK SMILES IDX 23 34 75 35 24 36 74 37 25 38 26 39 27 40 68 41 28 42 73 43
REMARK SMILES IDX 67 44 69 45 29 46 72 47 66 48 65 49 30 51 56 52 39 53 55 54
REMARK SMILES IDX 40 55 43 56 54 57 70 58 41 59 42 60 53 62 71 63 44 64 31 65
REMARK SMILES IDX 32 66 37 67 33 68 34 69 36 70 38 71 35 72 57 73 58 74 63 75
REMARK SMILES IDX 59 76 60 77 62 78 64 79 61 80 45 81 46 82 51 83 47 84 48 85
REMARK SMILES IDX 50 86 52 87 49 88
REMARK H PARENT 9 14 69 50 43 61
REMARK Flexibility Score: inf
ROOT
ATOM      1  C   UNL     1      -4.967   1.332  -2.284  1.00  0.00     0.274 C 
ENDROOT
BRANCH   1   2
ATOM      2  O   UNL     1      -4.978   0.383  -0.845  1.00  0.00    -0.462 OA
BRANCH   2   3
ATOM      3  C   UNL     1      -5.787   0.287   0.368  1.00  0.00     0.312 C 
ATOM      4  O   UNL     1      -5.608   0.974   1.357  1.00  0.00    -0.252 OA
BRANCH   3   5
ATOM      5  C   UNL     1      -6.880  -0.922   0.383  1.00  0.00     0.143 C 
ATOM      6  C   UNL     1      -7.008  -1.356  -1.034  1.00  0.00     0.124 C 
ATOM      7  C   UNL     1      -8.428  -1.841  -1.239  1.00  0.00     0.132 C 
ATOM      8  C   UNL     1      -8.444  -0.873   0.709  1.00  0.00     0.133 C 
ATOM      9  C   UNL     1      -8.814  -2.984  -0.311  1.00  0.00     0.035 C 
ATOM     10  O   UNL     1      -9.089  -0.726  -0.608  1.00  0.00    -0.373 OA
ATOM     11  C   UNL     1      -9.131  -2.219   0.971  1.00  0.00     0.036 C 
BRANCH   6  12
ATOM     12  C   UNL     1      -6.911  -0.155  -1.940  1.00  0.00     0.232 C 
ATOM     13  N   UNL     1      -7.133   1.209  -1.323  1.00  0.00    -0.302 N 
ATOM     14  H   UNL     1      -7.889   1.086  -0.704  1.00  0.00     0.172 HD
ATOM     15  O   UNL     1      -6.745  -0.497  -3.109  1.00  0.00    -0.274 OA
BRANCH  13  16
ATOM     16  C   UNL     1      -6.738   2.751  -1.186  1.00  0.00     0.190 A 
ATOM     17  C   UNL     1      -6.711   4.833  -0.258  1.00  0.00     0.086 A 
ATOM     18  N   UNL     1      -6.222   3.471  -0.176  1.00  0.00    -0.220 NA
ATOM     19  C   UNL     1      -7.853   4.906  -1.047  1.00  0.00     0.031 A 
ATOM     20  S   UNL     1      -7.381   3.950  -2.336  1.00  0.00    -0.101 S 
ATOM     21  C   UNL     1      -9.029   5.789  -1.226  1.00  0.00     0.059 C 
BRANCH  17  22
ATOM     22  C   UNL     1      -6.193   6.101   0.293  1.00  0.00     0.001 A 
ATOM     23  C   UNL     1      -6.142  10.120   1.896  1.00  0.00     0.044 C 
ATOM     24  C   UNL     1      -5.959   8.747   1.311  1.00  0.00    -0.051 A 
ATOM     25  C   UNL     1      -6.269   8.546  -0.026  1.00  0.00     0.004 A 
ATOM     26  C   UNL     1      -5.621   7.625   2.091  1.00  0.00     0.004 A 
ATOM     27  C   UNL     1      -6.330   7.250  -0.530  1.00  0.00     0.010 A 
ATOM     28  C   UNL     1      -5.745   6.303   1.591  1.00  0.00     0.010 A 
ENDBRANCH  17  22
ENDBRANCH  13  16
ENDBRANCH   6  12
ENDBRANCH   3   5
ENDBRANCH   2   3
ENDBRANCH   1   2
BRANCH   1  29
ATOM     29  C   UNL     1      -6.332   1.689  -3.546  1.00  0.00     0.275 C 
BRANCH  29  30
ATOM     30  O   UNL     1      -8.154   1.709  -3.343  1.00  0.00    -0.458 OA
BRANCH  30  31
ATOM     31  C   UNL     1      -9.528   1.931  -2.684  1.00  0.00     0.338 C 
ATOM     32  O   UNL     1     -10.490   1.948  -3.454  1.00  0.00    -0.246 OA
BRANCH  31  33
ATOM     33  C   UNL     1      -9.928   2.262  -1.078  1.00  0.00     0.060 A 
ATOM     34  C   UNL     1     -11.102   2.823  -0.545  1.00  0.00     0.016 A 
ATOM     35  C   UNL     1      -9.103   2.006  -0.012  1.00  0.00     0.016 A 
ATOM     36  C   UNL     1     -11.227   3.206   0.892  1.00  0.00     0.010 A 
ATOM     37  C   UNL     1      -9.069   2.505   1.267  1.00  0.00     0.010 A 
ATOM     38  C   UNL     1     -10.153   3.092   1.802  1.00  0.00    -0.014 A 
BRANCH  38  39
ATOM     39  C   UNL     1      -9.742   3.703   3.096  1.00  0.00     0.031 A 
ATOM     40  C   UNL     1      -9.008   3.001   4.230  1.00  0.00     0.074 A 
ATOM     41  C   UNL     1      -9.313   4.972   2.891  1.00  0.00     0.049 A 
ATOM     42  N   UNL     1      -8.726   3.562   5.365  1.00  0.00    -0.248 NA
ATOM     43  C   UNL     1      -8.384   1.677   4.132  1.00  0.00     0.031 C 
ATOM     44  C   UNL     1      -8.357   5.794   3.618  1.00  0.00     0.029 A 
ATOM     45  N   UNL     1      -9.671   5.795   1.820  1.00  0.00    -0.354 N 
ATOM     46  C   UNL     1      -7.644   2.896   5.933  1.00  0.00     0.074 A 
ATOM     47  C   UNL     1      -7.525   1.684   5.159  1.00  0.00     0.031 C 
ATOM     48  C   UNL     1      -8.495   7.067   3.207  1.00  0.00     0.029 A 
ATOM     49  C   UNL     1      -9.599   7.121   2.266  1.00  0.00     0.049 A 
ATOM     50  H   UNL     1      -9.927   5.498   0.917  1.00  0.00     0.167 HD
ATOM     51  C   UNL     1      -6.860   3.499   6.889  1.00  0.00     0.037 A 
ATOM     52  C   UNL     1     -10.785   7.769   2.450  1.00  0.00     0.037 A 
ATOM     53  C   UNL     1      -7.219   4.928   7.043  1.00  0.00     0.049 A 
ATOM     54  C   UNL     1     -11.144   7.795   3.922  1.00  0.00     0.074 A 
ATOM     55  C   UNL     1      -6.569   6.137   6.840  1.00  0.00     0.029 A 
ATOM     56  N   UNL     1      -8.553   5.271   7.210  1.00  0.00    -0.354 N 
ATOM     57  N   UNL     1     -10.272   7.524   4.859  1.00  0.00    -0.248 NA
ATOM     58  C   UNL     1     -12.457   8.077   4.489  1.00  0.00     0.031 C 
ATOM     59  C   UNL     1      -7.546   7.187   6.847  1.00  0.00     0.029 A 
ATOM     60  C   UNL     1      -8.790   6.625   7.070  1.00  0.00     0.049 A 
ATOM     61  H   UNL     1      -9.260   4.615   7.408  1.00  0.00     0.167 HD
ATOM     62  C   UNL     1     -10.858   7.471   6.077  1.00  0.00     0.074 A 
ATOM     63  C   UNL     1     -12.234   7.863   5.803  1.00  0.00     0.031 C 
ATOM     64  C   UNL     1     -10.167   7.099   7.198  1.00  0.00     0.037 A 
BRANCH  51  65
ATOM     65  C   UNL     1      -5.627   2.871   7.567  1.00  0.00     0.057 A 
ATOM     66  C   UNL     1      -4.690   3.648   8.288  1.00  0.00     0.134 A 
ATOM     67  C   UNL     1      -5.335   1.490   7.612  1.00  0.00     0.134 A 
ATOM     68  F   UNL     1      -4.867   4.959   8.490  1.00  0.00    -0.206 F 
ATOM     69  C   UNL     1      -3.528   3.123   8.887  1.00  0.00     0.040 A 
ATOM     70  C   UNL     1      -4.156   0.954   8.171  1.00  0.00     0.040 A 
ATOM     71  F   UNL     1      -6.215   0.571   7.196  1.00  0.00    -0.206 F 
ATOM     72  C   UNL     1      -3.238   1.773   8.803  1.00  0.00     0.006 A 
ENDBRANCH  51  65
BRANCH  52  73
ATOM     73  C   UNL     1     -11.626   7.677   1.214  1.00  0.00     0.057 A 
ATOM     74  C   UNL     1     -11.153   8.380   0.082  1.00  0.00     0.134 A 
ATOM     75  C   UNL     1     -12.554   6.661   0.956  1.00  0.00     0.134 A 
ATOM     76  F   UNL     1     -10.213   9.328   0.228  1.00  0.00    -0.206 F 
ATOM     77  C   UNL     1     -11.511   8.040  -1.231  1.00  0.00     0.040 A 
ATOM     78  C   UNL     1     -12.917   6.307  -0.361  1.00  0.00     0.040 A 
ATOM     79  F   UNL     1     -13.039   5.910   1.956  1.00  0.00    -0.206 F 
ATOM     80  C   UNL     1     -12.374   6.976  -1.458  1.00  0.00     0.006 A 
ENDBRANCH  52  73
BRANCH  64  81
ATOM     81  C   UNL     1     -10.792   7.145   8.553  1.00  0.00     0.057 A 
ATOM     82  C   UNL     1     -11.562   8.239   8.961  1.00  0.00     0.134 A 
ATOM     83  C   UNL     1     -10.559   6.155   9.527  1.00  0.00     0.134 A 
ATOM     84  F   UNL     1     -11.742   9.297   8.155  1.00  0.00    -0.206 F 
ATOM     85  C   UNL     1     -12.162   8.292  10.219  1.00  0.00     0.040 A 
ATOM     86  C   UNL     1     -11.103   6.226  10.807  1.00  0.00     0.040 A 
ATOM     87  F   UNL     1      -9.816   5.068   9.281  1.00  0.00    -0.206 F 
ATOM     88  C   UNL     1     -11.935   7.280  11.146  1.00  0.00     0.006 A 
ENDBRANCH  64  81
ENDBRANCH  38  39
ENDBRANCH  31  33
ENDBRANCH  30  31
ENDBRANCH  29  30
ENDBRANCH   1  29
TORSDOF 14
