REMARK SMILES COc1ccc([C@@H]2[NH2+][C@H](C(=O)OCCOC(=O)c3ccc(-c4c5nc(c(-c6c(F)cccc6F)c6ccc([nH]6)c(-c6c(F)cccc6F)c6nc(c(-c7c(F)cccc7F)c7ccc4[nH]7)C=C6)C=C5)cc3)Cc3c2[nH]c2ccccc32)cc1COc1ccccc1C
REMARK SMILES IDX 13 1 12 2 10 3 11 4 9 5 7 6 8 7 74 8 73 11 75 12 72 13 81 14
REMARK SMILES IDX 76 15 80 17 77 18 79 19 78 20 6 21 3 22 4 23 83 24 5 25
REMARK SMILES IDX 82 26 2 27 1 28 84 29 85 30 86 31 87 32 91 33 88 34 90 35
REMARK SMILES IDX 92 36 89 37 14 38 15 39 16 40 17 41 18 42 19 43 71 44 20 45
REMARK SMILES IDX 70 46 21 47 22 48 23 49 64 50 24 51 69 52 63 53 65 54 25 55
REMARK SMILES IDX 68 56 62 57 61 58 26 60 52 61 35 62 51 63 36 64 39 65 50 66
REMARK SMILES IDX 66 67 37 68 38 69 49 71 67 72 40 73 27 74 28 75 33 76 29 77
REMARK SMILES IDX 30 78 32 79 34 80 31 81 53 82 54 83 59 84 55 85 56 86 58 87
REMARK SMILES IDX 60 88 57 89 41 90 42 91 47 92 43 93 44 94 46 95 48 96 45 97
REMARK H PARENT 8 9 8 10 75 16 65 59 39 70
REMARK Flexibility Score: inf
ROOT
ATOM      1  C   UNL     1       1.550   6.162   1.162  1.00  0.00     0.274 C 
ENDROOT
BRANCH   1   2
ATOM      2  O   UNL     1       1.537   6.125  -0.275  1.00  0.00    -0.458 OA
BRANCH   2   3
ATOM      3  C   UNL     1       2.625   6.602  -0.941  1.00  0.00     0.365 C 
ATOM      4  O   UNL     1       3.636   7.031  -0.396  1.00  0.00    -0.245 OA
BRANCH   3   5
ATOM      5  C   UNL     1       2.469   6.436  -2.467  1.00  0.00     0.298 C 
ATOM      6  C   UNL     1       2.618   4.353  -3.945  1.00  0.00     0.262 C 
ATOM      7  N   UNL     1       3.224   5.223  -2.916  1.00  0.00    -0.323 N 
ATOM      8  C   UNL     1       1.535   5.067  -4.679  1.00  0.00     0.083 A 
ATOM      9  H   UNL     1       4.119   5.545  -3.284  1.00  0.00     0.347 HD
ATOM     10  H   UNL     1       3.264   4.633  -2.085  1.00  0.00     0.347 HD
ATOM     11  C   UNL     1       0.638   5.936  -4.104  1.00  0.00    -0.006 A 
ATOM     12  N   UNL     1       1.073   4.825  -5.947  1.00  0.00    -0.353 N 
ATOM     13  C   UNL     1       0.990   6.683  -2.884  1.00  0.00     0.115 C 
ATOM     14  C   UNL     1      -0.602   5.528  -4.658  1.00  0.00     0.003 A 
ATOM     15  C   UNL     1      -0.303   4.972  -5.906  1.00  0.00     0.046 A 
ATOM     16  H   UNL     1       1.615   4.591  -6.735  1.00  0.00     0.166 HD
ATOM     17  C   UNL     1      -1.923   5.443  -4.179  1.00  0.00     0.010 A 
ATOM     18  C   UNL     1      -1.288   4.552  -6.801  1.00  0.00     0.026 A 
ATOM     19  C   UNL     1      -2.893   4.845  -4.992  1.00  0.00     0.001 A 
ATOM     20  C   UNL     1      -2.592   4.469  -6.301  1.00  0.00     0.002 A 
BRANCH   6  21
ATOM     21  C   UNL     1       2.138   3.035  -3.280  1.00  0.00     0.016 A 
ATOM     22  C   UNL     1       1.375   0.724  -1.820  1.00  0.00     0.125 A 
ATOM     23  C   UNL     1       0.408   1.543  -2.387  1.00  0.00     0.047 A 
ATOM     24  C   UNL     1       2.727   0.969  -2.062  1.00  0.00     0.032 A 
ATOM     25  C   UNL     1       0.789   2.675  -3.114  1.00  0.00     0.014 A 
ATOM     26  C   UNL     1       3.094   2.147  -2.752  1.00  0.00     0.021 A 
BRANCH  22  27
ATOM     27  O   UNL     1       0.961  -0.368  -1.107  1.00  0.00    -0.496 OA
ATOM     28  C   UNL     1       0.833  -0.021   0.274  1.00  0.00     0.278 C 
ENDBRANCH  22  27
BRANCH  24  29
ATOM     29  C   UNL     1       3.792  -0.026  -1.685  1.00  0.00     0.269 C 
BRANCH  29  30
ATOM     30  O   UNL     1       4.604  -0.318  -2.839  1.00  0.00    -0.488 OA
BRANCH  30  31
ATOM     31  C   UNL     1       4.194  -1.463  -3.474  1.00  0.00     0.122 A 
ATOM     32  C   UNL     1       4.753  -2.671  -3.051  1.00  0.00     0.047 A 
ATOM     33  C   UNL     1       3.336  -1.425  -4.584  1.00  0.00    -0.009 A 
ATOM     34  C   UNL     1       4.417  -3.861  -3.696  1.00  0.00     0.004 A 
ATOM     35  C   UNL     1       2.975  -2.635  -5.195  1.00  0.00     0.007 A 
ATOM     36  C   UNL     1       2.753  -0.159  -5.136  1.00  0.00     0.048 C 
ATOM     37  C   UNL     1       3.517  -3.844  -4.759  1.00  0.00     0.001 A 
ENDBRANCH  30  31
ENDBRANCH  29  30
ENDBRANCH  24  29
ENDBRANCH   6  21
ENDBRANCH   3   5
ENDBRANCH   2   3
ENDBRANCH   1   2
BRANCH   1  38
ATOM     38  C   UNL     1       1.813   4.772   1.748  1.00  0.00     0.275 C 
BRANCH  38  39
ATOM     39  O   UNL     1       3.221   4.474   1.822  1.00  0.00    -0.458 OA
BRANCH  39  40
ATOM     40  C   UNL     1       3.754   4.017   0.666  1.00  0.00     0.338 C 
ATOM     41  O   UNL     1       3.159   3.828  -0.378  1.00  0.00    -0.246 OA
BRANCH  40  42
ATOM     42  C   UNL     1       5.206   3.819   0.775  1.00  0.00     0.060 A 
ATOM     43  C   UNL     1       6.004   4.225  -0.301  1.00  0.00     0.016 A 
ATOM     44  C   UNL     1       5.768   3.165   1.872  1.00  0.00     0.016 A 
ATOM     45  C   UNL     1       7.372   3.973  -0.284  1.00  0.00     0.010 A 
ATOM     46  C   UNL     1       7.142   2.925   1.894  1.00  0.00     0.010 A 
ATOM     47  C   UNL     1       7.951   3.324   0.816  1.00  0.00    -0.014 A 
BRANCH  47  48
ATOM     48  C   UNL     1       9.411   3.089   0.856  1.00  0.00     0.031 A 
ATOM     49  C   UNL     1       9.966   1.711   0.651  1.00  0.00     0.074 A 
ATOM     50  C   UNL     1      10.232   4.126   1.099  1.00  0.00     0.049 A 
ATOM     51  N   UNL     1      11.204   1.299   0.737  1.00  0.00    -0.248 NA
ATOM     52  C   UNL     1       9.000   0.656   0.310  1.00  0.00     0.031 C 
ATOM     53  C   UNL     1       9.804   5.512   1.296  1.00  0.00     0.029 A 
ATOM     54  N   UNL     1      11.596   4.173   1.235  1.00  0.00    -0.354 N 
ATOM     55  C   UNL     1      11.170  -0.062   0.468  1.00  0.00     0.074 A 
ATOM     56  C   UNL     1       9.783  -0.412   0.242  1.00  0.00     0.031 C 
ATOM     57  C   UNL     1      10.884   6.273   1.530  1.00  0.00     0.029 A 
ATOM     58  C   UNL     1      12.071   5.424   1.540  1.00  0.00     0.049 A 
ATOM     59  H   UNL     1      12.177   3.386   1.123  1.00  0.00     0.167 HD
ATOM     60  C   UNL     1      12.204  -0.935   0.407  1.00  0.00     0.037 A 
ATOM     61  C   UNL     1      13.321   5.833   1.821  1.00  0.00     0.037 A 
ATOM     62  C   UNL     1      13.582  -0.577   0.629  1.00  0.00     0.049 A 
ATOM     63  C   UNL     1      14.442   4.833   1.802  1.00  0.00     0.074 A 
ATOM     64  C   UNL     1      14.704  -1.386   0.574  1.00  0.00     0.029 A 
ATOM     65  N   UNL     1      14.025   0.698   0.950  1.00  0.00    -0.354 N 
ATOM     66  N   UNL     1      14.401   3.551   1.532  1.00  0.00    -0.248 NA
ATOM     67  C   UNL     1      15.783   5.338   2.127  1.00  0.00     0.031 C 
ATOM     68  C   UNL     1      15.822  -0.609   0.901  1.00  0.00     0.029 A 
ATOM     69  C   UNL     1      15.401   0.693   1.116  1.00  0.00     0.049 A 
ATOM     70  H   UNL     1      13.448   1.489   1.046  1.00  0.00     0.167 HD
ATOM     71  C   UNL     1      15.710   3.100   1.629  1.00  0.00     0.074 A 
ATOM     72  C   UNL     1      16.524   4.249   1.971  1.00  0.00     0.031 C 
ATOM     73  C   UNL     1      16.196   1.847   1.452  1.00  0.00     0.037 A 
BRANCH  60  74
ATOM     74  C   UNL     1      11.883  -2.369   0.104  1.00  0.00     0.057 A 
ATOM     75  C   UNL     1      11.495  -2.784  -1.177  1.00  0.00     0.134 A 
ATOM     76  C   UNL     1      12.000  -3.352   1.094  1.00  0.00     0.134 A 
ATOM     77  F   UNL     1      11.354  -1.890  -2.167  1.00  0.00    -0.206 F 
ATOM     78  C   UNL     1      11.217  -4.123  -1.457  1.00  0.00     0.040 A 
ATOM     79  C   UNL     1      11.747  -4.698   0.820  1.00  0.00     0.040 A 
ATOM     80  F   UNL     1      12.373  -3.024   2.340  1.00  0.00    -0.206 F 
ATOM     81  C   UNL     1      11.349  -5.085  -0.457  1.00  0.00     0.006 A 
ENDBRANCH  60  74
BRANCH  61  82
ATOM     82  C   UNL     1      13.576   7.256   2.156  1.00  0.00     0.057 A 
ATOM     83  C   UNL     1      14.275   8.090   1.278  1.00  0.00     0.134 A 
ATOM     84  C   UNL     1      13.131   7.812   3.361  1.00  0.00     0.134 A 
ATOM     85  F   UNL     1      14.744   7.608   0.117  1.00  0.00    -0.206 F 
ATOM     86  C   UNL     1      14.538   9.424   1.593  1.00  0.00     0.040 A 
ATOM     87  C   UNL     1      13.365   9.150   3.678  1.00  0.00     0.040 A 
ATOM     88  F   UNL     1      12.451   7.064   4.242  1.00  0.00    -0.206 F 
ATOM     89  C   UNL     1      14.077   9.959   2.795  1.00  0.00     0.006 A 
ENDBRANCH  61  82
BRANCH  73  90
ATOM     90  C   UNL     1      17.678   1.666   1.590  1.00  0.00     0.057 A 
ATOM     91  C   UNL     1      18.313   1.696   2.838  1.00  0.00     0.134 A 
ATOM     92  C   UNL     1      18.476   1.434   0.462  1.00  0.00     0.134 A 
ATOM     93  F   UNL     1      17.607   1.929   3.955  1.00  0.00    -0.206 F 
ATOM     94  C   UNL     1      19.693   1.524   2.957  1.00  0.00     0.040 A 
ATOM     95  C   UNL     1      19.853   1.237   0.571  1.00  0.00     0.040 A 
ATOM     96  F   UNL     1      17.929   1.388  -0.762  1.00  0.00    -0.206 F 
ATOM     97  C   UNL     1      20.466   1.288   1.822  1.00  0.00     0.006 A 
ENDBRANCH  73  90
ENDBRANCH  47  48
ENDBRANCH  40  42
ENDBRANCH  39  40
ENDBRANCH  38  39
ENDBRANCH   1  38
TORSDOF 16
