REMARK SMILES CCCC[C@@H](C(=O)OCCOC(=O)c1ccc(-c2c3nc(c(-c4c(F)cccc4F)c4ccc([nH]4)c(-c4c(F)cccc4F)c4nc(c(-c5c(F)cccc5F)c5ccc2[nH]5)C=C4)C=C3)cc1)[C@]1(O)COc2cc(O)ccc21
REMARK SMILES IDX 9 1 8 2 6 3 7 4 5 5 4 6 3 7 2 8 1 9 68 10 70 11 78 12 71 13
REMARK SMILES IDX 72 14 77 15 73 16 76 17 74 18 69 19 75 21 10 23 11 24 12 25
REMARK SMILES IDX 13 26 14 27 15 28 67 29 16 30 66 31 17 32 18 33 19 34 60 35
REMARK SMILES IDX 20 36 65 37 59 38 61 39 21 40 64 41 58 42 57 43 22 45 48 46
REMARK SMILES IDX 31 47 47 48 32 49 35 50 46 51 62 52 33 53 34 54 45 56 63 57
REMARK SMILES IDX 36 58 23 59 24 60 29 61 25 62 26 63 28 64 30 65 27 66 49 67
REMARK SMILES IDX 50 68 55 69 51 70 52 71 54 72 56 73 53 74 37 75 38 76 43 77
REMARK SMILES IDX 39 78 40 79 42 80 44 81 41 82
REMARK H PARENT 69 20 75 22 61 44 35 55
REMARK Flexibility Score: inf
ROOT
ATOM      1  C   UNL     1      -1.469  -3.691   4.549  1.00  0.00     0.274 C 
ENDROOT
BRANCH   1   2
ATOM      2  O   UNL     1      -1.169  -2.517   3.778  1.00  0.00    -0.462 OA
BRANCH   2   3
ATOM      3  C   UNL     1      -1.949  -2.320   2.681  1.00  0.00     0.312 C 
ATOM      4  O   UNL     1      -2.766  -3.126   2.251  1.00  0.00    -0.252 OA
BRANCH   3   5
ATOM      5  C   UNL     1      -1.732  -0.938   2.079  1.00  0.00     0.139 C 
BRANCH   5   6
ATOM      6  C   UNL     1      -0.226  -0.542   2.119  1.00  0.00     0.019 C 
BRANCH   6   7
ATOM      7  C   UNL     1       0.754  -1.477   1.396  1.00  0.00     0.001 C 
BRANCH   7   8
ATOM      8  C   UNL     1       0.678  -1.451  -0.128  1.00  0.00    -0.003 C 
ATOM      9  C   UNL     1       1.096  -0.115  -0.725  1.00  0.00     0.004 C 
ENDBRANCH   7   8
ENDBRANCH   6   7
ENDBRANCH   5   6
BRANCH   5  10
ATOM     10  C   UNL     1      -2.682   0.137   2.730  1.00  0.00     0.140 C 
ATOM     11  C   UNL     1      -2.005   0.909   3.878  1.00  0.00     0.270 C 
ATOM     12  C   UNL     1      -3.809  -0.373   3.598  1.00  0.00     0.030 A 
ATOM     13  O   UNL     1      -2.054   0.025   5.009  1.00  0.00    -0.490 OA
ATOM     14  C   UNL     1      -3.313  -0.496   4.892  1.00  0.00     0.129 A 
ATOM     15  C   UNL     1      -5.139  -0.664   3.361  1.00  0.00     0.014 A 
ATOM     16  C   UNL     1      -4.024  -1.035   5.938  1.00  0.00     0.093 A 
ATOM     17  C   UNL     1      -5.923  -1.127   4.437  1.00  0.00     0.047 A 
ATOM     18  C   UNL     1      -5.351  -1.337   5.701  1.00  0.00     0.119 A 
BRANCH  10  19
ATOM     19  O   UNL     1      -3.132   1.057   1.738  1.00  0.00    -0.381 OA
ATOM     20  H   UNL     1      -2.377   1.356   1.207  1.00  0.00     0.212 HD
ENDBRANCH  10  19
BRANCH  18  21
ATOM     21  O   UNL     1      -6.072  -1.812   6.756  1.00  0.00    -0.508 OA
ATOM     22  H   UNL     1      -5.658  -1.940   7.587  1.00  0.00     0.293 HD
ENDBRANCH  18  21
ENDBRANCH   5  10
ENDBRANCH   3   5
ENDBRANCH   2   3
ENDBRANCH   1   2
BRANCH   1  23
ATOM     23  C   UNL     1      -0.601  -3.697   5.811  1.00  0.00     0.275 C 
BRANCH  23  24
ATOM     24  O   UNL     1      -0.955  -2.592   6.674  1.00  0.00    -0.458 OA
BRANCH  24  25
ATOM     25  C   UNL     1       0.014  -1.672   6.905  1.00  0.00     0.338 C 
ATOM     26  O   UNL     1       1.186  -1.734   6.559  1.00  0.00    -0.246 OA
BRANCH  25  27
ATOM     27  C   UNL     1      -0.583  -0.454   7.503  1.00  0.00     0.060 A 
ATOM     28  C   UNL     1      -0.259   0.769   6.904  1.00  0.00     0.016 A 
ATOM     29  C   UNL     1      -1.525  -0.497   8.539  1.00  0.00     0.016 A 
ATOM     30  C   UNL     1      -0.968   1.920   7.243  1.00  0.00     0.010 A 
ATOM     31  C   UNL     1      -2.194   0.676   8.923  1.00  0.00     0.010 A 
ATOM     32  C   UNL     1      -1.938   1.886   8.256  1.00  0.00    -0.014 A 
BRANCH  32  33
ATOM     33  C   UNL     1      -2.485   3.185   8.719  1.00  0.00     0.031 A 
ATOM     34  C   UNL     1      -1.608   4.008   9.619  1.00  0.00     0.074 A 
ATOM     35  C   UNL     1      -3.637   3.698   8.245  1.00  0.00     0.049 A 
ATOM     36  N   UNL     1      -1.755   5.240  10.030  1.00  0.00    -0.248 NA
ATOM     37  C   UNL     1      -0.370   3.357  10.080  1.00  0.00     0.031 C 
ATOM     38  C   UNL     1      -4.534   3.045   7.294  1.00  0.00     0.029 A 
ATOM     39  N   UNL     1      -4.229   4.917   8.481  1.00  0.00    -0.354 N 
ATOM     40  C   UNL     1      -0.610   5.523  10.761  1.00  0.00     0.074 A 
ATOM     41  C   UNL     1       0.212   4.333  10.754  1.00  0.00     0.031 C 
ATOM     42  C   UNL     1      -5.556   3.877   7.016  1.00  0.00     0.029 A 
ATOM     43  C   UNL     1      -5.398   5.113   7.783  1.00  0.00     0.049 A 
ATOM     44  H   UNL     1      -3.851   5.588   9.094  1.00  0.00     0.167 HD
ATOM     45  C   UNL     1      -0.268   6.670  11.391  1.00  0.00     0.037 A 
ATOM     46  C   UNL     1      -6.238   6.170   7.773  1.00  0.00     0.037 A 
ATOM     47  C   UNL     1      -1.115   7.825  11.480  1.00  0.00     0.049 A 
ATOM     48  C   UNL     1      -5.905   7.383   8.612  1.00  0.00     0.074 A 
ATOM     49  C   UNL     1      -0.916   8.991  12.195  1.00  0.00     0.029 A 
ATOM     50  N   UNL     1      -2.343   7.944  10.847  1.00  0.00    -0.354 N 
ATOM     51  N   UNL     1      -4.828   7.638   9.315  1.00  0.00    -0.248 NA
ATOM     52  C   UNL     1      -6.912   8.456   8.658  1.00  0.00     0.031 C 
ATOM     53  C   UNL     1      -2.048   9.798  12.033  1.00  0.00     0.029 A 
ATOM     54  C   UNL     1      -2.926   9.156  11.173  1.00  0.00     0.049 A 
ATOM     55  H   UNL     1      -2.742   7.267  10.253  1.00  0.00     0.167 HD
ATOM     56  C   UNL     1      -5.016   8.903   9.862  1.00  0.00     0.074 A 
ATOM     57  C   UNL     1      -6.301   9.375   9.393  1.00  0.00     0.031 C 
ATOM     58  C   UNL     1      -4.202   9.612  10.685  1.00  0.00     0.037 A 
BRANCH  45  59
ATOM     59  C   UNL     1       1.052   6.667  12.098  1.00  0.00     0.057 A 
ATOM     60  C   UNL     1       2.263   6.728  11.396  1.00  0.00     0.134 A 
ATOM     61  C   UNL     1       1.111   6.521  13.488  1.00  0.00     0.134 A 
ATOM     62  F   UNL     1       2.271   6.832  10.059  1.00  0.00    -0.206 F 
ATOM     63  C   UNL     1       3.489   6.613  12.053  1.00  0.00     0.040 A 
ATOM     64  C   UNL     1       2.330   6.426  14.158  1.00  0.00     0.040 A 
ATOM     65  F   UNL     1      -0.015   6.443  14.213  1.00  0.00    -0.206 F 
ATOM     66  C   UNL     1       3.524   6.461  13.439  1.00  0.00     0.006 A 
ENDBRANCH  45  59
BRANCH  46  67
ATOM     67  C   UNL     1      -7.497   6.145   6.976  1.00  0.00     0.057 A 
ATOM     68  C   UNL     1      -7.719   7.046   5.926  1.00  0.00     0.134 A 
ATOM     69  C   UNL     1      -8.549   5.281   7.307  1.00  0.00     0.134 A 
ATOM     70  F   UNL     1      -6.767   7.925   5.578  1.00  0.00    -0.206 F 
ATOM     71  C   UNL     1      -8.944   7.107   5.255  1.00  0.00     0.040 A 
ATOM     72  C   UNL     1      -9.768   5.312   6.627  1.00  0.00     0.040 A 
ATOM     73  F   UNL     1      -8.413   4.401   8.309  1.00  0.00    -0.206 F 
ATOM     74  C   UNL     1      -9.973   6.237   5.605  1.00  0.00     0.006 A 
ENDBRANCH  46  67
BRANCH  58  75
ATOM     75  C   UNL     1      -4.659  10.980  11.104  1.00  0.00     0.057 A 
ATOM     76  C   UNL     1      -5.708  11.165  12.014  1.00  0.00     0.134 A 
ATOM     77  C   UNL     1      -4.005  12.124  10.630  1.00  0.00     0.134 A 
ATOM     78  F   UNL     1      -6.382  10.111  12.498  1.00  0.00    -0.206 F 
ATOM     79  C   UNL     1      -6.104  12.441  12.419  1.00  0.00     0.040 A 
ATOM     80  C   UNL     1      -4.374  13.403  11.049  1.00  0.00     0.040 A 
ATOM     81  F   UNL     1      -2.985  12.018   9.765  1.00  0.00    -0.206 F 
ATOM     82  C   UNL     1      -5.431  13.564  11.942  1.00  0.00     0.006 A 
ENDBRANCH  58  75
ENDBRANCH  32  33
ENDBRANCH  25  27
ENDBRANCH  24  25
ENDBRANCH  23  24
ENDBRANCH   1  23
TORSDOF 17
