REMARK SMILES CCN1C(=O)[C@@H](CC(=O)Nc2cccc(C(=O)OCCOC(=O)c3ccc(-c4c5nc(c(-c6c(F)cccc6F)c6ccc([nH]6)c(-c6c(F)cccc6F)c6nc(c(-c7c(F)cccc7F)c7ccc4[nH]7)C=C6)C=C5)cc3)c2)S/C1=[NH+]\c1cc(Cl)c(O)c(Cl)c1
REMARK SMILES IDX 18 1 16 2 17 3 15 4 11 5 12 6 78 7 13 8 14 9 10 10 8 11 9 12
REMARK SMILES IDX 7 14 6 15 3 16 4 17 80 18 5 19 79 20 81 21 2 23 1 24 82 25
REMARK SMILES IDX 83 26 90 27 84 28 88 29 85 30 86 31 89 32 87 33 19 35 20 36
REMARK SMILES IDX 21 37 22 38 23 39 24 40 25 41 77 42 26 43 76 44 27 45 28 46
REMARK SMILES IDX 29 47 70 48 30 49 75 50 69 51 71 52 31 53 74 54 68 55 67 56
REMARK SMILES IDX 32 58 58 59 41 60 57 61 42 62 45 63 56 64 72 65 43 66 44 67
REMARK SMILES IDX 55 69 73 70 46 71 33 72 34 73 39 74 35 75 36 76 38 77 40 78
REMARK SMILES IDX 37 79 59 80 60 81 65 82 61 83 62 84 64 85 66 86 63 87 47 88
REMARK SMILES IDX 48 89 53 90 49 91 50 92 52 93 54 94 51 95
REMARK H PARENT 10 13 81 22 87 34 71 57 45 68
REMARK Flexibility Score: inf
ROOT
ATOM      1  O   UNL     1       1.949  -3.903   2.022  1.00  0.00    -0.458 OA
ENDROOT
BRANCH   1   2
ATOM      2  C   UNL     1       3.233  -3.935   1.586  1.00  0.00     0.338 C 
ATOM      3  O   UNL     1       4.035  -3.029   1.711  1.00  0.00    -0.246 OA
BRANCH   2   4
ATOM      4  C   UNL     1       3.574  -5.156   0.817  1.00  0.00     0.062 A 
ATOM      5  C   UNL     1       2.884  -6.832  -0.754  1.00  0.00     0.042 A 
ATOM      6  C   UNL     1       4.215  -7.099  -1.082  1.00  0.00     0.026 A 
ATOM      7  C   UNL     1       2.580  -5.984   0.306  1.00  0.00     0.041 A 
ATOM      8  C   UNL     1       5.231  -6.345  -0.500  1.00  0.00     0.003 A 
ATOM      9  C   UNL     1       4.902  -5.331   0.396  1.00  0.00     0.016 A 
BRANCH   5  10
ATOM     10  N   UNL     1       1.869  -7.414  -1.513  1.00  0.00    -0.326 N 
ATOM     11  C   UNL     1       0.710  -6.881  -2.008  1.00  0.00     0.226 C 
ATOM     12  O   UNL     1      -0.180  -7.686  -2.310  1.00  0.00    -0.275 OA
ATOM     13  H   UNL     1       2.010  -8.365  -1.727  1.00  0.00     0.169 HD
BRANCH  11  14
ATOM     14  C   UNL     1       0.574  -5.421  -2.494  1.00  0.00     0.128 C 
BRANCH  14  15
ATOM     15  C   UNL     1       0.904  -4.231  -1.608  1.00  0.00     0.183 C 
ATOM     16  N   UNL     1       0.738  -1.828  -1.565  1.00  0.00    -0.190 N 
ATOM     17  C   UNL     1       0.011  -3.000  -1.740  1.00  0.00     0.324 C 
ATOM     18  C   UNL     1       2.104  -1.940  -1.579  1.00  0.00     0.319 C 
ATOM     19  O   UNL     1      -1.205  -3.061  -1.876  1.00  0.00    -0.245 OA
ATOM     20  S   UNL     1       2.555  -3.574  -1.952  1.00  0.00    -0.022 SA
ATOM     21  N   UNL     1       2.878  -0.939  -1.322  1.00  0.00    -0.235 N 
ATOM     22  H   UNL     1       2.505  -0.029  -1.367  1.00  0.00     0.313 HD
BRANCH  16  23
ATOM     23  C   UNL     1       0.075  -0.535  -1.410  1.00  0.00     0.243 C 
ATOM     24  C   UNL     1       0.321   0.144  -0.062  1.00  0.00     0.054 C 
ENDBRANCH  16  23
BRANCH  21  25
ATOM     25  C   UNL     1       4.229  -1.098  -0.981  1.00  0.00     0.128 A 
ATOM     26  C   UNL     1       4.616  -0.551   0.246  1.00  0.00     0.076 A 
ATOM     27  C   UNL     1       5.169  -1.803  -1.732  1.00  0.00     0.076 A 
ATOM     28  C   UNL     1       5.861  -0.837   0.794  1.00  0.00     0.088 A 
ATOM     29  C   UNL     1       6.402  -2.123  -1.172  1.00  0.00     0.088 A 
ATOM     30  Cl  UNL     1       6.198  -0.186   2.354  1.00  0.00    -0.080 Cl
ATOM     31  C   UNL     1       6.739  -1.671   0.104  1.00  0.00     0.153 A 
ATOM     32  Cl  UNL     1       7.481  -3.155  -2.041  1.00  0.00    -0.080 Cl
BRANCH  31  33
ATOM     33  O   UNL     1       7.902  -2.082   0.683  1.00  0.00    -0.505 OA
ATOM     34  H   UNL     1       8.131  -1.780   1.540  1.00  0.00     0.293 HD
ENDBRANCH  31  33
ENDBRANCH  21  25
ENDBRANCH  14  15
ENDBRANCH  11  14
ENDBRANCH   5  10
ENDBRANCH   2   4
ENDBRANCH   1   2
BRANCH   1  35
ATOM     35  C   UNL     1       1.552  -2.648   2.617  1.00  0.00     0.275 C 
BRANCH  35  36
ATOM     36  C   UNL     1       1.854  -2.558   4.121  1.00  0.00     0.275 C 
BRANCH  36  37
ATOM     37  O   UNL     1       3.264  -2.436   4.404  1.00  0.00    -0.458 OA
BRANCH  37  38
ATOM     38  C   UNL     1       3.913  -3.603   4.642  1.00  0.00     0.338 C 
ATOM     39  O   UNL     1       3.405  -4.710   4.729  1.00  0.00    -0.246 OA
BRANCH  38  40
ATOM     40  C   UNL     1       5.379  -3.406   4.559  1.00  0.00     0.060 A 
ATOM     41  C   UNL     1       6.062  -4.182   3.621  1.00  0.00     0.016 A 
ATOM     42  C   UNL     1       6.089  -2.524   5.373  1.00  0.00     0.016 A 
ATOM     43  C   UNL     1       7.430  -4.024   3.423  1.00  0.00     0.010 A 
ATOM     44  C   UNL     1       7.486  -2.420   5.230  1.00  0.00     0.010 A 
ATOM     45  C   UNL     1       8.163  -3.160   4.245  1.00  0.00    -0.014 A 
BRANCH  45  46
ATOM     46  C   UNL     1       9.646  -3.198   4.130  1.00  0.00     0.031 A 
ATOM     47  C   UNL     1      10.383  -4.311   4.807  1.00  0.00     0.074 A 
ATOM     48  C   UNL     1      10.320  -2.348   3.334  1.00  0.00     0.049 A 
ATOM     49  N   UNL     1      11.662  -4.576   4.798  1.00  0.00    -0.248 NA
ATOM     50  C   UNL     1       9.575  -5.234   5.619  1.00  0.00     0.031 C 
ATOM     51  C   UNL     1       9.717  -1.235   2.627  1.00  0.00     0.029 A 
ATOM     52  N   UNL     1      11.634  -2.312   2.933  1.00  0.00    -0.354 N 
ATOM     53  C   UNL     1      11.823  -5.659   5.646  1.00  0.00     0.074 A 
ATOM     54  C   UNL     1      10.506  -6.030   6.120  1.00  0.00     0.031 C 
ATOM     55  C   UNL     1      10.605  -0.706   1.773  1.00  0.00     0.029 A 
ATOM     56  C   UNL     1      11.890  -1.362   1.967  1.00  0.00     0.049 A 
ATOM     57  H   UNL     1      12.327  -2.908   3.300  1.00  0.00     0.167 HD
ATOM     58  C   UNL     1      12.976  -6.255   6.028  1.00  0.00     0.037 A 
ATOM     59  C   UNL     1      13.034  -1.038   1.332  1.00  0.00     0.037 A 
ATOM     60  C   UNL     1      14.281  -5.856   5.569  1.00  0.00     0.049 A 
ATOM     61  C   UNL     1      14.299  -1.724   1.772  1.00  0.00     0.074 A 
ATOM     62  C   UNL     1      15.515  -6.362   5.937  1.00  0.00     0.029 A 
ATOM     63  N   UNL     1      14.522  -4.848   4.646  1.00  0.00    -0.354 N 
ATOM     64  N   UNL     1      14.451  -2.713   2.619  1.00  0.00    -0.248 NA
ATOM     65  C   UNL     1      15.558  -1.208   1.217  1.00  0.00     0.031 C 
ATOM     66  C   UNL     1      16.504  -5.628   5.273  1.00  0.00     0.029 A 
ATOM     67  C   UNL     1      15.886  -4.707   4.443  1.00  0.00     0.049 A 
ATOM     68  H   UNL     1      13.826  -4.311   4.202  1.00  0.00     0.167 HD
ATOM     69  C   UNL     1      15.819  -2.919   2.722  1.00  0.00     0.074 A 
ATOM     70  C   UNL     1      16.450  -1.996   1.799  1.00  0.00     0.031 C 
ATOM     71  C   UNL     1      16.495  -3.772   3.530  1.00  0.00     0.037 A 
BRANCH  58  72
ATOM     72  C   UNL     1      12.867  -7.328   7.069  1.00  0.00     0.057 A 
ATOM     73  C   UNL     1      12.322  -8.588   6.795  1.00  0.00     0.134 A 
ATOM     74  C   UNL     1      13.299  -7.079   8.379  1.00  0.00     0.134 A 
ATOM     75  F   UNL     1      11.861  -8.878   5.569  1.00  0.00    -0.206 F 
ATOM     76  C   UNL     1      12.189  -9.555   7.793  1.00  0.00     0.040 A 
ATOM     77  C   UNL     1      13.198  -8.048   9.377  1.00  0.00     0.040 A 
ATOM     78  F   UNL     1      13.822  -5.889   8.710  1.00  0.00    -0.206 F 
ATOM     79  C   UNL     1      12.634  -9.288   9.087  1.00  0.00     0.006 A 
ENDBRANCH  58  72
BRANCH  59  80
ATOM     80  C   UNL     1      13.072   0.025   0.287  1.00  0.00     0.057 A 
ATOM     81  C   UNL     1      13.490  -0.254  -1.022  1.00  0.00     0.134 A 
ATOM     82  C   UNL     1      12.739   1.355   0.574  1.00  0.00     0.134 A 
ATOM     83  F   UNL     1      13.859  -1.498  -1.364  1.00  0.00    -0.206 F 
ATOM     84  C   UNL     1      13.587   0.746  -1.995  1.00  0.00     0.040 A 
ATOM     85  C   UNL     1      12.790   2.356  -0.398  1.00  0.00     0.040 A 
ATOM     86  F   UNL     1      12.352   1.706   1.809  1.00  0.00    -0.206 F 
ATOM     87  C   UNL     1      13.226   2.055  -1.685  1.00  0.00     0.006 A 
ENDBRANCH  59  80
BRANCH  71  88
ATOM     88  C   UNL     1      17.993  -3.745   3.437  1.00  0.00     0.057 A 
ATOM     89  C   UNL     1      18.744  -2.660   3.909  1.00  0.00     0.134 A 
ATOM     90  C   UNL     1      18.692  -4.819   2.873  1.00  0.00     0.134 A 
ATOM     91  F   UNL     1      18.135  -1.592   4.446  1.00  0.00    -0.206 F 
ATOM     92  C   UNL     1      20.134  -2.629   3.791  1.00  0.00     0.040 A 
ATOM     93  C   UNL     1      20.084  -4.814   2.778  1.00  0.00     0.040 A 
ATOM     94  F   UNL     1      18.035  -5.893   2.410  1.00  0.00    -0.206 F 
ATOM     95  C   UNL     1      20.808  -3.711   3.228  1.00  0.00     0.006 A 
ENDBRANCH  71  88
ENDBRANCH  45  46
ENDBRANCH  38  40
ENDBRANCH  37  38
ENDBRANCH  36  37
ENDBRANCH  35  36
ENDBRANCH   1  35
TORSDOF 17
