REMARK SMILES Cc1c(CC(=O)N[C@H](CO)C(=O)OCCOC(=O)c2ccc(-c3c4nc(c(-c5c(F)cccc5F)c5ccc([nH]5)c(-c5c(F)cccc5F)c5nc(c(-c6c(F)cccc6F)c6ccc3[nH]6)C=C5)C=C4)cc2)cc(-c2ccc(S(C)(=O)=O)cc2)n1-c1ccc(F)cc1
REMARK SMILES IDX 13 1 11 2 12 3 8 4 7 5 5 6 6 7 4 9 3 10 1 11 2 12 85 13
REMARK SMILES IDX 73 14 74 15 86 16 87 17 92 18 88 19 91 20 89 21 90 22 75 23
REMARK SMILES IDX 76 24 84 25 77 26 83 27 78 28 79 29 80 30 81 31 82 32 9 33
REMARK SMILES IDX 10 34 14 36 15 37 16 38 17 39 18 40 19 41 20 42 72 43 21 44
REMARK SMILES IDX 71 45 22 46 23 47 24 48 65 49 25 50 70 51 64 52 66 53 26 54
REMARK SMILES IDX 69 55 63 56 62 57 27 59 53 60 36 61 52 62 37 63 40 64 51 65
REMARK SMILES IDX 67 66 38 67 39 68 50 70 68 71 41 72 28 73 29 74 34 75 30 76
REMARK SMILES IDX 31 77 33 78 35 79 32 80 54 81 55 82 60 83 56 84 57 85 59 86
REMARK SMILES IDX 61 87 58 88 42 89 43 90 48 91 44 92 45 93 47 94 49 95 46 96
REMARK H PARENT 7 8 10 35 66 58 40 69
REMARK Flexibility Score: inf
ROOT
ATOM      1  O   UNL     1      -3.856   0.245   2.960  1.00  0.00    -0.460 OA
ENDROOT
BRANCH   1   2
ATOM      2  C   UNL     1      -3.494   1.531   2.693  1.00  0.00     0.331 C 
ATOM      3  O   UNL     1      -3.766   2.466   3.440  1.00  0.00    -0.250 OA
BRANCH   2   4
ATOM      4  C   UNL     1      -2.833   1.741   1.316  1.00  0.00     0.218 C 
BRANCH   4   5
ATOM      5  N   UNL     1      -3.617   2.409   0.238  1.00  0.00    -0.341 N 
ATOM      6  C   UNL     1      -4.357   3.545   0.162  1.00  0.00     0.225 C 
ATOM      7  O   UNL     1      -4.339   4.127  -0.930  1.00  0.00    -0.275 OA
ATOM      8  H   UNL     1      -3.593   1.913  -0.612  1.00  0.00     0.164 HD
BRANCH   6   9
ATOM      9  C   UNL     1      -5.261   4.044   1.281  1.00  0.00     0.137 C 
BRANCH   9  10
ATOM     10  C   UNL     1      -6.524   3.228   1.442  1.00  0.00    -0.017 A 
ATOM     11  C   UNL     1      -7.386   3.081  -1.000  1.00  0.00     0.065 C 
ATOM     12  C   UNL     1      -7.376   2.745   0.457  1.00  0.00     0.024 A 
ATOM     13  N   UNL     1      -8.300   1.886   1.049  1.00  0.00    -0.314 N 
ATOM     14  C   UNL     1      -7.116   2.851   2.680  1.00  0.00     0.033 A 
ATOM     15  C   UNL     1      -8.087   1.887   2.435  1.00  0.00     0.053 A 
BRANCH  13  16
ATOM     16  C   UNL     1      -9.210   1.025   0.366  1.00  0.00     0.046 A 
ATOM     17  C   UNL     1     -10.502   0.827   0.878  1.00  0.00     0.029 A 
ATOM     18  C   UNL     1      -8.744   0.240  -0.699  1.00  0.00     0.029 A 
ATOM     19  C   UNL     1     -11.309  -0.179   0.346  1.00  0.00     0.041 A 
ATOM     20  C   UNL     1      -9.556  -0.768  -1.219  1.00  0.00     0.041 A 
ATOM     21  C   UNL     1     -10.824  -0.974  -0.686  1.00  0.00     0.123 A 
ATOM     22  F   UNL     1     -11.579  -1.976  -1.156  1.00  0.00    -0.207 F 
ENDBRANCH  13  16
BRANCH  15  23
ATOM     23  C   UNL     1      -8.561   0.846   3.384  1.00  0.00    -0.001 A 
ATOM     24  C   UNL     1      -8.519  -0.513   3.012  1.00  0.00     0.011 A 
ATOM     25  C   UNL     1      -8.896   1.151   4.711  1.00  0.00     0.011 A 
ATOM     26  C   UNL     1      -8.806  -1.536   3.916  1.00  0.00     0.021 A 
ATOM     27  C   UNL     1      -9.174   0.128   5.635  1.00  0.00     0.021 A 
ATOM     28  C   UNL     1      -9.120  -1.209   5.231  1.00  0.00     0.067 A 
BRANCH  28  29
ATOM     29  S   UNL     1      -9.289  -2.530   6.408  1.00  0.00     0.175 S 
ATOM     30  C   UNL     1     -10.624  -3.519   5.787  1.00  0.00     0.163 C 
ATOM     31  O   UNL     1      -8.069  -3.307   6.329  1.00  0.00    -0.224 OA
ATOM     32  O   UNL     1      -9.722  -1.944   7.667  1.00  0.00    -0.224 OA
ENDBRANCH  28  29
ENDBRANCH  15  23
ENDBRANCH   9  10
ENDBRANCH   6   9
ENDBRANCH   4   5
BRANCH   4  33
ATOM     33  C   UNL     1      -2.283   0.431   0.711  1.00  0.00     0.193 C 
BRANCH  33  34
ATOM     34  O   UNL     1      -1.326   0.758  -0.309  1.00  0.00    -0.394 OA
ATOM     35  H   UNL     1      -1.757   1.288  -0.999  1.00  0.00     0.210 HD
ENDBRANCH  33  34
ENDBRANCH   4  33
ENDBRANCH   2   4
ENDBRANCH   1   2
BRANCH   1  36
ATOM     36  C   UNL     1      -5.131   0.144   3.622  1.00  0.00     0.274 C 
BRANCH  36  37
ATOM     37  C   UNL     1      -5.208  -0.424   5.054  1.00  0.00     0.275 C 
BRANCH  37  38
ATOM     38  O   UNL     1      -4.996   0.459   6.197  1.00  0.00    -0.458 OA
BRANCH  38  39
ATOM     39  C   UNL     1      -4.111  -0.020   7.128  1.00  0.00     0.338 C 
ATOM     40  O   UNL     1      -3.187  -0.774   6.854  1.00  0.00    -0.246 OA
BRANCH  39  41
ATOM     41  C   UNL     1      -4.420   0.338   8.575  1.00  0.00     0.060 A 
ATOM     42  C   UNL     1      -3.880   1.468   9.175  1.00  0.00     0.016 A 
ATOM     43  C   UNL     1      -4.994  -0.605   9.455  1.00  0.00     0.016 A 
ATOM     44  C   UNL     1      -3.919   1.633  10.605  1.00  0.00     0.010 A 
ATOM     45  C   UNL     1      -4.970  -0.466  10.906  1.00  0.00     0.010 A 
ATOM     46  C   UNL     1      -4.397   0.647  11.550  1.00  0.00    -0.014 A 
BRANCH  46  47
ATOM     47  C   UNL     1      -3.679   0.619  13.003  1.00  0.00     0.031 A 
ATOM     48  C   UNL     1      -2.239   0.724  12.625  1.00  0.00     0.074 A 
ATOM     49  C   UNL     1      -3.901   0.447  14.373  1.00  0.00     0.049 A 
ATOM     50  N   UNL     1      -1.718  -0.135  11.792  1.00  0.00    -0.248 NA
ATOM     51  C   UNL     1      -1.475   1.960  12.794  1.00  0.00     0.031 C 
ATOM     52  C   UNL     1      -5.171   0.176  15.068  1.00  0.00     0.029 A 
ATOM     53  N   UNL     1      -3.018   0.478  15.508  1.00  0.00    -0.354 N 
ATOM     54  C   UNL     1      -0.442   0.302  11.544  1.00  0.00     0.074 A 
ATOM     55  C   UNL     1      -0.441   1.689  11.990  1.00  0.00     0.031 C 
ATOM     56  C   UNL     1      -5.026   0.196  16.429  1.00  0.00     0.029 A 
ATOM     57  C   UNL     1      -3.631   0.411  16.816  1.00  0.00     0.049 A 
ATOM     58  H   UNL     1      -2.042   0.542  15.399  1.00  0.00     0.167 HD
ATOM     59  C   UNL     1       0.539  -0.632  11.705  1.00  0.00     0.037 A 
ATOM     60  C   UNL     1      -3.083   0.449  18.101  1.00  0.00     0.037 A 
ATOM     61  C   UNL     1       1.198  -0.496  12.974  1.00  0.00     0.049 A 
ATOM     62  C   UNL     1      -1.668   0.086  17.978  1.00  0.00     0.074 A 
ATOM     63  C   UNL     1       1.679   0.597  13.666  1.00  0.00     0.029 A 
ATOM     64  N   UNL     1       0.973  -1.490  13.903  1.00  0.00    -0.354 N 
ATOM     65  N   UNL     1      -1.289  -1.148  17.865  1.00  0.00    -0.248 NA
ATOM     66  C   UNL     1      -0.593   1.067  18.096  1.00  0.00     0.031 C 
ATOM     67  C   UNL     1       1.188   0.416  14.976  1.00  0.00     0.029 A 
ATOM     68  C   UNL     1       0.818  -0.912  15.142  1.00  0.00     0.049 A 
ATOM     69  H   UNL     1       0.931  -2.455  13.712  1.00  0.00     0.167 HD
ATOM     70  C   UNL     1      -0.038  -1.029  17.358  1.00  0.00     0.074 A 
ATOM     71  C   UNL     1       0.435   0.269  17.799  1.00  0.00     0.031 C 
ATOM     72  C   UNL     1       0.177  -1.669  16.185  1.00  0.00     0.037 A 
BRANCH  59  73
ATOM     73  C   UNL     1       0.252  -1.949  11.050  1.00  0.00     0.057 A 
ATOM     74  C   UNL     1       0.996  -2.321   9.930  1.00  0.00     0.134 A 
ATOM     75  C   UNL     1      -0.805  -2.799  11.427  1.00  0.00     0.134 A 
ATOM     76  F   UNL     1       2.058  -1.593   9.549  1.00  0.00    -0.206 F 
ATOM     77  C   UNL     1       0.661  -3.449   9.175  1.00  0.00     0.040 A 
ATOM     78  C   UNL     1      -1.185  -3.891  10.650  1.00  0.00     0.040 A 
ATOM     79  F   UNL     1      -1.483  -2.596  12.569  1.00  0.00    -0.206 F 
ATOM     80  C   UNL     1      -0.454  -4.214   9.513  1.00  0.00     0.006 A 
ENDBRANCH  59  73
BRANCH  60  81
ATOM     81  C   UNL     1      -3.402   0.574  19.617  1.00  0.00     0.057 A 
ATOM     82  C   UNL     1      -2.597  -0.096  20.604  1.00  0.00     0.134 A 
ATOM     83  C   UNL     1      -4.136   1.639  20.148  1.00  0.00     0.134 A 
ATOM     84  F   UNL     1      -1.865  -1.175  20.300  1.00  0.00    -0.206 F 
ATOM     85  C   UNL     1      -2.436   0.336  21.936  1.00  0.00     0.040 A 
ATOM     86  C   UNL     1      -4.016   2.054  21.505  1.00  0.00     0.040 A 
ATOM     87  F   UNL     1      -4.926   2.373  19.354  1.00  0.00    -0.206 F 
ATOM     88  C   UNL     1      -3.136   1.434  22.390  1.00  0.00     0.006 A 
ENDBRANCH  60  81
BRANCH  72  89
ATOM     89  C   UNL     1      -0.448  -3.046  16.038  1.00  0.00     0.057 A 
ATOM     90  C   UNL     1      -1.804  -3.391  16.241  1.00  0.00     0.134 A 
ATOM     91  C   UNL     1       0.410  -4.117  15.765  1.00  0.00     0.134 A 
ATOM     92  F   UNL     1      -2.761  -2.468  16.406  1.00  0.00    -0.206 F 
ATOM     93  C   UNL     1      -2.244  -4.721  16.269  1.00  0.00     0.040 A 
ATOM     94  C   UNL     1      -0.028  -5.446  15.736  1.00  0.00     0.040 A 
ATOM     95  F   UNL     1       1.709  -3.889  15.515  1.00  0.00    -0.206 F 
ATOM     96  C   UNL     1      -1.354  -5.755  16.016  1.00  0.00     0.006 A 
ENDBRANCH  72  89
ENDBRANCH  46  47
ENDBRANCH  39  41
ENDBRANCH  38  39
ENDBRANCH  37  38
ENDBRANCH  36  37
ENDBRANCH   1  36
TORSDOF 19
