REMARK SMILES Cc1nc(C(=O)OCCOC(=O)c2ccc(-c3c4nc(c(-c5c(F)cccc5F)c5ccc([nH]5)c(-c5c(F)cccc5F)c5nc(c(-c6c(F)cccc6F)c6ccc3[nH]6)C=C5)C=C4)cc2)nn1-c1cccc(C(F)(F)F)c1
REMARK SMILES IDX 8 1 7 2 5 3 6 4 4 5 1 6 2 7 3 8 68 9 67 10 69 11 70 12 78 13
REMARK SMILES IDX 71 14 73 15 72 16 74 17 75 18 76 19 77 20 9 21 10 22 11 23
REMARK SMILES IDX 12 24 13 25 14 26 66 27 15 28 65 29 16 30 17 31 18 32 59 33
REMARK SMILES IDX 19 34 64 35 58 36 60 37 20 38 63 39 57 40 56 41 21 43 47 44
REMARK SMILES IDX 30 45 46 46 31 47 34 48 45 49 61 50 32 51 33 52 44 54 62 55
REMARK SMILES IDX 35 56 22 57 23 58 28 59 24 60 25 61 27 62 29 63 26 64 48 65
REMARK SMILES IDX 49 66 54 67 50 68 51 69 53 70 55 71 52 72 36 73 37 74 42 75
REMARK SMILES IDX 38 76 39 77 41 78 43 79 40 80
REMARK H PARENT 60 42 34 53
REMARK Flexibility Score: inf
ROOT
ATOM      1  C   UNL     1      -1.729   2.370  -6.755  1.00  0.00     0.275 C 
ENDROOT
BRANCH   1   2
ATOM      2  O   UNL     1      -1.325   2.401  -5.379  1.00  0.00    -0.456 OA
BRANCH   2   3
ATOM      3  C   UNL     1      -1.526   1.262  -4.640  1.00  0.00     0.378 C 
ATOM      4  O   UNL     1      -2.153   0.284  -5.046  1.00  0.00    -0.242 OA
BRANCH   3   5
ATOM      5  C   UNL     1      -0.838   1.322  -3.338  1.00  0.00     0.260 A 
ATOM      6  C   UNL     1       0.789  -0.054  -0.466  1.00  0.00     0.090 C 
ATOM      7  C   UNL     1       0.253   0.721  -1.610  1.00  0.00     0.130 A 
ATOM      8  N   UNL     1      -0.421   0.214  -2.625  1.00  0.00    -0.206 NA
ATOM      9  N   UNL     1       0.254   2.101  -1.710  1.00  0.00    -0.217 N 
ATOM     10  N   UNL     1      -0.544   2.483  -2.731  1.00  0.00    -0.138 NA
BRANCH   9  11
ATOM     11  C   UNL     1       0.923   3.097  -0.956  1.00  0.00     0.067 A 
ATOM     12  C   UNL     1       0.318   4.359  -0.849  1.00  0.00     0.028 A 
ATOM     13  C   UNL     1       2.189   2.881  -0.400  1.00  0.00     0.041 A 
ATOM     14  C   UNL     1       0.951   5.389  -0.159  1.00  0.00     0.003 A 
ATOM     15  C   UNL     1       2.857   3.936   0.252  1.00  0.00     0.058 A 
ATOM     16  C   UNL     1       2.216   5.180   0.384  1.00  0.00     0.013 A 
BRANCH  15  17
ATOM     17  C   UNL     1       4.271   3.781   0.759  1.00  0.00     0.416 C 
ATOM     18  F   UNL     1       5.142   4.612   0.122  1.00  0.00    -0.166 F 
ATOM     19  F   UNL     1       4.384   4.066   2.086  1.00  0.00    -0.166 F 
ATOM     20  F   UNL     1       4.771   2.524   0.602  1.00  0.00    -0.166 F 
ENDBRANCH  15  17
ENDBRANCH   9  11
ENDBRANCH   3   5
ENDBRANCH   2   3
ENDBRANCH   1   2
BRANCH   1  21
ATOM     21  C   UNL     1      -0.627   1.825  -7.654  1.00  0.00     0.275 C 
BRANCH  21  22
ATOM     22  O   UNL     1      -0.513   0.408  -7.527  1.00  0.00    -0.458 OA
BRANCH  22  23
ATOM     23  C   UNL     1       0.415  -0.025  -6.646  1.00  0.00     0.338 C 
ATOM     24  O   UNL     1       0.993   0.638  -5.801  1.00  0.00    -0.246 OA
BRANCH  23  25
ATOM     25  C   UNL     1       0.803  -1.395  -7.007  1.00  0.00     0.060 A 
ATOM     26  C   UNL     1       1.780  -2.009  -6.220  1.00  0.00     0.016 A 
ATOM     27  C   UNL     1       0.409  -1.930  -8.244  1.00  0.00     0.016 A 
ATOM     28  C   UNL     1       2.488  -3.063  -6.758  1.00  0.00     0.010 A 
ATOM     29  C   UNL     1       1.125  -2.973  -8.784  1.00  0.00     0.010 A 
ATOM     30  C   UNL     1       2.202  -3.477  -8.065  1.00  0.00    -0.014 A 
BRANCH  30  31
ATOM     31  C   UNL     1       3.018  -4.526  -8.633  1.00  0.00     0.031 A 
ATOM     32  C   UNL     1       2.768  -5.855  -8.036  1.00  0.00     0.074 A 
ATOM     33  C   UNL     1       3.855  -4.331  -9.667  1.00  0.00     0.049 A 
ATOM     34  N   UNL     1       3.564  -6.543  -7.288  1.00  0.00    -0.248 NA
ATOM     35  C   UNL     1       1.415  -6.417  -8.160  1.00  0.00     0.031 C 
ATOM     36  C   UNL     1       3.984  -3.164 -10.541  1.00  0.00     0.029 A 
ATOM     37  N   UNL     1       4.731  -5.217 -10.206  1.00  0.00    -0.354 N 
ATOM     38  C   UNL     1       2.881  -7.717  -6.993  1.00  0.00     0.074 A 
ATOM     39  C   UNL     1       1.519  -7.513  -7.409  1.00  0.00     0.031 C 
ATOM     40  C   UNL     1       4.722  -3.503 -11.625  1.00  0.00     0.029 A 
ATOM     41  C   UNL     1       5.221  -4.858 -11.451  1.00  0.00     0.049 A 
ATOM     42  H   UNL     1       4.997  -6.047  -9.748  1.00  0.00     0.167 HD
ATOM     43  C   UNL     1       3.551  -8.847  -6.639  1.00  0.00     0.037 A 
ATOM     44  C   UNL     1       5.918  -5.667 -12.288  1.00  0.00     0.037 A 
ATOM     45  C   UNL     1       4.893  -8.546  -6.207  1.00  0.00     0.049 A 
ATOM     46  C   UNL     1       6.471  -6.782 -11.473  1.00  0.00     0.074 A 
ATOM     47  C   UNL     1       5.435  -7.766  -5.202  1.00  0.00     0.029 A 
ATOM     48  N   UNL     1       5.923  -8.783  -7.085  1.00  0.00    -0.354 N 
ATOM     49  N   UNL     1       7.416  -6.635 -10.587  1.00  0.00    -0.248 NA
ATOM     50  C   UNL     1       5.651  -7.976 -11.315  1.00  0.00     0.031 C 
ATOM     51  C   UNL     1       6.594  -7.170  -5.782  1.00  0.00     0.029 A 
ATOM     52  C   UNL     1       6.720  -7.668  -7.080  1.00  0.00     0.049 A 
ATOM     53  H   UNL     1       6.062  -9.600  -7.617  1.00  0.00     0.167 HD
ATOM     54  C   UNL     1       7.044  -7.456  -9.532  1.00  0.00     0.074 A 
ATOM     55  C   UNL     1       5.996  -8.320 -10.071  1.00  0.00     0.031 C 
ATOM     56  C   UNL     1       7.409  -7.170  -8.247  1.00  0.00     0.037 A 
BRANCH  43  57
ATOM     57  C   UNL     1       3.126 -10.235  -7.046  1.00  0.00     0.057 A 
ATOM     58  C   UNL     1       3.837 -11.339  -6.542  1.00  0.00     0.134 A 
ATOM     59  C   UNL     1       2.266 -10.519  -8.127  1.00  0.00     0.134 A 
ATOM     60  F   UNL     1       4.691 -11.199  -5.517  1.00  0.00    -0.206 F 
ATOM     61  C   UNL     1       3.767 -12.607  -7.130  1.00  0.00     0.040 A 
ATOM     62  C   UNL     1       2.149 -11.793  -8.687  1.00  0.00     0.040 A 
ATOM     63  F   UNL     1       1.572  -9.572  -8.768  1.00  0.00    -0.206 F 
ATOM     64  C   UNL     1       2.929 -12.834  -8.214  1.00  0.00     0.006 A 
ENDBRANCH  43  57
BRANCH  44  65
ATOM     65  C   UNL     1       5.856  -5.726 -13.767  1.00  0.00     0.057 A 
ATOM     66  C   UNL     1       6.814  -6.438 -14.503  1.00  0.00     0.134 A 
ATOM     67  C   UNL     1       4.707  -5.329 -14.474  1.00  0.00     0.134 A 
ATOM     68  F   UNL     1       7.926  -6.896 -13.910  1.00  0.00    -0.206 F 
ATOM     69  C   UNL     1       6.628  -6.762 -15.854  1.00  0.00     0.040 A 
ATOM     70  C   UNL     1       4.512  -5.638 -15.824  1.00  0.00     0.040 A 
ATOM     71  F   UNL     1       3.691  -4.708 -13.859  1.00  0.00    -0.206 F 
ATOM     72  C   UNL     1       5.468  -6.372 -16.516  1.00  0.00     0.006 A 
ENDBRANCH  44  65
BRANCH  56  73
ATOM     73  C   UNL     1       8.416  -6.077  -8.024  1.00  0.00     0.057 A 
ATOM     74  C   UNL     1       8.205  -4.733  -8.369  1.00  0.00     0.134 A 
ATOM     75  C   UNL     1       9.572  -6.365  -7.291  1.00  0.00     0.134 A 
ATOM     76  F   UNL     1       7.079  -4.341  -8.978  1.00  0.00    -0.206 F 
ATOM     77  C   UNL     1       9.124  -3.732  -8.039  1.00  0.00     0.040 A 
ATOM     78  C   UNL     1      10.482  -5.371  -6.925  1.00  0.00     0.040 A 
ATOM     79  F   UNL     1       9.813  -7.619  -6.874  1.00  0.00    -0.206 F 
ATOM     80  C   UNL     1      10.265  -4.050  -7.308  1.00  0.00     0.006 A 
ENDBRANCH  56  73
ENDBRANCH  30  31
ENDBRANCH  23  25
ENDBRANCH  22  23
ENDBRANCH  21  22
ENDBRANCH   1  21
TORSDOF 13
