REMARK SMILES CC[NH2+][C@]1(C(=O)OCCOC(=O)c2ccc(-c3c4nc(c(-c5c(F)cccc5F)c5ccc([nH]5)c(-c5c(F)cccc5F)c5nc(c(-c6c(F)cccc6F)c6ccc3[nH]6)C=C5)C=C4)cc2)CC[C@@H]([N@@H+](C)CC(C)(C)C)C1
REMARK SMILES IDX 8 1 7 2 5 3 6 4 4 5 67 6 77 7 68 8 69 9 3 10 2 13 1 14 70 15
REMARK SMILES IDX 71 16 72 18 73 19 74 20 75 21 76 22 9 23 10 24 11 25 12 26
REMARK SMILES IDX 13 27 14 28 66 29 15 30 65 31 16 32 17 33 18 34 59 35 19 36
REMARK SMILES IDX 64 37 58 38 60 39 20 40 63 41 57 42 56 43 21 45 47 46 30 47
REMARK SMILES IDX 46 48 31 49 34 50 45 51 61 52 32 53 33 54 44 56 62 57 35 58
REMARK SMILES IDX 22 59 23 60 28 61 24 62 25 63 27 64 29 65 26 66 48 67 49 68
REMARK SMILES IDX 54 69 50 70 51 71 53 72 55 73 52 74 36 75 37 76 42 77 38 78
REMARK SMILES IDX 39 79 41 80 43 81 40 82
REMARK H PARENT 3 11 3 12 70 17 60 44 34 55
REMARK Flexibility Score: inf
ROOT
ATOM      1  C   UNL     1       3.412   1.674  -0.601  1.00  0.00     0.274 C 
ENDROOT
BRANCH   1   2
ATOM      2  O   UNL     1       2.694   2.760   0.017  1.00  0.00    -0.457 OA
BRANCH   2   3
ATOM      3  C   UNL     1       1.413   2.928  -0.415  1.00  0.00     0.368 C 
ATOM      4  O   UNL     1       0.894   2.220  -1.273  1.00  0.00    -0.245 OA
BRANCH   3   5
ATOM      5  C   UNL     1       0.682   4.084   0.321  1.00  0.00     0.200 C 
ATOM      6  C   UNL     1       1.456   5.395   0.156  1.00  0.00     0.087 C 
ATOM      7  C   UNL     1      -0.651   4.371  -0.433  1.00  0.00     0.146 C 
ATOM      8  C   UNL     1       0.413   6.497   0.142  1.00  0.00     0.072 C 
ATOM      9  C   UNL     1      -0.807   5.897  -0.549  1.00  0.00     0.191 C 
BRANCH   5  10
ATOM     10  N   UNL     1       0.344   3.732   1.729  1.00  0.00    -0.332 N 
ATOM     11  H   UNL     1      -0.429   4.329   2.024  1.00  0.00     0.347 HD
ATOM     12  H   UNL     1       0.120   2.737   1.721  1.00  0.00     0.347 HD
BRANCH  10  13
ATOM     13  C   UNL     1       1.429   3.889   2.701  1.00  0.00     0.257 C 
ATOM     14  C   UNL     1       1.007   3.351   4.063  1.00  0.00     0.071 C 
ENDBRANCH  10  13
ENDBRANCH   5  10
BRANCH   9  15
ATOM     15  N   UNL     1      -1.107   6.416  -1.882  1.00  0.00    -0.334 N 
ATOM     16  C   UNL     1      -1.850   7.663  -1.898  1.00  0.00     0.332 C 
ATOM     17  H   UNL     1      -1.666   5.586  -2.078  1.00  0.00     0.348 HD
BRANCH  15  18
ATOM     18  C   UNL     1      -0.420   6.037  -3.112  1.00  0.00     0.268 C 
BRANCH  18  19
ATOM     19  C   UNL     1       0.799   6.821  -3.716  1.00  0.00     0.011 C 
ATOM     20  C   UNL     1       2.123   6.477  -3.024  1.00  0.00     0.017 C 
ATOM     21  C   UNL     1       0.948   6.377  -5.192  1.00  0.00     0.017 C 
ATOM     22  C   UNL     1       0.632   8.345  -3.695  1.00  0.00     0.017 C 
ENDBRANCH  18  19
ENDBRANCH  15  18
ENDBRANCH   9  15
ENDBRANCH   3   5
ENDBRANCH   2   3
ENDBRANCH   1   2
BRANCH   1  23
ATOM     23  C   UNL     1       3.267   0.365   0.183  1.00  0.00     0.275 C 
BRANCH  23  24
ATOM     24  O   UNL     1       1.952  -0.211   0.053  1.00  0.00    -0.458 OA
BRANCH  24  25
ATOM     25  C   UNL     1       1.084   0.095   1.043  1.00  0.00     0.338 C 
ATOM     26  O   UNL     1       1.295   0.781   2.027  1.00  0.00    -0.246 OA
BRANCH  25  27
ATOM     27  C   UNL     1      -0.241  -0.465   0.753  1.00  0.00     0.060 A 
ATOM     28  C   UNL     1      -1.269   0.393   0.349  1.00  0.00     0.016 A 
ATOM     29  C   UNL     1      -0.491  -1.818   0.983  1.00  0.00     0.016 A 
ATOM     30  C   UNL     1      -2.556  -0.104   0.158  1.00  0.00     0.010 A 
ATOM     31  C   UNL     1      -1.780  -2.317   0.781  1.00  0.00     0.010 A 
ATOM     32  C   UNL     1      -2.818  -1.464   0.365  1.00  0.00    -0.014 A 
BRANCH  32  33
ATOM     33  C   UNL     1      -4.168  -2.016   0.114  1.00  0.00     0.031 A 
ATOM     34  C   UNL     1      -5.058  -2.399   1.257  1.00  0.00     0.074 A 
ATOM     35  C   UNL     1      -4.567  -2.214  -1.155  1.00  0.00     0.049 A 
ATOM     36  N   UNL     1      -6.202  -3.033   1.235  1.00  0.00    -0.248 NA
ATOM     37  C   UNL     1      -4.599  -2.023   2.603  1.00  0.00     0.031 C 
ATOM     38  C   UNL     1      -3.797  -1.854  -2.347  1.00  0.00     0.029 A 
ATOM     39  N   UNL     1      -5.708  -2.789  -1.652  1.00  0.00    -0.354 N 
ATOM     40  C   UNL     1      -6.595  -3.148   2.561  1.00  0.00     0.074 A 
ATOM     41  C   UNL     1      -5.561  -2.528   3.364  1.00  0.00     0.031 C 
ATOM     42  C   UNL     1      -4.479  -2.236  -3.438  1.00  0.00     0.029 A 
ATOM     43  C   UNL     1      -5.706  -2.906  -3.020  1.00  0.00     0.049 A 
ATOM     44  H   UNL     1      -6.454  -3.089  -1.084  1.00  0.00     0.167 HD
ATOM     45  C   UNL     1      -7.718  -3.719   3.058  1.00  0.00     0.037 A 
ATOM     46  C   UNL     1      -6.577  -3.522  -3.841  1.00  0.00     0.037 A 
ATOM     47  C   UNL     1      -8.746  -4.326   2.253  1.00  0.00     0.049 A 
ATOM     48  C   UNL     1      -7.779  -4.208  -3.260  1.00  0.00     0.074 A 
ATOM     49  C   UNL     1      -9.939  -4.897   2.662  1.00  0.00     0.029 A 
ATOM     50  N   UNL     1      -8.699  -4.446   0.872  1.00  0.00    -0.354 N 
ATOM     51  N   UNL     1      -8.148  -4.304  -2.006  1.00  0.00    -0.248 NA
ATOM     52  C   UNL     1      -8.679  -4.880  -4.206  1.00  0.00     0.031 C 
ATOM     53  C   UNL     1     -10.595  -5.399   1.532  1.00  0.00     0.029 A 
ATOM     54  C   UNL     1      -9.828  -5.107   0.416  1.00  0.00     0.049 A 
ATOM     55  H   UNL     1      -7.971  -4.111   0.300  1.00  0.00     0.167 HD
ATOM     56  C   UNL     1      -9.327  -5.035  -2.012  1.00  0.00     0.074 A 
ATOM     57  C   UNL     1      -9.621  -5.345  -3.397  1.00  0.00     0.031 C 
ATOM     58  C   UNL     1     -10.098  -5.417  -0.965  1.00  0.00     0.037 A 
BRANCH  45  59
ATOM     59  C   UNL     1      -7.886  -3.736   4.547  1.00  0.00     0.057 A 
ATOM     60  C   UNL     1      -8.240  -2.587   5.264  1.00  0.00     0.134 A 
ATOM     61  C   UNL     1      -7.737  -4.929   5.266  1.00  0.00     0.134 A 
ATOM     62  F   UNL     1      -8.388  -1.412   4.635  1.00  0.00    -0.206 F 
ATOM     63  C   UNL     1      -8.427  -2.620   6.648  1.00  0.00     0.040 A 
ATOM     64  C   UNL     1      -7.939  -4.979   6.646  1.00  0.00     0.040 A 
ATOM     65  F   UNL     1      -7.402  -6.066   4.638  1.00  0.00    -0.206 F 
ATOM     66  C   UNL     1      -8.282  -3.821   7.341  1.00  0.00     0.006 A 
ENDBRANCH  45  59
BRANCH  46  67
ATOM     67  C   UNL     1      -6.318  -3.547  -5.300  1.00  0.00     0.057 A 
ATOM     68  C   UNL     1      -7.093  -2.791  -6.185  1.00  0.00     0.134 A 
ATOM     69  C   UNL     1      -5.288  -4.326  -5.843  1.00  0.00     0.134 A 
ATOM     70  F   UNL     1      -8.108  -2.045  -5.724  1.00  0.00    -0.206 F 
ATOM     71  C   UNL     1      -6.860  -2.813  -7.560  1.00  0.00     0.040 A 
ATOM     72  C   UNL     1      -5.030  -4.341  -7.213  1.00  0.00     0.040 A 
ATOM     73  F   UNL     1      -4.511  -5.072  -5.045  1.00  0.00    -0.206 F 
ATOM     74  C   UNL     1      -5.821  -3.585  -8.077  1.00  0.00     0.006 A 
ENDBRANCH  46  67
BRANCH  58  75
ATOM     75  C   UNL     1     -11.335  -6.201  -1.283  1.00  0.00     0.057 A 
ATOM     76  C   UNL     1     -11.273  -7.551  -1.647  1.00  0.00     0.134 A 
ATOM     77  C   UNL     1     -12.600  -5.607  -1.201  1.00  0.00     0.134 A 
ATOM     78  F   UNL     1     -10.088  -8.172  -1.759  1.00  0.00    -0.206 F 
ATOM     79  C   UNL     1     -12.427  -8.280  -1.936  1.00  0.00     0.040 A 
ATOM     80  C   UNL     1     -13.762  -6.331  -1.467  1.00  0.00     0.040 A 
ATOM     81  F   UNL     1     -12.726  -4.317  -0.853  1.00  0.00    -0.206 F 
ATOM     82  C   UNL     1     -13.677  -7.671  -1.841  1.00  0.00     0.006 A 
ENDBRANCH  58  75
ENDBRANCH  32  33
ENDBRANCH  25  27
ENDBRANCH  24  25
ENDBRANCH  23  24
ENDBRANCH   1  23
TORSDOF 16
