REMARK SMILES C[N@@H+]1CCN(C(=O)c2cc(-n3cccn3)ccc2Cl)C[C@H]1C(=O)OCCOC(=O)c1ccc(-c2c3nc(c(-c4c(F)cccc4F)c4ccc([nH]4)c(-c4c(F)cccc4F)c4nc(c(-c5c(F)cccc5F)c5ccc2[nH]5)C=C4)C=C3)cc1
REMARK SMILES IDX 25 1 24 2 22 3 23 4 21 5 1 6 2 7 3 8 4 10 20 11 5 12 6 13
REMARK SMILES IDX 7 14 8 15 9 16 18 17 10 18 17 19 19 20 16 21 11 22 12 23
REMARK SMILES IDX 15 24 13 25 14 26 26 27 27 28 28 29 29 30 30 31 31 32 83 33
REMARK SMILES IDX 32 34 82 35 33 36 34 37 35 38 76 39 36 40 81 41 75 42 77 43
REMARK SMILES IDX 37 44 80 45 74 46 73 47 38 49 64 50 47 51 63 52 48 53 51 54
REMARK SMILES IDX 62 55 78 56 49 57 50 58 61 60 79 61 52 62 39 63 40 64 45 65
REMARK SMILES IDX 41 66 42 67 44 68 46 69 43 70 65 71 66 72 71 73 67 74 68 75
REMARK SMILES IDX 70 76 72 77 69 78 53 79 54 80 59 81 55 82 56 83 58 84 60 85
REMARK SMILES IDX 57 86
REMARK H PARENT 2 9 77 48 51 59
REMARK Flexibility Score: inf
ROOT
ATOM      1  C   UNL     1       1.241  -3.652  -2.493  1.00  0.00     0.274 C 
ENDROOT
BRANCH   1   2
ATOM      2  O   UNL     1       0.953  -2.332  -1.978  1.00  0.00    -0.458 OA
BRANCH   2   3
ATOM      3  C   UNL     1       0.538  -2.292  -0.685  1.00  0.00     0.366 C 
ATOM      4  O   UNL     1       0.463  -3.289   0.036  1.00  0.00    -0.245 OA
BRANCH   3   5
ATOM      5  C   UNL     1       0.003  -0.957  -0.198  1.00  0.00     0.314 C 
ATOM      6  C   UNL     1       1.988   0.470  -0.583  1.00  0.00     0.333 C 
ATOM      7  N   UNL     1       0.548   0.317  -0.773  1.00  0.00    -0.323 N 
ATOM      8  C   UNL     1      -0.140   1.445  -0.085  1.00  0.00     0.284 C 
ATOM      9  H   UNL     1       0.381   0.305  -1.780  1.00  0.00     0.348 HD
ATOM     10  C   UNL     1      -1.668   1.401  -0.264  1.00  0.00     0.181 C 
ATOM     11  C   UNL     1      -1.511  -1.044  -0.469  1.00  0.00     0.197 C 
ATOM     12  N   UNL     1      -2.217   0.099   0.111  1.00  0.00    -0.326 N 
BRANCH  12  13
ATOM     13  C   UNL     1      -3.360   0.034   0.886  1.00  0.00     0.255 C 
ATOM     14  O   UNL     1      -3.983   1.017   1.276  1.00  0.00    -0.269 OA
BRANCH  13  15
ATOM     15  C   UNL     1      -3.899  -1.287   1.254  1.00  0.00     0.060 A 
ATOM     16  C   UNL     1      -5.078  -1.698   0.619  1.00  0.00     0.043 A 
ATOM     17  C   UNL     1      -3.331  -2.062   2.271  1.00  0.00     0.053 A 
ATOM     18  C   UNL     1      -5.720  -2.870   1.041  1.00  0.00     0.065 A 
ATOM     19  C   UNL     1      -3.945  -3.259   2.647  1.00  0.00     0.023 A 
ATOM     20  Cl  UNL     1      -1.891  -1.596   3.102  1.00  0.00    -0.083 Cl
ATOM     21  C   UNL     1      -5.147  -3.655   2.052  1.00  0.00     0.030 A 
BRANCH  18  22
ATOM     22  N   UNL     1      -6.964  -3.228   0.462  1.00  0.00    -0.241 N 
ATOM     23  C   UNL     1      -7.938  -4.038   1.005  1.00  0.00     0.115 A 
ATOM     24  N   UNL     1      -7.337  -2.750  -0.751  1.00  0.00    -0.177 NA
ATOM     25  C   UNL     1      -8.966  -4.095   0.095  1.00  0.00     0.042 A 
ATOM     26  C   UNL     1      -8.527  -3.308  -0.980  1.00  0.00     0.135 A 
ENDBRANCH  18  22
ENDBRANCH  13  15
ENDBRANCH  12  13
ENDBRANCH   3   5
ENDBRANCH   2   3
ENDBRANCH   1   2
BRANCH   1  27
ATOM     27  C   UNL     1       2.675  -4.134  -2.253  1.00  0.00     0.275 C 
BRANCH  27  28
ATOM     28  O   UNL     1       2.967  -4.287  -0.861  1.00  0.00    -0.458 OA
BRANCH  28  29
ATOM     29  C   UNL     1       3.403  -3.136  -0.310  1.00  0.00     0.338 C 
ATOM     30  O   UNL     1       3.562  -2.070  -0.881  1.00  0.00    -0.246 OA
BRANCH  29  31
ATOM     31  C   UNL     1       3.841  -3.300   1.073  1.00  0.00     0.060 A 
ATOM     32  C   UNL     1       3.812  -2.133   1.850  1.00  0.00     0.016 A 
ATOM     33  C   UNL     1       4.766  -4.320   1.287  1.00  0.00     0.016 A 
ATOM     34  C   UNL     1       4.901  -1.846   2.642  1.00  0.00     0.010 A 
ATOM     35  C   UNL     1       5.853  -4.031   2.078  1.00  0.00     0.010 A 
ATOM     36  C   UNL     1       5.954  -2.757   2.653  1.00  0.00    -0.014 A 
BRANCH  36  37
ATOM     37  C   UNL     1       7.221  -2.332   3.220  1.00  0.00     0.031 A 
ATOM     38  C   UNL     1       7.340  -2.459   4.693  1.00  0.00     0.074 A 
ATOM     39  C   UNL     1       8.265  -2.071   2.408  1.00  0.00     0.049 A 
ATOM     40  N   UNL     1       7.793  -1.608   5.554  1.00  0.00    -0.248 NA
ATOM     41  C   UNL     1       6.820  -3.702   5.289  1.00  0.00     0.031 C 
ATOM     42  C   UNL     1       8.334  -2.259   0.953  1.00  0.00     0.029 A 
ATOM     43  N   UNL     1       9.545  -1.758   2.738  1.00  0.00    -0.354 N 
ATOM     44  C   UNL     1       7.753  -2.262   6.784  1.00  0.00     0.074 A 
ATOM     45  C   UNL     1       7.030  -3.489   6.583  1.00  0.00     0.031 C 
ATOM     46  C   UNL     1       9.632  -2.319   0.583  1.00  0.00     0.029 A 
ATOM     47  C   UNL     1      10.463  -2.075   1.750  1.00  0.00     0.049 A 
ATOM     48  H   UNL     1       9.797  -1.346   3.596  1.00  0.00     0.167 HD
ATOM     49  C   UNL     1       8.479  -1.859   7.859  1.00  0.00     0.037 A 
ATOM     50  C   UNL     1      11.794  -2.259   1.924  1.00  0.00     0.037 A 
ATOM     51  C   UNL     1       8.910  -0.496   7.750  1.00  0.00     0.049 A 
ATOM     52  C   UNL     1      12.168  -1.688   3.244  1.00  0.00     0.074 A 
ATOM     53  C   UNL     1       8.260   0.717   7.634  1.00  0.00     0.029 A 
ATOM     54  N   UNL     1      10.221  -0.244   7.432  1.00  0.00    -0.354 N 
ATOM     55  N   UNL     1      12.174  -0.416   3.530  1.00  0.00    -0.248 NA
ATOM     56  C   UNL     1      12.135  -2.583   4.394  1.00  0.00     0.031 C 
ATOM     57  C   UNL     1       9.096   1.509   6.795  1.00  0.00     0.029 A 
ATOM     58  C   UNL     1      10.204   0.729   6.466  1.00  0.00     0.049 A 
ATOM     59  H   UNL     1      11.016  -0.676   7.821  1.00  0.00     0.167 HD
ATOM     60  C   UNL     1      11.748  -0.342   4.850  1.00  0.00     0.074 A 
ATOM     61  C   UNL     1      11.832  -1.708   5.356  1.00  0.00     0.031 C 
ATOM     62  C   UNL     1      11.100   0.759   5.334  1.00  0.00     0.037 A 
BRANCH  49  63
ATOM     63  C   UNL     1       9.020  -2.809   8.890  1.00  0.00     0.057 A 
ATOM     64  C   UNL     1       9.491  -2.321  10.118  1.00  0.00     0.134 A 
ATOM     65  C   UNL     1       9.319  -4.162   8.623  1.00  0.00     0.134 A 
ATOM     66  F   UNL     1       9.308  -1.037  10.463  1.00  0.00    -0.206 F 
ATOM     67  C   UNL     1      10.227  -3.115  11.004  1.00  0.00     0.040 A 
ATOM     68  C   UNL     1      10.000  -4.980   9.525  1.00  0.00     0.040 A 
ATOM     69  F   UNL     1       9.051  -4.730   7.439  1.00  0.00    -0.206 F 
ATOM     70  C   UNL     1      10.479  -4.451  10.712  1.00  0.00     0.006 A 
ENDBRANCH  49  63
BRANCH  50  71
ATOM     71  C   UNL     1      12.671  -3.193   1.180  1.00  0.00     0.057 A 
ATOM     72  C   UNL     1      14.063  -3.041   1.183  1.00  0.00     0.134 A 
ATOM     73  C   UNL     1      12.185  -4.391   0.623  1.00  0.00     0.134 A 
ATOM     74  F   UNL     1      14.628  -1.963   1.746  1.00  0.00    -0.206 F 
ATOM     75  C   UNL     1      14.920  -4.016   0.653  1.00  0.00     0.040 A 
ATOM     76  C   UNL     1      13.026  -5.364   0.075  1.00  0.00     0.040 A 
ATOM     77  F   UNL     1      10.881  -4.700   0.664  1.00  0.00    -0.206 F 
ATOM     78  C   UNL     1      14.402  -5.182   0.096  1.00  0.00     0.006 A 
ENDBRANCH  50  71
BRANCH  62  79
ATOM     79  C   UNL     1      11.052   1.991   4.476  1.00  0.00     0.057 A 
ATOM     80  C   UNL     1      10.400   2.038   3.236  1.00  0.00     0.134 A 
ATOM     81  C   UNL     1      11.508   3.206   4.998  1.00  0.00     0.134 A 
ATOM     82  F   UNL     1       9.828   0.947   2.712  1.00  0.00    -0.206 F 
ATOM     83  C   UNL     1      10.249   3.232   2.525  1.00  0.00     0.040 A 
ATOM     84  C   UNL     1      11.334   4.412   4.313  1.00  0.00     0.040 A 
ATOM     85  F   UNL     1      12.081   3.251   6.211  1.00  0.00    -0.206 F 
ATOM     86  C   UNL     1      10.711   4.426   3.068  1.00  0.00     0.006 A 
ENDBRANCH  62  79
ENDBRANCH  36  37
ENDBRANCH  29  31
ENDBRANCH  28  29
ENDBRANCH  27  28
ENDBRANCH   1  27
TORSDOF 14
