REMARK SMILES Cc1cc(NC[C@H](C)[NH+](C)C)cc(C(=O)OCCOC(=O)c2ccc(-c3c4nc(c(-c5c(F)cccc5F)c5ccc([nH]5)c(-c5c(F)cccc5F)c5nc(c(-c6c(F)cccc6F)c6ccc3[nH]6)C=C5)C=C4)cc2)c1N
REMARK SMILES IDX 17 1 16 2 14 3 15 4 13 5 1 6 2 7 3 8 76 9 4 10 12 11 77 12
REMARK SMILES IDX 5 15 6 17 7 18 8 19 9 20 10 21 11 22 18 24 19 25 20 26 21 27
REMARK SMILES IDX 22 28 23 29 75 30 24 31 74 32 25 33 26 34 27 35 68 36 28 37
REMARK SMILES IDX 73 38 67 39 69 40 29 41 72 42 66 43 65 44 30 46 56 47 39 48
REMARK SMILES IDX 55 49 40 50 43 51 54 52 70 53 41 54 42 55 53 57 71 58 44 59
REMARK SMILES IDX 31 60 32 61 37 62 33 63 34 64 36 65 38 66 35 67 57 68 58 69
REMARK SMILES IDX 63 70 59 71 60 72 62 73 64 74 61 75 45 76 46 77 51 78 47 79
REMARK SMILES IDX 48 80 50 81 52 82 49 83
REMARK H PARENT 77 13 77 14 5 16 9 23 69 45 43 56
REMARK Flexibility Score: inf
ROOT
ATOM      1  C   UNL     1      -5.080   7.955  -1.071  1.00  0.00     0.275 C 
ENDROOT
BRANCH   1   2
ATOM      2  O   UNL     1      -5.359   7.091   0.050  1.00  0.00    -0.458 OA
BRANCH   2   3
ATOM      3  C   UNL     1      -4.715   7.374   1.217  1.00  0.00     0.340 C 
ATOM      4  O   UNL     1      -3.946   8.295   1.411  1.00  0.00    -0.246 OA
BRANCH   3   5
ATOM      5  C   UNL     1      -5.121   6.399   2.269  1.00  0.00     0.085 A 
ATOM      6  C   UNL     1      -6.102   6.252   5.950  1.00  0.00     0.047 C 
ATOM      7  C   UNL     1      -5.738   5.857   4.543  1.00  0.00    -0.025 A 
ATOM      8  C   UNL     1      -5.917   4.521   4.144  1.00  0.00     0.031 A 
ATOM      9  C   UNL     1      -5.222   6.787   3.622  1.00  0.00     0.049 A 
ATOM     10  C   UNL     1      -5.645   4.094   2.841  1.00  0.00     0.035 A 
ATOM     11  C   UNL     1      -5.329   5.065   1.895  1.00  0.00     0.043 A 
BRANCH   9  12
ATOM     12  N   UNL     1      -4.940   8.088   4.035  1.00  0.00    -0.398 N 
ATOM     13  H   UNL     1      -5.019   8.331   4.986  1.00  0.00     0.156 HD
ATOM     14  H   UNL     1      -4.663   8.765   3.376  1.00  0.00     0.156 HD
ENDBRANCH   9  12
BRANCH  10  15
ATOM     15  N   UNL     1      -5.744   2.749   2.538  1.00  0.00    -0.379 N 
ATOM     16  H   UNL     1      -6.077   2.133   3.230  1.00  0.00     0.160 HD
BRANCH  15  17
ATOM     17  C   UNL     1      -5.377   2.206   1.236  1.00  0.00     0.177 C 
BRANCH  17  18
ATOM     18  C   UNL     1      -5.342   0.651   1.231  1.00  0.00     0.199 C 
ATOM     19  C   UNL     1      -4.501   0.185   0.029  1.00  0.00     0.077 C 
BRANCH  18  20
ATOM     20  N   UNL     1      -6.637  -0.073   1.268  1.00  0.00    -0.336 N 
ATOM     21  C   UNL     1      -7.370   0.129   2.517  1.00  0.00     0.332 C 
ATOM     22  C   UNL     1      -7.516   0.202   0.132  1.00  0.00     0.332 C 
ATOM     23  H   UNL     1      -6.360  -1.053   1.204  1.00  0.00     0.347 HD
ENDBRANCH  18  20
ENDBRANCH  17  18
ENDBRANCH  15  17
ENDBRANCH  10  15
ENDBRANCH   3   5
ENDBRANCH   2   3
ENDBRANCH   1   2
BRANCH   1  24
ATOM     24  C   UNL     1      -6.262   8.883  -1.345  1.00  0.00     0.275 C 
BRANCH  24  25
ATOM     25  O   UNL     1      -6.425   9.777  -0.231  1.00  0.00    -0.458 OA
BRANCH  25  26
ATOM     26  C   UNL     1      -7.667   9.859   0.297  1.00  0.00     0.338 C 
ATOM     27  O   UNL     1      -8.693   9.358  -0.137  1.00  0.00    -0.246 OA
BRANCH  26  28
ATOM     28  C   UNL     1      -7.620  10.642   1.548  1.00  0.00     0.060 A 
ATOM     29  C   UNL     1      -6.641  10.357   2.490  1.00  0.00     0.016 A 
ATOM     30  C   UNL     1      -8.621  11.560   1.857  1.00  0.00     0.016 A 
ATOM     31  C   UNL     1      -6.718  10.895   3.774  1.00  0.00     0.010 A 
ATOM     32  C   UNL     1      -8.624  12.193   3.110  1.00  0.00     0.010 A 
ATOM     33  C   UNL     1      -7.699  11.836   4.110  1.00  0.00    -0.014 A 
BRANCH  33  34
ATOM     34  C   UNL     1      -7.798  12.372   5.507  1.00  0.00     0.031 A 
ATOM     35  C   UNL     1      -9.118  12.332   6.242  1.00  0.00     0.074 A 
ATOM     36  C   UNL     1      -6.719  12.856   6.162  1.00  0.00     0.049 A 
ATOM     37  N   UNL     1      -9.484  12.964   7.330  1.00  0.00    -0.248 NA
ATOM     38  C   UNL     1     -10.174  11.484   5.665  1.00  0.00     0.031 C 
ATOM     39  C   UNL     1      -5.352  12.905   5.640  1.00  0.00     0.029 A 
ATOM     40  N   UNL     1      -6.601  13.391   7.426  1.00  0.00    -0.354 N 
ATOM     41  C   UNL     1     -10.829  12.660   7.515  1.00  0.00     0.074 A 
ATOM     42  C   UNL     1     -11.212  11.778   6.434  1.00  0.00     0.031 C 
ATOM     43  C   UNL     1      -4.529  13.371   6.590  1.00  0.00     0.029 A 
ATOM     44  C   UNL     1      -5.321  13.787   7.741  1.00  0.00     0.049 A 
ATOM     45  H   UNL     1      -7.360  13.481   8.046  1.00  0.00     0.167 HD
ATOM     46  C   UNL     1     -11.667  13.084   8.492  1.00  0.00     0.037 A 
ATOM     47  C   UNL     1      -4.838  14.471   8.797  1.00  0.00     0.037 A 
ATOM     48  C   UNL     1     -11.263  13.888   9.618  1.00  0.00     0.049 A 
ATOM     49  C   UNL     1      -5.787  14.957   9.854  1.00  0.00     0.074 A 
ATOM     50  C   UNL     1     -12.039  14.372  10.657  1.00  0.00     0.029 A 
ATOM     51  N   UNL     1      -9.962  14.297   9.868  1.00  0.00    -0.354 N 
ATOM     52  N   UNL     1      -7.080  14.770   9.953  1.00  0.00    -0.248 NA
ATOM     53  C   UNL     1      -5.216  15.784  10.928  1.00  0.00     0.031 C 
ATOM     54  C   UNL     1     -11.214  15.098  11.522  1.00  0.00     0.029 A 
ATOM     55  C   UNL     1      -9.916  15.029  11.044  1.00  0.00     0.049 A 
ATOM     56  H   UNL     1      -9.187  14.098   9.296  1.00  0.00     0.167 HD
ATOM     57  C   UNL     1      -7.476  15.449  11.097  1.00  0.00     0.074 A 
ATOM     58  C   UNL     1      -6.282  16.029  11.676  1.00  0.00     0.031 C 
ATOM     59  C   UNL     1      -8.720  15.591  11.614  1.00  0.00     0.037 A 
BRANCH  46  60
ATOM     60  C   UNL     1     -13.121  12.723   8.374  1.00  0.00     0.057 A 
ATOM     61  C   UNL     1     -13.596  11.427   8.605  1.00  0.00     0.134 A 
ATOM     62  C   UNL     1     -14.068  13.711   8.070  1.00  0.00     0.134 A 
ATOM     63  F   UNL     1     -12.744  10.430   8.889  1.00  0.00    -0.206 F 
ATOM     64  C   UNL     1     -14.957  11.122   8.518  1.00  0.00     0.040 A 
ATOM     65  C   UNL     1     -15.433  13.425   8.007  1.00  0.00     0.040 A 
ATOM     66  F   UNL     1     -13.683  14.977   7.846  1.00  0.00    -0.206 F 
ATOM     67  C   UNL     1     -15.880  12.125   8.226  1.00  0.00     0.006 A 
ENDBRANCH  46  60
BRANCH  47  68
ATOM     68  C   UNL     1      -3.392  14.816   8.863  1.00  0.00     0.057 A 
ATOM     69  C   UNL     1      -2.560  14.284   9.855  1.00  0.00     0.134 A 
ATOM     70  C   UNL     1      -2.809  15.696   7.941  1.00  0.00     0.134 A 
ATOM     71  F   UNL     1      -3.061  13.462  10.789  1.00  0.00    -0.206 F 
ATOM     72  C   UNL     1      -1.205  14.618   9.931  1.00  0.00     0.040 A 
ATOM     73  C   UNL     1      -1.450  16.010   7.983  1.00  0.00     0.040 A 
ATOM     74  F   UNL     1      -3.550  16.247   6.969  1.00  0.00    -0.206 F 
ATOM     75  C   UNL     1      -0.645  15.475   8.985  1.00  0.00     0.006 A 
ENDBRANCH  47  68
BRANCH  59  76
ATOM     76  C   UNL     1      -8.843  16.371  12.890  1.00  0.00     0.057 A 
ATOM     77  C   UNL     1      -8.714  17.765  12.919  1.00  0.00     0.134 A 
ATOM     78  C   UNL     1      -9.112  15.719  14.099  1.00  0.00     0.134 A 
ATOM     79  F   UNL     1      -8.440  18.446  11.796  1.00  0.00    -0.206 F 
ATOM     80  C   UNL     1      -8.825  18.481  14.112  1.00  0.00     0.040 A 
ATOM     81  C   UNL     1      -9.250  16.426  15.294  1.00  0.00     0.040 A 
ATOM     82  F   UNL     1      -9.253  14.385  14.138  1.00  0.00    -0.206 F 
ATOM     83  C   UNL     1      -9.100  17.811  15.303  1.00  0.00     0.006 A 
ENDBRANCH  59  76
ENDBRANCH  33  34
ENDBRANCH  26  28
ENDBRANCH  25  26
ENDBRANCH  24  25
ENDBRANCH   1  24
TORSDOF 16
