REMARK SMILES C[NH2+]C[C@@H](C)C(=O)N1CC[NH+](CC(=O)OCCOC(=O)c2ccc(-c3c4nc(c(-c5c(F)cccc5F)c5ccc([nH]5)c(-c5c(F)cccc5F)c5nc(c(-c6c(F)cccc6F)c6ccc3[nH]6)C=C5)C=C4)cc2)CC1
REMARK SMILES IDX 16 1 15 2 13 3 14 4 12 5 11 6 6 7 7 8 8 9 9 10 76 11 10 12
REMARK SMILES IDX 75 13 4 15 5 16 3 17 2 18 1 19 17 22 18 23 19 24 20 25 21 26
REMARK SMILES IDX 22 27 74 28 23 29 73 30 24 31 25 32 26 33 67 34 27 35 72 36
REMARK SMILES IDX 66 37 68 38 28 39 71 40 65 41 64 42 29 44 55 45 38 46 54 47
REMARK SMILES IDX 39 48 42 49 53 50 69 51 40 52 41 53 52 55 70 56 43 57 30 58
REMARK SMILES IDX 31 59 36 60 32 61 33 62 35 63 37 64 34 65 56 66 57 67 62 68
REMARK SMILES IDX 58 69 59 70 61 71 63 72 60 73 44 74 45 75 50 76 46 77 47 78
REMARK SMILES IDX 49 79 51 80 48 81
REMARK H PARENT 11 14 2 20 2 21 68 43 42 54
REMARK Flexibility Score: inf
ROOT
ATOM      1  C   UNL     1      -6.045   1.046  -3.239  1.00  0.00     0.274 C 
ENDROOT
BRANCH   1   2
ATOM      2  O   UNL     1      -5.279   2.245  -2.986  1.00  0.00    -0.458 OA
BRANCH   2   3
ATOM      3  C   UNL     1      -5.941   3.429  -3.038  1.00  0.00     0.361 C 
ATOM      4  O   UNL     1      -7.126   3.531  -3.345  1.00  0.00    -0.245 OA
BRANCH   3   5
ATOM      5  C   UNL     1      -5.066   4.661  -2.787  1.00  0.00     0.386 C 
BRANCH   5   6
ATOM      6  N   UNL     1      -3.942   4.539  -1.860  1.00  0.00    -0.323 N 
ATOM      7  C   UNL     1      -2.042   1.777   0.862  1.00  0.00     0.231 C 
ATOM      8  O   UNL     1      -2.761   1.275   1.730  1.00  0.00    -0.274 OA
ATOM      9  N   UNL     1      -2.497   2.779   0.009  1.00  0.00    -0.331 N 
ATOM     10  C   UNL     1      -3.504   3.689   0.561  1.00  0.00     0.181 C 
ATOM     11  C   UNL     1      -2.692   2.457  -1.396  1.00  0.00     0.181 C 
ATOM     12  C   UNL     1      -4.162   4.699  -0.426  1.00  0.00     0.284 C 
ATOM     13  C   UNL     1      -2.817   3.716  -2.252  1.00  0.00     0.284 C 
ATOM     14  H   UNL     1      -3.587   5.476  -2.054  1.00  0.00     0.348 HD
BRANCH   7  15
ATOM     15  C   UNL     1      -0.539   1.485   0.870  1.00  0.00     0.130 C 
ATOM     16  C   UNL     1       0.164   2.696   1.485  1.00  0.00     0.024 C 
BRANCH  15  17
ATOM     17  C   UNL     1       0.061   1.080  -0.480  1.00  0.00     0.273 C 
BRANCH  17  18
ATOM     18  N   UNL     1       1.464   0.650  -0.475  1.00  0.00    -0.348 N 
ATOM     19  C   UNL     1       1.675  -0.603   0.233  1.00  0.00     0.330 C 
ATOM     20  H   UNL     1       1.770   0.532  -1.441  1.00  0.00     0.346 HD
ATOM     21  H   UNL     1       2.001   1.368   0.011  1.00  0.00     0.346 HD
ENDBRANCH  17  18
ENDBRANCH  15  17
ENDBRANCH   7  15
ENDBRANCH   5   6
ENDBRANCH   3   5
ENDBRANCH   2   3
ENDBRANCH   1   2
BRANCH   1  22
ATOM     22  C   UNL     1      -6.519   0.365  -1.949  1.00  0.00     0.275 C 
BRANCH  22  23
ATOM     23  O   UNL     1      -7.573   1.108  -1.306  1.00  0.00    -0.458 OA
BRANCH  23  24
ATOM     24  C   UNL     1      -7.124   1.999  -0.395  1.00  0.00     0.338 C 
ATOM     25  O   UNL     1      -5.967   2.181  -0.071  1.00  0.00    -0.246 OA
BRANCH  24  26
ATOM     26  C   UNL     1      -8.193   2.872   0.092  1.00  0.00     0.060 A 
ATOM     27  C   UNL     1      -8.175   4.209  -0.316  1.00  0.00     0.016 A 
ATOM     28  C   UNL     1      -9.114   2.424   1.037  1.00  0.00     0.016 A 
ATOM     29  C   UNL     1      -9.102   5.104   0.194  1.00  0.00     0.010 A 
ATOM     30  C   UNL     1     -10.059   3.322   1.540  1.00  0.00     0.010 A 
ATOM     31  C   UNL     1     -10.063   4.660   1.108  1.00  0.00    -0.014 A 
BRANCH  31  32
ATOM     32  C   UNL     1     -11.139   5.586   1.510  1.00  0.00     0.031 A 
ATOM     33  C   UNL     1     -11.129   6.252   2.847  1.00  0.00     0.074 A 
ATOM     34  C   UNL     1     -12.114   5.834   0.617  1.00  0.00     0.049 A 
ATOM     35  N   UNL     1     -12.019   7.054   3.370  1.00  0.00    -0.248 NA
ATOM     36  C   UNL     1      -9.967   5.990   3.709  1.00  0.00     0.031 C 
ATOM     37  C   UNL     1     -12.181   5.262  -0.731  1.00  0.00     0.029 A 
ATOM     38  N   UNL     1     -13.225   6.629   0.700  1.00  0.00    -0.354 N 
ATOM     39  C   UNL     1     -11.539   7.382   4.629  1.00  0.00     0.074 A 
ATOM     40  C   UNL     1     -10.277   6.689   4.794  1.00  0.00     0.031 C 
ATOM     41  C   UNL     1     -13.272   5.733  -1.352  1.00  0.00     0.029 A 
ATOM     42  C   UNL     1     -14.002   6.595  -0.430  1.00  0.00     0.049 A 
ATOM     43  H   UNL     1     -13.444   7.171   1.492  1.00  0.00     0.167 HD
ATOM     44  C   UNL     1     -12.110   8.185   5.558  1.00  0.00     0.037 A 
ATOM     45  C   UNL     1     -15.188   7.174  -0.683  1.00  0.00     0.037 A 
ATOM     46  C   UNL     1     -13.368   8.864   5.375  1.00  0.00     0.049 A 
ATOM     47  C   UNL     1     -15.820   8.018   0.382  1.00  0.00     0.074 A 
ATOM     48  C   UNL     1     -14.035   9.701   6.253  1.00  0.00     0.029 A 
ATOM     49  N   UNL     1     -14.152   8.777   4.233  1.00  0.00    -0.354 N 
ATOM     50  N   UNL     1     -15.365   8.311   1.576  1.00  0.00    -0.248 NA
ATOM     51  C   UNL     1     -17.131   8.601   0.072  1.00  0.00     0.031 C 
ATOM     52  C   UNL     1     -15.239  10.091   5.654  1.00  0.00     0.029 A 
ATOM     53  C   UNL     1     -15.305   9.527   4.390  1.00  0.00     0.049 A 
ATOM     54  H   UNL     1     -13.921   8.258   3.429  1.00  0.00     0.167 HD
ATOM     55  C   UNL     1     -16.330   9.115   2.162  1.00  0.00     0.074 A 
ATOM     56  C   UNL     1     -17.386   9.281   1.181  1.00  0.00     0.031 C 
ATOM     57  C   UNL     1     -16.346   9.663   3.402  1.00  0.00     0.037 A 
BRANCH  44  58
ATOM     58  C   UNL     1     -11.397   8.339   6.868  1.00  0.00     0.057 A 
ATOM     59  C   UNL     1     -10.248   9.129   6.998  1.00  0.00     0.134 A 
ATOM     60  C   UNL     1     -11.884   7.710   8.021  1.00  0.00     0.134 A 
ATOM     61  F   UNL     1      -9.723   9.746   5.930  1.00  0.00    -0.206 F 
ATOM     62  C   UNL     1      -9.599   9.274   8.227  1.00  0.00     0.040 A 
ATOM     63  C   UNL     1     -11.255   7.862   9.258  1.00  0.00     0.040 A 
ATOM     64  F   UNL     1     -12.982   6.941   7.964  1.00  0.00    -0.206 F 
ATOM     65  C   UNL     1     -10.106   8.643   9.362  1.00  0.00     0.006 A 
ENDBRANCH  44  58
BRANCH  45  66
ATOM     66  C   UNL     1     -15.848   6.947  -1.990  1.00  0.00     0.057 A 
ATOM     67  C   UNL     1     -15.924   7.961  -2.949  1.00  0.00     0.134 A 
ATOM     68  C   UNL     1     -16.378   5.695  -2.327  1.00  0.00     0.134 A 
ATOM     69  F   UNL     1     -15.446   9.184  -2.676  1.00  0.00    -0.206 F 
ATOM     70  C   UNL     1     -16.504   7.740  -4.199  1.00  0.00     0.040 A 
ATOM     71  C   UNL     1     -16.941   5.454  -3.580  1.00  0.00     0.040 A 
ATOM     72  F   UNL     1     -16.327   4.680  -1.452  1.00  0.00    -0.206 F 
ATOM     73  C   UNL     1     -17.007   6.480  -4.520  1.00  0.00     0.006 A 
ENDBRANCH  45  66
BRANCH  57  74
ATOM     74  C   UNL     1     -17.544  10.490   3.750  1.00  0.00     0.057 A 
ATOM     75  C   UNL     1     -18.775   9.900   4.061  1.00  0.00     0.134 A 
ATOM     76  C   UNL     1     -17.463  11.887   3.783  1.00  0.00     0.134 A 
ATOM     77  F   UNL     1     -18.917   8.566   4.029  1.00  0.00    -0.206 F 
ATOM     78  C   UNL     1     -19.893  10.674   4.373  1.00  0.00     0.040 A 
ATOM     79  C   UNL     1     -18.570  12.671   4.112  1.00  0.00     0.040 A 
ATOM     80  F   UNL     1     -16.311  12.510   3.497  1.00  0.00    -0.206 F 
ATOM     81  C   UNL     1     -19.790  12.064   4.402  1.00  0.00     0.006 A 
ENDBRANCH  57  74
ENDBRANCH  31  32
ENDBRANCH  24  26
ENDBRANCH  23  24
ENDBRANCH  22  23
ENDBRANCH   1  22
TORSDOF 15
