REMARK SMILES C=CC[C@@H](Cc1ccc(C)cc1)C(=O)OCCOC(=O)c1ccc(-c2c3nc(c(-c4c(F)cccc4F)c4ccc([nH]4)c(-c4c(F)cccc4F)c4nc(c(-c5c(F)cccc5F)c5ccc2[nH]5)C=C4)C=C3)cc1
REMARK SMILES IDX 16 1 15 2 13 3 14 4 4 5 3 6 2 7 1 8 5 9 6 10 7 11 12 12 8 13
REMARK SMILES IDX 11 14 9 15 10 16 17 17 18 18 19 19 20 20 21 21 22 22 74 23
REMARK SMILES IDX 23 24 73 25 24 26 25 27 26 28 67 29 27 30 72 31 66 32 68 33
REMARK SMILES IDX 28 34 71 35 65 36 64 37 29 39 55 40 38 41 54 42 39 43 42 44
REMARK SMILES IDX 53 45 69 46 40 47 41 48 52 50 70 51 43 52 30 53 31 54 36 55
REMARK SMILES IDX 32 56 33 57 35 58 37 59 34 60 56 61 57 62 62 63 58 64 59 65
REMARK SMILES IDX 61 66 63 67 60 68 44 69 45 70 50 71 46 72 47 73 49 74 51 75
REMARK SMILES IDX 48 76
REMARK H PARENT 68 38 42 49
REMARK Flexibility Score: inf
ROOT
ATOM      1  C   UNL     1      -4.593  -1.315  -1.004  1.00  0.00     0.274 C 
ENDROOT
BRANCH   1   2
ATOM      2  O   UNL     1      -3.256  -0.843  -0.820  1.00  0.00    -0.462 OA
BRANCH   2   3
ATOM      3  C   UNL     1      -2.635  -0.458  -1.975  1.00  0.00     0.309 C 
ATOM      4  O   UNL     1      -3.140  -0.551  -3.075  1.00  0.00    -0.252 OA
BRANCH   3   5
ATOM      5  C   UNL     1      -1.267   0.160  -1.682  1.00  0.00     0.107 C 
BRANCH   5   6
ATOM      6  C   UNL     1      -0.562  -0.604  -0.545  1.00  0.00     0.042 C 
BRANCH   6   7
ATOM      7  C   UNL     1       0.912  -0.377  -0.399  1.00  0.00    -0.034 C 
ATOM      8  C   UNL     1       1.492   0.018   0.741  1.00  0.00     0.004 C 
ENDBRANCH   6   7
ENDBRANCH   5   6
BRANCH   5   9
ATOM      9  C   UNL     1      -0.484   0.408  -2.989  1.00  0.00     0.051 C 
BRANCH   9  10
ATOM     10  C   UNL     1      -0.146  -0.742  -3.911  1.00  0.00    -0.047 A 
ATOM     11  C   UNL     1       0.345  -0.439  -5.192  1.00  0.00     0.004 A 
ATOM     12  C   UNL     1      -0.317  -2.087  -3.575  1.00  0.00     0.004 A 
ATOM     13  C   UNL     1       0.635  -1.452  -6.109  1.00  0.00     0.004 A 
ATOM     14  C   UNL     1      -0.030  -3.101  -4.489  1.00  0.00     0.004 A 
ATOM     15  C   UNL     1       0.447  -2.793  -5.763  1.00  0.00    -0.051 A 
ATOM     16  C   UNL     1       0.718  -3.881  -6.755  1.00  0.00     0.044 C 
ENDBRANCH   9  10
ENDBRANCH   5   9
ENDBRANCH   3   5
ENDBRANCH   2   3
ENDBRANCH   1   2
BRANCH   1  17
ATOM     17  C   UNL     1      -5.431  -1.145   0.269  1.00  0.00     0.275 C 
BRANCH  17  18
ATOM     18  O   UNL     1      -5.004  -0.160   1.256  1.00  0.00    -0.458 OA
BRANCH  18  19
ATOM     19  C   UNL     1      -4.630   1.135   1.109  1.00  0.00     0.338 C 
ATOM     20  O   UNL     1      -4.150   1.781   2.032  1.00  0.00    -0.246 OA
BRANCH  19  21
ATOM     21  C   UNL     1      -4.746   1.748  -0.223  1.00  0.00     0.060 A 
ATOM     22  C   UNL     1      -3.673   2.499  -0.729  1.00  0.00     0.016 A 
ATOM     23  C   UNL     1      -5.880   1.526  -0.993  1.00  0.00     0.016 A 
ATOM     24  C   UNL     1      -3.679   2.910  -2.063  1.00  0.00     0.010 A 
ATOM     25  C   UNL     1      -5.846   1.842  -2.334  1.00  0.00     0.010 A 
ATOM     26  C   UNL     1      -4.754   2.542  -2.876  1.00  0.00    -0.014 A 
BRANCH  26  27
ATOM     27  C   UNL     1      -4.991   3.117  -4.197  1.00  0.00     0.031 A 
ATOM     28  C   UNL     1      -4.280   2.747  -5.436  1.00  0.00     0.074 A 
ATOM     29  C   UNL     1      -5.955   4.061  -4.196  1.00  0.00     0.049 A 
ATOM     30  N   UNL     1      -4.079   3.573  -6.412  1.00  0.00    -0.248 NA
ATOM     31  C   UNL     1      -3.732   1.419  -5.695  1.00  0.00     0.031 C 
ATOM     32  C   UNL     1      -6.593   4.745  -5.304  1.00  0.00     0.029 A 
ATOM     33  N   UNL     1      -6.408   4.740  -3.055  1.00  0.00    -0.354 N 
ATOM     34  C   UNL     1      -3.640   2.840  -7.493  1.00  0.00     0.074 A 
ATOM     35  C   UNL     1      -3.345   1.526  -6.974  1.00  0.00     0.031 C 
ATOM     36  C   UNL     1      -7.108   5.900  -4.841  1.00  0.00     0.029 A 
ATOM     37  C   UNL     1      -6.666   6.049  -3.457  1.00  0.00     0.049 A 
ATOM     38  H   UNL     1      -6.521   4.366  -2.151  1.00  0.00     0.167 HD
ATOM     39  C   UNL     1      -3.732   3.352  -8.754  1.00  0.00     0.037 A 
ATOM     40  C   UNL     1      -5.897   7.064  -2.967  1.00  0.00     0.037 A 
ATOM     41  C   UNL     1      -4.322   4.681  -8.744  1.00  0.00     0.049 A 
ATOM     42  C   UNL     1      -5.210   7.819  -4.073  1.00  0.00     0.074 A 
ATOM     43  C   UNL     1      -5.638   5.094  -8.870  1.00  0.00     0.029 A 
ATOM     44  N   UNL     1      -3.617   5.755  -8.211  1.00  0.00    -0.354 N 
ATOM     45  N   UNL     1      -4.838   7.277  -5.200  1.00  0.00    -0.248 NA
ATOM     46  C   UNL     1      -4.927   9.247  -4.004  1.00  0.00     0.031 C 
ATOM     47  C   UNL     1      -5.744   6.390  -8.316  1.00  0.00     0.029 A 
ATOM     48  C   UNL     1      -4.485   6.782  -7.898  1.00  0.00     0.049 A 
ATOM     49  H   UNL     1      -2.642   5.779  -8.077  1.00  0.00     0.167 HD
ATOM     50  C   UNL     1      -4.361   8.259  -6.025  1.00  0.00     0.074 A 
ATOM     51  C   UNL     1      -4.407   9.469  -5.223  1.00  0.00     0.031 C 
ATOM     52  C   UNL     1      -4.011   8.026  -7.322  1.00  0.00     0.037 A 
BRANCH  39  53
ATOM     53  C   UNL     1      -3.601   2.489  -9.980  1.00  0.00     0.057 A 
ATOM     54  C   UNL     1      -4.534   2.557 -11.033  1.00  0.00     0.134 A 
ATOM     55  C   UNL     1      -2.582   1.538 -10.149  1.00  0.00     0.134 A 
ATOM     56  F   UNL     1      -5.534   3.447 -11.033  1.00  0.00    -0.206 F 
ATOM     57  C   UNL     1      -4.504   1.691 -12.133  1.00  0.00     0.040 A 
ATOM     58  C   UNL     1      -2.556   0.645 -11.232  1.00  0.00     0.040 A 
ATOM     59  F   UNL     1      -1.577   1.445  -9.265  1.00  0.00    -0.206 F 
ATOM     60  C   UNL     1      -3.527   0.711 -12.224  1.00  0.00     0.006 A 
ENDBRANCH  39  53
BRANCH  40  61
ATOM     61  C   UNL     1      -5.323   6.838  -1.603  1.00  0.00     0.057 A 
ATOM     62  C   UNL     1      -6.177   6.476  -0.539  1.00  0.00     0.134 A 
ATOM     63  C   UNL     1      -3.951   6.735  -1.356  1.00  0.00     0.134 A 
ATOM     64  F   UNL     1      -7.510   6.548  -0.689  1.00  0.00    -0.206 F 
ATOM     65  C   UNL     1      -5.697   5.959   0.668  1.00  0.00     0.040 A 
ATOM     66  C   UNL     1      -3.455   6.235  -0.141  1.00  0.00     0.040 A 
ATOM     67  F   UNL     1      -3.058   7.059  -2.301  1.00  0.00    -0.206 F 
ATOM     68  C   UNL     1      -4.328   5.820   0.864  1.00  0.00     0.006 A 
ENDBRANCH  40  61
BRANCH  52  69
ATOM     69  C   UNL     1      -3.316   9.010  -8.215  1.00  0.00     0.057 A 
ATOM     70  C   UNL     1      -2.346   9.910  -7.756  1.00  0.00     0.134 A 
ATOM     71  C   UNL     1      -3.495   8.966  -9.614  1.00  0.00     0.134 A 
ATOM     72  F   UNL     1      -2.014   9.977  -6.458  1.00  0.00    -0.206 F 
ATOM     73  C   UNL     1      -1.637  10.747  -8.624  1.00  0.00     0.040 A 
ATOM     74  C   UNL     1      -2.759   9.760 -10.493  1.00  0.00     0.040 A 
ATOM     75  F   UNL     1      -4.378   8.134 -10.187  1.00  0.00    -0.206 F 
ATOM     76  C   UNL     1      -1.833  10.665  -9.998  1.00  0.00     0.006 A 
ENDBRANCH  52  69
ENDBRANCH  26  27
ENDBRANCH  19  21
ENDBRANCH  18  19
ENDBRANCH  17  18
ENDBRANCH   1  17
TORSDOF 15
