REMARK SMILES Cc1nnc(SCC(=O)Nc2cccc(C(=O)OCCOC(=O)c3ccc(-c4c5nc(c(-c6c(F)cccc6F)c6ccc([nH]6)c(-c6c(F)cccc6F)c6nc(c(-c7c(F)cccc7F)c7ccc4[nH]7)C=C6)C=C5)cc3)c2)n1-c1ccccc1
REMARK SMILES IDX 18 1 16 2 17 3 15 4 11 5 12 6 78 7 13 8 14 9 10 10 8 11 9 12
REMARK SMILES IDX 7 14 6 15 5 16 1 17 2 18 3 19 79 20 4 21 80 22 81 23 85 24
REMARK SMILES IDX 82 25 84 26 83 27 19 28 20 29 21 30 22 31 23 32 24 33 25 34
REMARK SMILES IDX 77 35 26 36 76 37 27 38 28 39 29 40 70 41 30 42 75 43 69 44
REMARK SMILES IDX 71 45 31 46 74 47 68 48 67 49 32 51 58 52 41 53 57 54 42 55
REMARK SMILES IDX 45 56 56 57 72 58 43 59 44 60 55 62 73 63 46 64 33 65 34 66
REMARK SMILES IDX 39 67 35 68 36 69 38 70 40 71 37 72 59 73 60 74 65 75 61 76
REMARK SMILES IDX 62 77 64 78 66 79 63 80 47 81 48 82 53 83 49 84 50 85 52 86
REMARK SMILES IDX 54 87 51 88
REMARK H PARENT 10 13 71 50 45 61
REMARK Flexibility Score: inf
ROOT
ATOM      1  O   UNL     1      -1.468   2.539  -6.731  1.00  0.00    -0.458 OA
ENDROOT
BRANCH   1   2
ATOM      2  C   UNL     1      -2.212   3.549  -7.241  1.00  0.00     0.338 C 
ATOM      3  O   UNL     1      -2.404   3.788  -8.425  1.00  0.00    -0.246 OA
BRANCH   2   4
ATOM      4  C   UNL     1      -2.833   4.314  -6.131  1.00  0.00     0.062 A 
ATOM      5  C   UNL     1      -2.996   4.783  -3.782  1.00  0.00     0.042 A 
ATOM      6  C   UNL     1      -3.902   5.813  -4.030  1.00  0.00     0.026 A 
ATOM      7  C   UNL     1      -2.563   3.972  -4.809  1.00  0.00     0.041 A 
ATOM      8  C   UNL     1      -4.258   6.108  -5.345  1.00  0.00     0.003 A 
ATOM      9  C   UNL     1      -3.694   5.383  -6.399  1.00  0.00     0.016 A 
BRANCH   5  10
ATOM     10  N   UNL     1      -2.443   4.674  -2.508  1.00  0.00    -0.325 N 
ATOM     11  C   UNL     1      -1.141   4.980  -2.238  1.00  0.00     0.234 C 
ATOM     12  O   UNL     1      -0.986   5.622  -1.186  1.00  0.00    -0.274 OA
ATOM     13  H   UNL     1      -3.017   4.363  -1.770  1.00  0.00     0.169 HD
BRANCH  11  14
ATOM     14  C   UNL     1       0.029   4.821  -3.196  1.00  0.00     0.178 C 
BRANCH  14  15
ATOM     15  S   UNL     1       0.538   3.230  -3.853  1.00  0.00    -0.076 SA
BRANCH  15  16
ATOM     16  C   UNL     1       0.154   1.930  -2.778  1.00  0.00     0.196 A 
ATOM     17  C   UNL     1       0.890  -0.299  -0.008  1.00  0.00     0.090 C 
ATOM     18  C   UNL     1       0.465   0.383  -1.251  1.00  0.00     0.135 A 
ATOM     19  N   UNL     1      -0.243  -0.145  -2.229  1.00  0.00    -0.134 NA
ATOM     20  N   UNL     1       0.726   1.704  -1.544  1.00  0.00    -0.274 N 
ATOM     21  N   UNL     1      -0.427   0.822  -3.190  1.00  0.00    -0.123 NA
BRANCH  20  22
ATOM     22  C   UNL     1       1.407   2.627  -0.744  1.00  0.00     0.049 A 
ATOM     23  C   UNL     1       0.656   3.588  -0.075  1.00  0.00     0.027 A 
ATOM     24  C   UNL     1       2.799   2.681  -0.775  1.00  0.00     0.027 A 
ATOM     25  C   UNL     1       1.298   4.699   0.462  1.00  0.00     0.002 A 
ATOM     26  C   UNL     1       3.434   3.782  -0.201  1.00  0.00     0.002 A 
ATOM     27  C   UNL     1       2.683   4.807   0.381  1.00  0.00     0.000 A 
ENDBRANCH  20  22
ENDBRANCH  15  16
ENDBRANCH  14  15
ENDBRANCH  11  14
ENDBRANCH   5  10
ENDBRANCH   2   4
ENDBRANCH   1   2
BRANCH   1  28
ATOM     28  C   UNL     1      -1.104   1.471  -7.611  1.00  0.00     0.275 C 
BRANCH  28  29
ATOM     29  C   UNL     1      -2.194   0.408  -7.634  1.00  0.00     0.275 C 
BRANCH  29  30
ATOM     30  O   UNL     1      -3.396   0.900  -8.230  1.00  0.00    -0.458 OA
BRANCH  30  31
ATOM     31  C   UNL     1      -4.328   1.346  -7.357  1.00  0.00     0.338 C 
ATOM     32  O   UNL     1      -4.181   1.617  -6.178  1.00  0.00    -0.246 OA
BRANCH  31  33
ATOM     33  C   UNL     1      -5.647   1.278  -7.986  1.00  0.00     0.060 A 
ATOM     34  C   UNL     1      -6.710   1.934  -7.360  1.00  0.00     0.016 A 
ATOM     35  C   UNL     1      -5.853   0.368  -9.031  1.00  0.00     0.016 A 
ATOM     36  C   UNL     1      -7.999   1.576  -7.704  1.00  0.00     0.010 A 
ATOM     37  C   UNL     1      -7.136   0.000  -9.361  1.00  0.00     0.010 A 
ATOM     38  C   UNL     1      -8.196   0.567  -8.658  1.00  0.00    -0.014 A 
BRANCH  38  39
ATOM     39  C   UNL     1      -9.555   0.261  -9.066  1.00  0.00     0.031 A 
ATOM     40  C   UNL     1     -10.184   1.394  -9.792  1.00  0.00     0.074 A 
ATOM     41  C   UNL     1     -10.113  -0.959  -8.940  1.00  0.00     0.049 A 
ATOM     42  N   UNL     1     -11.221   2.075  -9.439  1.00  0.00    -0.248 NA
ATOM     43  C   UNL     1      -9.470   1.951 -10.956  1.00  0.00     0.031 C 
ATOM     44  C   UNL     1      -9.475  -2.202  -8.499  1.00  0.00     0.029 A 
ATOM     45  N   UNL     1     -11.366  -1.372  -9.281  1.00  0.00    -0.354 N 
ATOM     46  C   UNL     1     -11.420   3.007 -10.453  1.00  0.00     0.074 A 
ATOM     47  C   UNL     1     -10.221   3.013 -11.244  1.00  0.00     0.031 C 
ATOM     48  C   UNL     1     -10.268  -3.251  -8.818  1.00  0.00     0.029 A 
ATOM     49  C   UNL     1     -11.518  -2.753  -9.368  1.00  0.00     0.049 A 
ATOM     50  H   UNL     1     -12.104  -0.744  -9.452  1.00  0.00     0.167 HD
ATOM     51  C   UNL     1     -12.669   3.477 -10.716  1.00  0.00     0.037 A 
ATOM     52  C   UNL     1     -12.572  -3.417  -9.912  1.00  0.00     0.037 A 
ATOM     53  C   UNL     1     -13.526   3.312  -9.566  1.00  0.00     0.049 A 
ATOM     54  C   UNL     1     -13.703  -2.459  -9.992  1.00  0.00     0.074 A 
ATOM     55  C   UNL     1     -13.478   3.734  -8.250  1.00  0.00     0.029 A 
ATOM     56  N   UNL     1     -14.443   2.292  -9.595  1.00  0.00    -0.354 N 
ATOM     57  N   UNL     1     -14.355  -2.014  -8.957  1.00  0.00    -0.248 NA
ATOM     58  C   UNL     1     -13.817  -1.654 -11.199  1.00  0.00     0.031 C 
ATOM     59  C   UNL     1     -13.994   2.642  -7.492  1.00  0.00     0.029 A 
ATOM     60  C   UNL     1     -14.396   1.652  -8.386  1.00  0.00     0.049 A 
ATOM     61  H   UNL     1     -15.030   2.061 -10.351  1.00  0.00     0.167 HD
ATOM     62  C   UNL     1     -14.569  -0.674  -9.234  1.00  0.00     0.074 A 
ATOM     63  C   UNL     1     -14.296  -0.529 -10.663  1.00  0.00     0.031 C 
ATOM     64  C   UNL     1     -14.654   0.242  -8.226  1.00  0.00     0.037 A 
BRANCH  51  65
ATOM     65  C   UNL     1     -13.217   3.631 -12.120  1.00  0.00     0.057 A 
ATOM     66  C   UNL     1     -14.540   4.085 -12.276  1.00  0.00     0.134 A 
ATOM     67  C   UNL     1     -12.647   3.062 -13.279  1.00  0.00     0.134 A 
ATOM     68  F   UNL     1     -15.198   4.656 -11.256  1.00  0.00    -0.206 F 
ATOM     69  C   UNL     1     -15.275   3.873 -13.448  1.00  0.00     0.040 A 
ATOM     70  C   UNL     1     -13.357   2.891 -14.470  1.00  0.00     0.040 A 
ATOM     71  F   UNL     1     -11.411   2.553 -13.312  1.00  0.00    -0.206 F 
ATOM     72  C   UNL     1     -14.689   3.258 -14.545  1.00  0.00     0.006 A 
ENDBRANCH  51  65
BRANCH  52  73
ATOM     73  C   UNL     1     -12.628  -4.713 -10.637  1.00  0.00     0.057 A 
ATOM     74  C   UNL     1     -13.864  -5.306 -10.950  1.00  0.00     0.134 A 
ATOM     75  C   UNL     1     -11.511  -5.241 -11.304  1.00  0.00     0.134 A 
ATOM     76  F   UNL     1     -14.998  -4.859 -10.390  1.00  0.00    -0.206 F 
ATOM     77  C   UNL     1     -13.988  -6.322 -11.907  1.00  0.00     0.040 A 
ATOM     78  C   UNL     1     -11.621  -6.263 -12.256  1.00  0.00     0.040 A 
ATOM     79  F   UNL     1     -10.288  -4.723 -11.130  1.00  0.00    -0.206 F 
ATOM     80  C   UNL     1     -12.865  -6.793 -12.577  1.00  0.00     0.006 A 
ENDBRANCH  52  73
BRANCH  64  81
ATOM     81  C   UNL     1     -14.805  -0.265  -6.819  1.00  0.00     0.057 A 
ATOM     82  C   UNL     1     -13.861  -1.060  -6.151  1.00  0.00     0.134 A 
ATOM     83  C   UNL     1     -15.892   0.195  -6.066  1.00  0.00     0.134 A 
ATOM     84  F   UNL     1     -12.740  -1.470  -6.759  1.00  0.00    -0.206 F 
ATOM     85  C   UNL     1     -14.017  -1.412  -4.806  1.00  0.00     0.040 A 
ATOM     86  C   UNL     1     -16.039  -0.118  -4.715  1.00  0.00     0.040 A 
ATOM     87  F   UNL     1     -16.809   1.000  -6.626  1.00  0.00    -0.206 F 
ATOM     88  C   UNL     1     -15.105  -0.933  -4.082  1.00  0.00     0.006 A 
ENDBRANCH  64  81
ENDBRANCH  38  39
ENDBRANCH  31  33
ENDBRANCH  30  31
ENDBRANCH  29  30
ENDBRANCH  28  29
ENDBRANCH   1  28
TORSDOF 16
