REMARK SMILES COc1ccccc1NC(=O)N[C@@](C)(C(=O)OCCOC(=O)c1ccc(-c2c3nc(c(-c4c(F)cccc4F)c4ccc([nH]4)c(-c4c(F)cccc4F)c4nc(c(-c5c(F)cccc5F)c5ccc2[nH]5)C=C4)C=C3)cc1)C(F)(F)F
REMARK SMILES IDX 18 1 17 2 15 3 16 4 13 5 14 6 12 7 9 8 10 9 11 11 8 13 3 14
REMARK SMILES IDX 4 15 5 16 7 17 6 18 2 19 1 20 77 21 78 22 79 23 80 24 19 25
REMARK SMILES IDX 20 26 21 27 22 28 23 29 24 30 76 31 25 32 75 33 26 34 27 35
REMARK SMILES IDX 28 36 69 37 29 38 74 39 68 40 70 41 30 42 73 43 67 44 66 45
REMARK SMILES IDX 31 47 57 48 40 49 56 50 41 51 44 52 55 53 71 54 42 55 43 56
REMARK SMILES IDX 54 58 72 59 45 60 32 61 33 62 38 63 34 64 35 65 37 66 39 67
REMARK SMILES IDX 36 68 58 69 59 70 64 71 60 72 61 73 63 74 65 75 62 76 46 77
REMARK SMILES IDX 47 78 52 79 48 80 49 81 51 82 53 83 50 84
REMARK H PARENT 9 10 12 12 70 46 44 57
REMARK Flexibility Score: inf
ROOT
ATOM      1  C   UNL     1       6.420  -1.762  -6.384  1.00  0.00     0.274 C 
ENDROOT
BRANCH   1   2
ATOM      2  O   UNL     1       5.881  -0.894  -5.362  1.00  0.00    -0.460 OA
BRANCH   2   3
ATOM      3  C   UNL     1       5.560   0.348  -5.836  1.00  0.00     0.341 C 
ATOM      4  O   UNL     1       5.971   0.785  -6.907  1.00  0.00    -0.249 OA
BRANCH   3   5
ATOM      5  C   UNL     1       4.470   1.033  -4.992  1.00  0.00     0.232 C 
ATOM      6  C   UNL     1       4.495   2.519  -5.381  1.00  0.00     0.058 C 
BRANCH   5   7
ATOM      7  N   UNL     1       4.848   0.923  -3.547  1.00  0.00    -0.314 N 
ATOM      8  N   UNL     1       3.051   0.811  -1.963  1.00  0.00    -0.305 N 
ATOM      9  C   UNL     1       4.326   0.910  -2.326  1.00  0.00     0.320 C 
ATOM     10  H   UNL     1       2.990   0.530  -1.021  1.00  0.00     0.172 HD
ATOM     11  O   UNL     1       5.163   0.856  -1.414  1.00  0.00    -0.248 OA
ATOM     12  H   UNL     1       5.825   0.825  -3.479  1.00  0.00     0.166 HD
BRANCH   8  13
ATOM     13  C   UNL     1       1.769   0.979  -2.495  1.00  0.00     0.085 A 
ATOM     14  C   UNL     1       0.745   0.181  -1.950  1.00  0.00     0.142 A 
ATOM     15  C   UNL     1      -0.531   0.147  -2.511  1.00  0.00     0.048 A 
ATOM     16  C   UNL     1      -0.828   1.000  -3.568  1.00  0.00     0.004 A 
ATOM     17  C   UNL     1       1.427   1.905  -3.466  1.00  0.00     0.030 A 
ATOM     18  C   UNL     1       0.136   1.905  -4.015  1.00  0.00     0.002 A 
BRANCH  14  19
ATOM     19  O   UNL     1       1.025  -0.628  -0.875  1.00  0.00    -0.495 OA
ATOM     20  C   UNL     1       0.576  -0.001   0.332  1.00  0.00     0.278 C 
ENDBRANCH  14  19
ENDBRANCH   8  13
ENDBRANCH   5   7
BRANCH   5  21
ATOM     21  C   UNL     1       3.215   0.302  -5.503  1.00  0.00     0.422 C 
ATOM     22  F   UNL     1       2.692  -0.509  -4.563  1.00  0.00    -0.168 F 
ATOM     23  F   UNL     1       2.249   1.165  -5.893  1.00  0.00    -0.168 F 
ATOM     24  F   UNL     1       3.435  -0.487  -6.586  1.00  0.00    -0.168 F 
ENDBRANCH   5  21
ENDBRANCH   3   5
ENDBRANCH   2   3
ENDBRANCH   1   2
BRANCH   1  25
ATOM     25  C   UNL     1       6.279  -3.222  -5.964  1.00  0.00     0.275 C 
BRANCH  25  26
ATOM     26  O   UNL     1       4.899  -3.489  -5.652  1.00  0.00    -0.458 OA
BRANCH  26  27
ATOM     27  C   UNL     1       4.688  -4.249  -4.548  1.00  0.00     0.338 C 
ATOM     28  O   UNL     1       5.545  -4.798  -3.875  1.00  0.00    -0.246 OA
BRANCH  27  29
ATOM     29  C   UNL     1       3.242  -4.318  -4.220  1.00  0.00     0.060 A 
ATOM     30  C   UNL     1       2.360  -3.310  -4.600  1.00  0.00     0.016 A 
ATOM     31  C   UNL     1       2.774  -5.356  -3.414  1.00  0.00     0.016 A 
ATOM     32  C   UNL     1       1.069  -3.255  -4.062  1.00  0.00     0.010 A 
ATOM     33  C   UNL     1       1.441  -5.366  -2.982  1.00  0.00     0.010 A 
ATOM     34  C   UNL     1       0.578  -4.286  -3.250  1.00  0.00    -0.014 A 
BRANCH  34  35
ATOM     35  C   UNL     1      -0.782  -4.232  -2.620  1.00  0.00     0.031 A 
ATOM     36  C   UNL     1      -0.937  -4.514  -1.143  1.00  0.00     0.074 A 
ATOM     37  C   UNL     1      -1.899  -3.941  -3.319  1.00  0.00     0.049 A 
ATOM     38  N   UNL     1      -2.004  -4.870  -0.470  1.00  0.00    -0.248 NA
ATOM     39  C   UNL     1       0.279  -4.411  -0.321  1.00  0.00     0.031 C 
ATOM     40  C   UNL     1      -1.959  -3.566  -4.731  1.00  0.00     0.029 A 
ATOM     41  N   UNL     1      -3.217  -3.914  -2.919  1.00  0.00    -0.354 N 
ATOM     42  C   UNL     1      -1.564  -5.148   0.820  1.00  0.00     0.074 A 
ATOM     43  C   UNL     1      -0.140  -4.886   0.843  1.00  0.00     0.031 C 
ATOM     44  C   UNL     1      -3.229  -3.283  -5.061  1.00  0.00     0.029 A 
ATOM     45  C   UNL     1      -4.093  -3.575  -3.922  1.00  0.00     0.049 A 
ATOM     46  H   UNL     1      -3.505  -4.118  -2.000  1.00  0.00     0.167 HD
ATOM     47  C   UNL     1      -2.280  -5.594   1.881  1.00  0.00     0.037 A 
ATOM     48  C   UNL     1      -5.440  -3.556  -3.954  1.00  0.00     0.037 A 
ATOM     49  C   UNL     1      -3.713  -5.737   1.899  1.00  0.00     0.049 A 
ATOM     50  C   UNL     1      -6.224  -4.035  -2.766  1.00  0.00     0.074 A 
ATOM     51  C   UNL     1      -4.527  -6.168   2.934  1.00  0.00     0.029 A 
ATOM     52  N   UNL     1      -4.550  -5.406   0.846  1.00  0.00    -0.354 N 
ATOM     53  N   UNL     1      -5.790  -4.448  -1.601  1.00  0.00    -0.248 NA
ATOM     54  C   UNL     1      -7.686  -4.090  -2.917  1.00  0.00     0.031 C 
ATOM     55  C   UNL     1      -5.857  -6.107   2.502  1.00  0.00     0.029 A 
ATOM     56  C   UNL     1      -5.871  -5.612   1.210  1.00  0.00     0.049 A 
ATOM     57  H   UNL     1      -4.251  -5.074  -0.031  1.00  0.00     0.167 HD
ATOM     58  C   UNL     1      -6.921  -4.817  -0.885  1.00  0.00     0.074 A 
ATOM     59  C   UNL     1      -8.063  -4.552  -1.733  1.00  0.00     0.031 C 
ATOM     60  C   UNL     1      -7.002  -5.345   0.361  1.00  0.00     0.037 A 
BRANCH  47  61
ATOM     61  C   UNL     1      -1.519  -6.005   3.108  1.00  0.00     0.057 A 
ATOM     62  C   UNL     1      -0.945  -5.079   3.984  1.00  0.00     0.134 A 
ATOM     63  C   UNL     1      -1.395  -7.365   3.431  1.00  0.00     0.134 A 
ATOM     64  F   UNL     1      -1.016  -3.764   3.726  1.00  0.00    -0.206 F 
ATOM     65  C   UNL     1      -0.253  -5.489   5.127  1.00  0.00     0.040 A 
ATOM     66  C   UNL     1      -0.729  -7.786   4.582  1.00  0.00     0.040 A 
ATOM     67  F   UNL     1      -1.932  -8.305   2.638  1.00  0.00    -0.206 F 
ATOM     68  C   UNL     1      -0.150  -6.846   5.431  1.00  0.00     0.006 A 
ENDBRANCH  47  61
BRANCH  48  69
ATOM     69  C   UNL     1      -6.143  -3.117  -5.186  1.00  0.00     0.057 A 
ATOM     70  C   UNL     1      -6.837  -1.903  -5.219  1.00  0.00     0.134 A 
ATOM     71  C   UNL     1      -6.134  -3.890  -6.353  1.00  0.00     0.134 A 
ATOM     72  F   UNL     1      -6.906  -1.135  -4.122  1.00  0.00    -0.206 F 
ATOM     73  C   UNL     1      -7.495  -1.470  -6.371  1.00  0.00     0.040 A 
ATOM     74  C   UNL     1      -6.765  -3.458  -7.520  1.00  0.00     0.040 A 
ATOM     75  F   UNL     1      -5.489  -5.066  -6.382  1.00  0.00    -0.206 F 
ATOM     76  C   UNL     1      -7.451  -2.245  -7.529  1.00  0.00     0.006 A 
ENDBRANCH  48  69
BRANCH  60  77
ATOM     77  C   UNL     1      -8.372  -5.647   0.887  1.00  0.00     0.057 A 
ATOM     78  C   UNL     1      -9.092  -6.769   0.457  1.00  0.00     0.134 A 
ATOM     79  C   UNL     1      -8.968  -4.822   1.848  1.00  0.00     0.134 A 
ATOM     80  F   UNL     1      -8.580  -7.589  -0.473  1.00  0.00    -0.206 F 
ATOM     81  C   UNL     1     -10.367  -7.049   0.951  1.00  0.00     0.040 A 
ATOM     82  C   UNL     1     -10.235  -5.101   2.362  1.00  0.00     0.040 A 
ATOM     83  F   UNL     1      -8.328  -3.735   2.303  1.00  0.00    -0.206 F 
ATOM     84  C   UNL     1     -10.940  -6.215   1.910  1.00  0.00     0.006 A 
ENDBRANCH  60  77
ENDBRANCH  34  35
ENDBRANCH  27  29
ENDBRANCH  26  27
ENDBRANCH  25  26
ENDBRANCH   1  25
TORSDOF 15
