REMARK SMILES Cc1cc(C(=O)OCCOC(=O)c2ccc(-c3c4nc(c(-c5c(F)cccc5F)c5ccc([nH]5)c(-c5c(F)cccc5F)c5nc(c(-c6c(F)cccc6F)c6ccc3[nH]6)C=C5)C=C4)cc2)ccc1NC(=O)N1C[C@@H](C)[C@H](C)C1
REMARK SMILES IDX 9 1 8 2 7 3 5 4 6 5 4 6 1 7 2 8 3 9 69 10 68 11 67 12 70 13
REMARK SMILES IDX 71 14 72 16 73 17 74 18 79 19 75 20 77 21 76 22 78 23 10 24
REMARK SMILES IDX 11 25 12 26 13 27 14 28 66 29 15 30 65 31 16 32 17 33 18 34
REMARK SMILES IDX 59 35 19 36 64 37 58 38 60 39 20 40 63 41 57 42 56 43 21 45
REMARK SMILES IDX 47 46 30 47 46 48 31 49 34 50 45 51 61 52 32 53 33 54 44 56
REMARK SMILES IDX 62 57 35 58 22 59 23 60 28 61 24 62 25 63 27 64 29 65 26 66
REMARK SMILES IDX 48 67 49 68 54 69 50 70 51 71 53 72 55 73 52 74 36 75 37 76
REMARK SMILES IDX 42 77 38 78 39 79 41 80 43 81 40 82
REMARK H PARENT 70 15 60 44 34 55
REMARK Flexibility Score: inf
ROOT
ATOM      1  C   UNL     1      -3.919  -4.170  -2.781  1.00  0.00     0.275 C 
ENDROOT
BRANCH   1   2
ATOM      2  C   UNL     1      -4.001  -2.800  -2.098  1.00  0.00     0.275 C 
BRANCH   2   3
ATOM      3  O   UNL     1      -2.787  -2.046  -2.205  1.00  0.00    -0.458 OA
BRANCH   3   4
ATOM      4  C   UNL     1      -2.607  -1.208  -1.158  1.00  0.00     0.338 C 
ATOM      5  O   UNL     1      -3.342  -1.071  -0.191  1.00  0.00    -0.246 OA
BRANCH   4   6
ATOM      6  C   UNL     1      -1.505  -0.272  -1.380  1.00  0.00     0.060 A 
ATOM      7  C   UNL     1       2.017   0.359  -0.102  1.00  0.00     0.046 C 
ATOM      8  C   UNL     1       0.647   0.635  -0.658  1.00  0.00    -0.027 A 
ATOM      9  C   UNL     1      -0.215  -0.460  -0.869  1.00  0.00     0.021 A 
ATOM     10  C   UNL     1       0.131   1.913  -0.901  1.00  0.00     0.045 A 
ATOM     11  C   UNL     1      -1.056   2.042  -1.639  1.00  0.00     0.027 A 
ATOM     12  C   UNL     1      -1.898   0.968  -1.846  1.00  0.00     0.018 A 
BRANCH  10  13
ATOM     13  N   UNL     1       0.739   3.068  -0.368  1.00  0.00    -0.308 N 
ATOM     14  C   UNL     1       0.144   4.292  -0.174  1.00  0.00     0.321 C 
ATOM     15  H   UNL     1       1.685   2.991  -0.109  1.00  0.00     0.171 HD
ATOM     16  O   UNL     1       0.817   5.319  -0.238  1.00  0.00    -0.248 OA
ATOM     17  N   UNL     1      -1.206   4.306   0.084  1.00  0.00    -0.324 N 
ATOM     18  C   UNL     1      -2.090   5.282  -0.512  1.00  0.00     0.125 C 
ATOM     19  C   UNL     1      -1.839   3.587   1.182  1.00  0.00     0.125 C 
ATOM     20  C   UNL     1      -3.331   5.321   0.372  1.00  0.00     0.010 C 
ATOM     21  C   UNL     1      -3.320   3.974   1.124  1.00  0.00     0.010 C 
ATOM     22  C   UNL     1      -4.606   5.521  -0.439  1.00  0.00     0.010 C 
ATOM     23  C   UNL     1      -3.964   4.080   2.505  1.00  0.00     0.010 C 
ENDBRANCH  10  13
ENDBRANCH   4   6
ENDBRANCH   3   4
ENDBRANCH   2   3
ENDBRANCH   1   2
BRANCH   1  24
ATOM     24  O   UNL     1      -2.628  -4.841  -2.881  1.00  0.00    -0.458 OA
BRANCH  24  25
ATOM     25  C   UNL     1      -1.591  -4.832  -2.015  1.00  0.00     0.338 C 
ATOM     26  O   UNL     1      -0.434  -5.059  -2.367  1.00  0.00    -0.246 OA
BRANCH  25  27
ATOM     27  C   UNL     1      -1.877  -4.506  -0.617  1.00  0.00     0.060 A 
ATOM     28  C   UNL     1      -0.951  -3.728   0.095  1.00  0.00     0.016 A 
ATOM     29  C   UNL     1      -3.087  -4.889  -0.054  1.00  0.00     0.016 A 
ATOM     30  C   UNL     1      -1.278  -3.231   1.345  1.00  0.00     0.010 A 
ATOM     31  C   UNL     1      -3.480  -4.289   1.112  1.00  0.00     0.010 A 
ATOM     32  C   UNL     1      -2.548  -3.522   1.831  1.00  0.00    -0.014 A 
BRANCH  32  33
ATOM     33  C   UNL     1      -2.852  -3.494   3.245  1.00  0.00     0.031 A 
ATOM     34  C   UNL     1      -3.440  -2.308   3.872  1.00  0.00     0.074 A 
ATOM     35  C   UNL     1      -2.713  -4.740   3.753  1.00  0.00     0.049 A 
ATOM     36  N   UNL     1      -3.453  -2.101   5.138  1.00  0.00    -0.248 NA
ATOM     37  C   UNL     1      -4.020  -1.196   3.122  1.00  0.00     0.031 C 
ATOM     38  C   UNL     1      -3.216  -5.377   4.950  1.00  0.00     0.029 A 
ATOM     39  N   UNL     1      -1.882  -5.724   3.181  1.00  0.00    -0.354 N 
ATOM     40  C   UNL     1      -4.352  -1.079   5.379  1.00  0.00     0.074 A 
ATOM     41  C   UNL     1      -4.522  -0.436   4.104  1.00  0.00     0.031 C 
ATOM     42  C   UNL     1      -2.461  -6.470   5.195  1.00  0.00     0.029 A 
ATOM     43  C   UNL     1      -1.364  -6.477   4.227  1.00  0.00     0.049 A 
ATOM     44  H   UNL     1      -1.702  -5.853   2.222  1.00  0.00     0.167 HD
ATOM     45  C   UNL     1      -4.983  -1.064   6.591  1.00  0.00     0.037 A 
ATOM     46  C   UNL     1      -0.040  -6.294   4.512  1.00  0.00     0.037 A 
ATOM     47  C   UNL     1      -4.442  -2.154   7.408  1.00  0.00     0.049 A 
ATOM     48  C   UNL     1       0.083  -5.582   5.837  1.00  0.00     0.074 A 
ATOM     49  C   UNL     1      -4.878  -3.455   7.599  1.00  0.00     0.029 A 
ATOM     50  N   UNL     1      -3.102  -2.125   7.781  1.00  0.00    -0.354 N 
ATOM     51  N   UNL     1      -0.744  -4.662   6.266  1.00  0.00    -0.248 NA
ATOM     52  C   UNL     1       1.067  -5.982   6.834  1.00  0.00     0.031 C 
ATOM     53  C   UNL     1      -3.750  -4.234   7.980  1.00  0.00     0.029 A 
ATOM     54  C   UNL     1      -2.638  -3.406   8.019  1.00  0.00     0.049 A 
ATOM     55  H   UNL     1      -2.561  -1.307   7.864  1.00  0.00     0.167 HD
ATOM     56  C   UNL     1      -0.490  -4.428   7.592  1.00  0.00     0.074 A 
ATOM     57  C   UNL     1       0.668  -5.257   7.890  1.00  0.00     0.031 C 
ATOM     58  C   UNL     1      -1.252  -3.629   8.397  1.00  0.00     0.037 A 
BRANCH  45  59
ATOM     59  C   UNL     1      -6.265  -0.333   6.956  1.00  0.00     0.057 A 
ATOM     60  C   UNL     1      -6.993  -0.722   8.104  1.00  0.00     0.134 A 
ATOM     61  C   UNL     1      -6.874   0.706   6.228  1.00  0.00     0.134 A 
ATOM     62  F   UNL     1      -6.530  -1.653   8.949  1.00  0.00    -0.206 F 
ATOM     63  C   UNL     1      -8.239  -0.178   8.455  1.00  0.00     0.040 A 
ATOM     64  C   UNL     1      -8.127   1.253   6.563  1.00  0.00     0.040 A 
ATOM     65  F   UNL     1      -6.289   1.279   5.175  1.00  0.00    -0.206 F 
ATOM     66  C   UNL     1      -8.820   0.805   7.675  1.00  0.00     0.006 A 
ENDBRANCH  45  59
BRANCH  46  67
ATOM     67  C   UNL     1       0.835  -6.098   3.302  1.00  0.00     0.057 A 
ATOM     68  C   UNL     1       0.767  -7.052   2.258  1.00  0.00     0.134 A 
ATOM     69  C   UNL     1       1.526  -4.920   3.004  1.00  0.00     0.134 A 
ATOM     70  F   UNL     1       0.138  -8.223   2.456  1.00  0.00    -0.206 F 
ATOM     71  C   UNL     1       1.255  -6.805   0.969  1.00  0.00     0.040 A 
ATOM     72  C   UNL     1       2.047  -4.671   1.718  1.00  0.00     0.040 A 
ATOM     73  F   UNL     1       1.652  -3.949   3.918  1.00  0.00    -0.206 F 
ATOM     74  C   UNL     1       1.883  -5.599   0.689  1.00  0.00     0.006 A 
ENDBRANCH  46  67
BRANCH  58  75
ATOM     75  C   UNL     1      -0.764  -3.047   9.698  1.00  0.00     0.057 A 
ATOM     76  C   UNL     1       0.590  -2.806   9.971  1.00  0.00     0.134 A 
ATOM     77  C   UNL     1      -1.672  -2.532  10.650  1.00  0.00     0.134 A 
ATOM     78  F   UNL     1       1.553  -3.111   9.091  1.00  0.00    -0.206 F 
ATOM     79  C   UNL     1       1.016  -2.179  11.143  1.00  0.00     0.040 A 
ATOM     80  C   UNL     1      -1.259  -1.834  11.784  1.00  0.00     0.040 A 
ATOM     81  F   UNL     1      -3.000  -2.648  10.504  1.00  0.00    -0.206 F 
ATOM     82  C   UNL     1       0.091  -1.677  12.048  1.00  0.00     0.006 A 
ENDBRANCH  58  75
ENDBRANCH  32  33
ENDBRANCH  25  27
ENDBRANCH  24  25
ENDBRANCH   1  24
TORSDOF 12
