REMARK SMILES COc1ccc([C@@H]2CC(c3ccc(Cl)cc3)=NN2C2=[NH+]C(=O)[C@@H](CC(=O)OCCOC(=O)c3ccc(-c4c5nc(c(-c6c(F)cccc6F)c6ccc([nH]6)c(-c6c(F)cccc6F)c6nc(c(-c7c(F)cccc7F)c7ccc4[nH]7)C=C6)C=C5)cc3)S2)cc1OC
REMARK SMILES IDX 28 1 27 2 25 3 26 4 24 5 23 6 19 7 20 8 87 9 21 10 22 12
REMARK SMILES IDX 18 13 7 14 8 15 9 16 17 17 6 18 3 19 4 20 89 21 5 22 88 23
REMARK SMILES IDX 2 24 1 25 90 26 91 27 10 28 11 29 16 30 12 31 15 32 13 33
REMARK SMILES IDX 14 34 29 35 30 36 31 37 32 38 33 39 34 40 86 41 35 42 85 43
REMARK SMILES IDX 36 44 37 45 38 46 79 47 39 48 84 49 78 50 80 51 40 52 83 53
REMARK SMILES IDX 77 54 76 55 41 57 67 58 50 59 66 60 51 61 54 62 65 63 81 64
REMARK SMILES IDX 52 65 53 66 64 68 82 69 55 70 42 71 43 72 48 73 44 74 45 75
REMARK SMILES IDX 47 76 49 77 46 78 68 79 69 80 74 81 70 82 71 83 73 84 75 85
REMARK SMILES IDX 72 86 56 87 57 88 62 89 58 90 59 91 61 92 63 93 60 94
REMARK H PARENT 20 11 80 56 54 67
REMARK Flexibility Score: inf
ROOT
ATOM      1  C   UNL     1      -1.611   5.565   8.219  1.00  0.00     0.274 C 
ENDROOT
BRANCH   1   2
ATOM      2  O   UNL     1      -0.487   4.962   7.555  1.00  0.00    -0.462 OA
BRANCH   2   3
ATOM      3  C   UNL     1      -0.059   5.543   6.409  1.00  0.00     0.307 C 
ATOM      4  O   UNL     1      -0.575   6.518   5.878  1.00  0.00    -0.252 OA
BRANCH   3   5
ATOM      5  C   UNL     1       1.106   4.806   5.807  1.00  0.00     0.150 C 
BRANCH   5   6
ATOM      6  C   UNL     1       2.323   4.699   6.718  1.00  0.00     0.184 C 
ATOM      7  C   UNL     1       3.103   2.322   6.975  1.00  0.00     0.340 C 
ATOM      8  N   UNL     1       3.711   2.853   5.965  1.00  0.00    -0.202 N 
ATOM      9  S   UNL     1       2.169   3.404   7.981  1.00  0.00    -0.020 SA
ATOM     10  C   UNL     1       3.491   4.209   5.881  1.00  0.00     0.322 C 
ATOM     11  H   UNL     1       4.266   2.346   5.329  1.00  0.00     0.316 HD
ATOM     12  O   UNL     1       4.101   4.952   5.120  1.00  0.00    -0.246 OA
BRANCH   7  13
ATOM     13  N   UNL     1       3.076   0.992   7.309  1.00  0.00    -0.120 N 
ATOM     14  C   UNL     1       2.123   0.084   6.665  1.00  0.00     0.243 C 
ATOM     15  C   UNL     1       2.766  -1.295   6.806  1.00  0.00     0.118 C 
ATOM     16  C   UNL     1       4.016  -0.925   7.547  1.00  0.00     0.096 C 
ATOM     17  N   UNL     1       4.167   0.333   7.813  1.00  0.00    -0.086 NA
BRANCH  14  18
ATOM     18  C   UNL     1       0.747   0.210   7.299  1.00  0.00     0.003 A 
ATOM     19  C   UNL     1      -1.795   0.664   8.443  1.00  0.00     0.160 A 
ATOM     20  C   UNL     1      -0.708   0.294   9.245  1.00  0.00     0.051 A 
ATOM     21  C   UNL     1      -1.622   0.814   7.062  1.00  0.00     0.161 A 
ATOM     22  C   UNL     1       0.549   0.060   8.678  1.00  0.00     0.012 A 
ATOM     23  C   UNL     1      -0.353   0.583   6.508  1.00  0.00     0.058 A 
BRANCH  19  24
ATOM     24  O   UNL     1      -2.984   0.987   9.042  1.00  0.00    -0.493 OA
ATOM     25  C   UNL     1      -3.578  -0.127   9.707  1.00  0.00     0.278 C 
ENDBRANCH  19  24
BRANCH  21  26
ATOM     26  O   UNL     1      -2.546   1.198   6.128  1.00  0.00    -0.493 OA
ATOM     27  C   UNL     1      -3.919   1.172   6.492  1.00  0.00     0.278 C 
ENDBRANCH  21  26
ENDBRANCH  14  18
BRANCH  16  28
ATOM     28  C   UNL     1       5.006  -1.934   7.951  1.00  0.00     0.000 A 
ATOM     29  C   UNL     1       5.585  -1.829   9.221  1.00  0.00     0.011 A 
ATOM     30  C   UNL     1       5.406  -2.943   7.071  1.00  0.00     0.011 A 
ATOM     31  C   UNL     1       6.555  -2.749   9.621  1.00  0.00     0.021 A 
ATOM     32  C   UNL     1       6.391  -3.851   7.469  1.00  0.00     0.021 A 
ATOM     33  C   UNL     1       6.958  -3.753   8.741  1.00  0.00     0.041 A 
ATOM     34  Cl  UNL     1       8.171  -4.873   9.224  1.00  0.00    -0.084 Cl
ENDBRANCH  16  28
ENDBRANCH   7  13
ENDBRANCH   5   6
ENDBRANCH   3   5
ENDBRANCH   2   3
ENDBRANCH   1   2
BRANCH   1  35
ATOM     35  C   UNL     1      -1.162   6.533   9.315  1.00  0.00     0.275 C 
BRANCH  35  36
ATOM     36  O   UNL     1      -0.644   7.757   8.759  1.00  0.00    -0.458 OA
BRANCH  36  37
ATOM     37  C   UNL     1       0.695   7.794   8.587  1.00  0.00     0.338 C 
ATOM     38  O   UNL     1       1.508   6.934   8.892  1.00  0.00    -0.246 OA
BRANCH  37  39
ATOM     39  C   UNL     1       1.070   9.014   7.863  1.00  0.00     0.060 A 
ATOM     40  C   UNL     1       1.638   8.898   6.590  1.00  0.00     0.016 A 
ATOM     41  C   UNL     1       0.943  10.259   8.479  1.00  0.00     0.016 A 
ATOM     42  C   UNL     1       2.090  10.035   5.923  1.00  0.00     0.010 A 
ATOM     43  C   UNL     1       1.397  11.396   7.810  1.00  0.00     0.010 A 
ATOM     44  C   UNL     1       1.983  11.289   6.536  1.00  0.00    -0.014 A 
BRANCH  44  45
ATOM     45  C   UNL     1       2.536  12.500   5.888  1.00  0.00     0.031 A 
ATOM     46  C   UNL     1       3.816  13.089   6.403  1.00  0.00     0.074 A 
ATOM     47  C   UNL     1       1.871  13.089   4.880  1.00  0.00     0.049 A 
ATOM     48  N   UNL     1       4.372  14.238   6.118  1.00  0.00    -0.248 NA
ATOM     49  C   UNL     1       4.564  12.279   7.376  1.00  0.00     0.031 C 
ATOM     50  C   UNL     1       0.645  12.583   4.265  1.00  0.00     0.029 A 
ATOM     51  N   UNL     1       2.126  14.261   4.213  1.00  0.00    -0.354 N 
ATOM     52  C   UNL     1       5.521  14.302   6.896  1.00  0.00     0.074 A 
ATOM     53  C   UNL     1       5.577  13.080   7.670  1.00  0.00     0.031 C 
ATOM     54  C   UNL     1       0.240  13.452   3.324  1.00  0.00     0.029 A 
ATOM     55  C   UNL     1       1.151  14.593   3.305  1.00  0.00     0.049 A 
ATOM     56  H   UNL     1       2.928  14.809   4.370  1.00  0.00     0.167 HD
ATOM     57  C   UNL     1       6.441  15.293   6.957  1.00  0.00     0.037 A 
ATOM     58  C   UNL     1       0.992  15.712   2.574  1.00  0.00     0.037 A 
ATOM     59  C   UNL     1       6.383  16.499   6.173  1.00  0.00     0.049 A 
ATOM     60  C   UNL     1       1.997  16.823   2.698  1.00  0.00     0.074 A 
ATOM     61  C   UNL     1       7.268  17.563   6.158  1.00  0.00     0.029 A 
ATOM     62  N   UNL     1       5.383  16.797   5.260  1.00  0.00    -0.354 N 
ATOM     63  N   UNL     1       3.070  16.887   3.448  1.00  0.00    -0.248 NA
ATOM     64  C   UNL     1       1.765  18.023   1.880  1.00  0.00     0.031 C 
ATOM     65  C   UNL     1       6.785  18.520   5.259  1.00  0.00     0.029 A 
ATOM     66  C   UNL     1       5.622  18.034   4.685  1.00  0.00     0.049 A 
ATOM     67  H   UNL     1       4.616  16.216   5.052  1.00  0.00     0.167 HD
ATOM     68  C   UNL     1       3.657  18.115   3.172  1.00  0.00     0.074 A 
ATOM     69  C   UNL     1       2.821  18.765   2.183  1.00  0.00     0.031 C 
ATOM     70  C   UNL     1       4.788  18.654   3.688  1.00  0.00     0.037 A 
BRANCH  57  71
ATOM     71  C   UNL     1       7.570  15.127   7.927  1.00  0.00     0.057 A 
ATOM     72  C   UNL     1       8.622  14.232   7.693  1.00  0.00     0.134 A 
ATOM     73  C   UNL     1       7.620  15.891   9.100  1.00  0.00     0.134 A 
ATOM     74  F   UNL     1       8.626  13.461   6.595  1.00  0.00    -0.206 F 
ATOM     75  C   UNL     1       9.673  14.089   8.601  1.00  0.00     0.040 A 
ATOM     76  C   UNL     1       8.676  15.774  10.004  1.00  0.00     0.040 A 
ATOM     77  F   UNL     1       6.645  16.769   9.382  1.00  0.00    -0.206 F 
ATOM     78  C   UNL     1       9.705  14.866   9.757  1.00  0.00     0.006 A 
ENDBRANCH  57  71
BRANCH  58  79
ATOM     79  C   UNL     1      -0.180  15.847   1.675  1.00  0.00     0.057 A 
ATOM     80  C   UNL     1      -0.033  15.809   0.285  1.00  0.00     0.134 A 
ATOM     81  C   UNL     1      -1.473  16.021   2.184  1.00  0.00     0.134 A 
ATOM     82  F   UNL     1       1.184  15.668  -0.261  1.00  0.00    -0.206 F 
ATOM     83  C   UNL     1      -1.127  15.950  -0.570  1.00  0.00     0.040 A 
ATOM     84  C   UNL     1      -2.579  16.141   1.342  1.00  0.00     0.040 A 
ATOM     85  F   UNL     1      -1.680  16.066   3.508  1.00  0.00    -0.206 F 
ATOM     86  C   UNL     1      -2.407  16.111  -0.041  1.00  0.00     0.006 A 
ENDBRANCH  58  79
BRANCH  70  87
ATOM     87  C   UNL     1       5.216  19.989   3.157  1.00  0.00     0.057 A 
ATOM     88  C   UNL     1       4.580  21.175   3.538  1.00  0.00     0.134 A 
ATOM     89  C   UNL     1       6.314  20.088   2.293  1.00  0.00     0.134 A 
ATOM     90  F   UNL     1       3.515  21.145   4.353  1.00  0.00    -0.206 F 
ATOM     91  C   UNL     1       5.012  22.416   3.066  1.00  0.00     0.040 A 
ATOM     92  C   UNL     1       6.768  21.323   1.831  1.00  0.00     0.040 A 
ATOM     93  F   UNL     1       6.970  18.987   1.897  1.00  0.00    -0.206 F 
ATOM     94  C   UNL     1       6.114  22.492   2.216  1.00  0.00     0.006 A 
ENDBRANCH  70  87
ENDBRANCH  44  45
ENDBRANCH  37  39
ENDBRANCH  36  37
ENDBRANCH  35  36
ENDBRANCH   1  35
TORSDOF 17
