REMARK SMILES CCC(CC)[C@@H](C)[NH2+][C@@H](C)[C@@H](C)C(=O)OCCOC(=O)c1ccc(-c2c3nc(c(-c4c(F)cccc4F)c4ccc([nH]4)c(-c4c(F)cccc4F)c4nc(c(-c5c(F)cccc5F)c5ccc2[nH]5)C=C4)C=C3)cc1
REMARK SMILES IDX 15 1 13 2 14 3 11 4 12 5 9 6 10 7 8 8 6 11 7 12 3 13 2 14
REMARK SMILES IDX 1 15 4 16 5 17 16 18 17 19 18 20 19 21 20 22 21 23 22 24
REMARK SMILES IDX 74 25 23 26 73 27 24 28 25 29 26 30 67 31 27 32 72 33 66 34
REMARK SMILES IDX 68 35 28 36 71 37 65 38 64 39 29 41 55 42 38 43 54 44 39 45
REMARK SMILES IDX 42 46 53 47 69 48 40 49 41 50 52 52 70 53 43 54 30 55 31 56
REMARK SMILES IDX 36 57 32 58 33 59 35 60 37 61 34 62 56 63 57 64 62 65 58 66
REMARK SMILES IDX 59 67 61 68 63 69 60 70 44 71 45 72 50 73 46 74 47 75 49 76
REMARK SMILES IDX 51 77 48 78
REMARK H PARENT 8 9 8 10 68 40 42 51
REMARK Flexibility Score: inf
ROOT
ATOM      1  O   UNL     1      -1.045  -6.201  -5.932  1.00  0.00    -0.462 OA
ENDROOT
BRANCH   1   2
ATOM      2  C   UNL     1       0.042  -6.648  -5.250  1.00  0.00     0.314 C 
ATOM      3  O   UNL     1       0.609  -7.714  -5.472  1.00  0.00    -0.252 OA
BRANCH   2   4
ATOM      4  C   UNL     1       0.504  -5.721  -4.137  1.00  0.00     0.154 C 
ATOM      5  C   UNL     1       0.006  -6.343  -2.828  1.00  0.00     0.026 C 
BRANCH   4   6
ATOM      6  C   UNL     1       0.144  -4.212  -4.270  1.00  0.00     0.193 C 
ATOM      7  C   UNL     1       0.599  -3.644  -5.619  1.00  0.00     0.076 C 
BRANCH   6   8
ATOM      8  N   UNL     1       0.804  -3.507  -3.152  1.00  0.00    -0.341 N 
ATOM      9  H   UNL     1       0.652  -4.071  -2.315  1.00  0.00     0.346 HD
ATOM     10  H   UNL     1       1.767  -3.402  -3.470  1.00  0.00     0.346 HD
BRANCH   8  11
ATOM     11  C   UNL     1       0.397  -2.132  -2.821  1.00  0.00     0.182 C 
ATOM     12  C   UNL     1       1.099  -1.131  -3.756  1.00  0.00     0.075 C 
BRANCH  11  13
ATOM     13  C   UNL     1       0.787  -1.853  -1.318  1.00  0.00     0.046 C 
BRANCH  13  14
ATOM     14  C   UNL     1       0.347  -0.439  -0.849  1.00  0.00     0.006 C 
ATOM     15  C   UNL     1       0.809  -0.075   0.558  1.00  0.00     0.004 C 
ENDBRANCH  13  14
BRANCH  13  16
ATOM     16  C   UNL     1       0.282  -2.952  -0.343  1.00  0.00     0.006 C 
ATOM     17  C   UNL     1      -1.231  -3.097  -0.260  1.00  0.00     0.004 C 
ENDBRANCH  13  16
ENDBRANCH  11  13
ENDBRANCH   8  11
ENDBRANCH   6   8
ENDBRANCH   4   6
ENDBRANCH   2   4
ENDBRANCH   1   2
BRANCH   1  18
ATOM     18  C   UNL     1      -1.420  -7.008  -7.070  1.00  0.00     0.274 C 
BRANCH  18  19
ATOM     19  C   UNL     1      -0.729  -6.514  -8.344  1.00  0.00     0.275 C 
BRANCH  19  20
ATOM     20  O   UNL     1       0.698  -6.512  -8.161  1.00  0.00    -0.458 OA
BRANCH  20  21
ATOM     21  C   UNL     1       1.366  -5.512  -8.776  1.00  0.00     0.338 C 
ATOM     22  O   UNL     1       0.892  -4.669  -9.527  1.00  0.00    -0.246 OA
BRANCH  21  23
ATOM     23  C   UNL     1       2.802  -5.560  -8.427  1.00  0.00     0.060 A 
ATOM     24  C   UNL     1       3.240  -5.885  -7.139  1.00  0.00     0.016 A 
ATOM     25  C   UNL     1       3.732  -5.205  -9.407  1.00  0.00     0.016 A 
ATOM     26  C   UNL     1       4.600  -5.829  -6.822  1.00  0.00     0.010 A 
ATOM     27  C   UNL     1       5.096  -5.209  -9.106  1.00  0.00     0.010 A 
ATOM     28  C   UNL     1       5.542  -5.508  -7.808  1.00  0.00    -0.014 A 
BRANCH  28  29
ATOM     29  C   UNL     1       6.999  -5.494  -7.519  1.00  0.00     0.031 A 
ATOM     30  C   UNL     1       7.781  -4.215  -7.633  1.00  0.00     0.074 A 
ATOM     31  C   UNL     1       7.636  -6.645  -7.228  1.00  0.00     0.049 A 
ATOM     32  N   UNL     1       9.077  -4.033  -7.637  1.00  0.00    -0.248 NA
ATOM     33  C   UNL     1       6.998  -2.977  -7.775  1.00  0.00     0.031 C 
ATOM     34  C   UNL     1       6.995  -7.950  -7.065  1.00  0.00     0.029 A 
ATOM     35  N   UNL     1       8.971  -6.903  -7.044  1.00  0.00    -0.354 N 
ATOM     36  C   UNL     1       9.267  -2.669  -7.818  1.00  0.00     0.074 A 
ATOM     37  C   UNL     1       7.953  -2.070  -7.926  1.00  0.00     0.031 C 
ATOM     38  C   UNL     1       7.936  -8.872  -6.811  1.00  0.00     0.029 A 
ATOM     39  C   UNL     1       9.248  -8.236  -6.857  1.00  0.00     0.049 A 
ATOM     40  H   UNL     1       9.663  -6.203  -7.046  1.00  0.00     0.167 HD
ATOM     41  C   UNL     1      10.433  -1.982  -7.890  1.00  0.00     0.037 A 
ATOM     42  C   UNL     1      10.426  -8.882  -6.777  1.00  0.00     0.037 A 
ATOM     43  C   UNL     1      11.737  -2.577  -7.758  1.00  0.00     0.049 A 
ATOM     44  C   UNL     1      11.705  -8.105  -6.904  1.00  0.00     0.074 A 
ATOM     45  C   UNL     1      12.976  -1.958  -7.786  1.00  0.00     0.029 A 
ATOM     46  N   UNL     1      11.972  -3.931  -7.571  1.00  0.00    -0.354 N 
ATOM     47  N   UNL     1      11.874  -6.818  -7.087  1.00  0.00    -0.248 NA
ATOM     48  C   UNL     1      12.956  -8.872  -6.827  1.00  0.00     0.031 C 
ATOM     49  C   UNL     1      13.961  -2.943  -7.650  1.00  0.00     0.029 A 
ATOM     50  C   UNL     1      13.335  -4.169  -7.498  1.00  0.00     0.049 A 
ATOM     51  H   UNL     1      11.274  -4.621  -7.499  1.00  0.00     0.167 HD
ATOM     52  C   UNL     1      13.247  -6.618  -7.128  1.00  0.00     0.074 A 
ATOM     53  C   UNL     1      13.866  -7.915  -6.939  1.00  0.00     0.031 C 
ATOM     54  C   UNL     1      13.934  -5.464  -7.308  1.00  0.00     0.037 A 
BRANCH  41  55
ATOM     55  C   UNL     1      10.354  -0.506  -8.148  1.00  0.00     0.057 A 
ATOM     56  C   UNL     1       9.949   0.399  -7.159  1.00  0.00     0.134 A 
ATOM     57  C   UNL     1      10.733   0.020  -9.389  1.00  0.00     0.134 A 
ATOM     58  F   UNL     1       9.561  -0.042  -5.952  1.00  0.00    -0.206 F 
ATOM     59  C   UNL     1       9.908   1.773  -7.401  1.00  0.00     0.040 A 
ATOM     60  C   UNL     1      10.717   1.394  -9.637  1.00  0.00     0.040 A 
ATOM     61  F   UNL     1      11.136  -0.792 -10.379  1.00  0.00    -0.206 F 
ATOM     62  C   UNL     1      10.300   2.275  -8.641  1.00  0.00     0.006 A 
ENDBRANCH  41  55
BRANCH  42  63
ATOM     63  C   UNL     1      10.448 -10.353  -6.593  1.00  0.00     0.057 A 
ATOM     64  C   UNL     1      10.847 -10.921  -5.378  1.00  0.00     0.134 A 
ATOM     65  C   UNL     1      10.062 -11.224  -7.619  1.00  0.00     0.134 A 
ATOM     66  F   UNL     1      11.249 -10.137  -4.367  1.00  0.00    -0.206 F 
ATOM     67  C   UNL     1      10.868 -12.304  -5.192  1.00  0.00     0.040 A 
ATOM     68  C   UNL     1      10.056 -12.607  -7.439  1.00  0.00     0.040 A 
ATOM     69  F   UNL     1       9.668 -10.739  -8.806  1.00  0.00    -0.206 F 
ATOM     70  C   UNL     1      10.464 -13.151  -6.223  1.00  0.00     0.006 A 
ENDBRANCH  42  63
BRANCH  54  71
ATOM     71  C   UNL     1      15.430  -5.551  -7.274  1.00  0.00     0.057 A 
ATOM     72  C   UNL     1      16.162  -6.079  -8.345  1.00  0.00     0.134 A 
ATOM     73  C   UNL     1      16.146  -5.079  -6.167  1.00  0.00     0.134 A 
ATOM     74  F   UNL     1      15.532  -6.561  -9.427  1.00  0.00    -0.206 F 
ATOM     75  C   UNL     1      17.555  -6.154  -8.306  1.00  0.00     0.040 A 
ATOM     76  C   UNL     1      17.540  -5.129  -6.126  1.00  0.00     0.040 A 
ATOM     77  F   UNL     1      15.503  -4.557  -5.112  1.00  0.00    -0.206 F 
ATOM     78  C   UNL     1      18.248  -5.673  -7.196  1.00  0.00     0.006 A 
ENDBRANCH  54  71
ENDBRANCH  28  29
ENDBRANCH  21  23
ENDBRANCH  20  21
ENDBRANCH  19  20
ENDBRANCH  18  19
ENDBRANCH   1  18
TORSDOF 17
