REMARK SMILES CC1(C)C(n2c(SCC(=O)OCCOC(=O)c3ccc(-c4c5nc(c(-c6c(F)cccc6F)c6ccc([nH]6)c(-c6c(F)cccc6F)c6nc(c(-c7c(F)cccc7F)c7ccc4[nH]7)C=C6)C=C5)cc3)nc3cnccc32)C1(C)C
REMARK SMILES IDX 12 1 11 2 9 3 10 4 8 5 7 6 6 7 5 8 77 9 71 10 72 11 76 12
REMARK SMILES IDX 73 13 75 14 74 15 4 16 1 17 2 18 3 19 78 20 79 21 80 22
REMARK SMILES IDX 13 23 14 24 15 25 16 26 17 27 18 28 70 29 19 30 69 31 20 32
REMARK SMILES IDX 21 33 22 34 63 35 23 36 68 37 62 38 64 39 24 40 67 41 61 42
REMARK SMILES IDX 60 43 25 45 51 46 34 47 50 48 35 49 38 50 49 51 65 52 36 53
REMARK SMILES IDX 37 54 48 56 66 57 39 58 26 59 27 60 32 61 28 62 29 63 31 64
REMARK SMILES IDX 33 65 30 66 52 67 53 68 58 69 54 70 55 71 57 72 59 73 56 74
REMARK SMILES IDX 40 75 41 76 46 77 42 78 43 79 45 80 47 81 44 82
REMARK H PARENT 64 44 38 55
REMARK Flexibility Score: inf
ROOT
ATOM      1  C   UNL     1       3.354   4.973   2.535  1.00  0.00     0.274 C 
ENDROOT
BRANCH   1   2
ATOM      2  O   UNL     1       2.352   5.484   1.630  1.00  0.00    -0.461 OA
BRANCH   2   3
ATOM      3  C   UNL     1       2.750   5.955   0.421  1.00  0.00     0.316 C 
ATOM      4  O   UNL     1       3.905   5.907   0.008  1.00  0.00    -0.251 OA
BRANCH   3   5
ATOM      5  C   UNL     1       1.611   6.472  -0.426  1.00  0.00     0.200 C 
BRANCH   5   6
ATOM      6  S   UNL     1       0.053   6.691   0.378  1.00  0.00    -0.076 SA
BRANCH   6   7
ATOM      7  C   UNL     1      -0.997   5.370  -0.128  1.00  0.00     0.169 A 
ATOM      8  N   UNL     1      -0.740   3.985  -0.230  1.00  0.00    -0.315 N 
ATOM      9  C   UNL     1      -1.721   3.417   0.590  1.00  0.00     0.072 A 
ATOM     10  N   UNL     1      -2.275   5.574   0.116  1.00  0.00    -0.221 NA
ATOM     11  C   UNL     1      -2.659   4.441   0.768  1.00  0.00     0.108 A 
ATOM     12  C   UNL     1      -1.897   2.193   1.237  1.00  0.00     0.049 A 
ATOM     13  C   UNL     1      -3.757   4.250   1.613  1.00  0.00     0.141 A 
ATOM     14  C   UNL     1      -3.006   2.103   2.076  1.00  0.00     0.113 A 
ATOM     15  N   UNL     1      -3.921   3.077   2.271  1.00  0.00    -0.262 NA
BRANCH   8  16
ATOM     16  C   UNL     1       0.593   3.373  -0.560  1.00  0.00     0.102 C 
ATOM     17  C   UNL     1       2.991   0.639  -0.687  1.00  0.00     0.014 C 
ATOM     18  C   UNL     1       1.205   1.842  -1.164  1.00  0.00    -0.007 C 
ATOM     19  C   UNL     1      -0.395   1.054  -1.534  1.00  0.00     0.014 C 
ATOM     20  C   UNL     1       1.014   3.308  -2.046  1.00  0.00    -0.007 C 
ATOM     21  C   UNL     1       2.020   4.299  -2.615  1.00  0.00     0.014 C 
ATOM     22  C   UNL     1      -0.070   3.344  -3.174  1.00  0.00     0.014 C 
ENDBRANCH   8  16
ENDBRANCH   6   7
ENDBRANCH   5   6
ENDBRANCH   3   5
ENDBRANCH   2   3
ENDBRANCH   1   2
BRANCH   1  23
ATOM     23  C   UNL     1       2.729   3.821   3.354  1.00  0.00     0.275 C 
BRANCH  23  24
ATOM     24  O   UNL     1       2.822   2.591   2.592  1.00  0.00    -0.458 OA
BRANCH  24  25
ATOM     25  C   UNL     1       1.714   1.861   2.288  1.00  0.00     0.338 C 
ATOM     26  O   UNL     1       0.681   1.774   2.917  1.00  0.00    -0.246 OA
BRANCH  25  27
ATOM     27  C   UNL     1       1.902   1.442   0.875  1.00  0.00     0.060 A 
ATOM     28  C   UNL     1       1.183   0.043  -0.029  1.00  0.00     0.016 A 
ATOM     29  C   UNL     1       2.992   2.571   0.012  1.00  0.00     0.016 A 
ATOM     30  C   UNL     1       1.551  -0.131  -1.840  1.00  0.00     0.010 A 
ATOM     31  C   UNL     1       3.362   2.379  -1.698  1.00  0.00     0.010 A 
ATOM     32  C   UNL     1       2.610   1.124  -2.674  1.00  0.00    -0.014 A 
BRANCH  32  33
ATOM     33  C   UNL     1       3.035   1.139  -4.107  1.00  0.00     0.031 A 
ATOM     34  C   UNL     1       2.610  -0.116  -4.728  1.00  0.00     0.074 A 
ATOM     35  C   UNL     1       3.734   2.054  -4.868  1.00  0.00     0.049 A 
ATOM     36  N   UNL     1       3.356  -1.168  -4.714  1.00  0.00    -0.248 NA
ATOM     37  C   UNL     1       1.220  -0.361  -5.125  1.00  0.00     0.031 C 
ATOM     38  C   UNL     1       4.258   3.401  -4.566  1.00  0.00     0.029 A 
ATOM     39  N   UNL     1       4.115   1.967  -6.201  1.00  0.00    -0.354 N 
ATOM     40  C   UNL     1       2.641  -2.122  -5.397  1.00  0.00     0.074 A 
ATOM     41  C   UNL     1       1.270  -1.675  -5.380  1.00  0.00     0.031 C 
ATOM     42  C   UNL     1       4.577   4.093  -5.679  1.00  0.00     0.029 A 
ATOM     43  C   UNL     1       4.545   3.176  -6.789  1.00  0.00     0.049 A 
ATOM     44  H   UNL     1       4.087   1.120  -6.702  1.00  0.00     0.167 HD
ATOM     45  C   UNL     1       3.315  -2.988  -6.196  1.00  0.00     0.037 A 
ATOM     46  C   UNL     1       5.107   3.440  -8.004  1.00  0.00     0.037 A 
ATOM     47  C   UNL     1       4.741  -2.960  -5.922  1.00  0.00     0.049 A 
ATOM     48  C   UNL     1       5.750   2.194  -8.453  1.00  0.00     0.074 A 
ATOM     49  C   UNL     1       5.513  -3.116  -4.783  1.00  0.00     0.029 A 
ATOM     50  N   UNL     1       5.551  -2.313  -6.826  1.00  0.00    -0.354 N 
ATOM     51  N   UNL     1       6.826   1.710  -7.903  1.00  0.00    -0.248 NA
ATOM     52  C   UNL     1       4.900   1.245  -9.144  1.00  0.00     0.031 C 
ATOM     53  C   UNL     1       6.563  -2.157  -4.898  1.00  0.00     0.029 A 
ATOM     54  C   UNL     1       6.453  -1.537  -6.140  1.00  0.00     0.049 A 
ATOM     55  H   UNL     1       5.494  -2.394  -7.805  1.00  0.00     0.167 HD
ATOM     56  C   UNL     1       6.522   0.373  -7.719  1.00  0.00     0.074 A 
ATOM     57  C   UNL     1       5.353   0.130  -8.569  1.00  0.00     0.031 C 
ATOM     58  C   UNL     1       7.047  -0.330  -6.674  1.00  0.00     0.037 A 
BRANCH  45  59
ATOM     59  C   UNL     1       2.743  -3.504  -7.481  1.00  0.00     0.057 A 
ATOM     60  C   UNL     1       1.778  -2.818  -8.250  1.00  0.00     0.134 A 
ATOM     61  C   UNL     1       3.362  -4.589  -8.115  1.00  0.00     0.134 A 
ATOM     62  F   UNL     1       1.194  -1.688  -7.834  1.00  0.00    -0.206 F 
ATOM     63  C   UNL     1       1.439  -3.195  -9.548  1.00  0.00     0.040 A 
ATOM     64  C   UNL     1       3.071  -4.940  -9.437  1.00  0.00     0.040 A 
ATOM     65  F   UNL     1       4.324  -5.286  -7.493  1.00  0.00    -0.206 F 
ATOM     66  C   UNL     1       2.106  -4.244 -10.156  1.00  0.00     0.006 A 
ENDBRANCH  45  59
BRANCH  46  67
ATOM     67  C   UNL     1       4.944   4.611  -8.914  1.00  0.00     0.057 A 
ATOM     68  C   UNL     1       3.856   5.491  -8.798  1.00  0.00     0.134 A 
ATOM     69  C   UNL     1       5.681   4.717 -10.110  1.00  0.00     0.134 A 
ATOM     70  F   UNL     1       3.064   5.468  -7.716  1.00  0.00    -0.206 F 
ATOM     71  C   UNL     1       3.486   6.371  -9.827  1.00  0.00     0.040 A 
ATOM     72  C   UNL     1       5.321   5.592 -11.147  1.00  0.00     0.040 A 
ATOM     73  F   UNL     1       6.734   3.917 -10.337  1.00  0.00    -0.206 F 
ATOM     74  C   UNL     1       4.205   6.408 -11.016  1.00  0.00     0.006 A 
ENDBRANCH  46  67
BRANCH  58  75
ATOM     75  C   UNL     1       8.208   0.276  -5.918  1.00  0.00     0.057 A 
ATOM     76  C   UNL     1       9.389  -0.471  -5.814  1.00  0.00     0.134 A 
ATOM     77  C   UNL     1       8.177   1.493  -5.217  1.00  0.00     0.134 A 
ATOM     78  F   UNL     1       9.487  -1.665  -6.419  1.00  0.00    -0.206 F 
ATOM     79  C   UNL     1      10.485  -0.034  -5.063  1.00  0.00     0.040 A 
ATOM     80  C   UNL     1       9.281   1.958  -4.487  1.00  0.00     0.040 A 
ATOM     81  F   UNL     1       7.071   2.246  -5.176  1.00  0.00    -0.206 F 
ATOM     82  C   UNL     1      10.438   1.190  -4.405  1.00  0.00     0.006 A 
ENDBRANCH  58  75
ENDBRANCH  32  33
ENDBRANCH  25  27
ENDBRANCH  24  25
ENDBRANCH  23  24
ENDBRANCH   1  23
TORSDOF 14
