REMARK SMILES COc1cc(-c2ccc(F)c(C(F)(F)F)c2)ccc1C(=O)OCCOC(=O)c1ccc(-c2c3nc(c(-c4c(F)cccc4F)c4ccc([nH]4)c(-c4c(F)cccc4F)c4nc(c(-c5c(F)cccc5F)c5ccc2[nH]5)C=C4)C=C3)cc1
REMARK SMILES IDX 23 1 22 2 20 3 21 4 19 5 3 6 4 7 5 8 18 9 17 10 2 11 1 12
REMARK SMILES IDX 6 13 7 14 16 15 8 16 11 17 9 18 10 19 12 20 13 21 14 22
REMARK SMILES IDX 15 23 24 24 25 25 26 26 27 27 28 28 29 29 81 30 30 31 80 32
REMARK SMILES IDX 31 33 32 34 33 35 74 36 34 37 79 38 73 39 75 40 35 41 78 42
REMARK SMILES IDX 72 43 71 44 36 46 62 47 45 48 61 49 46 50 49 51 60 52 76 53
REMARK SMILES IDX 47 54 48 55 59 57 77 58 50 59 37 60 38 61 43 62 39 63 40 64
REMARK SMILES IDX 42 65 44 66 41 67 63 68 64 69 69 70 65 71 66 72 68 73 70 74
REMARK SMILES IDX 67 75 51 76 52 77 57 78 53 79 54 80 56 81 58 82 55 83
REMARK H PARENT 75 45 49 56
REMARK Flexibility Score: inf
ROOT
ATOM      1  C   UNL     1       3.792  -0.568  -0.239  1.00  0.00     0.275 C 
ENDROOT
BRANCH   1   2
ATOM      2  O   UNL     1       2.892   0.364   0.399  1.00  0.00    -0.458 OA
BRANCH   2   3
ATOM      3  C   UNL     1       2.493   0.052   1.654  1.00  0.00     0.342 C 
ATOM      4  O   UNL     1       2.905  -0.875   2.335  1.00  0.00    -0.246 OA
BRANCH   3   5
ATOM      5  C   UNL     1       1.556   1.065   2.186  1.00  0.00     0.102 A 
ATOM      6  C   UNL     1       0.366   1.497   1.591  1.00  0.00     0.134 A 
ATOM      7  C   UNL     1      -0.376   2.507   2.241  1.00  0.00     0.056 A 
ATOM      8  C   UNL     1       0.025   3.084   3.458  1.00  0.00    -0.015 A 
ATOM      9  C   UNL     1       1.930   1.599   3.437  1.00  0.00     0.020 A 
ATOM     10  C   UNL     1       1.195   2.614   4.050  1.00  0.00     0.010 A 
BRANCH   6  11
ATOM     11  O   UNL     1      -0.259   1.089   0.448  1.00  0.00    -0.496 OA
ATOM     12  C   UNL     1       0.105  -0.121  -0.192  1.00  0.00     0.278 C 
ENDBRANCH   6  11
BRANCH   8  13
ATOM     13  C   UNL     1      -0.781   4.121   4.110  1.00  0.00    -0.017 A 
ATOM     14  C   UNL     1      -2.030   3.807   4.668  1.00  0.00     0.012 A 
ATOM     15  C   UNL     1      -0.319   5.446   4.202  1.00  0.00     0.025 A 
ATOM     16  C   UNL     1      -2.798   4.788   5.294  1.00  0.00     0.040 A 
ATOM     17  C   UNL     1      -1.088   6.442   4.829  1.00  0.00     0.092 A 
ATOM     18  C   UNL     1      -2.324   6.094   5.364  1.00  0.00     0.135 A 
ATOM     19  F   UNL     1      -3.084   7.023   5.958  1.00  0.00    -0.206 F 
BRANCH  17  20
ATOM     20  C   UNL     1      -0.631   7.867   4.914  1.00  0.00     0.419 C 
ATOM     21  F   UNL     1      -1.383   8.706   4.149  1.00  0.00    -0.166 F 
ATOM     22  F   UNL     1      -0.665   8.368   6.179  1.00  0.00    -0.166 F 
ATOM     23  F   UNL     1       0.654   8.040   4.489  1.00  0.00    -0.166 F 
ENDBRANCH  17  20
ENDBRANCH   8  13
ENDBRANCH   3   5
ENDBRANCH   2   3
ENDBRANCH   1   2
BRANCH   1  24
ATOM     24  C   UNL     1       5.001   0.164  -0.815  1.00  0.00     0.275 C 
BRANCH  24  25
ATOM     25  O   UNL     1       5.809   0.666   0.264  1.00  0.00    -0.458 OA
BRANCH  25  26
ATOM     26  C   UNL     1       5.677   1.988   0.503  1.00  0.00     0.338 C 
ATOM     27  O   UNL     1       5.054   2.812  -0.142  1.00  0.00    -0.246 OA
BRANCH  26  28
ATOM     28  C   UNL     1       6.317   2.312   1.783  1.00  0.00     0.060 A 
ATOM     29  C   UNL     1       5.556   2.163   2.938  1.00  0.00     0.016 A 
ATOM     30  C   UNL     1       7.567   2.922   1.831  1.00  0.00     0.016 A 
ATOM     31  C   UNL     1       5.990   2.719   4.138  1.00  0.00     0.010 A 
ATOM     32  C   UNL     1       8.039   3.410   3.055  1.00  0.00     0.010 A 
ATOM     33  C   UNL     1       7.233   3.365   4.211  1.00  0.00    -0.014 A 
BRANCH  33  34
ATOM     34  C   UNL     1       7.642   4.079   5.456  1.00  0.00     0.031 A 
ATOM     35  C   UNL     1       7.924   5.562   5.412  1.00  0.00     0.074 A 
ATOM     36  C   UNL     1       7.734   3.429   6.634  1.00  0.00     0.049 A 
ATOM     37  N   UNL     1       8.455   6.336   6.327  1.00  0.00    -0.248 NA
ATOM     38  C   UNL     1       7.578   6.266   4.166  1.00  0.00     0.031 C 
ATOM     39  C   UNL     1       7.443   2.011   6.848  1.00  0.00     0.029 A 
ATOM     40  N   UNL     1       8.090   3.884   7.880  1.00  0.00    -0.354 N 
ATOM     41  C   UNL     1       8.577   7.591   5.740  1.00  0.00     0.074 A 
ATOM     42  C   UNL     1       8.059   7.479   4.394  1.00  0.00     0.031 C 
ATOM     43  C   UNL     1       7.591   1.722   8.151  1.00  0.00     0.029 A 
ATOM     44  C   UNL     1       8.068   2.910   8.850  1.00  0.00     0.049 A 
ATOM     45  H   UNL     1       8.338   4.819   8.062  1.00  0.00     0.167 HD
ATOM     46  C   UNL     1       9.076   8.732   6.274  1.00  0.00     0.037 A 
ATOM     47  C   UNL     1       8.425   2.956  10.148  1.00  0.00     0.037 A 
ATOM     48  C   UNL     1       9.509   8.868   7.641  1.00  0.00     0.049 A 
ATOM     49  C   UNL     1       8.969   4.237  10.719  1.00  0.00     0.074 A 
ATOM     50  C   UNL     1      10.003   9.992   8.282  1.00  0.00     0.029 A 
ATOM     51  N   UNL     1       9.473   7.854   8.585  1.00  0.00    -0.354 N 
ATOM     52  N   UNL     1       9.134   5.399  10.136  1.00  0.00    -0.248 NA
ATOM     53  C   UNL     1       9.392   4.205  12.127  1.00  0.00     0.031 C 
ATOM     54  C   UNL     1      10.292   9.649   9.608  1.00  0.00     0.029 A 
ATOM     55  C   UNL     1       9.939   8.324   9.802  1.00  0.00     0.049 A 
ATOM     56  H   UNL     1       9.163   6.935   8.415  1.00  0.00     0.167 HD
ATOM     57  C   UNL     1       9.654   6.241  11.111  1.00  0.00     0.074 A 
ATOM     58  C   UNL     1       9.761   5.461  12.326  1.00  0.00     0.031 C 
ATOM     59  C   UNL     1      10.018   7.543  11.007  1.00  0.00     0.037 A 
BRANCH  46  60
ATOM     60  C   UNL     1       9.214   9.925   5.372  1.00  0.00     0.057 A 
ATOM     61  C   UNL     1       8.112  10.674   4.944  1.00  0.00     0.134 A 
ATOM     62  C   UNL     1      10.484  10.353   4.963  1.00  0.00     0.134 A 
ATOM     63  F   UNL     1       6.867  10.310   5.287  1.00  0.00    -0.206 F 
ATOM     64  C   UNL     1       8.267  11.796   4.126  1.00  0.00     0.040 A 
ATOM     65  C   UNL     1      10.654  11.487   4.168  1.00  0.00     0.040 A 
ATOM     66  F   UNL     1      11.584   9.684   5.343  1.00  0.00    -0.206 F 
ATOM     67  C   UNL     1       9.542  12.210   3.742  1.00  0.00     0.006 A 
ENDBRANCH  46  60
BRANCH  47  68
ATOM     68  C   UNL     1       8.312   1.744  11.000  1.00  0.00     0.057 A 
ATOM     69  C   UNL     1       7.394   1.687  12.056  1.00  0.00     0.134 A 
ATOM     70  C   UNL     1       9.136   0.630  10.802  1.00  0.00     0.134 A 
ATOM     71  F   UNL     1       6.595   2.733  12.313  1.00  0.00    -0.206 F 
ATOM     72  C   UNL     1       7.312   0.574  12.894  1.00  0.00     0.040 A 
ATOM     73  C   UNL     1       9.044  -0.501  11.614  1.00  0.00     0.040 A 
ATOM     74  F   UNL     1      10.037   0.622   9.809  1.00  0.00    -0.206 F 
ATOM     75  C   UNL     1       8.136  -0.527  12.670  1.00  0.00     0.006 A 
ENDBRANCH  47  68
BRANCH  59  76
ATOM     76  C   UNL     1      10.505   8.215  12.257  1.00  0.00     0.057 A 
ATOM     77  C   UNL     1      11.763   7.939  12.806  1.00  0.00     0.134 A 
ATOM     78  C   UNL     1       9.702   9.156  12.914  1.00  0.00     0.134 A 
ATOM     79  F   UNL     1      12.572   7.036  12.232  1.00  0.00    -0.206 F 
ATOM     80  C   UNL     1      12.193   8.552  13.984  1.00  0.00     0.040 A 
ATOM     81  C   UNL     1      10.132   9.794  14.078  1.00  0.00     0.040 A 
ATOM     82  F   UNL     1       8.489   9.471  12.435  1.00  0.00    -0.206 F 
ATOM     83  C   UNL     1      11.377   9.486  14.621  1.00  0.00     0.006 A 
ENDBRANCH  59  76
ENDBRANCH  33  34
ENDBRANCH  26  28
ENDBRANCH  25  26
ENDBRANCH  24  25
ENDBRANCH   1  24
TORSDOF 14
