REMARK SMILES C[C@]12C(=O)N(c3ccc(C(=O)OCCOC(=O)c4ccc(-c5c6nc(c(-c7c(F)cccc7F)c7ccc([nH]7)c(-c7c(F)cccc7F)c7nc(c(-c8c(F)cccc8F)c8ccc5[nH]8)C=C7)C=C6)cc4)cc3)C(=O)[C@H]1[C@H]1c3ccccc3[C@@H]2c2ccccc21
REMARK SMILES IDX 14 1 13 2 12 3 10 4 11 5 9 6 6 7 7 8 73 9 8 10 72 11 5 12
REMARK SMILES IDX 1 13 2 14 3 15 76 16 84 17 4 18 74 19 77 20 83 21 85 22
REMARK SMILES IDX 75 23 78 24 90 25 82 26 86 27 79 28 89 29 81 30 87 31 80 32
REMARK SMILES IDX 88 33 15 34 16 35 17 36 18 37 19 38 71 39 20 40 70 41 21 42
REMARK SMILES IDX 22 43 23 44 64 45 24 46 69 47 63 48 65 49 25 50 68 51 62 52
REMARK SMILES IDX 61 53 26 55 52 56 35 57 51 58 36 59 39 60 50 61 66 62 37 63
REMARK SMILES IDX 38 64 49 66 67 67 40 68 27 69 28 70 33 71 29 72 30 73 32 74
REMARK SMILES IDX 34 75 31 76 53 77 54 78 59 79 55 80 56 81 58 82 60 83 57 84
REMARK SMILES IDX 41 85 42 86 47 87 43 88 44 89 46 90 48 91 45 92
REMARK H PARENT 65 54 39 65
REMARK Flexibility Score: inf
ROOT
ATOM      1  C   UNL     1       0.759  -8.118  -8.498  1.00  0.00     0.275 C 
ENDROOT
BRANCH   1   2
ATOM      2  C   UNL     1      -0.464  -8.221  -7.585  1.00  0.00     0.275 C 
BRANCH   2   3
ATOM      3  O   UNL     1      -0.669  -6.996  -6.847  1.00  0.00    -0.458 OA
BRANCH   3   4
ATOM      4  C   UNL     1      -0.272  -7.022  -5.556  1.00  0.00     0.338 C 
ATOM      5  O   UNL     1       0.186  -7.979  -4.949  1.00  0.00    -0.246 OA
BRANCH   4   6
ATOM      6  C   UNL     1      -0.302  -5.665  -4.971  1.00  0.00     0.060 A 
ATOM      7  C   UNL     1      -0.224  -3.208  -3.547  1.00  0.00     0.052 A 
ATOM      8  C   UNL     1       0.919  -4.008  -3.713  1.00  0.00     0.028 A 
ATOM      9  C   UNL     1      -1.405  -3.646  -4.170  1.00  0.00     0.028 A 
ATOM     10  C   UNL     1       0.872  -5.224  -4.380  1.00  0.00     0.018 A 
ATOM     11  C   UNL     1      -1.442  -4.862  -4.895  1.00  0.00     0.018 A 
BRANCH   7  12
ATOM     12  N   UNL     1      -0.184  -2.150  -2.571  1.00  0.00    -0.250 N 
ATOM     13  C   UNL     1       0.849  -0.197  -0.151  1.00  0.00     0.024 C 
ATOM     14  C   UNL     1       0.627  -1.700  -0.419  1.00  0.00     0.071 C 
ATOM     15  C   UNL     1       0.987  -1.914  -1.861  1.00  0.00     0.241 C 
ATOM     16  C   UNL     1      -0.862  -2.110  -0.395  1.00  0.00     0.107 C 
ATOM     17  C   UNL     1       1.394  -2.654   0.558  1.00  0.00     0.066 C 
ATOM     18  O   UNL     1       2.132  -1.816  -2.281  1.00  0.00    -0.273 OA
ATOM     19  C   UNL     1      -1.313  -1.781  -1.802  1.00  0.00     0.238 C 
ATOM     20  C   UNL     1      -1.238  -2.781   0.973  1.00  0.00     0.063 C 
ATOM     21  C   UNL     1       0.823  -4.087   0.434  1.00  0.00    -0.036 A 
ATOM     22  C   UNL     1       0.971  -2.187   1.949  1.00  0.00    -0.036 A 
ATOM     23  O   UNL     1      -2.421  -1.422  -2.154  1.00  0.00    -0.274 OA
ATOM     24  C   UNL     1      -0.572  -4.196   0.776  1.00  0.00    -0.036 A 
ATOM     25  C   UNL     1      -0.441  -2.196   2.151  1.00  0.00    -0.036 A 
ATOM     26  C   UNL     1       1.489  -5.171  -0.115  1.00  0.00     0.005 A 
ATOM     27  C   UNL     1       1.853  -1.861   2.971  1.00  0.00     0.005 A 
ATOM     28  C   UNL     1      -1.278  -5.371   0.559  1.00  0.00     0.004 A 
ATOM     29  C   UNL     1      -0.951  -1.888   3.405  1.00  0.00     0.004 A 
ATOM     30  C   UNL     1       0.768  -6.349  -0.339  1.00  0.00     0.000 A 
ATOM     31  C   UNL     1       1.329  -1.549   4.221  1.00  0.00     0.000 A 
ATOM     32  C   UNL     1      -0.595  -6.448  -0.006  1.00  0.00     0.000 A 
ATOM     33  C   UNL     1      -0.059  -1.563   4.436  1.00  0.00     0.000 A 
ENDBRANCH   7  12
ENDBRANCH   4   6
ENDBRANCH   3   4
ENDBRANCH   2   3
ENDBRANCH   1   2
BRANCH   1  34
ATOM     34  O   UNL     1       1.976  -8.258  -7.739  1.00  0.00    -0.458 OA
BRANCH  34  35
ATOM     35  C   UNL     1       2.656  -7.113  -7.515  1.00  0.00     0.338 C 
ATOM     36  O   UNL     1       2.369  -5.988  -7.885  1.00  0.00    -0.246 OA
BRANCH  35  37
ATOM     37  C   UNL     1       3.832  -7.395  -6.678  1.00  0.00     0.060 A 
ATOM     38  C   UNL     1       5.111  -7.411  -7.230  1.00  0.00     0.016 A 
ATOM     39  C   UNL     1       3.660  -7.491  -5.300  1.00  0.00     0.016 A 
ATOM     40  C   UNL     1       6.221  -7.519  -6.383  1.00  0.00     0.010 A 
ATOM     41  C   UNL     1       4.766  -7.466  -4.456  1.00  0.00     0.010 A 
ATOM     42  C   UNL     1       6.064  -7.504  -4.984  1.00  0.00    -0.014 A 
BRANCH  42  43
ATOM     43  C   UNL     1       7.236  -7.536  -4.062  1.00  0.00     0.031 A 
ATOM     44  C   UNL     1       7.372  -8.634  -3.035  1.00  0.00     0.074 A 
ATOM     45  C   UNL     1       8.150  -6.545  -4.098  1.00  0.00     0.049 A 
ATOM     46  N   UNL     1       8.283  -8.794  -2.106  1.00  0.00    -0.248 NA
ATOM     47  C   UNL     1       6.327  -9.671  -3.025  1.00  0.00     0.031 C 
ATOM     48  C   UNL     1       8.107  -5.380  -4.984  1.00  0.00     0.029 A 
ATOM     49  N   UNL     1       9.295  -6.356  -3.362  1.00  0.00    -0.354 N 
ATOM     50  C   UNL     1       7.905  -9.926  -1.393  1.00  0.00     0.074 A 
ATOM     51  C   UNL     1       6.652 -10.379  -1.955  1.00  0.00     0.031 C 
ATOM     52  C   UNL     1       9.195  -4.622  -4.771  1.00  0.00     0.029 A 
ATOM     53  C   UNL     1       9.991  -5.221  -3.705  1.00  0.00     0.049 A 
ATOM     54  H   UNL     1       9.589  -6.974  -2.655  1.00  0.00     0.167 HD
ATOM     55  C   UNL     1       8.554 -10.555  -0.384  1.00  0.00     0.037 A 
ATOM     56  C   UNL     1      11.139  -4.716  -3.215  1.00  0.00     0.037 A 
ATOM     57  C   UNL     1       9.824 -10.137   0.149  1.00  0.00     0.049 A 
ATOM     58  C   UNL     1      11.849  -5.440  -2.105  1.00  0.00     0.074 A 
ATOM     59  C   UNL     1      10.604 -10.756   1.110  1.00  0.00     0.029 A 
ATOM     60  N   UNL     1      10.501  -8.991  -0.238  1.00  0.00    -0.354 N 
ATOM     61  N   UNL     1      11.517  -6.554  -1.498  1.00  0.00    -0.248 NA
ATOM     62  C   UNL     1      13.094  -4.834  -1.611  1.00  0.00     0.031 C 
ATOM     63  C   UNL     1      11.736  -9.965   1.332  1.00  0.00     0.029 A 
ATOM     64  C   UNL     1      11.679  -8.873   0.482  1.00  0.00     0.049 A 
ATOM     65  H   UNL     1      10.190  -8.355  -0.922  1.00  0.00     0.167 HD
ATOM     66  C   UNL     1      12.515  -6.788  -0.562  1.00  0.00     0.074 A 
ATOM     67  C   UNL     1      13.479  -5.716  -0.701  1.00  0.00     0.031 C 
ATOM     68  C   UNL     1      12.623  -7.796   0.337  1.00  0.00     0.037 A 
BRANCH  55  69
ATOM     69  C   UNL     1       7.907 -11.779   0.199  1.00  0.00     0.057 A 
ATOM     70  C   UNL     1       7.388 -11.767   1.500  1.00  0.00     0.134 A 
ATOM     71  C   UNL     1       7.822 -12.980  -0.518  1.00  0.00     0.134 A 
ATOM     72  F   UNL     1       7.444 -10.654   2.246  1.00  0.00    -0.206 F 
ATOM     73  C   UNL     1       6.806 -12.904   2.064  1.00  0.00     0.040 A 
ATOM     74  C   UNL     1       7.217 -14.115   0.025  1.00  0.00     0.040 A 
ATOM     75  F   UNL     1       8.289 -13.057  -1.774  1.00  0.00    -0.206 F 
ATOM     76  C   UNL     1       6.712 -14.080   1.323  1.00  0.00     0.006 A 
ENDBRANCH  55  69
BRANCH  56  77
ATOM     77  C   UNL     1      11.709  -3.465  -3.778  1.00  0.00     0.057 A 
ATOM     78  C   UNL     1      11.114  -2.220  -3.547  1.00  0.00     0.134 A 
ATOM     79  C   UNL     1      12.884  -3.488  -4.538  1.00  0.00     0.134 A 
ATOM     80  F   UNL     1       9.986  -2.131  -2.827  1.00  0.00    -0.206 F 
ATOM     81  C   UNL     1      11.665  -1.042  -4.054  1.00  0.00     0.040 A 
ATOM     82  C   UNL     1      13.460  -2.316  -5.031  1.00  0.00     0.040 A 
ATOM     83  F   UNL     1      13.513  -4.649  -4.774  1.00  0.00    -0.206 F 
ATOM     84  C   UNL     1      12.847  -1.088  -4.792  1.00  0.00     0.006 A 
ENDBRANCH  56  77
BRANCH  68  85
ATOM     85  C   UNL     1      13.828  -7.784   1.229  1.00  0.00     0.057 A 
ATOM     86  C   UNL     1      14.863  -8.710   1.047  1.00  0.00     0.134 A 
ATOM     87  C   UNL     1      13.958  -6.862   2.275  1.00  0.00     0.134 A 
ATOM     88  F   UNL     1      14.796  -9.623   0.067  1.00  0.00    -0.206 F 
ATOM     89  C   UNL     1      15.987  -8.717   1.874  1.00  0.00     0.040 A 
ATOM     90  C   UNL     1      15.089  -6.844   3.093  1.00  0.00     0.040 A 
ATOM     91  F   UNL     1      13.008  -5.940   2.491  1.00  0.00    -0.206 F 
ATOM     92  C   UNL     1      16.105  -7.777   2.896  1.00  0.00     0.006 A 
ENDBRANCH  68  85
ENDBRANCH  42  43
ENDBRANCH  35  37
ENDBRANCH  34  35
ENDBRANCH   1  34
TORSDOF 12
