REMARK SMILES CC[C@@H](C)[C@H](NC(=O)N1CCn2c1nc1ccccc12)C(=O)N[C@H](C)C(=O)OCCOC(=O)c1ccc(-c2c3nc(c(-c4c(F)cccc4F)c4ccc([nH]4)c(-c4c(F)cccc4F)c4nc(c(-c5c(F)cccc5F)c5ccc2[nH]5)C=C4)C=C3)cc1
REMARK SMILES IDX 29 1 28 2 26 3 27 4 24 5 25 6 23 7 21 8 22 9 5 11 3 12 4 13
REMARK SMILES IDX 2 14 1 15 6 16 7 17 8 19 9 20 10 21 13 22 11 23 12 24 14 25
REMARK SMILES IDX 20 26 15 27 19 28 16 29 18 30 17 31 30 32 31 33 32 34 33 35
REMARK SMILES IDX 34 36 35 37 87 38 36 39 86 40 37 41 38 42 39 43 80 44 40 45
REMARK SMILES IDX 85 46 79 47 81 48 41 49 84 50 78 51 77 52 42 54 68 55 51 56
REMARK SMILES IDX 67 57 52 58 55 59 66 60 82 61 53 62 54 63 65 65 83 66 56 67
REMARK SMILES IDX 43 68 44 69 49 70 45 71 46 72 48 73 50 74 47 75 69 76 70 77
REMARK SMILES IDX 75 78 71 79 72 80 74 81 76 82 73 83 57 84 58 85 63 86 59 87
REMARK SMILES IDX 60 88 62 89 64 90 61 91
REMARK H PARENT 23 10 6 18 81 53 55 64
REMARK Flexibility Score: inf
ROOT
ATOM      1  C   UNL     1       4.403  -7.325  -1.520  1.00  0.00     0.274 C 
ENDROOT
BRANCH   1   2
ATOM      2  O   UNL     1       3.674  -6.729  -0.413  1.00  0.00    -0.461 OA
BRANCH   2   3
ATOM      3  C   UNL     1       3.390  -5.406  -0.510  1.00  0.00     0.328 C 
ATOM      4  O   UNL     1       3.358  -4.796  -1.552  1.00  0.00    -0.250 OA
BRANCH   3   5
ATOM      5  C   UNL     1       3.267  -4.692   0.840  1.00  0.00     0.189 C 
ATOM      6  C   UNL     1       2.597  -5.509   1.930  1.00  0.00     0.043 C 
BRANCH   5   7
ATOM      7  N   UNL     1       4.372  -3.821   1.314  1.00  0.00    -0.341 N 
ATOM      8  C   UNL     1       5.730  -3.853   1.461  1.00  0.00     0.243 C 
ATOM      9  O   UNL     1       6.210  -2.864   2.032  1.00  0.00    -0.273 OA
ATOM     10  H   UNL     1       4.016  -2.954   1.615  1.00  0.00     0.164 HD
BRANCH   8  11
ATOM     11  C   UNL     1       6.683  -4.871   0.773  1.00  0.00     0.176 C 
BRANCH  11  12
ATOM     12  C   UNL     1       7.139  -4.359  -0.648  1.00  0.00     0.018 C 
ATOM     13  C   UNL     1       6.064  -3.725  -1.536  1.00  0.00     0.010 C 
BRANCH  12  14
ATOM     14  C   UNL     1       8.014  -5.367  -1.436  1.00  0.00     0.002 C 
ATOM     15  C   UNL     1       8.138  -5.106  -2.940  1.00  0.00     0.004 C 
ENDBRANCH  12  14
ENDBRANCH  11  12
BRANCH  11  16
ATOM     16  N   UNL     1       6.097  -6.201   0.904  1.00  0.00    -0.326 N 
ATOM     17  C   UNL     1       6.538  -7.459   1.048  1.00  0.00     0.324 C 
ATOM     18  H   UNL     1       5.113  -6.165   0.879  1.00  0.00     0.166 HD
ATOM     19  O   UNL     1       5.662  -8.331   1.108  1.00  0.00    -0.248 OA
BRANCH  17  20
ATOM     20  N   UNL     1       7.837  -7.810   1.017  1.00  0.00    -0.262 N 
ATOM     21  C   UNL     1       8.261  -9.152   0.571  1.00  0.00     0.152 C 
ATOM     22  C   UNL     1       8.794  -7.286   1.844  1.00  0.00     0.214 A 
ATOM     23  C   UNL     1       9.559  -9.449   1.330  1.00  0.00     0.148 C 
ATOM     24  N   UNL     1       9.811  -8.184   1.986  1.00  0.00    -0.308 N 
ATOM     25  N   UNL     1       8.945  -6.263   2.638  1.00  0.00    -0.212 NA
ATOM     26  C   UNL     1      10.700  -7.739   2.898  1.00  0.00     0.070 A 
ATOM     27  C   UNL     1      10.148  -6.512   3.284  1.00  0.00     0.091 A 
ATOM     28  C   UNL     1      11.882  -8.257   3.427  1.00  0.00     0.028 A 
ATOM     29  C   UNL     1      10.822  -5.740   4.241  1.00  0.00     0.031 A 
ATOM     30  C   UNL     1      12.540  -7.464   4.372  1.00  0.00     0.002 A 
ATOM     31  C   UNL     1      12.025  -6.227   4.771  1.00  0.00     0.002 A 
ENDBRANCH  17  20
ENDBRANCH  11  16
ENDBRANCH   8  11
ENDBRANCH   5   7
ENDBRANCH   3   5
ENDBRANCH   2   3
ENDBRANCH   1   2
BRANCH   1  32
ATOM     32  C   UNL     1       3.609  -7.609  -2.790  1.00  0.00     0.275 C 
BRANCH  32  33
ATOM     33  O   UNL     1       3.764  -6.513  -3.703  1.00  0.00    -0.458 OA
BRANCH  33  34
ATOM     34  C   UNL     1       2.641  -5.834  -4.032  1.00  0.00     0.338 C 
ATOM     35  O   UNL     1       1.485  -6.109  -3.770  1.00  0.00    -0.246 OA
BRANCH  34  36
ATOM     36  C   UNL     1       3.086  -4.649  -4.775  1.00  0.00     0.060 A 
ATOM     37  C   UNL     1       3.325  -4.748  -6.143  1.00  0.00     0.016 A 
ATOM     38  C   UNL     1       3.322  -3.453  -4.093  1.00  0.00     0.016 A 
ATOM     39  C   UNL     1       3.807  -3.632  -6.821  1.00  0.00     0.010 A 
ATOM     40  C   UNL     1       3.858  -2.364  -4.754  1.00  0.00     0.010 A 
ATOM     41  C   UNL     1       4.074  -2.436  -6.127  1.00  0.00    -0.014 A 
BRANCH  41  42
ATOM     42  C   UNL     1       4.455  -1.239  -6.889  1.00  0.00     0.031 A 
ATOM     43  C   UNL     1       3.913   0.066  -6.372  1.00  0.00     0.074 A 
ATOM     44  C   UNL     1       5.622  -1.238  -7.559  1.00  0.00     0.049 A 
ATOM     45  N   UNL     1       4.483   0.803  -5.460  1.00  0.00    -0.248 NA
ATOM     46  C   UNL     1       2.534   0.464  -6.666  1.00  0.00     0.031 C 
ATOM     47  C   UNL     1       6.878  -1.771  -7.021  1.00  0.00     0.029 A 
ATOM     48  N   UNL     1       5.982  -0.584  -8.711  1.00  0.00    -0.354 N 
ATOM     49  C   UNL     1       3.548   1.740  -5.042  1.00  0.00     0.074 A 
ATOM     50  C   UNL     1       2.358   1.494  -5.824  1.00  0.00     0.031 C 
ATOM     51  C   UNL     1       7.897  -1.279  -7.754  1.00  0.00     0.029 A 
ATOM     52  C   UNL     1       7.361  -0.508  -8.876  1.00  0.00     0.049 A 
ATOM     53  H   UNL     1       5.334  -0.210  -9.351  1.00  0.00     0.167 HD
ATOM     54  C   UNL     1       3.786   2.672  -4.079  1.00  0.00     0.037 A 
ATOM     55  C   UNL     1       7.990   0.541  -9.471  1.00  0.00     0.037 A 
ATOM     56  C   UNL     1       5.089   2.653  -3.490  1.00  0.00     0.049 A 
ATOM     57  C   UNL     1       7.896   1.580  -8.382  1.00  0.00     0.074 A 
ATOM     58  C   UNL     1       5.689   2.198  -2.336  1.00  0.00     0.029 A 
ATOM     59  N   UNL     1       6.107   3.254  -4.189  1.00  0.00    -0.354 N 
ATOM     60  N   UNL     1       8.668   1.667  -7.333  1.00  0.00    -0.248 NA
ATOM     61  C   UNL     1       6.648   2.343  -8.286  1.00  0.00     0.031 C 
ATOM     62  C   UNL     1       7.087   2.128  -2.638  1.00  0.00     0.029 A 
ATOM     63  C   UNL     1       7.232   2.506  -3.971  1.00  0.00     0.049 A 
ATOM     64  H   UNL     1       6.040   4.067  -4.741  1.00  0.00     0.167 HD
ATOM     65  C   UNL     1       7.887   2.272  -6.345  1.00  0.00     0.074 A 
ATOM     66  C   UNL     1       6.669   2.693  -7.008  1.00  0.00     0.031 C 
ATOM     67  C   UNL     1       8.190   2.229  -5.015  1.00  0.00     0.037 A 
BRANCH  54  68
ATOM     68  C   UNL     1       2.895   3.805  -3.750  1.00  0.00     0.057 A 
ATOM     69  C   UNL     1       1.902   3.741  -2.772  1.00  0.00     0.134 A 
ATOM     70  C   UNL     1       3.236   5.069  -4.254  1.00  0.00     0.134 A 
ATOM     71  F   UNL     1       1.539   2.565  -2.242  1.00  0.00    -0.206 F 
ATOM     72  C   UNL     1       1.305   4.907  -2.279  1.00  0.00     0.040 A 
ATOM     73  C   UNL     1       2.661   6.237  -3.761  1.00  0.00     0.040 A 
ATOM     74  F   UNL     1       4.194   5.184  -5.191  1.00  0.00    -0.206 F 
ATOM     75  C   UNL     1       1.700   6.158  -2.757  1.00  0.00     0.006 A 
ENDBRANCH  54  68
BRANCH  55  76
ATOM     76  C   UNL     1       7.623   0.797 -10.898  1.00  0.00     0.057 A 
ATOM     77  C   UNL     1       7.264   2.036 -11.442  1.00  0.00     0.134 A 
ATOM     78  C   UNL     1       7.652  -0.282 -11.805  1.00  0.00     0.134 A 
ATOM     79  F   UNL     1       7.314   3.158 -10.713  1.00  0.00    -0.206 F 
ATOM     80  C   UNL     1       6.829   2.170 -12.766  1.00  0.00     0.040 A 
ATOM     81  C   UNL     1       7.241  -0.159 -13.136  1.00  0.00     0.040 A 
ATOM     82  F   UNL     1       8.085  -1.491 -11.412  1.00  0.00    -0.206 F 
ATOM     83  C   UNL     1       6.801   1.068 -13.613  1.00  0.00     0.006 A 
ENDBRANCH  55  76
BRANCH  67  84
ATOM     84  C   UNL     1       9.501   1.609  -4.678  1.00  0.00     0.057 A 
ATOM     85  C   UNL     1       9.588   0.379  -4.013  1.00  0.00     0.134 A 
ATOM     86  C   UNL     1      10.697   2.251  -5.011  1.00  0.00     0.134 A 
ATOM     87  F   UNL     1       8.483  -0.309  -3.681  1.00  0.00    -0.206 F 
ATOM     88  C   UNL     1      10.819  -0.175  -3.660  1.00  0.00     0.040 A 
ATOM     89  C   UNL     1      11.935   1.692  -4.692  1.00  0.00     0.040 A 
ATOM     90  F   UNL     1      10.683   3.438  -5.638  1.00  0.00    -0.206 F 
ATOM     91  C   UNL     1      11.998   0.481  -4.004  1.00  0.00     0.006 A 
ENDBRANCH  67  84
ENDBRANCH  41  42
ENDBRANCH  34  36
ENDBRANCH  33  34
ENDBRANCH  32  33
ENDBRANCH   1  32
TORSDOF 17
