REMARK SMILES C[C@H](C(=O)OCCOC(=O)c1ccc(-c2c3nc(c(-c4c(F)cccc4F)c4ccc([nH]4)c(-c4c(F)cccc4F)c4nc(c(-c5c(F)cccc5F)c5ccc2[nH]5)C=C4)C=C3)cc1)c1ccc2c3cc(Cl)ccc3n(C(=O)c3cocn3)c2c1
REMARK SMILES IDX 6 1 5 2 3 3 4 4 2 5 1 6 65 7 66 8 85 9 67 10 84 11 68 12
REMARK SMILES IDX 76 13 69 14 75 15 70 16 74 17 71 18 73 19 72 20 77 21 78 22
REMARK SMILES IDX 79 23 80 24 83 25 81 26 82 27 7 28 8 29 9 30 10 31 11 32
REMARK SMILES IDX 12 33 64 34 13 35 63 36 14 37 15 38 16 39 57 40 17 41 62 42
REMARK SMILES IDX 56 43 58 44 18 45 61 46 55 47 54 48 19 50 45 51 28 52 44 53
REMARK SMILES IDX 29 54 32 55 43 56 59 57 30 58 31 59 42 61 60 62 33 63 20 64
REMARK SMILES IDX 21 65 26 66 22 67 23 68 25 69 27 70 24 71 46 72 47 73 52 74
REMARK SMILES IDX 48 75 49 76 51 77 53 78 50 79 34 80 35 81 40 82 36 83 37 84
REMARK SMILES IDX 39 85 41 86 38 87
REMARK H PARENT 58 49 32 60
REMARK Flexibility Score: inf
ROOT
ATOM      1  C   UNL     1       2.272  -1.716  -1.016  1.00  0.00     0.274 C 
ENDROOT
BRANCH   1   2
ATOM      2  O   UNL     1       1.457  -0.589  -1.382  1.00  0.00    -0.462 OA
BRANCH   2   3
ATOM      3  C   UNL     1       0.838   0.029  -0.340  1.00  0.00     0.313 C 
ATOM      4  O   UNL     1       0.809  -0.422   0.801  1.00  0.00    -0.252 OA
BRANCH   3   5
ATOM      5  C   UNL     1       0.209   1.369  -0.720  1.00  0.00     0.126 C 
ATOM      6  C   UNL     1       0.569   1.833  -2.134  1.00  0.00     0.025 C 
BRANCH   5   7
ATOM      7  C   UNL     1      -1.289   1.431  -0.474  1.00  0.00    -0.032 A 
ATOM      8  C   UNL     1      -1.944   2.667  -0.526  1.00  0.00     0.005 A 
ATOM      9  C   UNL     1      -2.028   0.277  -0.181  1.00  0.00     0.032 A 
ATOM     10  C   UNL     1      -3.335   2.748  -0.428  1.00  0.00     0.011 A 
ATOM     11  C   UNL     1      -3.413   0.382   0.012  1.00  0.00     0.058 A 
ATOM     12  C   UNL     1      -4.081   1.575  -0.204  1.00  0.00     0.008 A 
ATOM     13  N   UNL     1      -4.340  -0.585   0.412  1.00  0.00    -0.274 N 
ATOM     14  C   UNL     1      -5.468   1.280  -0.174  1.00  0.00     0.009 A 
ATOM     15  C   UNL     1      -5.624  -0.050   0.248  1.00  0.00     0.057 A 
ATOM     16  C   UNL     1      -6.602   2.066  -0.464  1.00  0.00     0.031 A 
ATOM     17  C   UNL     1      -6.907  -0.564   0.510  1.00  0.00     0.029 A 
ATOM     18  C   UNL     1      -7.869   1.525  -0.278  1.00  0.00     0.041 A 
ATOM     19  C   UNL     1      -8.021   0.240   0.227  1.00  0.00     0.023 A 
ATOM     20  Cl  UNL     1      -9.253   2.473  -0.660  1.00  0.00    -0.084 Cl
BRANCH  13  21
ATOM     21  C   UNL     1      -3.954  -1.843   0.943  1.00  0.00     0.284 C 
ATOM     22  O   UNL     1      -2.936  -1.829   1.636  1.00  0.00    -0.266 OA
BRANCH  21  23
ATOM     23  C   UNL     1      -4.614  -3.115   0.676  1.00  0.00     0.167 A 
ATOM     24  C   UNL     1      -5.473  -3.459  -0.344  1.00  0.00     0.231 A 
ATOM     25  N   UNL     1      -4.305  -4.266   1.393  1.00  0.00    -0.211 NA
ATOM     26  O   UNL     1      -5.711  -4.802  -0.276  1.00  0.00    -0.451 OA
ATOM     27  C   UNL     1      -4.964  -5.218   0.781  1.00  0.00     0.308 A 
ENDBRANCH  21  23
ENDBRANCH  13  21
ENDBRANCH   5   7
ENDBRANCH   3   5
ENDBRANCH   2   3
ENDBRANCH   1   2
BRANCH   1  28
ATOM     28  C   UNL     1       3.718  -1.264  -0.808  1.00  0.00     0.275 C 
BRANCH  28  29
ATOM     29  O   UNL     1       3.777  -0.187   0.151  1.00  0.00    -0.458 OA
BRANCH  29  30
ATOM     30  C   UNL     1       4.089   1.029  -0.357  1.00  0.00     0.338 C 
ATOM     31  O   UNL     1       4.421   1.279  -1.504  1.00  0.00    -0.246 OA
BRANCH  30  32
ATOM     32  C   UNL     1       3.930   2.097   0.654  1.00  0.00     0.060 A 
ATOM     33  C   UNL     1       2.819   2.149   1.494  1.00  0.00     0.016 A 
ATOM     34  C   UNL     1       4.835   3.157   0.651  1.00  0.00     0.016 A 
ATOM     35  C   UNL     1       2.541   3.306   2.222  1.00  0.00     0.010 A 
ATOM     36  C   UNL     1       4.634   4.249   1.501  1.00  0.00     0.010 A 
ATOM     37  C   UNL     1       3.467   4.355   2.277  1.00  0.00    -0.014 A 
BRANCH  37  38
ATOM     38  C   UNL     1       3.258   5.536   3.165  1.00  0.00     0.031 A 
ATOM     39  C   UNL     1       3.378   6.936   2.619  1.00  0.00     0.074 A 
ATOM     40  C   UNL     1       3.034   5.359   4.484  1.00  0.00     0.049 A 
ATOM     41  N   UNL     1       3.520   8.069   3.261  1.00  0.00    -0.248 NA
ATOM     42  C   UNL     1       3.361   7.079   1.154  1.00  0.00     0.031 C 
ATOM     43  C   UNL     1       2.858   4.069   5.156  1.00  0.00     0.029 A 
ATOM     44  N   UNL     1       2.937   6.273   5.506  1.00  0.00    -0.354 N 
ATOM     45  C   UNL     1       3.675   9.046   2.284  1.00  0.00     0.074 A 
ATOM     46  C   UNL     1       3.611   8.373   1.004  1.00  0.00     0.031 C 
ATOM     47  C   UNL     1       2.652   4.272   6.464  1.00  0.00     0.029 A 
ATOM     48  C   UNL     1       2.792   5.693   6.744  1.00  0.00     0.049 A 
ATOM     49  H   UNL     1       2.969   7.247   5.365  1.00  0.00     0.167 HD
ATOM     50  C   UNL     1       3.859  10.379   2.444  1.00  0.00     0.037 A 
ATOM     51  C   UNL     1       2.832   6.226   7.979  1.00  0.00     0.037 A 
ATOM     52  C   UNL     1       3.871  11.047   3.722  1.00  0.00     0.049 A 
ATOM     53  C   UNL     1       3.084   7.696   8.133  1.00  0.00     0.074 A 
ATOM     54  C   UNL     1       4.013  12.399   3.988  1.00  0.00     0.029 A 
ATOM     55  N   UNL     1       3.728  10.414   4.948  1.00  0.00    -0.354 N 
ATOM     56  N   UNL     1       3.265   8.605   7.206  1.00  0.00    -0.248 NA
ATOM     57  C   UNL     1       3.155   8.212   9.506  1.00  0.00     0.031 C 
ATOM     58  C   UNL     1       4.003  12.578   5.375  1.00  0.00     0.029 A 
ATOM     59  C   UNL     1       3.798  11.345   5.973  1.00  0.00     0.049 A 
ATOM     60  H   UNL     1       3.595   9.447   5.072  1.00  0.00     0.167 HD
ATOM     61  C   UNL     1       3.446   9.803   7.882  1.00  0.00     0.074 A 
ATOM     62  C   UNL     1       3.339   9.507   9.296  1.00  0.00     0.031 C 
ATOM     63  C   UNL     1       3.681  11.038   7.375  1.00  0.00     0.037 A 
BRANCH  50  64
ATOM     64  C   UNL     1       4.098  11.209   1.213  1.00  0.00     0.057 A 
ATOM     65  C   UNL     1       3.088  11.480   0.282  1.00  0.00     0.134 A 
ATOM     66  C   UNL     1       5.355  11.789   0.984  1.00  0.00     0.134 A 
ATOM     67  F   UNL     1       1.864  10.951   0.434  1.00  0.00    -0.206 F 
ATOM     68  C   UNL     1       3.323  12.275  -0.842  1.00  0.00     0.040 A 
ATOM     69  C   UNL     1       5.594  12.608  -0.121  1.00  0.00     0.040 A 
ATOM     70  F   UNL     1       6.367  11.581   1.839  1.00  0.00    -0.206 F 
ATOM     71  C   UNL     1       4.578  12.848  -1.042  1.00  0.00     0.006 A 
ENDBRANCH  50  64
BRANCH  51  72
ATOM     72  C   UNL     1       2.673   5.351   9.169  1.00  0.00     0.057 A 
ATOM     73  C   UNL     1       1.537   5.440   9.980  1.00  0.00     0.134 A 
ATOM     74  C   UNL     1       3.642   4.400   9.517  1.00  0.00     0.134 A 
ATOM     75  F   UNL     1       0.585   6.345   9.710  1.00  0.00    -0.206 F 
ATOM     76  C   UNL     1       1.375   4.625  11.101  1.00  0.00     0.040 A 
ATOM     77  C   UNL     1       3.478   3.558  10.617  1.00  0.00     0.040 A 
ATOM     78  F   UNL     1       4.752   4.260   8.777  1.00  0.00    -0.206 F 
ATOM     79  C   UNL     1       2.344   3.674  11.417  1.00  0.00     0.006 A 
ENDBRANCH  51  72
BRANCH  63  80
ATOM     80  C   UNL     1       3.788  12.167   8.357  1.00  0.00     0.057 A 
ATOM     81  C   UNL     1       4.898  12.319   9.197  1.00  0.00     0.134 A 
ATOM     82  C   UNL     1       2.770  13.126   8.449  1.00  0.00     0.134 A 
ATOM     83  F   UNL     1       5.898  11.425   9.171  1.00  0.00    -0.206 F 
ATOM     84  C   UNL     1       4.981  13.370  10.111  1.00  0.00     0.040 A 
ATOM     85  C   UNL     1       2.855  14.196   9.338  1.00  0.00     0.040 A 
ATOM     86  F   UNL     1       1.682  13.041   7.668  1.00  0.00    -0.206 F 
ATOM     87  C   UNL     1       3.960  14.316  10.178  1.00  0.00     0.006 A 
ENDBRANCH  63  80
ENDBRANCH  37  38
ENDBRANCH  30  32
ENDBRANCH  29  30
ENDBRANCH  28  29
ENDBRANCH   1  28
TORSDOF 14
