REMARK SMILES O=C(OCCOC(=O)c1ccc(-c2c3nc(c(-c4c(F)cccc4F)c4ccc([nH]4)c(-c4c(F)cccc4F)c4nc(c(-c5c(F)cccc5F)c5ccc2[nH]5)C=C4)C=C3)cc1)C1=Cc2cc(S(F)(F)(F)(F)F)cc(Br)c2O[C@@H]1C(F)(F)F
REMARK SMILES IDX 5 1 4 2 3 3 2 4 1 5 63 6 64 7 79 8 65 9 78 10 66 11 77 12
REMARK SMILES IDX 67 13 75 14 74 15 76 16 80 17 81 18 82 19 83 20 68 21 69 22
REMARK SMILES IDX 70 23 71 24 72 25 73 26 6 27 7 28 8 29 9 30 10 31 62 32
REMARK SMILES IDX 11 33 61 34 12 35 13 36 14 37 55 38 15 39 60 40 54 41 56 42
REMARK SMILES IDX 16 43 59 44 53 45 52 46 17 48 43 49 26 50 42 51 27 52 30 53
REMARK SMILES IDX 41 54 57 55 28 56 29 57 40 59 58 60 31 61 18 62 19 63 24 64
REMARK SMILES IDX 20 65 21 66 23 67 25 68 22 69 44 70 45 71 50 72 46 73 47 74
REMARK SMILES IDX 49 75 51 76 48 77 32 78 33 79 38 80 34 81 35 82 37 83 39 84
REMARK SMILES IDX 36 85
REMARK H PARENT 56 47 30 58
REMARK Flexibility Score: inf
ROOT
ATOM      1  C   UNL     1       4.847  -1.207   0.383  1.00  0.00     0.275 C 
ENDROOT
BRANCH   1   2
ATOM      2  C   UNL     1       4.341  -0.018   1.183  1.00  0.00     0.275 C 
BRANCH   2   3
ATOM      3  O   UNL     1       2.921  -0.018   1.183  1.00  0.00    -0.459 OA
BRANCH   3   4
ATOM      4  C   UNL     1       2.211   0.067  -0.044  1.00  0.00     0.338 C 
ATOM      5  O   UNL     1       0.940   0.067  -0.044  1.00  0.00    -0.246 OA
BRANCH   4   6
ATOM      6  C   UNL     1       2.971   0.157  -1.357  1.00  0.00     0.087 C 
ATOM      7  C   UNL     1       4.331   0.157  -1.357  1.00  0.00     0.027 C 
ATOM      8  C   UNL     1       2.211   0.248  -2.670  1.00  0.00     0.316 C 
ATOM      9  C   UNL     1       5.091   0.067  -0.044  1.00  0.00     0.020 A 
ATOM     10  O   UNL     1       3.504  -1.545   0.685  1.00  0.00    -0.474 OA
ATOM     11  C   UNL     1       6.172   0.904   0.174  1.00  0.00     0.036 A 
ATOM     12  C   UNL     1       4.708  -0.817   0.871  1.00  0.00     0.142 A 
ATOM     13  C   UNL     1       6.971   0.533   1.282  1.00  0.00     0.109 A 
ATOM     14  C   UNL     1       5.467  -1.032   1.996  1.00  0.00     0.062 A 
ATOM     15  C   UNL     1       6.582  -0.281   2.247  1.00  0.00     0.044 A 
ATOM     16  Br  UNL     1       4.943  -2.435   3.260  1.00  0.00    -0.047 Br
BRANCH   8  17
ATOM     17  C   UNL     1       2.578  -0.936  -3.551  1.00  0.00     0.430 C 
ATOM     18  F   UNL     1       2.256  -2.067  -2.930  1.00  0.00    -0.167 F 
ATOM     19  F   UNL     1       1.913  -0.857  -4.700  1.00  0.00    -0.167 F 
ATOM     20  F   UNL     1       3.885  -0.919  -3.793  1.00  0.00    -0.167 F 
ENDBRANCH   8  17
BRANCH  13  21
ATOM     21  S   UNL     1       8.642   1.220   1.383  1.00  0.00     0.310 S 
ATOM     22  F   UNL     1       8.611   1.225   2.969  1.00  0.00    -0.094 F 
ATOM     23  F   UNL     1       8.014   2.664   1.435  1.00  0.00    -0.094 F 
ATOM     24  F   UNL     1      10.078   1.812   1.471  1.00  0.00    -0.094 F 
ATOM     25  F   UNL     1       9.245  -0.236   1.472  1.00  0.00    -0.094 F 
ATOM     26  F   UNL     1       7.187   0.604   1.409  1.00  0.00    -0.094 F 
ENDBRANCH  13  21
ENDBRANCH   4   6
ENDBRANCH   3   4
ENDBRANCH   2   3
ENDBRANCH   1   2
BRANCH   1  27
ATOM     27  O   UNL     1       4.374  -1.115  -0.953  1.00  0.00    -0.458 OA
BRANCH  27  28
ATOM     28  C   UNL     1       2.978  -1.097  -1.212  1.00  0.00     0.338 C 
ATOM     29  O   UNL     1       2.152  -1.163  -0.248  1.00  0.00    -0.246 OA
BRANCH  28  30
ATOM     30  C   UNL     1       2.471  -0.998  -2.641  1.00  0.00     0.060 A 
ATOM     31  C   UNL     1       1.445  -0.117  -2.938  1.00  0.00     0.016 A 
ATOM     32  C   UNL     1       3.025  -1.753  -3.583  1.00  0.00     0.016 A 
ATOM     33  C   UNL     1       0.872  -0.314  -4.217  1.00  0.00     0.010 A 
ATOM     34  C   UNL     1       2.493  -1.794  -4.849  1.00  0.00     0.010 A 
ATOM     35  C   UNL     1       1.441  -0.993  -5.196  1.00  0.00    -0.014 A 
BRANCH  35  36
ATOM     36  C   UNL     1       0.952  -0.890  -6.632  1.00  0.00     0.031 A 
ATOM     37  C   UNL     1       0.504  -2.054  -7.257  1.00  0.00     0.074 A 
ATOM     38  C   UNL     1       0.988   0.352  -7.242  1.00  0.00     0.049 A 
ATOM     39  N   UNL     1       0.015  -2.178  -8.492  1.00  0.00    -0.248 NA
ATOM     40  C   UNL     1       0.497  -3.381  -6.623  1.00  0.00     0.031 C 
ATOM     41  C   UNL     1       1.431   1.533  -6.615  1.00  0.00     0.029 A 
ATOM     42  N   UNL     1       0.615   0.673  -8.528  1.00  0.00    -0.354 N 
ATOM     43  C   UNL     1      -0.328  -3.446  -8.728  1.00  0.00     0.074 A 
ATOM     44  C   UNL     1      -0.016  -4.239  -7.531  1.00  0.00     0.031 C 
ATOM     45  C   UNL     1       1.338   2.548  -7.513  1.00  0.00     0.029 A 
ATOM     46  C   UNL     1       0.834   2.020  -8.717  1.00  0.00     0.049 A 
ATOM     47  H   UNL     1       0.254   0.048  -9.198  1.00  0.00     0.167 HD
ATOM     48  C   UNL     1      -0.889  -3.971  -9.893  1.00  0.00     0.037 A 
ATOM     49  C   UNL     1       0.615   2.762  -9.866  1.00  0.00     0.037 A 
ATOM     50  C   UNL     1      -1.149  -3.220 -11.028  1.00  0.00     0.049 A 
ATOM     51  C   UNL     1       0.107   2.225 -11.052  1.00  0.00     0.074 A 
ATOM     52  C   UNL     1      -1.721  -3.732 -12.207  1.00  0.00     0.029 A 
ATOM     53  N   UNL     1      -0.906  -1.878 -11.224  1.00  0.00    -0.354 N 
ATOM     54  N   UNL     1      -0.271   0.965 -11.274  1.00  0.00    -0.248 NA
ATOM     55  C   UNL     1      -0.099   2.995 -12.285  1.00  0.00     0.031 C 
ATOM     56  C   UNL     1      -1.814  -2.717 -13.107  1.00  0.00     0.029 A 
ATOM     57  C   UNL     1      -1.301  -1.553 -12.503  1.00  0.00     0.049 A 
ATOM     58  H   UNL     1      -0.519  -1.259 -10.565  1.00  0.00     0.167 HD
ATOM     59  C   UNL     1      -0.722   0.834 -12.523  1.00  0.00     0.074 A 
ATOM     60  C   UNL     1      -0.610   2.136 -13.194  1.00  0.00     0.031 C 
ATOM     61  C   UNL     1      -1.225  -0.318 -13.129  1.00  0.00     0.037 A 
BRANCH  48  62
ATOM     62  C   UNL     1      -1.235  -5.451  -9.918  1.00  0.00     0.057 A 
ATOM     63  C   UNL     1      -2.155  -5.922  -8.995  1.00  0.00     0.134 A 
ATOM     64  C   UNL     1      -0.675  -6.262 -10.808  1.00  0.00     0.134 A 
ATOM     65  F   UNL     1      -2.922  -5.121  -8.262  1.00  0.00    -0.206 F 
ATOM     66  C   UNL     1      -2.204  -7.333  -8.904  1.00  0.00     0.040 A 
ATOM     67  C   UNL     1      -0.875  -7.620 -10.741  1.00  0.00     0.040 A 
ATOM     68  F   UNL     1       0.087  -5.756 -11.773  1.00  0.00    -0.206 F 
ATOM     69  C   UNL     1      -1.726  -8.160  -9.816  1.00  0.00     0.006 A 
ENDBRANCH  48  62
BRANCH  49  70
ATOM     70  C   UNL     1       0.945   4.246  -9.835  1.00  0.00     0.057 A 
ATOM     71  C   UNL     1      -0.080   5.149 -10.062  1.00  0.00     0.134 A 
ATOM     72  C   UNL     1       2.182   4.657  -9.582  1.00  0.00     0.134 A 
ATOM     73  F   UNL     1      -1.364   4.802 -10.068  1.00  0.00    -0.206 F 
ATOM     74  C   UNL     1       0.362   6.474 -10.287  1.00  0.00     0.040 A 
ATOM     75  C   UNL     1       2.513   5.986  -9.688  1.00  0.00     0.040 A 
ATOM     76  F   UNL     1       3.109   3.774  -9.221  1.00  0.00    -0.206 F 
ATOM     77  C   UNL     1       1.561   6.928  -9.968  1.00  0.00     0.006 A 
ENDBRANCH  49  70
BRANCH  61  78
ATOM     78  C   UNL     1      -1.720  -0.213 -14.562  1.00  0.00     0.057 A 
ATOM     79  C   UNL     1      -0.839   0.177 -15.557  1.00  0.00     0.134 A 
ATOM     80  C   UNL     1      -2.986  -0.504 -14.839  1.00  0.00     0.134 A 
ATOM     81  F   UNL     1       0.478   0.233 -15.379  1.00  0.00    -0.206 F 
ATOM     82  C   UNL     1      -1.467   0.511 -16.781  1.00  0.00     0.040 A 
ATOM     83  C   UNL     1      -3.497  -0.280 -16.094  1.00  0.00     0.040 A 
ATOM     84  F   UNL     1      -3.765  -1.019 -13.892  1.00  0.00    -0.206 F 
ATOM     85  C   UNL     1      -2.697   0.162 -17.111  1.00  0.00     0.006 A 
ENDBRANCH  61  78
ENDBRANCH  35  36
ENDBRANCH  28  30
ENDBRANCH  27  28
ENDBRANCH   1  27
TORSDOF 13
