REMARK SMILES CC(C)C[C@H](CNC(=O)Nc1cccc(Cl)c1)C(=O)OCCOC(=O)c1ccc(-c2c3nc(c(-c4c(F)cccc4F)c4ccc([nH]4)c(-c4c(F)cccc4F)c4nc(c(-c5c(F)cccc5F)c5ccc2[nH]5)C=C4)C=C3)cc1
REMARK SMILES IDX 21 1 20 2 18 3 19 4 5 5 4 6 2 7 1 8 3 9 6 10 7 11 8 12 9 14
REMARK SMILES IDX 10 15 11 17 12 18 17 19 13 20 15 21 14 22 16 23 22 24 23 25
REMARK SMILES IDX 24 26 25 27 26 28 27 29 79 30 28 31 78 32 29 33 30 34 31 35
REMARK SMILES IDX 72 36 32 37 77 38 71 39 73 40 33 41 76 42 70 43 69 44 34 46
REMARK SMILES IDX 60 47 43 48 59 49 44 50 47 51 58 52 74 53 45 54 46 55 57 57
REMARK SMILES IDX 75 58 48 59 35 60 36 61 41 62 37 63 38 64 40 65 42 66 39 67
REMARK SMILES IDX 61 68 62 69 67 70 63 71 64 72 66 73 68 74 65 75 49 76 50 77
REMARK SMILES IDX 55 78 51 79 52 80 54 81 56 82 53 83
REMARK H PARENT 7 13 10 16 73 45 47 56
REMARK Flexibility Score: inf
ROOT
ATOM      1  C   UNL     1      -5.388   1.823   0.299  1.00  0.00     0.274 C 
ENDROOT
BRANCH   1   2
ATOM      2  O   UNL     1      -3.959   1.999   0.253  1.00  0.00    -0.462 OA
BRANCH   2   3
ATOM      3  C   UNL     1      -3.279   1.606   1.360  1.00  0.00     0.310 C 
ATOM      4  O   UNL     1      -3.793   1.158   2.378  1.00  0.00    -0.252 OA
BRANCH   3   5
ATOM      5  C   UNL     1      -1.785   1.778   1.224  1.00  0.00     0.119 C 
BRANCH   5   6
ATOM      6  C   UNL     1      -1.173   2.940   2.019  1.00  0.00     0.020 C 
BRANCH   6   7
ATOM      7  C   UNL     1      -1.751   4.351   1.821  1.00  0.00    -0.017 C 
ATOM      8  C   UNL     1      -3.058   4.560   2.591  1.00  0.00     0.007 C 
ATOM      9  C   UNL     1      -0.724   5.380   2.313  1.00  0.00     0.007 C 
ENDBRANCH   6   7
ENDBRANCH   5   6
BRANCH   5  10
ATOM     10  C   UNL     1      -1.237   1.589  -0.194  1.00  0.00     0.133 C 
BRANCH  10  11
ATOM     11  N   UNL     1      -1.414   2.671  -1.142  1.00  0.00    -0.337 N 
ATOM     12  C   UNL     1      -0.573   3.574  -1.688  1.00  0.00     0.319 C 
ATOM     13  H   UNL     1      -2.344   2.768  -1.453  1.00  0.00     0.165 HD
ATOM     14  O   UNL     1      -1.060   4.509  -2.327  1.00  0.00    -0.249 OA
ATOM     15  N   UNL     1       0.757   3.566  -1.443  1.00  0.00    -0.308 N 
ATOM     16  H   UNL     1       1.189   4.448  -1.513  1.00  0.00     0.171 HD
BRANCH  15  17
ATOM     17  C   UNL     1       1.624   2.522  -1.108  1.00  0.00     0.044 A 
ATOM     18  C   UNL     1       1.525   1.251  -1.690  1.00  0.00     0.026 A 
ATOM     19  C   UNL     1       2.581   2.768  -0.125  1.00  0.00     0.046 A 
ATOM     20  C   UNL     1       2.310   0.201  -1.207  1.00  0.00     0.004 A 
ATOM     21  C   UNL     1       3.337   1.709   0.373  1.00  0.00     0.043 A 
ATOM     22  C   UNL     1       3.198   0.425  -0.154  1.00  0.00     0.020 A 
ATOM     23  Cl  UNL     1       4.405   1.979   1.695  1.00  0.00    -0.084 Cl
ENDBRANCH  15  17
ENDBRANCH  10  11
ENDBRANCH   5  10
ENDBRANCH   3   5
ENDBRANCH   2   3
ENDBRANCH   1   2
BRANCH   1  24
ATOM     24  C   UNL     1      -5.824   0.592  -0.500  1.00  0.00     0.275 C 
BRANCH  24  25
ATOM     25  O   UNL     1      -5.282  -0.622   0.056  1.00  0.00    -0.458 OA
BRANCH  25  26
ATOM     26  C   UNL     1      -4.156  -1.073  -0.545  1.00  0.00     0.338 C 
ATOM     27  O   UNL     1      -3.593  -0.591  -1.514  1.00  0.00    -0.246 OA
BRANCH  26  28
ATOM     28  C   UNL     1      -3.579  -2.186   0.227  1.00  0.00     0.060 A 
ATOM     29  C   UNL     1      -2.283  -2.030   0.728  1.00  0.00     0.016 A 
ATOM     30  C   UNL     1      -4.252  -3.399   0.380  1.00  0.00     0.016 A 
ATOM     31  C   UNL     1      -1.652  -3.078   1.386  1.00  0.00     0.010 A 
ATOM     32  C   UNL     1      -3.613  -4.459   1.036  1.00  0.00     0.010 A 
ATOM     33  C   UNL     1      -2.307  -4.306   1.534  1.00  0.00    -0.014 A 
BRANCH  33  34
ATOM     34  C   UNL     1      -1.583  -5.433   2.164  1.00  0.00     0.031 A 
ATOM     35  C   UNL     1      -0.994  -6.515   1.306  1.00  0.00     0.074 A 
ATOM     36  C   UNL     1      -1.399  -5.448   3.496  1.00  0.00     0.049 A 
ATOM     37  N   UNL     1      -0.353  -7.598   1.665  1.00  0.00    -0.248 NA
ATOM     38  C   UNL     1      -1.139  -6.354  -0.149  1.00  0.00     0.031 C 
ATOM     39  C   UNL     1      -1.877  -4.424   4.426  1.00  0.00     0.029 A 
ATOM     40  N   UNL     1      -0.755  -6.356   4.298  1.00  0.00    -0.354 N 
ATOM     41  C   UNL     1      -0.025  -8.252   0.485  1.00  0.00     0.074 A 
ATOM     42  C   UNL     1      -0.552  -7.454  -0.602  1.00  0.00     0.031 C 
ATOM     43  C   UNL     1      -1.510  -4.762   5.673  1.00  0.00     0.029 A 
ATOM     44  C   UNL     1      -0.806  -6.041   5.633  1.00  0.00     0.049 A 
ATOM     45  H   UNL     1      -0.300  -7.156   3.949  1.00  0.00     0.167 HD
ATOM     46  C   UNL     1       0.656  -9.411   0.325  1.00  0.00     0.037 A 
ATOM     47  C   UNL     1      -0.356  -6.721   6.704  1.00  0.00     0.037 A 
ATOM     48  C   UNL     1       1.181 -10.203   1.407  1.00  0.00     0.049 A 
ATOM     49  C   UNL     1       0.347  -8.034   6.499  1.00  0.00     0.074 A 
ATOM     50  C   UNL     1       1.867 -11.404   1.345  1.00  0.00     0.029 A 
ATOM     51  N   UNL     1       1.080  -9.870   2.749  1.00  0.00    -0.354 N 
ATOM     52  N   UNL     1       0.629  -8.655   5.380  1.00  0.00    -0.248 NA
ATOM     53  C   UNL     1       0.790  -8.743   7.708  1.00  0.00     0.031 C 
ATOM     54  C   UNL     1       2.156 -11.812   2.652  1.00  0.00     0.029 A 
ATOM     55  C   UNL     1       1.681 -10.846   3.525  1.00  0.00     0.049 A 
ATOM     56  H   UNL     1       0.644  -9.059   3.098  1.00  0.00     0.167 HD
ATOM     57  C   UNL     1       1.291  -9.819   5.748  1.00  0.00     0.074 A 
ATOM     58  C   UNL     1       1.391  -9.806   7.193  1.00  0.00     0.031 C 
ATOM     59  C   UNL     1       1.768 -10.815   4.962  1.00  0.00     0.037 A 
BRANCH  46  60
ATOM     60  C   UNL     1       0.855  -9.905  -1.076  1.00  0.00     0.057 A 
ATOM     61  C   UNL     1       1.792  -9.321  -1.937  1.00  0.00     0.134 A 
ATOM     62  C   UNL     1       0.129 -11.002  -1.555  1.00  0.00     0.134 A 
ATOM     63  F   UNL     1       2.506  -8.256  -1.543  1.00  0.00    -0.206 F 
ATOM     64  C   UNL     1       1.991  -9.804  -3.232  1.00  0.00     0.040 A 
ATOM     65  C   UNL     1       0.333 -11.506  -2.841  1.00  0.00     0.040 A 
ATOM     66  F   UNL     1      -0.783 -11.607  -0.779  1.00  0.00    -0.206 F 
ATOM     67  C   UNL     1       1.265 -10.905  -3.684  1.00  0.00     0.006 A 
ENDBRANCH  46  60
BRANCH  47  68
ATOM     68  C   UNL     1      -0.584  -6.192   8.072  1.00  0.00     0.057 A 
ATOM     69  C   UNL     1       0.476  -5.731   8.860  1.00  0.00     0.134 A 
ATOM     70  C   UNL     1      -1.866  -6.165   8.633  1.00  0.00     0.134 A 
ATOM     71  F   UNL     1       1.730  -5.756   8.386  1.00  0.00    -0.206 F 
ATOM     72  C   UNL     1       0.272  -5.278  10.164  1.00  0.00     0.040 A 
ATOM     73  C   UNL     1      -2.089  -5.692   9.926  1.00  0.00     0.040 A 
ATOM     74  F   UNL     1      -2.923  -6.596   7.928  1.00  0.00    -0.206 F 
ATOM     75  C   UNL     1      -1.016  -5.254  10.699  1.00  0.00     0.006 A 
ENDBRANCH  47  68
BRANCH  59  76
ATOM     76  C   UNL     1       2.453 -11.956   5.653  1.00  0.00     0.057 A 
ATOM     77  C   UNL     1       1.732 -12.920   6.369  1.00  0.00     0.134 A 
ATOM     78  C   UNL     1       3.844 -12.098   5.592  1.00  0.00     0.134 A 
ATOM     79  F   UNL     1       0.397 -12.829   6.477  1.00  0.00    -0.206 F 
ATOM     80  C   UNL     1       2.374 -13.972   7.023  1.00  0.00     0.040 A 
ATOM     81  C   UNL     1       4.495 -13.159   6.223  1.00  0.00     0.040 A 
ATOM     82  F   UNL     1       4.591 -11.212   4.916  1.00  0.00    -0.206 F 
ATOM     83  C   UNL     1       3.760 -14.096   6.947  1.00  0.00     0.006 A 
ENDBRANCH  59  76
ENDBRANCH  33  34
ENDBRANCH  26  28
ENDBRANCH  25  26
ENDBRANCH  24  25
ENDBRANCH   1  24
TORSDOF 16
