REMARK SMILES CC[C@@H]1CCC[C@@H]([NH+]2CC(n3cc(C(=O)OCCOC(=O)c4ccc(-c5c6nc(c(-c7c(F)cccc7F)c7ccc([nH]7)c(-c7c(F)cccc7F)c7nc(c(-c8c(F)cccc8F)c8ccc5[nH]8)C=C7)C=C6)cc4)nn3)C2)C1
REMARK SMILES IDX 17 1 16 2 14 3 15 4 13 5 11 6 12 7 77 8 76 9 10 10 8 11 9 12
REMARK SMILES IDX 78 13 7 15 3 16 4 17 79 18 5 19 6 20 2 21 1 22 18 23 19 24
REMARK SMILES IDX 20 25 21 26 22 27 23 28 75 29 24 30 74 31 25 32 26 33 27 34
REMARK SMILES IDX 68 35 28 36 73 37 67 38 69 39 29 40 72 41 66 42 65 43 30 45
REMARK SMILES IDX 56 46 39 47 55 48 40 49 43 50 54 51 70 52 41 53 42 54 53 56
REMARK SMILES IDX 71 57 44 58 31 59 32 60 37 61 33 62 34 63 36 64 38 65 35 66
REMARK SMILES IDX 57 67 58 68 63 69 59 70 60 71 62 72 64 73 61 74 45 75 46 76
REMARK SMILES IDX 51 77 47 78 48 79 50 80 52 81 49 82
REMARK H PARENT 8 14 69 44 43 55
REMARK Flexibility Score: inf
ROOT
ATOM      1  C   UNL     1       6.168 -11.467  -0.908  1.00  0.00     0.275 C 
ENDROOT
BRANCH   1   2
ATOM      2  O   UNL     1       5.712 -10.203  -0.412  1.00  0.00    -0.457 OA
BRANCH   2   3
ATOM      3  C   UNL     1       6.575  -9.151  -0.559  1.00  0.00     0.360 C 
ATOM      4  O   UNL     1       7.737  -9.257  -0.946  1.00  0.00    -0.244 OA
BRANCH   3   5
ATOM      5  C   UNL     1       5.943  -7.890  -0.232  1.00  0.00     0.190 A 
ATOM      6  N   UNL     1       4.547  -6.350   0.359  1.00  0.00    -0.237 N 
ATOM      7  C   UNL     1       4.661  -7.701   0.240  1.00  0.00     0.147 A 
ATOM      8  N   UNL     1       5.671  -5.727  -0.028  1.00  0.00    -0.066 NA
ATOM      9  N   UNL     1       6.540  -6.662  -0.393  1.00  0.00    -0.123 NA
BRANCH   6  10
ATOM     10  C   UNL     1       3.294  -5.715   0.561  1.00  0.00     0.218 C 
ATOM     11  N   UNL     1       2.373  -4.177   1.678  1.00  0.00    -0.329 N 
ATOM     12  C   UNL     1       3.298  -4.186   0.522  1.00  0.00     0.296 C 
ATOM     13  C   UNL     1       2.873  -5.537   2.032  1.00  0.00     0.296 C 
ATOM     14  H   UNL     1       2.393  -3.392   2.330  1.00  0.00     0.348 HD
BRANCH  11  15
ATOM     15  C   UNL     1       0.918  -4.121   1.402  1.00  0.00     0.184 C 
ATOM     16  C   UNL     1       0.718  -2.267  -0.398  1.00  0.00    -0.006 C 
ATOM     17  C   UNL     1       0.111  -3.290  -1.376  1.00  0.00     0.004 C 
ATOM     18  C   UNL     1       0.474  -2.676   1.065  1.00  0.00     0.068 C 
ATOM     19  C   UNL     1       0.449  -4.743  -1.057  1.00  0.00     0.006 C 
ATOM     20  C   UNL     1       0.228  -5.082   0.413  1.00  0.00     0.065 C 
BRANCH  16  21
ATOM     21  C   UNL     1       0.174  -0.865  -0.730  1.00  0.00     0.000 C 
ATOM     22  C   UNL     1       0.809   0.241   0.101  1.00  0.00     0.004 C 
ENDBRANCH  16  21
ENDBRANCH  11  15
ENDBRANCH   6  10
ENDBRANCH   3   5
ENDBRANCH   2   3
ENDBRANCH   1   2
BRANCH   1  23
ATOM     23  C   UNL     1       5.822 -11.632  -2.378  1.00  0.00     0.275 C 
BRANCH  23  24
ATOM     24  O   UNL     1       6.588 -10.749  -3.194  1.00  0.00    -0.458 OA
BRANCH  24  25
ATOM     25  C   UNL     1       5.964  -9.614  -3.586  1.00  0.00     0.338 C 
ATOM     26  O   UNL     1       5.016  -9.073  -3.044  1.00  0.00    -0.246 OA
BRANCH  25  27
ATOM     27  C   UNL     1       6.441  -9.279  -4.936  1.00  0.00     0.060 A 
ATOM     28  C   UNL     1       5.940  -8.128  -5.550  1.00  0.00     0.016 A 
ATOM     29  C   UNL     1       7.164 -10.240  -5.660  1.00  0.00     0.016 A 
ATOM     30  C   UNL     1       6.041  -8.016  -6.924  1.00  0.00     0.010 A 
ATOM     31  C   UNL     1       7.237 -10.143  -7.028  1.00  0.00     0.010 A 
ATOM     32  C   UNL     1       6.623  -9.062  -7.653  1.00  0.00    -0.014 A 
BRANCH  32  33
ATOM     33  C   UNL     1       6.785  -8.921  -9.088  1.00  0.00     0.031 A 
ATOM     34  C   UNL     1       7.827  -7.918  -9.409  1.00  0.00     0.074 A 
ATOM     35  C   UNL     1       6.176  -9.730  -9.980  1.00  0.00     0.049 A 
ATOM     36  N   UNL     1       7.649  -6.752  -9.930  1.00  0.00    -0.248 NA
ATOM     37  C   UNL     1       9.194  -8.136  -8.898  1.00  0.00     0.031 C 
ATOM     38  C   UNL     1       5.362 -10.916  -9.691  1.00  0.00     0.029 A 
ATOM     39  N   UNL     1       6.231  -9.726 -11.345  1.00  0.00    -0.354 N 
ATOM     40  C   UNL     1       8.925  -6.212 -10.062  1.00  0.00     0.074 A 
ATOM     41  C   UNL     1       9.782  -6.979  -9.206  1.00  0.00     0.031 C 
ATOM     42  C   UNL     1       5.192 -11.636 -10.825  1.00  0.00     0.029 A 
ATOM     43  C   UNL     1       5.758 -10.897 -11.940  1.00  0.00     0.049 A 
ATOM     44  H   UNL     1       6.574  -8.963 -11.864  1.00  0.00     0.167 HD
ATOM     45  C   UNL     1       9.216  -5.436 -11.142  1.00  0.00     0.037 A 
ATOM     46  C   UNL     1       5.860 -11.235 -13.251  1.00  0.00     0.037 A 
ATOM     47  C   UNL     1       7.998  -4.998 -11.779  1.00  0.00     0.049 A 
ATOM     48  C   UNL     1       6.095  -9.988 -14.010  1.00  0.00     0.074 A 
ATOM     49  C   UNL     1       6.996  -4.092 -11.515  1.00  0.00     0.029 A 
ATOM     50  N   UNL     1       7.507  -5.906 -12.679  1.00  0.00    -0.354 N 
ATOM     51  N   UNL     1       5.192  -9.058 -14.151  1.00  0.00    -0.248 NA
ATOM     52  C   UNL     1       7.463  -9.584 -14.312  1.00  0.00     0.031 C 
ATOM     53  C   UNL     1       5.834  -4.580 -12.187  1.00  0.00     0.029 A 
ATOM     54  C   UNL     1       6.169  -5.735 -12.890  1.00  0.00     0.049 A 
ATOM     55  H   UNL     1       8.053  -6.597 -13.120  1.00  0.00     0.167 HD
ATOM     56  C   UNL     1       5.913  -7.881 -14.110  1.00  0.00     0.074 A 
ATOM     57  C   UNL     1       7.292  -8.262 -14.393  1.00  0.00     0.031 C 
ATOM     58  C   UNL     1       5.385  -6.772 -13.518  1.00  0.00     0.037 A 
BRANCH  45  59
ATOM     59  C   UNL     1      10.502  -5.545 -11.942  1.00  0.00     0.057 A 
ATOM     60  C   UNL     1      10.690  -4.670 -13.030  1.00  0.00     0.134 A 
ATOM     61  C   UNL     1      11.385  -6.646 -11.910  1.00  0.00     0.134 A 
ATOM     62  F   UNL     1       9.908  -3.592 -13.189  1.00  0.00    -0.206 F 
ATOM     63  C   UNL     1      11.629  -4.916 -14.041  1.00  0.00     0.040 A 
ATOM     64  C   UNL     1      12.355  -6.874 -12.890  1.00  0.00     0.040 A 
ATOM     65  F   UNL     1      11.300  -7.620 -10.999  1.00  0.00    -0.206 F 
ATOM     66  C   UNL     1      12.460  -6.026 -13.978  1.00  0.00     0.006 A 
ENDBRANCH  45  59
BRANCH  46  67
ATOM     67  C   UNL     1       5.995 -12.562 -13.897  1.00  0.00     0.057 A 
ATOM     68  C   UNL     1       5.728 -12.744 -15.263  1.00  0.00     0.134 A 
ATOM     69  C   UNL     1       6.687 -13.605 -13.261  1.00  0.00     0.134 A 
ATOM     70  F   UNL     1       5.103 -11.789 -15.969  1.00  0.00    -0.206 F 
ATOM     71  C   UNL     1       6.157 -13.880 -15.965  1.00  0.00     0.040 A 
ATOM     72  C   UNL     1       7.120 -14.745 -13.949  1.00  0.00     0.040 A 
ATOM     73  F   UNL     1       7.048 -13.506 -11.973  1.00  0.00    -0.206 F 
ATOM     74  C   UNL     1       6.871 -14.878 -15.310  1.00  0.00     0.006 A 
ENDBRANCH  46  67
BRANCH  58  75
ATOM     75  C   UNL     1       3.896  -6.707 -13.388  1.00  0.00     0.057 A 
ATOM     76  C   UNL     1       3.125  -7.538 -12.563  1.00  0.00     0.134 A 
ATOM     77  C   UNL     1       3.224  -5.698 -14.084  1.00  0.00     0.134 A 
ATOM     78  F   UNL     1       3.694  -8.484 -11.803  1.00  0.00    -0.206 F 
ATOM     79  C   UNL     1       1.738  -7.390 -12.468  1.00  0.00     0.040 A 
ATOM     80  C   UNL     1       1.846  -5.518 -13.973  1.00  0.00     0.040 A 
ATOM     81  F   UNL     1       3.908  -4.844 -14.862  1.00  0.00    -0.206 F 
ATOM     82  C   UNL     1       1.096  -6.373 -13.171  1.00  0.00     0.006 A 
ENDBRANCH  58  75
ENDBRANCH  32  33
ENDBRANCH  25  27
ENDBRANCH  24  25
ENDBRANCH  23  24
ENDBRANCH   1  23
TORSDOF 14
