REMARK SMILES CCOc1ccccc1NC(=O)N[C@@](C)(CC)C(=O)OCCOC(=O)c1ccc(-c2c3nc(c(-c4c(F)cccc4F)c4ccc([nH]4)c(-c4c(F)cccc4F)c4nc(c(-c5c(F)cccc5F)c5ccc2[nH]5)C=C4)C=C3)cc1
REMARK SMILES IDX 21 1 20 2 18 3 19 4 14 5 15 6 13 7 10 8 11 9 12 11 9 13 4 14
REMARK SMILES IDX 5 15 6 16 8 17 7 18 3 19 2 20 1 21 16 22 17 23 22 24 23 25
REMARK SMILES IDX 24 26 25 27 26 28 27 29 79 30 28 31 78 32 29 33 30 34 31 35
REMARK SMILES IDX 72 36 32 37 77 38 71 39 73 40 33 41 76 42 70 43 69 44 34 46
REMARK SMILES IDX 60 47 43 48 59 49 44 50 47 51 58 52 74 53 45 54 46 55 57 57
REMARK SMILES IDX 75 58 48 59 35 60 36 61 41 62 37 63 38 64 40 65 42 66 39 67
REMARK SMILES IDX 61 68 62 69 67 70 63 71 64 72 66 73 68 74 65 75 49 76 50 77
REMARK SMILES IDX 55 78 51 79 52 80 54 81 56 82 53 83
REMARK H PARENT 10 10 13 12 73 45 47 56
REMARK Flexibility Score: inf
ROOT
ATOM      1  C   UNL     1       3.759  -3.409   2.915  1.00  0.00     0.274 C 
ENDROOT
BRANCH   1   2
ATOM      2  O   UNL     1       4.952  -2.591   2.813  1.00  0.00    -0.460 OA
BRANCH   2   3
ATOM      3  C   UNL     1       4.789  -1.477   2.053  1.00  0.00     0.331 C 
ATOM      4  O   UNL     1       3.690  -1.072   1.729  1.00  0.00    -0.249 OA
BRANCH   3   5
ATOM      5  C   UNL     1       6.085  -0.714   1.703  1.00  0.00     0.136 C 
ATOM      6  C   UNL     1       7.227  -1.581   1.154  1.00  0.00     0.047 C 
BRANCH   5   7
ATOM      7  N   UNL     1       5.788   0.361   0.704  1.00  0.00    -0.322 N 
ATOM      8  N   UNL     1       4.166  -0.481  -0.822  1.00  0.00    -0.305 N 
ATOM      9  C   UNL     1       5.077   0.442  -0.450  1.00  0.00     0.320 C 
ATOM     10  H   UNL     1       3.289  -0.086  -1.031  1.00  0.00     0.172 HD
ATOM     11  O   UNL     1       5.077   1.542  -1.011  1.00  0.00    -0.248 OA
ATOM     12  H   UNL     1       6.211   1.218   0.941  1.00  0.00     0.166 HD
BRANCH   8  13
ATOM     13  C   UNL     1       4.182  -1.878  -0.981  1.00  0.00     0.085 A 
ATOM     14  C   UNL     1       2.964  -2.571  -0.829  1.00  0.00     0.142 A 
ATOM     15  C   UNL     1       2.916  -3.964  -0.874  1.00  0.00     0.048 A 
ATOM     16  C   UNL     1       4.088  -4.679  -1.111  1.00  0.00     0.004 A 
ATOM     17  C   UNL     1       5.323  -2.598  -1.306  1.00  0.00     0.030 A 
ATOM     18  C   UNL     1       5.284  -3.996  -1.343  1.00  0.00     0.002 A 
BRANCH  14  19
ATOM     19  O   UNL     1       1.857  -1.874  -0.417  1.00  0.00    -0.492 OA
BRANCH  19  20
ATOM     20  C   UNL     1       0.872  -1.732  -1.440  1.00  0.00     0.226 C 
ATOM     21  C   UNL     1       0.271  -0.347  -1.277  1.00  0.00     0.049 C 
ENDBRANCH  19  20
ENDBRANCH  14  19
ENDBRANCH   8  13
ENDBRANCH   5   7
BRANCH   5  22
ATOM     22  C   UNL     1       6.643  -0.067   3.017  1.00  0.00     0.037 C 
ATOM     23  C   UNL     1       5.651   0.558   3.988  1.00  0.00     0.007 C 
ENDBRANCH   5  22
ENDBRANCH   3   5
ENDBRANCH   2   3
ENDBRANCH   1   2
BRANCH   1  24
ATOM     24  C   UNL     1       2.634  -2.890   3.839  1.00  0.00     0.275 C 
BRANCH  24  25
ATOM     25  O   UNL     1       1.838  -1.842   3.238  1.00  0.00    -0.458 OA
BRANCH  25  26
ATOM     26  C   UNL     1       1.851  -0.646   3.876  1.00  0.00     0.338 C 
ATOM     27  O   UNL     1       2.287  -0.425   4.997  1.00  0.00    -0.246 OA
BRANCH  26  28
ATOM     28  C   UNL     1       1.372   0.454   3.008  1.00  0.00     0.060 A 
ATOM     29  C   UNL     1       2.328   1.301   2.434  1.00  0.00     0.016 A 
ATOM     30  C   UNL     1       0.022   0.786   2.919  1.00  0.00     0.016 A 
ATOM     31  C   UNL     1       1.968   2.479   1.793  1.00  0.00     0.010 A 
ATOM     32  C   UNL     1      -0.349   1.987   2.291  1.00  0.00     0.010 A 
ATOM     33  C   UNL     1       0.627   2.854   1.760  1.00  0.00    -0.014 A 
BRANCH  33  34
ATOM     34  C   UNL     1       0.291   4.241   1.360  1.00  0.00     0.031 A 
ATOM     35  C   UNL     1       0.070   5.262   2.439  1.00  0.00     0.074 A 
ATOM     36  C   UNL     1       0.280   4.615   0.069  1.00  0.00     0.049 A 
ATOM     37  N   UNL     1      -0.338   6.501   2.343  1.00  0.00    -0.248 NA
ATOM     38  C   UNL     1       0.366   4.829   3.816  1.00  0.00     0.031 C 
ATOM     39  C   UNL     1       0.627   3.758  -1.062  1.00  0.00     0.029 A 
ATOM     40  N   UNL     1      -0.030   5.822  -0.504  1.00  0.00    -0.354 N 
ATOM     41  C   UNL     1      -0.375   6.986   3.644  1.00  0.00     0.074 A 
ATOM     42  C   UNL     1       0.053   5.911   4.513  1.00  0.00     0.031 C 
ATOM     43  C   UNL     1       0.493   4.462  -2.199  1.00  0.00     0.029 A 
ATOM     44  C   UNL     1       0.006   5.801  -1.877  1.00  0.00     0.049 A 
ATOM     45  H   UNL     1      -0.257   6.625   0.017  1.00  0.00     0.167 HD
ATOM     46  C   UNL     1      -0.742   8.215   4.075  1.00  0.00     0.037 A 
ATOM     47  C   UNL     1      -0.351   6.746  -2.767  1.00  0.00     0.037 A 
ATOM     48  C   UNL     1      -1.159   9.282   3.206  1.00  0.00     0.049 A 
ATOM     49  C   UNL     1      -0.868   8.067  -2.265  1.00  0.00     0.074 A 
ATOM     50  C   UNL     1      -1.595  10.552   3.539  1.00  0.00     0.029 A 
ATOM     51  N   UNL     1      -1.186   9.198   1.821  1.00  0.00    -0.354 N 
ATOM     52  N   UNL     1      -0.978   8.498  -1.031  1.00  0.00    -0.248 NA
ATOM     53  C   UNL     1      -1.330   9.027  -3.278  1.00  0.00     0.031 C 
ATOM     54  C   UNL     1      -1.922  11.224   2.356  1.00  0.00     0.029 A 
ATOM     55  C   UNL     1      -1.652  10.386   1.285  1.00  0.00     0.049 A 
ATOM     56  H   UNL     1      -0.913   8.410   1.298  1.00  0.00     0.167 HD
ATOM     57  C   UNL     1      -1.502   9.780  -1.118  1.00  0.00     0.074 A 
ATOM     58  C   UNL     1      -1.678  10.064  -2.528  1.00  0.00     0.031 C 
ATOM     59  C   UNL     1      -1.815  10.645  -0.122  1.00  0.00     0.037 A 
BRANCH  46  60
ATOM     60  C   UNL     1      -0.769   8.435   5.557  1.00  0.00     0.057 A 
ATOM     61  C   UNL     1       0.402   8.591   6.309  1.00  0.00     0.134 A 
ATOM     62  C   UNL     1      -1.990   8.467   6.243  1.00  0.00     0.134 A 
ATOM     63  F   UNL     1       1.603   8.547   5.715  1.00  0.00    -0.206 F 
ATOM     64  C   UNL     1       0.360   8.745   7.697  1.00  0.00     0.040 A 
ATOM     65  C   UNL     1      -2.045   8.641   7.626  1.00  0.00     0.040 A 
ATOM     66  F   UNL     1      -3.147   8.321   5.580  1.00  0.00    -0.206 F 
ATOM     67  C   UNL     1      -0.867   8.773   8.358  1.00  0.00     0.006 A 
ENDBRANCH  46  60
BRANCH  47  68
ATOM     68  C   UNL     1      -0.284   6.462  -4.223  1.00  0.00     0.057 A 
ATOM     69  C   UNL     1       0.631   7.120  -5.052  1.00  0.00     0.134 A 
ATOM     70  C   UNL     1      -1.152   5.541  -4.825  1.00  0.00     0.134 A 
ATOM     71  F   UNL     1       1.467   8.035  -4.541  1.00  0.00    -0.206 F 
ATOM     72  C   UNL     1       0.675   6.880  -6.427  1.00  0.00     0.040 A 
ATOM     73  C   UNL     1      -1.103   5.275  -6.194  1.00  0.00     0.040 A 
ATOM     74  F   UNL     1      -2.059   4.883  -4.087  1.00  0.00    -0.206 F 
ATOM     75  C   UNL     1      -0.191   5.951  -7.000  1.00  0.00     0.006 A 
ENDBRANCH  47  68
BRANCH  59  76
ATOM     76  C   UNL     1      -2.356  11.984  -0.525  1.00  0.00     0.057 A 
ATOM     77  C   UNL     1      -3.673  12.139  -0.973  1.00  0.00     0.134 A 
ATOM     78  C   UNL     1      -1.565  13.134  -0.417  1.00  0.00     0.134 A 
ATOM     79  F   UNL     1      -4.475  11.072  -1.109  1.00  0.00    -0.206 F 
ATOM     80  C   UNL     1      -4.181  13.392  -1.316  1.00  0.00     0.040 A 
ATOM     81  C   UNL     1      -2.069  14.396  -0.737  1.00  0.00     0.040 A 
ATOM     82  F   UNL     1      -0.297  13.053   0.013  1.00  0.00    -0.206 F 
ATOM     83  C   UNL     1      -3.380  14.526  -1.191  1.00  0.00     0.006 A 
ENDBRANCH  59  76
ENDBRANCH  33  34
ENDBRANCH  26  28
ENDBRANCH  25  26
ENDBRANCH  24  25
ENDBRANCH   1  24
TORSDOF 16
