REMARK SMILES CCCC[C@H](C(=O)OC)[C@H](O)C(=O)OCCOC(=O)c1ccc(-c2c3nc(c(-c4c(F)cccc4F)c4ccc([nH]4)c(-c4c(F)cccc4F)c4nc(c(-c5c(F)cccc5F)c5ccc2[nH]5)C=C4)C=C3)cc1
REMARK SMILES IDX 15 1 14 2 12 3 13 4 10 5 5 6 4 7 3 8 2 9 1 10 6 11 7 12 8 13
REMARK SMILES IDX 9 14 11 15 16 17 17 18 18 19 19 20 20 21 21 22 73 23 22 24
REMARK SMILES IDX 72 25 23 26 24 27 25 28 66 29 26 30 71 31 65 32 67 33 27 34
REMARK SMILES IDX 70 35 64 36 63 37 28 39 54 40 37 41 53 42 38 43 41 44 52 45
REMARK SMILES IDX 68 46 39 47 40 48 51 50 69 51 42 52 29 53 30 54 35 55 31 56
REMARK SMILES IDX 32 57 34 58 36 59 33 60 55 61 56 62 61 63 57 64 58 65 60 66
REMARK SMILES IDX 62 67 59 68 43 69 44 70 49 71 45 72 46 73 48 74 50 75 47 76
REMARK H PARENT 11 16 67 38 41 49
REMARK Flexibility Score: inf
ROOT
ATOM      1  C   UNL     1      -5.262   1.060   2.474  1.00  0.00     0.274 C 
ENDROOT
BRANCH   1   2
ATOM      2  O   UNL     1      -3.860   1.139   2.165  1.00  0.00    -0.460 OA
BRANCH   2   3
ATOM      3  C   UNL     1      -3.087   1.830   3.048  1.00  0.00     0.335 C 
ATOM      4  O   UNL     1      -3.510   2.430   4.029  1.00  0.00    -0.249 OA
BRANCH   3   5
ATOM      5  C   UNL     1      -1.590   1.708   2.706  1.00  0.00     0.238 C 
BRANCH   5   6
ATOM      6  C   UNL     1      -0.924   3.032   2.295  1.00  0.00     0.139 C 
BRANCH   6   7
ATOM      7  C   UNL     1       0.353   3.314   3.121  1.00  0.00     0.019 C 
BRANCH   7   8
ATOM      8  C   UNL     1       1.521   2.349   2.877  1.00  0.00     0.001 C 
BRANCH   8   9
ATOM      9  C   UNL     1       1.992   2.232   1.426  1.00  0.00    -0.003 C 
ATOM     10  C   UNL     1       2.331   3.567   0.780  1.00  0.00     0.004 C 
ENDBRANCH   8   9
ENDBRANCH   7   8
ENDBRANCH   6   7
BRANCH   6  11
ATOM     11  C   UNL     1      -1.874   4.210   2.423  1.00  0.00     0.311 C 
ATOM     12  O   UNL     1      -1.833   5.058   3.303  1.00  0.00    -0.252 OA
BRANCH  11  13
ATOM     13  O   UNL     1      -2.801   4.164   1.424  1.00  0.00    -0.469 OA
ATOM     14  C   UNL     1      -3.848   5.125   1.555  1.00  0.00     0.282 C 
ENDBRANCH  11  13
ENDBRANCH   6  11
ENDBRANCH   5   6
BRANCH   5  15
ATOM     15  O   UNL     1      -1.310   0.713   1.717  1.00  0.00    -0.381 OA
ATOM     16  H   UNL     1      -1.698   0.981   0.870  1.00  0.00     0.211 HD
ENDBRANCH   5  15
ENDBRANCH   3   5
ENDBRANCH   2   3
ENDBRANCH   1   2
BRANCH   1  17
ATOM     17  C   UNL     1      -5.595  -0.237   3.221  1.00  0.00     0.275 C 
BRANCH  17  18
ATOM     18  O   UNL     1      -5.128  -0.226   4.585  1.00  0.00    -0.458 OA
BRANCH  18  19
ATOM     19  C   UNL     1      -3.841  -0.609   4.766  1.00  0.00     0.338 C 
ATOM     20  O   UNL     1      -3.057  -0.976   3.904  1.00  0.00    -0.246 OA
BRANCH  19  21
ATOM     21  C   UNL     1      -3.433  -0.371   6.164  1.00  0.00     0.060 A 
ATOM     22  C   UNL     1      -2.224   0.296   6.383  1.00  0.00     0.016 A 
ATOM     23  C   UNL     1      -4.182  -0.840   7.245  1.00  0.00     0.016 A 
ATOM     24  C   UNL     1      -1.746   0.484   7.674  1.00  0.00     0.010 A 
ATOM     25  C   UNL     1      -3.702  -0.651   8.546  1.00  0.00     0.010 A 
ATOM     26  C   UNL     1      -2.474  -0.001   8.765  1.00  0.00    -0.014 A 
BRANCH  26  27
ATOM     27  C   UNL     1      -1.904   0.124  10.126  1.00  0.00     0.031 A 
ATOM     28  C   UNL     1      -1.323  -1.083  10.802  1.00  0.00     0.074 A 
ATOM     29  C   UNL     1      -1.869   1.324  10.732  1.00  0.00     0.049 A 
ATOM     30  N   UNL     1      -0.829  -1.199  12.008  1.00  0.00    -0.248 NA
ATOM     31  C   UNL     1      -1.294  -2.326  10.016  1.00  0.00     0.031 C 
ATOM     32  C   UNL     1      -2.354   2.577  10.152  1.00  0.00     0.029 A 
ATOM     33  N   UNL     1      -1.402   1.685  11.970  1.00  0.00    -0.354 N 
ATOM     34  C   UNL     1      -0.450  -2.529  12.134  1.00  0.00     0.074 A 
ATOM     35  C   UNL     1      -0.784  -3.185  10.887  1.00  0.00     0.031 C 
ATOM     36  C   UNL     1      -2.161   3.570  11.035  1.00  0.00     0.029 A 
ATOM     37  C   UNL     1      -1.580   3.016  12.255  1.00  0.00     0.049 A 
ATOM     38  H   UNL     1      -0.980   1.051  12.594  1.00  0.00     0.167 HD
ATOM     39  C   UNL     1       0.127  -3.144  13.193  1.00  0.00     0.037 A 
ATOM     40  C   UNL     1      -1.329   3.704  13.385  1.00  0.00     0.037 A 
ATOM     41  C   UNL     1       0.474  -2.482  14.423  1.00  0.00     0.049 A 
ATOM     42  C   UNL     1      -0.738   2.987  14.566  1.00  0.00     0.074 A 
ATOM     43  C   UNL     1       1.078  -3.014  15.549  1.00  0.00     0.029 A 
ATOM     44  N   UNL     1       0.248  -1.139  14.688  1.00  0.00    -0.354 N 
ATOM     45  N   UNL     1      -0.388   1.728  14.678  1.00  0.00    -0.248 NA
ATOM     46  C   UNL     1      -0.511   3.783  15.780  1.00  0.00     0.031 C 
ATOM     47  C   UNL     1       1.179  -2.003  16.511  1.00  0.00     0.029 A 
ATOM     48  C   UNL     1       0.680  -0.831  15.968  1.00  0.00     0.049 A 
ATOM     49  H   UNL     1      -0.159  -0.500  14.059  1.00  0.00     0.167 HD
ATOM     50  C   UNL     1       0.117   1.586  15.964  1.00  0.00     0.074 A 
ATOM     51  C   UNL     1       0.041   2.890  16.589  1.00  0.00     0.031 C 
ATOM     52  C   UNL     1       0.598   0.474  16.573  1.00  0.00     0.037 A 
BRANCH  39  53
ATOM     53  C   UNL     1       0.388  -4.616  13.079  1.00  0.00     0.057 A 
ATOM     54  C   UNL     1       1.417  -5.129  12.280  1.00  0.00     0.134 A 
ATOM     55  C   UNL     1      -0.384  -5.531  13.806  1.00  0.00     0.134 A 
ATOM     56  F   UNL     1       2.183  -4.307  11.546  1.00  0.00    -0.206 F 
ATOM     57  C   UNL     1       1.656  -6.502  12.192  1.00  0.00     0.040 A 
ATOM     58  C   UNL     1      -0.140  -6.904  13.744  1.00  0.00     0.040 A 
ATOM     59  F   UNL     1      -1.384  -5.105  14.593  1.00  0.00    -0.206 F 
ATOM     60  C   UNL     1       0.880  -7.393  12.931  1.00  0.00     0.006 A 
ENDBRANCH  39  53
BRANCH  40  61
ATOM     61  C   UNL     1      -1.661   5.148  13.460  1.00  0.00     0.057 A 
ATOM     62  C   UNL     1      -0.659   6.123  13.515  1.00  0.00     0.134 A 
ATOM     63  C   UNL     1      -2.991   5.587  13.481  1.00  0.00     0.134 A 
ATOM     64  F   UNL     1       0.632   5.763  13.523  1.00  0.00    -0.206 F 
ATOM     65  C   UNL     1      -0.967   7.482  13.600  1.00  0.00     0.040 A 
ATOM     66  C   UNL     1      -3.313   6.943  13.540  1.00  0.00     0.040 A 
ATOM     67  F   UNL     1      -3.997   4.701  13.431  1.00  0.00    -0.206 F 
ATOM     68  C   UNL     1      -2.299   7.895  13.606  1.00  0.00     0.006 A 
ENDBRANCH  40  61
BRANCH  52  69
ATOM     69  C   UNL     1       1.106   0.628  17.976  1.00  0.00     0.057 A 
ATOM     70  C   UNL     1       0.236   0.791  19.061  1.00  0.00     0.134 A 
ATOM     71  C   UNL     1       2.479   0.575  18.247  1.00  0.00     0.134 A 
ATOM     72  F   UNL     1      -1.089   0.863  18.865  1.00  0.00    -0.206 F 
ATOM     73  C   UNL     1       0.716   0.915  20.366  1.00  0.00     0.040 A 
ATOM     74  C   UNL     1       2.969   0.674  19.549  1.00  0.00     0.040 A 
ATOM     75  F   UNL     1       3.364   0.412  17.252  1.00  0.00    -0.206 F 
ATOM     76  C   UNL     1       2.086   0.850  20.613  1.00  0.00     0.006 A 
ENDBRANCH  52  69
ENDBRANCH  26  27
ENDBRANCH  19  21
ENDBRANCH  18  19
ENDBRANCH  17  18
ENDBRANCH   1  17
TORSDOF 18
