REMARK SMILES CCCCCCC(=O)Nc1ccc(Cl)c(C(=O)OCCOC(=O)c2ccc(-c3c4nc(c(-c5c(F)cccc5F)c5ccc([nH]5)c(-c5c(F)cccc5F)c5nc(c(-c6c(F)cccc6F)c6ccc3[nH]6)C=C5)C=C4)cc2)c1
REMARK SMILES IDX 16 1 17 2 15 3 10 4 11 5 78 6 12 7 13 8 14 9 9 10 7 11 8 12
REMARK SMILES IDX 6 14 5 15 4 16 3 17 2 18 1 19 18 20 19 21 20 22 21 23 22 24
REMARK SMILES IDX 23 25 24 26 25 27 77 28 26 29 76 30 27 31 28 32 29 33 70 34
REMARK SMILES IDX 30 35 75 36 69 37 71 38 31 39 74 40 68 41 67 42 32 44 58 45
REMARK SMILES IDX 41 46 57 47 42 48 45 49 56 50 72 51 43 52 44 53 55 55 73 56
REMARK SMILES IDX 46 57 33 58 34 59 39 60 35 61 36 62 38 63 40 64 37 65 59 66
REMARK SMILES IDX 60 67 65 68 61 69 62 70 64 71 66 72 63 73 47 74 48 75 53 76
REMARK SMILES IDX 49 77 50 78 52 79 54 80 51 81
REMARK H PARENT 9 13 71 43 45 54
REMARK Flexibility Score: inf
ROOT
ATOM      1  C   UNL     1       4.030   3.597   1.563  1.00  0.00     0.339 C 
ATOM      2  O   UNL     1       3.483   4.168   2.484  1.00  0.00    -0.246 OA
ENDROOT
BRANCH   1   3
ATOM      3  C   UNL     1       3.366   3.310   0.257  1.00  0.00     0.080 A 
ATOM      4  C   UNL     1       1.807   4.128  -1.427  1.00  0.00     0.042 A 
ATOM      5  C   UNL     1       2.392   3.277  -2.362  1.00  0.00     0.028 A 
ATOM      6  C   UNL     1       2.282   4.146  -0.114  1.00  0.00     0.043 A 
ATOM      7  C   UNL     1       3.353   2.351  -1.964  1.00  0.00     0.023 A 
ATOM      8  C   UNL     1       3.837   2.352  -0.654  1.00  0.00     0.055 A 
ATOM      9  Cl  UNL     1       4.937   1.083  -0.241  1.00  0.00    -0.083 Cl
BRANCH   4  10
ATOM     10  N   UNL     1       0.861   5.037  -1.906  1.00  0.00    -0.326 N 
ATOM     11  C   UNL     1      -0.492   5.045  -1.726  1.00  0.00     0.224 C 
ATOM     12  O   UNL     1      -1.164   5.755  -2.479  1.00  0.00    -0.275 OA
ATOM     13  H   UNL     1       1.220   5.776  -2.449  1.00  0.00     0.169 HD
BRANCH  11  14
ATOM     14  C   UNL     1      -1.169   4.190  -0.679  1.00  0.00     0.100 C 
BRANCH  14  15
ATOM     15  C   UNL     1      -1.562   2.785  -1.151  1.00  0.00     0.010 C 
BRANCH  15  16
ATOM     16  C   UNL     1      -0.542   1.656  -0.952  1.00  0.00     0.001 C 
BRANCH  16  17
ATOM     17  C   UNL     1       0.065   1.588   0.454  1.00  0.00    -0.000 C 
BRANCH  17  18
ATOM     18  C   UNL     1      -0.107   0.255   1.172  1.00  0.00    -0.003 C 
ATOM     19  C   UNL     1       0.730  -0.856   0.561  1.00  0.00     0.004 C 
ENDBRANCH  17  18
ENDBRANCH  16  17
ENDBRANCH  15  16
ENDBRANCH  14  15
ENDBRANCH  11  14
ENDBRANCH   4  10
ENDBRANCH   1   3
BRANCH   1  20
ATOM     20  O   UNL     1       5.353   3.336   1.450  1.00  0.00    -0.458 OA
BRANCH  20  21
ATOM     21  C   UNL     1       6.267   3.854   2.435  1.00  0.00     0.275 C 
BRANCH  21  22
ATOM     22  C   UNL     1       7.335   4.672   1.706  1.00  0.00     0.275 C 
BRANCH  22  23
ATOM     23  O   UNL     1       6.738   5.878   1.189  1.00  0.00    -0.458 OA
BRANCH  23  24
ATOM     24  C   UNL     1       6.421   5.859  -0.125  1.00  0.00     0.338 C 
ATOM     25  O   UNL     1       6.666   4.996  -0.950  1.00  0.00    -0.246 OA
BRANCH  24  26
ATOM     26  C   UNL     1       5.579   7.023  -0.422  1.00  0.00     0.060 A 
ATOM     27  C   UNL     1       4.222   6.933  -0.127  1.00  0.00     0.016 A 
ATOM     28  C   UNL     1       6.082   8.140  -1.081  1.00  0.00     0.016 A 
ATOM     29  C   UNL     1       3.339   7.910  -0.571  1.00  0.00     0.010 A 
ATOM     30  C   UNL     1       5.208   9.180  -1.424  1.00  0.00     0.010 A 
ATOM     31  C   UNL     1       3.823   9.067  -1.194  1.00  0.00    -0.014 A 
BRANCH  31  32
ATOM     32  C   UNL     1       2.880  10.155  -1.582  1.00  0.00     0.031 A 
ATOM     33  C   UNL     1       2.792  10.619  -3.011  1.00  0.00     0.074 A 
ATOM     34  C   UNL     1       2.095  10.731  -0.648  1.00  0.00     0.049 A 
ATOM     35  N   UNL     1       2.162  11.655  -3.508  1.00  0.00    -0.248 NA
ATOM     36  C   UNL     1       3.517   9.823  -4.013  1.00  0.00     0.031 C 
ATOM     37  C   UNL     1       2.046  10.358   0.768  1.00  0.00     0.029 A 
ATOM     38  N   UNL     1       1.183  11.753  -0.748  1.00  0.00    -0.354 N 
ATOM     39  C   UNL     1       2.452  11.662  -4.867  1.00  0.00     0.074 A 
ATOM     40  C   UNL     1       3.323  10.533  -5.116  1.00  0.00     0.031 C 
ATOM     41  C   UNL     1       1.129  11.109   1.393  1.00  0.00     0.029 A 
ATOM     42  C   UNL     1       0.594  12.083   0.450  1.00  0.00     0.049 A 
ATOM     43  H   UNL     1       0.972  12.207  -1.595  1.00  0.00     0.167 HD
ATOM     44  C   UNL     1       2.029  12.530  -5.818  1.00  0.00     0.037 A 
ATOM     45  C   UNL     1      -0.243  13.086   0.773  1.00  0.00     0.037 A 
ATOM     46  C   UNL     1       1.127  13.627  -5.573  1.00  0.00     0.049 A 
ATOM     47  C   UNL     1      -0.654  14.066  -0.287  1.00  0.00     0.074 A 
ATOM     48  C   UNL     1       0.625  14.549  -6.476  1.00  0.00     0.029 A 
ATOM     49  N   UNL     1       0.585  13.945  -4.336  1.00  0.00    -0.354 N 
ATOM     50  N   UNL     1      -0.341  14.085  -1.560  1.00  0.00    -0.248 NA
ATOM     51  C   UNL     1      -1.516  15.177   0.138  1.00  0.00     0.031 C 
ATOM     52  C   UNL     1      -0.183  15.453  -5.777  1.00  0.00     0.029 A 
ATOM     53  C   UNL     1      -0.226  15.064  -4.448  1.00  0.00     0.049 A 
ATOM     54  H   UNL     1       0.751  13.450  -3.502  1.00  0.00     0.167 HD
ATOM     55  C   UNL     1      -0.977  15.199  -2.090  1.00  0.00     0.074 A 
ATOM     56  C   UNL     1      -1.712  15.817  -1.006  1.00  0.00     0.031 C 
ATOM     57  C   UNL     1      -0.949  15.670  -3.360  1.00  0.00     0.037 A 
BRANCH  44  58
ATOM     58  C   UNL     1       2.564  12.354  -7.211  1.00  0.00     0.057 A 
ATOM     59  C   UNL     1       2.164  11.299  -8.039  1.00  0.00     0.134 A 
ATOM     60  C   UNL     1       3.466  13.286  -7.745  1.00  0.00     0.134 A 
ATOM     61  F   UNL     1       1.314  10.365  -7.587  1.00  0.00    -0.206 F 
ATOM     62  C   UNL     1       2.656  11.164  -9.339  1.00  0.00     0.040 A 
ATOM     63  C   UNL     1       3.944  13.176  -9.051  1.00  0.00     0.040 A 
ATOM     64  F   UNL     1       3.887  14.326  -7.009  1.00  0.00    -0.206 F 
ATOM     65  C   UNL     1       3.544  12.109  -9.851  1.00  0.00     0.006 A 
ENDBRANCH  44  58
BRANCH  45  66
ATOM     66  C   UNL     1      -0.706  13.243   2.176  1.00  0.00     0.057 A 
ATOM     67  C   UNL     1      -2.046  13.044   2.524  1.00  0.00     0.134 A 
ATOM     68  C   UNL     1       0.180  13.597   3.202  1.00  0.00     0.134 A 
ATOM     69  F   UNL     1      -2.949  12.730   1.584  1.00  0.00    -0.206 F 
ATOM     70  C   UNL     1      -2.491  13.200   3.839  1.00  0.00     0.040 A 
ATOM     71  C   UNL     1      -0.244  13.725   4.525  1.00  0.00     0.040 A 
ATOM     72  F   UNL     1       1.479  13.800   2.936  1.00  0.00    -0.206 F 
ATOM     73  C   UNL     1      -1.586  13.533   4.845  1.00  0.00     0.006 A 
ENDBRANCH  45  66
BRANCH  57  74
ATOM     74  C   UNL     1      -1.758  16.901  -3.647  1.00  0.00     0.057 A 
ATOM     75  C   UNL     1      -1.365  18.165  -3.188  1.00  0.00     0.134 A 
ATOM     76  C   UNL     1      -2.931  16.823  -4.407  1.00  0.00     0.134 A 
ATOM     77  F   UNL     1      -0.260  18.305  -2.441  1.00  0.00    -0.206 F 
ATOM     78  C   UNL     1      -2.125  19.305  -3.456  1.00  0.00     0.040 A 
ATOM     79  C   UNL     1      -3.684  17.959  -4.704  1.00  0.00     0.040 A 
ATOM     80  F   UNL     1      -3.359  15.643  -4.882  1.00  0.00    -0.206 F 
ATOM     81  C   UNL     1      -3.285  19.204  -4.222  1.00  0.00     0.006 A 
ENDBRANCH  57  74
ENDBRANCH  31  32
ENDBRANCH  24  26
ENDBRANCH  23  24
ENDBRANCH  22  23
ENDBRANCH  21  22
ENDBRANCH  20  21
ENDBRANCH   1  20
TORSDOF 17
