REMARK SMILES COc1ncnc(N2CCSC[C@@H]2CC(=O)OCCOC(=O)c2ccc(-c3c4nc(c(-c5c(F)cccc5F)c5ccc([nH]5)c(-c5c(F)cccc5F)c5nc(c(-c6c(F)cccc6F)c6ccc3[nH]6)C=C5)C=C4)cc2)c1[N+](=O)[O-]
REMARK SMILES IDX 18 1 17 2 15 3 16 4 14 5 13 6 8 7 9 8 10 9 12 10 11 11 7 12
REMARK SMILES IDX 3 13 4 14 77 15 5 16 6 17 2 18 1 19 78 20 79 21 80 22 19 23
REMARK SMILES IDX 20 24 21 25 22 26 23 27 24 28 76 29 25 30 75 31 26 32 27 33
REMARK SMILES IDX 28 34 69 35 29 36 74 37 68 38 70 39 30 40 73 41 67 42 66 43
REMARK SMILES IDX 31 45 57 46 40 47 56 48 41 49 44 50 55 51 71 52 42 53 43 54
REMARK SMILES IDX 54 56 72 57 45 58 32 59 33 60 38 61 34 62 35 63 37 64 39 65
REMARK SMILES IDX 36 66 58 67 59 68 64 69 60 70 61 71 63 72 65 73 62 74 46 75
REMARK SMILES IDX 47 76 52 77 48 78 49 79 51 80 53 81 50 82
REMARK H PARENT 70 44 44 55
REMARK Flexibility Score: inf
ROOT
ATOM      1  C   UNL     1       4.080   1.660  -1.853  1.00  0.00     0.274 C 
ENDROOT
BRANCH   1   2
ATOM      2  O   UNL     1       4.017   0.712  -2.935  1.00  0.00    -0.462 OA
BRANCH   2   3
ATOM      3  C   UNL     1       4.967   0.861  -3.891  1.00  0.00     0.308 C 
ATOM      4  O   UNL     1       5.772   1.787  -3.932  1.00  0.00    -0.252 OA
BRANCH   3   5
ATOM      5  C   UNL     1       5.051  -0.282  -4.870  1.00  0.00     0.148 C 
BRANCH   5   6
ATOM      6  C   UNL     1       3.784  -1.120  -5.067  1.00  0.00     0.105 C 
ATOM      7  N   UNL     1       3.580  -2.124  -3.976  1.00  0.00    -0.345 N 
ATOM      8  C   UNL     1       4.543  -3.235  -3.871  1.00  0.00     0.129 C 
ATOM      9  C   UNL     1       4.675  -4.055  -5.161  1.00  0.00     0.091 C 
ATOM     10  C   UNL     1       3.800  -1.811  -6.451  1.00  0.00     0.095 C 
ATOM     11  S   UNL     1       5.130  -3.051  -6.612  1.00  0.00    -0.158 SA
BRANCH   7  12
ATOM     12  C   UNL     1       2.267  -2.255  -3.534  1.00  0.00     0.215 A 
ATOM     13  C   UNL     1       0.518  -2.099  -1.950  1.00  0.00     0.299 A 
ATOM     14  N   UNL     1      -0.409  -1.866  -2.896  1.00  0.00    -0.196 NA
ATOM     15  C   UNL     1       1.846  -2.381  -2.219  1.00  0.00     0.372 A 
ATOM     16  C   UNL     1       0.047  -1.896  -4.143  1.00  0.00     0.228 A 
ATOM     17  N   UNL     1       1.331  -2.047  -4.497  1.00  0.00    -0.212 NA
BRANCH  13  18
ATOM     18  O   UNL     1       0.044  -2.016  -0.662  1.00  0.00    -0.476 OA
ATOM     19  C   UNL     1      -0.036  -0.633  -0.297  1.00  0.00     0.280 C 
ENDBRANCH  13  18
BRANCH  15  20
ATOM     20  N   UNL     1       2.663  -2.789  -1.115  1.00  0.00     0.072 N 
ATOM     21  O   UNL     1       3.087  -3.955  -1.133  1.00  0.00    -0.258 OA
ATOM     22  O   UNL     1       2.760  -2.015  -0.148  1.00  0.00    -0.258 OA
ENDBRANCH  15  20
ENDBRANCH   7  12
ENDBRANCH   5   6
ENDBRANCH   3   5
ENDBRANCH   2   3
ENDBRANCH   1   2
BRANCH   1  23
ATOM     23  C   UNL     1       4.830   1.094  -0.643  1.00  0.00     0.275 C 
BRANCH  23  24
ATOM     24  O   UNL     1       6.117   0.554  -0.997  1.00  0.00    -0.458 OA
BRANCH  24  25
ATOM     25  C   UNL     1       6.094  -0.772  -1.254  1.00  0.00     0.338 C 
ATOM     26  O   UNL     1       5.130  -1.512  -1.266  1.00  0.00    -0.246 OA
BRANCH  25  27
ATOM     27  C   UNL     1       7.416  -1.308  -1.555  1.00  0.00     0.060 A 
ATOM     28  C   UNL     1       8.057  -0.960  -2.742  1.00  0.00     0.016 A 
ATOM     29  C   UNL     1       7.910  -2.321  -0.731  1.00  0.00     0.016 A 
ATOM     30  C   UNL     1       9.201  -1.653  -3.122  1.00  0.00     0.010 A 
ATOM     31  C   UNL     1       9.099  -2.955  -1.072  1.00  0.00     0.010 A 
ATOM     32  C   UNL     1       9.752  -2.622  -2.268  1.00  0.00    -0.014 A 
BRANCH  32  33
ATOM     33  C   UNL     1      11.091  -3.190  -2.533  1.00  0.00     0.031 A 
ATOM     34  C   UNL     1      11.280  -4.652  -2.795  1.00  0.00     0.074 A 
ATOM     35  C   UNL     1      12.150  -2.367  -2.417  1.00  0.00     0.049 A 
ATOM     36  N   UNL     1      12.390  -5.343  -2.821  1.00  0.00    -0.248 NA
ATOM     37  C   UNL     1      10.068  -5.444  -3.051  1.00  0.00     0.031 C 
ATOM     38  C   UNL     1      12.075  -0.927  -2.152  1.00  0.00     0.029 A 
ATOM     39  N   UNL     1      13.493  -2.627  -2.472  1.00  0.00    -0.354 N 
ATOM     40  C   UNL     1      12.013  -6.655  -3.069  1.00  0.00     0.074 A 
ATOM     41  C   UNL     1      10.569  -6.666  -3.186  1.00  0.00     0.031 C 
ATOM     42  C   UNL     1      13.316  -0.432  -2.063  1.00  0.00     0.029 A 
ATOM     43  C   UNL     1      14.267  -1.527  -2.196  1.00  0.00     0.049 A 
ATOM     44  H   UNL     1      13.866  -3.512  -2.687  1.00  0.00     0.167 HD
ATOM     45  C   UNL     1      12.807  -7.746  -3.183  1.00  0.00     0.037 A 
ATOM     46  C   UNL     1      15.594  -1.417  -2.017  1.00  0.00     0.037 A 
ATOM     47  C   UNL     1      14.244  -7.716  -3.077  1.00  0.00     0.049 A 
ATOM     48  C   UNL     1      16.444  -2.642  -2.116  1.00  0.00     0.074 A 
ATOM     49  C   UNL     1      15.142  -8.762  -3.208  1.00  0.00     0.029 A 
ATOM     50  N   UNL     1      14.992  -6.578  -2.814  1.00  0.00    -0.354 N 
ATOM     51  N   UNL     1      16.077  -3.879  -2.344  1.00  0.00    -0.248 NA
ATOM     52  C   UNL     1      17.887  -2.461  -1.923  1.00  0.00     0.031 C 
ATOM     53  C   UNL     1      16.432  -8.260  -3.001  1.00  0.00     0.029 A 
ATOM     54  C   UNL     1      16.338  -6.897  -2.767  1.00  0.00     0.049 A 
ATOM     55  H   UNL     1      14.620  -5.676  -2.680  1.00  0.00     0.167 HD
ATOM     56  C   UNL     1      17.244  -4.626  -2.333  1.00  0.00     0.074 A 
ATOM     57  C   UNL     1      18.332  -3.700  -2.082  1.00  0.00     0.031 C 
ATOM     58  C   UNL     1      17.400  -5.959  -2.515  1.00  0.00     0.037 A 
BRANCH  45  59
ATOM     59  C   UNL     1      12.145  -9.068  -3.420  1.00  0.00     0.057 A 
ATOM     60  C   UNL     1      11.665  -9.435  -4.682  1.00  0.00     0.134 A 
ATOM     61  C   UNL     1      12.043 -10.010  -2.388  1.00  0.00     0.134 A 
ATOM     62  F   UNL     1      11.726  -8.574  -5.709  1.00  0.00    -0.206 F 
ATOM     63  C   UNL     1      11.099 -10.691  -4.909  1.00  0.00     0.040 A 
ATOM     64  C   UNL     1      11.492 -11.274  -2.606  1.00  0.00     0.040 A 
ATOM     65  F   UNL     1      12.488  -9.720  -1.156  1.00  0.00    -0.206 F 
ATOM     66  C   UNL     1      11.018 -11.617  -3.870  1.00  0.00     0.006 A 
ENDBRANCH  45  59
BRANCH  46  67
ATOM     67  C   UNL     1      16.169  -0.092  -1.696  1.00  0.00     0.057 A 
ATOM     68  C   UNL     1      16.840   0.652  -2.670  1.00  0.00     0.134 A 
ATOM     69  C   UNL     1      15.996   0.488  -0.433  1.00  0.00     0.134 A 
ATOM     70  F   UNL     1      17.038   0.140  -3.893  1.00  0.00    -0.206 F 
ATOM     71  C   UNL     1      17.321   1.934  -2.400  1.00  0.00     0.040 A 
ATOM     72  C   UNL     1      16.456   1.775  -0.156  1.00  0.00     0.040 A 
ATOM     73  F   UNL     1      15.346  -0.175   0.533  1.00  0.00    -0.206 F 
ATOM     74  C   UNL     1      17.121   2.501  -1.142  1.00  0.00     0.006 A 
ENDBRANCH  46  67
BRANCH  58  75
ATOM     75  C   UNL     1      18.801  -6.479  -2.474  1.00  0.00     0.057 A 
ATOM     76  C   UNL     1      19.460  -6.708  -1.261  1.00  0.00     0.134 A 
ATOM     77  C   UNL     1      19.487  -6.771  -3.658  1.00  0.00     0.134 A 
ATOM     78  F   UNL     1      18.857  -6.429  -0.096  1.00  0.00    -0.206 F 
ATOM     79  C   UNL     1      20.765  -7.199  -1.228  1.00  0.00     0.040 A 
ATOM     80  C   UNL     1      20.786  -7.276  -3.638  1.00  0.00     0.040 A 
ATOM     81  F   UNL     1      18.904  -6.571  -4.850  1.00  0.00    -0.206 F 
ATOM     82  C   UNL     1      21.430  -7.489  -2.420  1.00  0.00     0.006 A 
ENDBRANCH  58  75
ENDBRANCH  32  33
ENDBRANCH  25  27
ENDBRANCH  24  25
ENDBRANCH  23  24
ENDBRANCH   1  23
TORSDOF 15
