REMARK SMILES Cc1ccc(S(=O)(=O)Nc2ccc(C(=O)CCC(=O)OCCOC(=O)c3ccc(-c4c5nc(c(-c6c(F)cccc6F)c6ccc([nH]6)c(-c6c(F)cccc6F)c6nc(c(-c7c(F)cccc7F)c7ccc4[nH]7)C=C6)C=C5)cc3)cc2)c(C)c1
REMARK SMILES IDX 18 1 19 2 17 3 16 4 14 5 15 6 13 7 10 8 11 9 81 10 12 11
REMARK SMILES IDX 80 12 9 13 6 15 7 16 8 17 5 18 1 19 2 20 3 21 84 22 4 23
REMARK SMILES IDX 82 24 83 25 20 26 21 27 22 28 23 29 24 30 25 31 26 32 27 33
REMARK SMILES IDX 79 34 28 35 78 36 29 37 30 38 31 39 72 40 32 41 77 42 71 43
REMARK SMILES IDX 73 44 33 45 76 46 70 47 69 48 34 50 60 51 43 52 59 53 44 54
REMARK SMILES IDX 47 55 58 56 74 57 45 58 46 59 57 61 75 62 48 63 35 64 36 65
REMARK SMILES IDX 41 66 37 67 38 68 40 69 42 70 39 71 61 72 62 73 67 74 63 75
REMARK SMILES IDX 64 76 66 77 68 78 65 79 49 80 50 81 55 82 51 83 52 84 54 85
REMARK SMILES IDX 56 86 53 87
REMARK H PARENT 9 14 73 49 47 60
REMARK Flexibility Score: inf
ROOT
ATOM      1  C   UNL     1       3.304  -3.165   0.294  1.00  0.00     0.306 C 
ATOM      2  O   UNL     1       3.653  -2.154  -0.300  1.00  0.00    -0.252 OA
ENDROOT
BRANCH   1   3
ATOM      3  C   UNL     1       4.096  -4.455   0.275  1.00  0.00     0.131 C 
BRANCH   3   4
ATOM      4  C   UNL     1       3.413  -5.666   0.917  1.00  0.00     0.093 C 
BRANCH   4   5
ATOM      5  C   UNL     1       2.478  -6.360  -0.059  1.00  0.00     0.163 C 
ATOM      6  O   UNL     1       2.891  -7.230  -0.824  1.00  0.00    -0.294 OA
BRANCH   5   7
ATOM      7  C   UNL     1       1.081  -5.865  -0.220  1.00  0.00     0.018 A 
ATOM      8  C   UNL     1      -1.304  -4.461  -0.696  1.00  0.00     0.049 A 
ATOM      9  C   UNL     1      -0.582  -5.011  -1.757  1.00  0.00     0.027 A 
ATOM     10  C   UNL     1      -0.935  -4.793   0.606  1.00  0.00     0.027 A 
ATOM     11  C   UNL     1       0.609  -5.702  -1.525  1.00  0.00     0.014 A 
ATOM     12  C   UNL     1       0.271  -5.480   0.850  1.00  0.00     0.014 A 
BRANCH   8  13
ATOM     13  N   UNL     1      -2.420  -3.652  -1.035  1.00  0.00    -0.280 N 
ATOM     14  H   UNL     1      -3.009  -3.987  -1.749  1.00  0.00     0.180 HD
BRANCH  13  15
ATOM     15  S   UNL     1      -2.838  -2.181  -0.342  1.00  0.00     0.262 S 
ATOM     16  O   UNL     1      -2.734  -2.316   1.097  1.00  0.00    -0.201 OA
ATOM     17  O   UNL     1      -4.086  -1.812  -0.976  1.00  0.00    -0.201 OA
BRANCH  15  18
ATOM     18  C   UNL     1      -1.642  -0.926  -0.823  1.00  0.00     0.090 A 
ATOM     19  C   UNL     1       1.929   1.467  -0.685  1.00  0.00     0.044 C 
ATOM     20  C   UNL     1       0.640   0.716  -0.863  1.00  0.00    -0.051 A 
ATOM     21  C   UNL     1       0.575  -0.424  -1.670  1.00  0.00     0.005 A 
ATOM     22  C   UNL     1      -0.516   1.133  -0.199  1.00  0.00     0.008 A 
ATOM     23  C   UNL     1      -0.563  -1.246  -1.653  1.00  0.00     0.023 A 
ATOM     24  C   UNL     1      -1.672   0.329  -0.176  1.00  0.00    -0.030 A 
ATOM     25  C   UNL     1      -2.901   0.918   0.464  1.00  0.00     0.046 C 
ENDBRANCH  15  18
ENDBRANCH  13  15
ENDBRANCH   8  13
ENDBRANCH   5   7
ENDBRANCH   4   5
ENDBRANCH   3   4
ENDBRANCH   1   3
BRANCH   1  26
ATOM     26  O   UNL     1       2.191  -3.270   1.052  1.00  0.00    -0.462 OA
BRANCH  26  27
ATOM     27  C   UNL     1       1.265  -2.176   1.018  1.00  0.00     0.274 C 
BRANCH  27  28
ATOM     28  C   UNL     1       0.392  -2.136   2.270  1.00  0.00     0.275 C 
BRANCH  28  29
ATOM     29  O   UNL     1       1.198  -1.742   3.373  1.00  0.00    -0.458 OA
BRANCH  29  30
ATOM     30  C   UNL     1       1.982  -2.730   3.850  1.00  0.00     0.338 C 
ATOM     31  O   UNL     1       1.911  -3.935   3.678  1.00  0.00    -0.246 OA
BRANCH  30  32
ATOM     32  C   UNL     1       3.110  -2.037   4.445  1.00  0.00     0.060 A 
ATOM     33  C   UNL     1       4.370  -2.161   3.851  1.00  0.00     0.016 A 
ATOM     34  C   UNL     1       2.875  -1.227   5.554  1.00  0.00     0.016 A 
ATOM     35  C   UNL     1       5.443  -1.506   4.427  1.00  0.00     0.010 A 
ATOM     36  C   UNL     1       3.942  -0.560   6.117  1.00  0.00     0.010 A 
ATOM     37  C   UNL     1       5.227  -0.740   5.579  1.00  0.00    -0.014 A 
BRANCH  37  38
ATOM     38  C   UNL     1       6.367  -0.238   6.350  1.00  0.00     0.031 A 
ATOM     39  C   UNL     1       6.722  -0.961   7.610  1.00  0.00     0.074 A 
ATOM     40  C   UNL     1       6.996   0.869   5.937  1.00  0.00     0.049 A 
ATOM     41  N   UNL     1       7.577  -0.635   8.537  1.00  0.00    -0.248 NA
ATOM     42  C   UNL     1       5.984  -2.210   7.876  1.00  0.00     0.031 C 
ATOM     43  C   UNL     1       6.683   1.610   4.715  1.00  0.00     0.029 A 
ATOM     44  N   UNL     1       8.009   1.576   6.517  1.00  0.00    -0.354 N 
ATOM     45  C   UNL     1       7.468  -1.625   9.505  1.00  0.00     0.074 A 
ATOM     46  C   UNL     1       6.434  -2.538   9.076  1.00  0.00     0.031 C 
ATOM     47  C   UNL     1       7.481   2.687   4.645  1.00  0.00     0.029 A 
ATOM     48  C   UNL     1       8.327   2.721   5.833  1.00  0.00     0.049 A 
ATOM     49  H   UNL     1       8.464   1.293   7.342  1.00  0.00     0.167 HD
ATOM     50  C   UNL     1       8.184  -1.754  10.645  1.00  0.00     0.037 A 
ATOM     51  C   UNL     1       9.191   3.695   6.163  1.00  0.00     0.037 A 
ATOM     52  C   UNL     1       9.196  -0.810  11.035  1.00  0.00     0.049 A 
ATOM     53  C   UNL     1       9.971   3.538   7.436  1.00  0.00     0.074 A 
ATOM     54  C   UNL     1      10.005  -0.814  12.155  1.00  0.00     0.029 A 
ATOM     55  N   UNL     1       9.531   0.322  10.298  1.00  0.00    -0.354 N 
ATOM     56  N   UNL     1       9.887   2.591   8.344  1.00  0.00    -0.248 NA
ATOM     57  C   UNL     1      10.972   4.567   7.728  1.00  0.00     0.031 C 
ATOM     58  C   UNL     1      10.802   0.336  12.114  1.00  0.00     0.029 A 
ATOM     59  C   UNL     1      10.528   1.031  10.943  1.00  0.00     0.049 A 
ATOM     60  H   UNL     1       9.119   0.580   9.442  1.00  0.00     0.167 HD
ATOM     61  C   UNL     1      10.836   2.897   9.307  1.00  0.00     0.074 A 
ATOM     62  C   UNL     1      11.494   4.112   8.859  1.00  0.00     0.031 C 
ATOM     63  C   UNL     1      11.142   2.243  10.456  1.00  0.00     0.037 A 
BRANCH  50  64
ATOM     64  C   UNL     1       7.858  -2.923  11.529  1.00  0.00     0.057 A 
ATOM     65  C   UNL     1       8.112  -4.246  11.136  1.00  0.00     0.134 A 
ATOM     66  C   UNL     1       7.240  -2.732  12.771  1.00  0.00     0.134 A 
ATOM     67  F   UNL     1       8.678  -4.505   9.948  1.00  0.00    -0.206 F 
ATOM     68  C   UNL     1       7.729  -5.332  11.926  1.00  0.00     0.040 A 
ATOM     69  C   UNL     1       6.880  -3.809  13.584  1.00  0.00     0.040 A 
ATOM     70  F   UNL     1       6.962  -1.495  13.211  1.00  0.00    -0.206 F 
ATOM     71  C   UNL     1       7.112  -5.115  13.156  1.00  0.00     0.006 A 
ENDBRANCH  50  64
BRANCH  51  72
ATOM     72  C   UNL     1       9.353   4.860   5.263  1.00  0.00     0.057 A 
ATOM     73  C   UNL     1      10.502   5.017   4.482  1.00  0.00     0.134 A 
ATOM     74  C   UNL     1       8.330   5.804   5.102  1.00  0.00     0.134 A 
ATOM     75  F   UNL     1      11.517   4.148   4.594  1.00  0.00    -0.206 F 
ATOM     76  C   UNL     1      10.633   6.072   3.578  1.00  0.00     0.040 A 
ATOM     77  C   UNL     1       8.438   6.852   4.186  1.00  0.00     0.040 A 
ATOM     78  F   UNL     1       7.194   5.699   5.808  1.00  0.00    -0.206 F 
ATOM     79  C   UNL     1       9.594   6.989   3.421  1.00  0.00     0.006 A 
ENDBRANCH  51  72
BRANCH  63  80
ATOM     80  C   UNL     1      12.250   2.826  11.279  1.00  0.00     0.057 A 
ATOM     81  C   UNL     1      12.080   4.003  12.017  1.00  0.00     0.134 A 
ATOM     82  C   UNL     1      13.490   2.180  11.357  1.00  0.00     0.134 A 
ATOM     83  F   UNL     1      10.918   4.673  11.971  1.00  0.00    -0.206 F 
ATOM     84  C   UNL     1      13.117   4.535  12.782  1.00  0.00     0.040 A 
ATOM     85  C   UNL     1      14.525   2.686  12.141  1.00  0.00     0.040 A 
ATOM     86  F   UNL     1      13.710   1.042  10.681  1.00  0.00    -0.206 F 
ATOM     87  C   UNL     1      14.342   3.872  12.850  1.00  0.00     0.006 A 
ENDBRANCH  63  80
ENDBRANCH  37  38
ENDBRANCH  30  32
ENDBRANCH  29  30
ENDBRANCH  28  29
ENDBRANCH  27  28
ENDBRANCH  26  27
ENDBRANCH   1  26
TORSDOF 17
