REMARK SMILES C/C=C/C=C/C=C/C(=O)O[C@H]1C=C(C=O)[C@@](O)(C(=O)OCCOC(=O)c2ccc(-c3c4nc(c(-c5c(F)cccc5F)c5ccc([nH]5)c(-c5c(F)cccc5F)c5nc(c(-c6c(F)cccc6F)c6ccc3[nH]6)C=C5)C=C4)cc2)[C@]2(C)CCCC(C)(C)[C@@H]12
REMARK SMILES IDX 20 1 18 2 19 3 16 4 11 5 12 6 88 7 13 8 80 9 85 10 82 11
REMARK SMILES IDX 81 12 84 13 86 14 87 15 83 16 10 17 8 18 9 19 7 20 6 21 5 22
REMARK SMILES IDX 4 23 3 24 1 25 2 26 14 27 15 28 17 29 21 31 22 32 23 33
REMARK SMILES IDX 24 34 25 35 26 36 27 37 79 38 28 39 78 40 29 41 30 42 31 43
REMARK SMILES IDX 72 44 32 45 77 46 71 47 73 48 33 49 76 50 70 51 69 52 34 54
REMARK SMILES IDX 60 55 43 56 59 57 44 58 47 59 58 60 74 61 45 62 46 63 57 65
REMARK SMILES IDX 75 66 48 67 35 68 36 69 41 70 37 71 38 72 40 73 42 74 39 75
REMARK SMILES IDX 61 76 62 77 67 78 63 79 64 80 66 81 68 82 65 83 49 84 50 85
REMARK SMILES IDX 55 86 51 87 52 88 54 89 56 90 53 91
REMARK H PARENT 17 30 73 53 47 64
REMARK Flexibility Score: inf
ROOT
ATOM      1  O   UNL     1       2.676  -9.727   1.977  1.00  0.00    -0.460 OA
ENDROOT
BRANCH   1   2
ATOM      2  C   UNL     1       1.579 -10.137   1.272  1.00  0.00     0.343 C 
ATOM      3  O   UNL     1       1.653 -10.945   0.354  1.00  0.00    -0.248 OA
BRANCH   2   4
ATOM      4  C   UNL     1       0.317  -9.263   1.573  1.00  0.00     0.196 C 
ATOM      5  C   UNL     1      -1.989  -7.537   2.130  1.00  0.00     0.204 C 
ATOM      6  C   UNL     1      -0.774  -7.580   3.016  1.00  0.00     0.028 C 
ATOM      7  C   UNL     1      -2.172  -8.787   1.174  1.00  0.00     0.050 C 
ATOM      8  C   UNL     1       0.236  -8.453   2.843  1.00  0.00     0.035 C 
ATOM      9  C   UNL     1      -1.107  -9.958   1.388  1.00  0.00     0.019 C 
ATOM     10  C   UNL     1      -3.636  -9.245   0.812  1.00  0.00    -0.028 C 
ATOM     11  C   UNL     1      -1.171 -10.865   0.125  1.00  0.00     0.011 C 
ATOM     12  C   UNL     1      -1.391 -10.833   2.637  1.00  0.00     0.016 C 
ATOM     13  C   UNL     1      -3.553 -10.188  -0.421  1.00  0.00     0.007 C 
ATOM     14  C   UNL     1      -4.413  -9.961   1.935  1.00  0.00     0.011 C 
ATOM     15  C   UNL     1      -4.485  -8.024   0.375  1.00  0.00     0.011 C 
ATOM     16  C   UNL     1      -2.572 -11.341  -0.256  1.00  0.00     0.001 C 
BRANCH   5  17
ATOM     17  O   UNL     1      -3.145  -7.390   2.986  1.00  0.00    -0.455 OA
BRANCH  17  18
ATOM     18  C   UNL     1      -3.501  -6.319   3.733  1.00  0.00     0.331 C 
ATOM     19  O   UNL     1      -4.406  -6.404   4.557  1.00  0.00    -0.247 OA
BRANCH  18  20
ATOM     20  C   UNL     1      -2.756  -5.049   3.640  1.00  0.00     0.093 C 
ATOM     21  C   UNL     1      -2.432  -4.420   2.503  1.00  0.00     0.007 C 
BRANCH  21  22
ATOM     22  C   UNL     1      -1.711  -3.165   2.459  1.00  0.00     0.000 C 
ATOM     23  C   UNL     1      -1.044  -2.778   1.361  1.00  0.00    -0.000 C 
BRANCH  23  24
ATOM     24  C   UNL     1      -0.362  -1.509   1.240  1.00  0.00    -0.005 C 
ATOM     25  C   UNL     1       1.043   0.127  -0.037  1.00  0.00     0.035 C 
ATOM     26  C   UNL     1       0.380  -1.196   0.167  1.00  0.00    -0.030 C 
ENDBRANCH  23  24
ENDBRANCH  21  22
ENDBRANCH  18  20
ENDBRANCH  17  18
ENDBRANCH   5  17
BRANCH   8  27
ATOM     27  C   UNL     1       0.950  -8.791   4.105  1.00  0.00     0.259 C 
ATOM     28  O   UNL     1       0.491  -8.531   5.214  1.00  0.00    -0.298 OA
ENDBRANCH   8  27
BRANCH   4  29
ATOM     29  O   UNL     1       0.460  -8.278   0.496  1.00  0.00    -0.373 OA
ATOM     30  H   UNL     1      -0.269  -7.640   0.542  1.00  0.00     0.212 HD
ENDBRANCH   4  29
ENDBRANCH   2   4
ENDBRANCH   1   2
BRANCH   1  31
ATOM     31  C   UNL     1       3.948 -10.199   1.478  1.00  0.00     0.274 C 
BRANCH  31  32
ATOM     32  C   UNL     1       4.409 -11.498   2.140  1.00  0.00     0.275 C 
BRANCH  32  33
ATOM     33  O   UNL     1       3.408 -12.516   1.984  1.00  0.00    -0.458 OA
BRANCH  33  34
ATOM     34  C   UNL     1       3.209 -13.326   3.051  1.00  0.00     0.338 C 
ATOM     35  O   UNL     1       3.857 -13.335   4.084  1.00  0.00    -0.246 OA
BRANCH  34  36
ATOM     36  C   UNL     1       2.023 -14.191   2.831  1.00  0.00     0.060 A 
ATOM     37  C   UNL     1       0.953 -13.753   2.054  1.00  0.00     0.016 A 
ATOM     38  C   UNL     1       1.912 -15.402   3.513  1.00  0.00     0.016 A 
ATOM     39  C   UNL     1      -0.256 -14.446   2.048  1.00  0.00     0.010 A 
ATOM     40  C   UNL     1       0.732 -16.156   3.416  1.00  0.00     0.010 A 
ATOM     41  C   UNL     1      -0.390 -15.665   2.721  1.00  0.00    -0.014 A 
BRANCH  41  42
ATOM     42  C   UNL     1      -1.707 -16.375   2.776  1.00  0.00     0.031 A 
ATOM     43  C   UNL     1      -2.283 -16.783   4.111  1.00  0.00     0.074 A 
ATOM     44  C   UNL     1      -2.432 -16.630   1.667  1.00  0.00     0.049 A 
ATOM     45  N   UNL     1      -3.239 -17.638   4.378  1.00  0.00    -0.248 NA
ATOM     46  C   UNL     1      -1.691 -16.158   5.304  1.00  0.00     0.031 C 
ATOM     47  C   UNL     1      -2.084 -16.233   0.302  1.00  0.00     0.029 A 
ATOM     48  N   UNL     1      -3.637 -17.279   1.519  1.00  0.00    -0.354 N 
ATOM     49  C   UNL     1      -3.296 -17.722   5.765  1.00  0.00     0.074 A 
ATOM     50  C   UNL     1      -2.293 -16.817   6.284  1.00  0.00     0.031 C 
ATOM     51  C   UNL     1      -3.077 -16.584  -0.528  1.00  0.00     0.029 A 
ATOM     52  C   UNL     1      -4.073 -17.346   0.217  1.00  0.00     0.049 A 
ATOM     53  H   UNL     1      -4.140 -17.660   2.275  1.00  0.00     0.167 HD
ATOM     54  C   UNL     1      -4.105 -18.490   6.534  1.00  0.00     0.037 A 
ATOM     55  C   UNL     1      -5.116 -17.996  -0.334  1.00  0.00     0.037 A 
ATOM     56  C   UNL     1      -5.171 -19.313   6.024  1.00  0.00     0.049 A 
ATOM     57  C   UNL     1      -5.986 -18.866   0.527  1.00  0.00     0.074 A 
ATOM     58  C   UNL     1      -6.041 -20.131   6.725  1.00  0.00     0.029 A 
ATOM     59  N   UNL     1      -5.538 -19.389   4.691  1.00  0.00    -0.354 N 
ATOM     60  N   UNL     1      -5.936 -19.061   1.822  1.00  0.00    -0.248 NA
ATOM     61  C   UNL     1      -7.028 -19.645  -0.159  1.00  0.00     0.031 C 
ATOM     62  C   UNL     1      -6.924 -20.719   5.811  1.00  0.00     0.029 A 
ATOM     63  C   UNL     1      -6.622 -20.240   4.547  1.00  0.00     0.049 A 
ATOM     64  H   UNL     1      -5.095 -18.910   3.954  1.00  0.00     0.167 HD
ATOM     65  C   UNL     1      -6.936 -19.982   2.105  1.00  0.00     0.074 A 
ATOM     66  C   UNL     1      -7.594 -20.288   0.852  1.00  0.00     0.031 C 
ATOM     67  C   UNL     1      -7.269 -20.535   3.296  1.00  0.00     0.037 A 
BRANCH  54  68
ATOM     68  C   UNL     1      -3.839 -18.515   8.010  1.00  0.00     0.057 A 
ATOM     69  C   UNL     1      -4.178 -17.451   8.853  1.00  0.00     0.134 A 
ATOM     70  C   UNL     1      -3.261 -19.648   8.598  1.00  0.00     0.134 A 
ATOM     71  F   UNL     1      -4.719 -16.332   8.350  1.00  0.00    -0.206 F 
ATOM     72  C   UNL     1      -3.931 -17.504  10.227  1.00  0.00     0.040 A 
ATOM     73  C   UNL     1      -3.033 -19.724   9.973  1.00  0.00     0.040 A 
ATOM     74  F   UNL     1      -2.918 -20.706   7.847  1.00  0.00    -0.206 F 
ATOM     75  C   UNL     1      -3.364 -18.646  10.791  1.00  0.00     0.006 A 
ENDBRANCH  54  68
BRANCH  55  76
ATOM     76  C   UNL     1      -5.349 -17.916  -1.800  1.00  0.00     0.057 A 
ATOM     77  C   UNL     1      -6.471 -17.261  -2.319  1.00  0.00     0.134 A 
ATOM     78  C   UNL     1      -4.460 -18.497  -2.713  1.00  0.00     0.134 A 
ATOM     79  F   UNL     1      -7.375 -16.713  -1.495  1.00  0.00    -0.206 F 
ATOM     80  C   UNL     1      -6.700 -17.186  -3.694  1.00  0.00     0.040 A 
ATOM     81  C   UNL     1      -4.661 -18.404  -4.090  1.00  0.00     0.040 A 
ATOM     82  F   UNL     1      -3.370 -19.146  -2.278  1.00  0.00    -0.206 F 
ATOM     83  C   UNL     1      -5.787 -17.751  -4.584  1.00  0.00     0.006 A 
ENDBRANCH  55  76
BRANCH  67  84
ATOM     84  C   UNL     1      -8.410 -21.507   3.301  1.00  0.00     0.057 A 
ATOM     85  C   UNL     1      -8.264 -22.812   2.816  1.00  0.00     0.134 A 
ATOM     86  C   UNL     1      -9.659 -21.141   3.817  1.00  0.00     0.134 A 
ATOM     87  F   UNL     1      -7.096 -23.218   2.296  1.00  0.00    -0.206 F 
ATOM     88  C   UNL     1      -9.329 -23.715   2.825  1.00  0.00     0.040 A 
ATOM     89  C   UNL     1     -10.725 -22.041   3.849  1.00  0.00     0.040 A 
ATOM     90  F   UNL     1      -9.861 -19.906   4.301  1.00  0.00    -0.206 F 
ATOM     91  C   UNL     1     -10.562 -23.331   3.348  1.00  0.00     0.006 A 
ENDBRANCH  67  84
ENDBRANCH  41  42
ENDBRANCH  34  36
ENDBRANCH  33  34
ENDBRANCH  32  33
ENDBRANCH  31  32
ENDBRANCH   1  31
TORSDOF 18
