REMARK SMILES Cc1oc2cc(OCC(=O)OCCOC(=O)c3ccc(-c4c5nc(c(-c6c(F)cccc6F)c6ccc([nH]6)c(-c6c(F)cccc6F)c6nc(c(-c7c(F)cccc7F)c7ccc4[nH]7)C=C6)C=C5)cc3)ccc2c(=O)c1Oc1ccc(Cl)cc1Cl
REMARK SMILES IDX 12 1 11 2 9 3 10 4 8 5 7 6 6 7 1 8 2 9 3 10 76 11 4 12 74 13
REMARK SMILES IDX 5 14 73 15 75 16 72 17 71 18 77 19 78 20 79 21 84 22 80 23
REMARK SMILES IDX 83 24 85 25 81 26 82 27 13 28 14 29 15 30 16 31 17 32 18 33
REMARK SMILES IDX 70 34 19 35 69 36 20 37 21 38 22 39 63 40 23 41 68 42 62 43
REMARK SMILES IDX 64 44 24 45 67 46 61 47 60 48 25 50 51 51 34 52 50 53 35 54
REMARK SMILES IDX 38 55 49 56 65 57 36 58 37 59 48 61 66 62 39 63 26 64 27 65
REMARK SMILES IDX 32 66 28 67 29 68 31 69 33 70 30 71 52 72 53 73 58 74 54 75
REMARK SMILES IDX 55 76 57 77 59 78 56 79 40 80 41 81 46 82 42 83 43 84 45 85
REMARK SMILES IDX 47 86 44 87
REMARK H PARENT 64 49 38 60
REMARK Flexibility Score: inf
ROOT
ATOM      1  C   UNL     1       3.232   3.952  -3.191  1.00  0.00     0.274 C 
ENDROOT
BRANCH   1   2
ATOM      2  O   UNL     1       3.569   3.002  -2.160  1.00  0.00    -0.460 OA
BRANCH   2   3
ATOM      3  C   UNL     1       3.781   3.519  -0.921  1.00  0.00     0.344 C 
ATOM      4  O   UNL     1       3.697   4.709  -0.632  1.00  0.00    -0.248 OA
BRANCH   3   5
ATOM      5  C   UNL     1       4.178   2.462   0.108  1.00  0.00     0.351 C 
BRANCH   5   6
ATOM      6  O   UNL     1       4.088   1.091  -0.240  1.00  0.00    -0.482 OA
BRANCH   6   7
ATOM      7  C   UNL     1       2.898   0.437  -0.088  1.00  0.00     0.123 A 
ATOM      8  C   UNL     1      -2.981   1.202   0.305  1.00  0.00     0.092 C 
ATOM      9  C   UNL     1      -1.857   0.213   0.314  1.00  0.00     0.148 A 
ATOM     10  O   UNL     1      -0.655   0.857   0.604  1.00  0.00    -0.457 OA
ATOM     11  C   UNL     1      -1.959  -1.116   0.066  1.00  0.00     0.213 A 
ATOM     12  C   UNL     1       0.519   0.227   0.305  1.00  0.00     0.142 A 
ATOM     13  C   UNL     1      -0.679  -1.895   0.051  1.00  0.00     0.235 A 
ATOM     14  C   UNL     1       1.681   1.006   0.275  1.00  0.00     0.094 A 
ATOM     15  C   UNL     1       0.573  -1.127   0.028  1.00  0.00     0.069 A 
ATOM     16  O   UNL     1      -0.659  -3.121   0.027  1.00  0.00    -0.285 OA
ATOM     17  C   UNL     1       1.794  -1.723  -0.289  1.00  0.00     0.020 A 
ATOM     18  C   UNL     1       2.948  -0.934  -0.359  1.00  0.00     0.047 A 
BRANCH  11  19
ATOM     19  O   UNL     1      -3.083  -1.879  -0.242  1.00  0.00    -0.448 OA
BRANCH  19  20
ATOM     20  C   UNL     1      -4.347  -1.372  -0.106  1.00  0.00     0.146 A 
ATOM     21  C   UNL     1      -4.966  -1.435   1.147  1.00  0.00     0.050 A 
ATOM     22  C   UNL     1      -5.030  -0.834  -1.205  1.00  0.00     0.085 A 
ATOM     23  C   UNL     1      -6.233  -0.874   1.319  1.00  0.00     0.024 A 
ATOM     24  C   UNL     1      -6.295  -0.271  -1.030  1.00  0.00     0.045 A 
ATOM     25  Cl  UNL     1      -4.317  -0.793  -2.775  1.00  0.00    -0.080 Cl
ATOM     26  C   UNL     1      -6.884  -0.283   0.234  1.00  0.00     0.042 A 
ATOM     27  Cl  UNL     1      -8.426   0.445   0.461  1.00  0.00    -0.084 Cl
ENDBRANCH  19  20
ENDBRANCH  11  19
ENDBRANCH   6   7
ENDBRANCH   5   6
ENDBRANCH   3   5
ENDBRANCH   2   3
ENDBRANCH   1   2
BRANCH   1  28
ATOM     28  C   UNL     1       1.721   4.032  -3.384  1.00  0.00     0.275 C 
BRANCH  28  29
ATOM     29  O   UNL     1       1.106   4.494  -2.167  1.00  0.00    -0.458 OA
BRANCH  29  30
ATOM     30  C   UNL     1       0.015   3.805  -1.776  1.00  0.00     0.338 C 
ATOM     31  O   UNL     1      -0.527   2.880  -2.364  1.00  0.00    -0.246 OA
BRANCH  30  32
ATOM     32  C   UNL     1      -0.482   4.305  -0.482  1.00  0.00     0.060 A 
ATOM     33  C   UNL     1       0.367   4.428   0.622  1.00  0.00     0.016 A 
ATOM     34  C   UNL     1      -1.859   4.479  -0.333  1.00  0.00     0.016 A 
ATOM     35  C   UNL     1      -0.173   4.590   1.898  1.00  0.00     0.010 A 
ATOM     36  C   UNL     1      -2.393   4.704   0.936  1.00  0.00     0.010 A 
ATOM     37  C   UNL     1      -1.560   4.700   2.065  1.00  0.00    -0.014 A 
BRANCH  37  38
ATOM     38  C   UNL     1      -2.157   4.881   3.405  1.00  0.00     0.031 A 
ATOM     39  C   UNL     1      -2.860   3.759   4.108  1.00  0.00     0.074 A 
ATOM     40  C   UNL     1      -2.119   6.105   3.952  1.00  0.00     0.049 A 
ATOM     41  N   UNL     1      -3.692   3.804   5.116  1.00  0.00    -0.248 NA
ATOM     42  C   UNL     1      -2.604   2.404   3.604  1.00  0.00     0.031 C 
ATOM     43  C   UNL     1      -1.428   7.259   3.378  1.00  0.00     0.029 A 
ATOM     44  N   UNL     1      -2.693   6.583   5.097  1.00  0.00    -0.354 N 
ATOM     45  C   UNL     1      -4.111   2.495   5.325  1.00  0.00     0.074 A 
ATOM     46  C   UNL     1      -3.434   1.675   4.341  1.00  0.00     0.031 C 
ATOM     47  C   UNL     1      -1.633   8.322   4.168  1.00  0.00     0.029 A 
ATOM     48  C   UNL     1      -2.510   7.931   5.266  1.00  0.00     0.049 A 
ATOM     49  H   UNL     1      -3.187   6.018   5.734  1.00  0.00     0.167 HD
ATOM     50  C   UNL     1      -4.976   2.030   6.259  1.00  0.00     0.037 A 
ATOM     51  C   UNL     1      -3.028   8.766   6.182  1.00  0.00     0.037 A 
ATOM     52  C   UNL     1      -5.561   2.848   7.293  1.00  0.00     0.049 A 
ATOM     53  C   UNL     1      -3.956   8.226   7.225  1.00  0.00     0.074 A 
ATOM     54  C   UNL     1      -6.414   2.471   8.317  1.00  0.00     0.029 A 
ATOM     55  N   UNL     1      -5.321   4.205   7.455  1.00  0.00    -0.354 N 
ATOM     56  N   UNL     1      -4.412   7.005   7.369  1.00  0.00    -0.248 NA
ATOM     57  C   UNL     1      -4.442   9.178   8.231  1.00  0.00     0.031 C 
ATOM     58  C   UNL     1      -6.697   3.602   9.093  1.00  0.00     0.029 A 
ATOM     59  C   UNL     1      -6.000   4.677   8.566  1.00  0.00     0.049 A 
ATOM     60  H   UNL     1      -4.752   4.751   6.866  1.00  0.00     0.167 HD
ATOM     61  C   UNL     1      -5.234   7.038   8.485  1.00  0.00     0.074 A 
ATOM     62  C   UNL     1      -5.200   8.397   8.989  1.00  0.00     0.031 C 
ATOM     63  C   UNL     1      -5.954   6.035   9.043  1.00  0.00     0.037 A 
BRANCH  50  64
ATOM     64  C   UNL     1      -5.354   0.578   6.216  1.00  0.00     0.057 A 
ATOM     65  C   UNL     1      -4.489  -0.430   6.656  1.00  0.00     0.134 A 
ATOM     66  C   UNL     1      -6.637   0.193   5.803  1.00  0.00     0.134 A 
ATOM     67  F   UNL     1      -3.244  -0.131   7.056  1.00  0.00    -0.206 F 
ATOM     68  C   UNL     1      -4.883  -1.771   6.679  1.00  0.00     0.040 A 
ATOM     69  C   UNL     1      -7.050  -1.140   5.840  1.00  0.00     0.040 A 
ATOM     70  F   UNL     1      -7.517   1.110   5.373  1.00  0.00    -0.206 F 
ATOM     71  C   UNL     1      -6.170  -2.127   6.279  1.00  0.00     0.006 A 
ENDBRANCH  50  64
BRANCH  51  72
ATOM     72  C   UNL     1      -2.673  10.199   6.122  1.00  0.00     0.057 A 
ATOM     73  C   UNL     1      -1.740  10.742   7.009  1.00  0.00     0.134 A 
ATOM     74  C   UNL     1      -3.196  11.036   5.129  1.00  0.00     0.134 A 
ATOM     75  F   UNL     1      -1.214   9.984   7.982  1.00  0.00    -0.206 F 
ATOM     76  C   UNL     1      -1.335  12.073   6.911  1.00  0.00     0.040 A 
ATOM     77  C   UNL     1      -2.786  12.363   5.008  1.00  0.00     0.040 A 
ATOM     78  F   UNL     1      -4.081  10.561   4.241  1.00  0.00    -0.206 F 
ATOM     79  C   UNL     1      -1.852  12.884   5.902  1.00  0.00     0.006 A 
ENDBRANCH  51  72
BRANCH  63  80
ATOM     80  C   UNL     1      -6.739   6.378  10.270  1.00  0.00     0.057 A 
ATOM     81  C   UNL     1      -7.953   7.071  10.190  1.00  0.00     0.134 A 
ATOM     82  C   UNL     1      -6.277   6.013  11.539  1.00  0.00     0.134 A 
ATOM     83  F   UNL     1      -8.437   7.460   9.001  1.00  0.00    -0.206 F 
ATOM     84  C   UNL     1      -8.671   7.410  11.337  1.00  0.00     0.040 A 
ATOM     85  C   UNL     1      -6.994   6.333  12.692  1.00  0.00     0.040 A 
ATOM     86  F   UNL     1      -5.121   5.347  11.677  1.00  0.00    -0.206 F 
ATOM     87  C   UNL     1      -8.192   7.038  12.593  1.00  0.00     0.006 A 
ENDBRANCH  63  80
ENDBRANCH  37  38
ENDBRANCH  30  32
ENDBRANCH  29  30
ENDBRANCH  28  29
ENDBRANCH   1  28
TORSDOF 15
