REMARK SMILES C[C@H](O)C[C@@]1(C(=O)OCCOC(=O)c2ccc(-c3c4nc(c(-c5c(F)cccc5F)c5ccc([nH]5)c(-c5c(F)cccc5F)c5nc(c(-c6c(F)cccc6F)c6ccc3[nH]6)C=C5)C=C4)cc2)CCN(C(=O)OC(C)(C)C)C1
REMARK SMILES IDX 9 1 8 2 6 3 7 4 5 5 68 6 78 7 69 8 70 9 4 10 2 11 1 12 3 13
REMARK SMILES IDX 71 15 72 16 73 17 74 18 75 19 76 20 77 21 10 22 11 23 12 24
REMARK SMILES IDX 13 25 14 26 15 27 67 28 16 29 66 30 17 31 18 32 19 33 60 34
REMARK SMILES IDX 20 35 65 36 59 37 61 38 21 39 64 40 58 41 57 42 22 44 48 45
REMARK SMILES IDX 31 46 47 47 32 48 35 49 46 50 62 51 33 52 34 53 45 55 63 56
REMARK SMILES IDX 36 57 23 58 24 59 29 60 25 61 26 62 28 63 30 64 27 65 49 66
REMARK SMILES IDX 50 67 55 68 51 69 52 70 54 71 56 72 53 73 37 74 38 75 43 76
REMARK SMILES IDX 39 77 40 78 42 79 44 80 41 81
REMARK H PARENT 3 14 61 43 35 54
REMARK Flexibility Score: inf
ROOT
ATOM      1  C   UNL     1       1.719   0.873   1.176  1.00  0.00     0.274 C 
ENDROOT
BRANCH   1   2
ATOM      2  O   UNL     1       0.700   0.060   0.552  1.00  0.00    -0.462 OA
BRANCH   2   3
ATOM      3  C   UNL     1       0.044  -0.777   1.397  1.00  0.00     0.314 C 
ATOM      4  O   UNL     1       0.370  -0.953   2.566  1.00  0.00    -0.252 OA
BRANCH   3   5
ATOM      5  C   UNL     1      -1.129  -1.516   0.742  1.00  0.00     0.090 C 
ATOM      6  C   UNL     1      -2.351  -1.451   1.698  1.00  0.00     0.042 C 
ATOM      7  C   UNL     1      -0.757  -3.011   0.761  1.00  0.00     0.142 C 
ATOM      8  C   UNL     1      -2.155  -2.625   2.670  1.00  0.00     0.124 C 
ATOM      9  N   UNL     1      -1.453  -3.607   1.874  1.00  0.00    -0.307 N 
BRANCH   5  10
ATOM     10  C   UNL     1      -1.480  -1.191  -0.741  1.00  0.00     0.052 C 
BRANCH  10  11
ATOM     11  C   UNL     1      -1.882   0.228  -1.151  1.00  0.00     0.112 C 
ATOM     12  C   UNL     1      -2.606   0.222  -2.495  1.00  0.00     0.038 C 
BRANCH  11  13
ATOM     13  O   UNL     1      -0.748   1.050  -1.372  1.00  0.00    -0.393 OA
ATOM     14  H   UNL     1      -0.221   0.686  -2.101  1.00  0.00     0.210 HD
ENDBRANCH  11  13
ENDBRANCH  10  11
ENDBRANCH   5  10
BRANCH   9  15
ATOM     15  C   UNL     1      -1.384  -4.963   2.060  1.00  0.00     0.410 C 
ATOM     16  O   UNL     1      -0.885  -5.703   1.220  1.00  0.00    -0.224 OA
BRANCH  15  17
ATOM     17  O   UNL     1      -1.918  -5.373   3.238  1.00  0.00    -0.444 OA
BRANCH  17  18
ATOM     18  C   UNL     1      -1.997  -6.798   3.515  1.00  0.00     0.106 C 
ATOM     19  C   UNL     1      -3.082  -7.426   2.632  1.00  0.00     0.056 C 
ATOM     20  C   UNL     1      -0.651  -7.528   3.368  1.00  0.00     0.056 C 
ATOM     21  C   UNL     1      -2.426  -6.907   4.986  1.00  0.00     0.056 C 
ENDBRANCH  17  18
ENDBRANCH  15  17
ENDBRANCH   9  15
ENDBRANCH   3   5
ENDBRANCH   2   3
ENDBRANCH   1   2
BRANCH   1  22
ATOM     22  C   UNL     1       1.772   2.257   0.514  1.00  0.00     0.275 C 
BRANCH  22  23
ATOM     23  O   UNL     1       0.522   2.967   0.347  1.00  0.00    -0.458 OA
BRANCH  23  24
ATOM     24  C   UNL     1      -0.464   2.848   1.260  1.00  0.00     0.338 C 
ATOM     25  O   UNL     1      -0.426   2.229   2.311  1.00  0.00    -0.246 OA
BRANCH  24  26
ATOM     26  C   UNL     1      -1.702   3.497   0.776  1.00  0.00     0.060 A 
ATOM     27  C   UNL     1      -2.921   2.890   1.098  1.00  0.00     0.016 A 
ATOM     28  C   UNL     1      -1.687   4.707   0.077  1.00  0.00     0.016 A 
ATOM     29  C   UNL     1      -4.123   3.486   0.722  1.00  0.00     0.010 A 
ATOM     30  C   UNL     1      -2.896   5.343  -0.230  1.00  0.00     0.010 A 
ATOM     31  C   UNL     1      -4.123   4.749   0.110  1.00  0.00    -0.014 A 
BRANCH  31  32
ATOM     32  C   UNL     1      -5.402   5.493  -0.032  1.00  0.00     0.031 A 
ATOM     33  C   UNL     1      -5.974   5.830  -1.378  1.00  0.00     0.074 A 
ATOM     34  C   UNL     1      -6.042   5.886   1.089  1.00  0.00     0.049 A 
ATOM     35  N   UNL     1      -7.058   6.507  -1.665  1.00  0.00    -0.248 NA
ATOM     36  C   UNL     1      -5.232   5.353  -2.553  1.00  0.00     0.031 C 
ATOM     37  C   UNL     1      -5.576   5.635   2.456  1.00  0.00     0.029 A 
ATOM     38  N   UNL     1      -7.218   6.571   1.262  1.00  0.00    -0.354 N 
ATOM     39  C   UNL     1      -7.122   6.553  -3.052  1.00  0.00     0.074 A 
ATOM     40  C   UNL     1      -5.954   5.853  -3.547  1.00  0.00     0.031 C 
ATOM     41  C   UNL     1      -6.472   6.125   3.325  1.00  0.00     0.029 A 
ATOM     42  C   UNL     1      -7.544   6.775   2.582  1.00  0.00     0.049 A 
ATOM     43  H   UNL     1      -7.774   6.885   0.514  1.00  0.00     0.167 HD
ATOM     44  C   UNL     1      -8.070   7.124  -3.836  1.00  0.00     0.037 A 
ATOM     45  C   UNL     1      -8.581   7.428   3.137  1.00  0.00     0.037 A 
ATOM     46  C   UNL     1      -9.232   7.819  -3.338  1.00  0.00     0.049 A 
ATOM     47  C   UNL     1      -9.607   8.061   2.244  1.00  0.00     0.074 A 
ATOM     48  C   UNL     1     -10.254   8.419  -4.054  1.00  0.00     0.029 A 
ATOM     49  N   UNL     1      -9.525   8.008  -1.995  1.00  0.00    -0.354 N 
ATOM     50  N   UNL     1      -9.663   8.079   0.934  1.00  0.00    -0.248 NA
ATOM     51  C   UNL     1     -10.713   8.766   2.905  1.00  0.00     0.031 C 
ATOM     52  C   UNL     1     -11.145   9.003  -3.146  1.00  0.00     0.029 A 
ATOM     53  C   UNL     1     -10.704   8.727  -1.863  1.00  0.00     0.049 A 
ATOM     54  H   UNL     1      -8.977   7.681  -1.246  1.00  0.00     0.167 HD
ATOM     55  C   UNL     1     -10.818   8.778   0.614  1.00  0.00     0.074 A 
ATOM     56  C   UNL     1     -11.444   9.148   1.868  1.00  0.00     0.031 C 
ATOM     57  C   UNL     1     -11.315   9.089  -0.608  1.00  0.00     0.037 A 
BRANCH  44  58
ATOM     58  C   UNL     1      -7.877   7.038  -5.323  1.00  0.00     0.057 A 
ATOM     59  C   UNL     1      -8.044   5.837  -6.024  1.00  0.00     0.134 A 
ATOM     60  C   UNL     1      -7.549   8.178  -6.068  1.00  0.00     0.134 A 
ATOM     61  F   UNL     1      -8.348   4.705  -5.370  1.00  0.00    -0.206 F 
ATOM     62  C   UNL     1      -7.866   5.766  -7.407  1.00  0.00     0.040 A 
ATOM     63  C   UNL     1      -7.392   8.126  -7.455  1.00  0.00     0.040 A 
ATOM     64  F   UNL     1      -7.383   9.364  -5.463  1.00  0.00    -0.206 F 
ATOM     65  C   UNL     1      -7.544   6.915  -8.127  1.00  0.00     0.006 A 
ENDBRANCH  44  58
BRANCH  45  66
ATOM     66  C   UNL     1      -8.699   7.515   4.614  1.00  0.00     0.057 A 
ATOM     67  C   UNL     1      -9.707   6.829   5.301  1.00  0.00     0.134 A 
ATOM     68  C   UNL     1      -7.808   8.284   5.373  1.00  0.00     0.134 A 
ATOM     69  F   UNL     1     -10.601   6.092   4.627  1.00  0.00    -0.206 F 
ATOM     70  C   UNL     1      -9.837   6.918   6.688  1.00  0.00     0.040 A 
ATOM     71  C   UNL     1      -7.909   8.359   6.763  1.00  0.00     0.040 A 
ATOM     72  F   UNL     1      -6.815   8.958   4.775  1.00  0.00    -0.206 F 
ATOM     73  C   UNL     1      -8.931   7.681   7.423  1.00  0.00     0.006 A 
ENDBRANCH  45  66
BRANCH  57  74
ATOM     74  C   UNL     1     -12.614   9.838  -0.637  1.00  0.00     0.057 A 
ATOM     75  C   UNL     1     -12.700  11.186  -0.264  1.00  0.00     0.134 A 
ATOM     76  C   UNL     1     -13.795   9.201  -1.038  1.00  0.00     0.134 A 
ATOM     77  F   UNL     1     -11.609  11.849   0.147  1.00  0.00    -0.206 F 
ATOM     78  C   UNL     1     -13.921  11.864  -0.258  1.00  0.00     0.040 A 
ATOM     79  C   UNL     1     -15.016   9.876  -1.062  1.00  0.00     0.040 A 
ATOM     80  F   UNL     1     -13.780   7.913  -1.413  1.00  0.00    -0.206 F 
ATOM     81  C   UNL     1     -15.083  11.209  -0.662  1.00  0.00     0.006 A 
ENDBRANCH  57  74
ENDBRANCH  31  32
ENDBRANCH  24  26
ENDBRANCH  23  24
ENDBRANCH  22  23
ENDBRANCH   1  22
TORSDOF 17
