REMARK SMILES C[C@H]1CC[C@H](CNC(=O)NCc2ccc(C(=O)OCCOC(=O)c3ccc(-c4c5nc(c(-c6c(F)cccc6F)c6ccc([nH]6)c(-c6c(F)cccc6F)c6nc(c(-c7c(F)cccc7F)c7ccc4[nH]7)C=C6)C=C5)cc3)o2)CC1
REMARK SMILES IDX 19 1 18 2 16 3 17 4 15 5 12 6 13 7 78 8 14 9 11 10 10 11
REMARK SMILES IDX 7 12 8 13 9 15 6 17 5 18 1 19 2 20 80 21 3 22 79 23 4 24
REMARK SMILES IDX 20 25 21 26 22 27 23 28 24 29 25 30 77 31 26 32 76 33 27 34
REMARK SMILES IDX 28 35 29 36 70 37 30 38 75 39 69 40 71 41 31 42 74 43 68 44
REMARK SMILES IDX 67 45 32 47 58 48 41 49 57 50 42 51 45 52 56 53 72 54 43 55
REMARK SMILES IDX 44 56 55 58 73 59 46 60 33 61 34 62 39 63 35 64 36 65 38 66
REMARK SMILES IDX 40 67 37 68 59 69 60 70 65 71 61 72 62 73 64 74 66 75 63 76
REMARK SMILES IDX 47 77 48 78 53 79 49 80 50 81 52 82 54 83 51 84
REMARK H PARENT 7 14 10 16 71 46 45 57
REMARK Flexibility Score: inf
ROOT
ATOM      1  C   UNL     1     -10.253  -3.882   3.173  1.00  0.00     0.275 C 
ENDROOT
BRANCH   1   2
ATOM      2  O   UNL     1      -9.141  -4.114   2.287  1.00  0.00    -0.456 OA
BRANCH   2   3
ATOM      3  C   UNL     1      -8.988  -3.222   1.263  1.00  0.00     0.374 C 
ATOM      4  O   UNL     1      -9.798  -2.345   0.985  1.00  0.00    -0.242 OA
BRANCH   3   5
ATOM      5  C   UNL     1      -7.703  -3.414   0.627  1.00  0.00     0.211 A 
ATOM      6  C   UNL     1      -5.979  -2.756  -0.601  1.00  0.00     0.124 A 
ATOM      7  C   UNL     1      -5.626  -3.967  -0.044  1.00  0.00     0.048 A 
ATOM      8  O   UNL     1      -7.261  -2.448  -0.242  1.00  0.00    -0.452 OA
ATOM      9  C   UNL     1      -6.727  -4.386   0.746  1.00  0.00     0.058 A 
BRANCH   6  10
ATOM     10  C   UNL     1      -5.259  -1.800  -1.489  1.00  0.00     0.193 C 
BRANCH  10  11
ATOM     11  N   UNL     1      -5.826  -0.475  -1.376  1.00  0.00    -0.331 N 
ATOM     12  N   UNL     1      -4.163   0.923  -0.457  1.00  0.00    -0.338 N 
ATOM     13  C   UNL     1      -5.308   0.727  -1.119  1.00  0.00     0.315 C 
ATOM     14  H   UNL     1      -3.805   1.835  -0.559  1.00  0.00     0.165 HD
ATOM     15  O   UNL     1      -5.938   1.719  -1.488  1.00  0.00    -0.249 OA
ATOM     16  H   UNL     1      -6.800  -0.456  -1.518  1.00  0.00     0.165 HD
BRANCH  12  17
ATOM     17  C   UNL     1      -3.339   0.073   0.382  1.00  0.00     0.121 C 
BRANCH  17  18
ATOM     18  C   UNL     1      -1.894   0.023  -0.144  1.00  0.00     0.008 C 
ATOM     19  C   UNL     1       2.494  -0.049  -0.177  1.00  0.00     0.007 C 
ATOM     20  C   UNL     1       1.051  -0.001   0.321  1.00  0.00    -0.014 C 
ATOM     21  C   UNL     1       0.288  -1.265  -0.092  1.00  0.00     0.003 C 
ATOM     22  C   UNL     1       0.338   1.252  -0.203  1.00  0.00     0.003 C 
ATOM     23  C   UNL     1      -1.166  -1.222   0.379  1.00  0.00     0.006 C 
ATOM     24  C   UNL     1      -1.123   1.299   0.244  1.00  0.00     0.006 C 
ENDBRANCH  17  18
ENDBRANCH  12  17
ENDBRANCH  10  11
ENDBRANCH   6  10
ENDBRANCH   3   5
ENDBRANCH   2   3
ENDBRANCH   1   2
BRANCH   1  25
ATOM     25  C   UNL     1      -9.809  -3.142   4.439  1.00  0.00     0.275 C 
BRANCH  25  26
ATOM     26  O   UNL     1      -9.525  -1.755   4.175  1.00  0.00    -0.458 OA
BRANCH  26  27
ATOM     27  C   UNL     1      -8.239  -1.475   3.856  1.00  0.00     0.338 C 
ATOM     28  O   UNL     1      -7.306  -2.258   3.806  1.00  0.00    -0.246 OA
BRANCH  27  29
ATOM     29  C   UNL     1      -8.135  -0.067   3.437  1.00  0.00     0.060 A 
ATOM     30  C   UNL     1      -7.629   0.204   2.164  1.00  0.00     0.016 A 
ATOM     31  C   UNL     1      -8.476   0.976   4.301  1.00  0.00     0.016 A 
ATOM     32  C   UNL     1      -7.461   1.521   1.750  1.00  0.00     0.010 A 
ATOM     33  C   UNL     1      -8.294   2.300   3.885  1.00  0.00     0.010 A 
ATOM     34  C   UNL     1      -7.772   2.578   2.611  1.00  0.00    -0.014 A 
BRANCH  34  35
ATOM     35  C   UNL     1      -7.479   3.969   2.194  1.00  0.00     0.031 A 
ATOM     36  C   UNL     1      -6.281   4.673   2.759  1.00  0.00     0.074 A 
ATOM     37  C   UNL     1      -8.263   4.586   1.292  1.00  0.00     0.049 A 
ATOM     38  N   UNL     1      -5.899   5.915   2.608  1.00  0.00    -0.248 NA
ATOM     39  C   UNL     1      -5.391   3.869   3.612  1.00  0.00     0.031 C 
ATOM     40  C   UNL     1      -9.410   3.982   0.616  1.00  0.00     0.029 A 
ATOM     41  N   UNL     1      -8.210   5.862   0.791  1.00  0.00    -0.354 N 
ATOM     42  C   UNL     1      -4.742   6.050   3.363  1.00  0.00     0.074 A 
ATOM     43  C   UNL     1      -4.488   4.766   3.981  1.00  0.00     0.031 C 
ATOM     44  C   UNL     1      -9.957   4.889  -0.210  1.00  0.00     0.029 A 
ATOM     45  C   UNL     1      -9.225   6.147  -0.088  1.00  0.00     0.049 A 
ATOM     46  H   UNL     1      -7.511   6.511   1.038  1.00  0.00     0.167 HD
ATOM     47  C   UNL     1      -3.965   7.147   3.524  1.00  0.00     0.037 A 
ATOM     48  C   UNL     1      -9.543   7.302  -0.703  1.00  0.00     0.037 A 
ATOM     49  C   UNL     1      -4.213   8.416   2.893  1.00  0.00     0.049 A 
ATOM     50  C   UNL     1      -8.698   8.522  -0.461  1.00  0.00     0.074 A 
ATOM     51  C   UNL     1      -3.486   9.589   2.997  1.00  0.00     0.029 A 
ATOM     52  N   UNL     1      -5.271   8.676   2.034  1.00  0.00    -0.354 N 
ATOM     53  N   UNL     1      -7.623   8.650   0.278  1.00  0.00    -0.248 NA
ATOM     54  C   UNL     1      -9.115   9.761  -1.133  1.00  0.00     0.031 C 
ATOM     55  C   UNL     1      -4.123  10.569   2.227  1.00  0.00     0.029 A 
ATOM     56  C   UNL     1      -5.224   9.995   1.613  1.00  0.00     0.049 A 
ATOM     57  H   UNL     1      -5.954   8.020   1.764  1.00  0.00     0.167 HD
ATOM     58  C   UNL     1      -7.222   9.972   0.142  1.00  0.00     0.074 A 
ATOM     59  C   UNL     1      -8.165  10.605  -0.756  1.00  0.00     0.031 C 
ATOM     60  C   UNL     1      -6.167  10.605   0.711  1.00  0.00     0.037 A 
BRANCH  47  61
ATOM     61  C   UNL     1      -2.792   7.028   4.449  1.00  0.00     0.057 A 
ATOM     62  C   UNL     1      -1.632   6.330   4.092  1.00  0.00     0.134 A 
ATOM     63  C   UNL     1      -2.816   7.643   5.708  1.00  0.00     0.134 A 
ATOM     64  F   UNL     1      -1.553   5.704   2.908  1.00  0.00    -0.206 F 
ATOM     65  C   UNL     1      -0.544   6.233   4.961  1.00  0.00     0.040 A 
ATOM     66  C   UNL     1      -1.727   7.571   6.577  1.00  0.00     0.040 A 
ATOM     67  F   UNL     1      -3.897   8.328   6.110  1.00  0.00    -0.206 F 
ATOM     68  C   UNL     1      -0.588   6.859   6.205  1.00  0.00     0.006 A 
ENDBRANCH  47  61
BRANCH  48  69
ATOM     69  C   UNL     1     -10.733   7.366  -1.586  1.00  0.00     0.057 A 
ATOM     70  C   UNL     1     -10.602   7.510  -2.971  1.00  0.00     0.134 A 
ATOM     71  C   UNL     1     -12.030   7.294  -1.064  1.00  0.00     0.134 A 
ATOM     72  F   UNL     1      -9.386   7.613  -3.528  1.00  0.00    -0.206 F 
ATOM     73  C   UNL     1     -11.718   7.589  -3.806  1.00  0.00     0.040 A 
ATOM     74  C   UNL     1     -13.154   7.349  -1.888  1.00  0.00     0.040 A 
ATOM     75  F   UNL     1     -12.222   7.161   0.257  1.00  0.00    -0.206 F 
ATOM     76  C   UNL     1     -12.999   7.503  -3.264  1.00  0.00     0.006 A 
ENDBRANCH  48  69
BRANCH  60  77
ATOM     77  C   UNL     1      -5.957  12.045   0.350  1.00  0.00     0.057 A 
ATOM     78  C   UNL     1      -6.760  13.062   0.880  1.00  0.00     0.134 A 
ATOM     79  C   UNL     1      -4.913  12.419  -0.505  1.00  0.00     0.134 A 
ATOM     80  F   UNL     1      -7.784  12.766   1.695  1.00  0.00    -0.206 F 
ATOM     81  C   UNL     1      -6.542  14.402   0.558  1.00  0.00     0.040 A 
ATOM     82  C   UNL     1      -4.673  13.758  -0.817  1.00  0.00     0.040 A 
ATOM     83  F   UNL     1      -4.104  11.492  -1.038  1.00  0.00    -0.206 F 
ATOM     84  C   UNL     1      -5.492  14.753  -0.288  1.00  0.00     0.006 A 
ENDBRANCH  60  77
ENDBRANCH  34  35
ENDBRANCH  27  29
ENDBRANCH  26  27
ENDBRANCH  25  26
ENDBRANCH   1  25
TORSDOF 15
