REMARK SMILES COC(=O)c1ccc2c(c1)=N[C@H](c1cn(CCC(=O)OCCOC(=O)c3ccc(-c4c5nc(c(-c6c(F)cccc6F)c6ccc([nH]6)c(-c6c(F)cccc6F)c6nc(c(-c7c(F)cccc7F)c7ccc4[nH]7)C=C6)C=C5)cc3)c3ccccc13)N=2
REMARK SMILES IDX 20 1 18 2 19 3 17 4 16 5 15 6 13 7 14 8 85 9 80 10 84 11
REMARK SMILES IDX 81 12 83 13 82 14 12 15 5 16 6 17 10 18 7 19 9 20 8 21 11 22
REMARK SMILES IDX 86 23 3 24 4 25 2 26 1 27 21 28 22 29 23 30 24 31 25 32
REMARK SMILES IDX 26 33 27 34 79 35 28 36 78 37 29 38 30 39 31 40 72 41 32 42
REMARK SMILES IDX 77 43 71 44 73 45 33 46 76 47 70 48 69 49 34 51 60 52 43 53
REMARK SMILES IDX 59 54 44 55 47 56 58 57 74 58 45 59 46 60 57 62 75 63 48 64
REMARK SMILES IDX 35 65 36 66 41 67 37 68 38 69 40 70 42 71 39 72 61 73 62 74
REMARK SMILES IDX 67 75 63 76 64 77 66 78 68 79 65 80 49 81 50 82 55 83 51 84
REMARK SMILES IDX 52 85 54 86 56 87 53 88
REMARK H PARENT 73 50 47 61
REMARK Flexibility Score: inf
ROOT
ATOM      1  O   UNL     1      -1.796  -2.885  11.911  1.00  0.00    -0.462 OA
ENDROOT
BRANCH   1   2
ATOM      2  C   UNL     1      -1.361  -2.065  12.889  1.00  0.00     0.307 C 
ATOM      3  O   UNL     1      -2.002  -1.784  13.894  1.00  0.00    -0.252 OA
BRANCH   2   4
ATOM      4  C   UNL     1       0.023  -1.512  12.618  1.00  0.00     0.144 C 
BRANCH   4   5
ATOM      5  C   UNL     1       0.792  -2.158  11.459  1.00  0.00     0.134 C 
BRANCH   5   6
ATOM      6  N   UNL     1       0.489  -1.470  10.214  1.00  0.00    -0.346 N 
ATOM      7  C   UNL     1      -0.141   0.386   9.209  1.00  0.00     0.024 A 
ATOM      8  C   UNL     1       0.884  -0.184   9.951  1.00  0.00     0.094 A 
ATOM      9  C   UNL     1      -1.215  -0.560   9.235  1.00  0.00     0.007 A 
ATOM     10  C   UNL     1      -0.556  -1.774   9.377  1.00  0.00     0.048 A 
ATOM     11  C   UNL     1      -2.557  -0.561   8.829  1.00  0.00     0.011 A 
ATOM     12  C   UNL     1      -1.003  -2.937   8.748  1.00  0.00     0.027 A 
ATOM     13  C   UNL     1      -3.057  -1.725   8.246  1.00  0.00     0.001 A 
ATOM     14  C   UNL     1      -2.246  -2.853   8.108  1.00  0.00     0.002 A 
BRANCH   7  15
ATOM     15  C   UNL     1      -0.004   1.564   8.284  1.00  0.00     0.255 C 
ATOM     16  C   UNL     1       0.272   0.402   3.925  1.00  0.00     0.062 A 
ATOM     17  C   UNL     1      -1.120   0.839   3.977  1.00  0.00     0.018 A 
ATOM     18  C   UNL     1       1.072   0.429   5.005  1.00  0.00     0.046 A 
ATOM     19  C   UNL     1      -1.719   1.268   5.098  1.00  0.00     0.031 A 
ATOM     20  C   UNL     1       0.515   0.958   6.254  1.00  0.00     0.087 A 
ATOM     21  C   UNL     1      -0.909   1.343   6.318  1.00  0.00     0.086 A 
ATOM     22  N   UNL     1       1.123   1.209   7.359  1.00  0.00    -0.252 NA
ATOM     23  N   UNL     1      -1.244   1.778   7.483  1.00  0.00    -0.252 NA
BRANCH  16  24
ATOM     24  C   UNL     1       0.898  -0.110   2.662  1.00  0.00     0.337 C 
ATOM     25  O   UNL     1       1.827  -0.883   2.623  1.00  0.00    -0.246 OA
BRANCH  24  26
ATOM     26  O   UNL     1       0.289   0.464   1.586  1.00  0.00    -0.465 OA
ATOM     27  C   UNL     1       0.843   0.078   0.325  1.00  0.00     0.282 C 
ENDBRANCH  24  26
ENDBRANCH  16  24
ENDBRANCH   7  15
ENDBRANCH   5   6
ENDBRANCH   4   5
ENDBRANCH   2   4
ENDBRANCH   1   2
BRANCH   1  28
ATOM     28  C   UNL     1      -3.095  -3.486  12.055  1.00  0.00     0.274 C 
BRANCH  28  29
ATOM     29  C   UNL     1      -3.002  -4.924  11.532  1.00  0.00     0.275 C 
BRANCH  29  30
ATOM     30  O   UNL     1      -2.377  -5.749  12.534  1.00  0.00    -0.458 OA
BRANCH  30  31
ATOM     31  C   UNL     1      -1.020  -5.775  12.496  1.00  0.00     0.338 C 
ATOM     32  O   UNL     1      -0.324  -5.873  11.501  1.00  0.00    -0.246 OA
BRANCH  31  33
ATOM     33  C   UNL     1      -0.525  -5.301  13.814  1.00  0.00     0.060 A 
ATOM     34  C   UNL     1      -1.375  -5.255  14.923  1.00  0.00     0.016 A 
ATOM     35  C   UNL     1       0.710  -4.639  13.843  1.00  0.00     0.016 A 
ATOM     36  C   UNL     1      -1.079  -4.391  15.967  1.00  0.00     0.010 A 
ATOM     37  C   UNL     1       1.004  -3.775  14.893  1.00  0.00     0.010 A 
ATOM     38  C   UNL     1       0.070  -3.588  15.912  1.00  0.00    -0.014 A 
BRANCH  38  39
ATOM     39  C   UNL     1       0.387  -2.790  17.096  1.00  0.00     0.031 A 
ATOM     40  C   UNL     1       0.932  -3.656  18.162  1.00  0.00     0.074 A 
ATOM     41  C   UNL     1       0.260  -1.459  17.284  1.00  0.00     0.049 A 
ATOM     42  N   UNL     1       0.288  -4.107  19.185  1.00  0.00    -0.248 NA
ATOM     43  C   UNL     1       2.257  -4.259  17.962  1.00  0.00     0.031 C 
ATOM     44  C   UNL     1      -0.022  -0.417  16.299  1.00  0.00     0.029 A 
ATOM     45  N   UNL     1       0.412  -0.742  18.445  1.00  0.00    -0.354 N 
ATOM     46  C   UNL     1       1.202  -4.888  19.878  1.00  0.00     0.074 A 
ATOM     47  C   UNL     1       2.307  -5.112  18.986  1.00  0.00     0.031 C 
ATOM     48  C   UNL     1       0.176   0.803  16.852  1.00  0.00     0.029 A 
ATOM     49  C   UNL     1       0.445   0.638  18.270  1.00  0.00     0.049 A 
ATOM     50  H   UNL     1       0.491  -1.169  19.329  1.00  0.00     0.167 HD
ATOM     51  C   UNL     1       1.100  -5.021  21.226  1.00  0.00     0.037 A 
ATOM     52  C   UNL     1       0.658   1.587  19.217  1.00  0.00     0.037 A 
ATOM     53  C   UNL     1      -0.188  -4.570  21.693  1.00  0.00     0.049 A 
ATOM     54  C   UNL     1       0.310   1.009  20.530  1.00  0.00     0.074 A 
ATOM     55  C   UNL     1      -1.485  -5.033  21.692  1.00  0.00     0.029 A 
ATOM     56  N   UNL     1      -0.236  -3.226  21.949  1.00  0.00    -0.354 N 
ATOM     57  N   UNL     1      -0.912   0.750  20.898  1.00  0.00    -0.248 NA
ATOM     58  C   UNL     1       1.350   0.405  21.354  1.00  0.00     0.031 C 
ATOM     59  C   UNL     1      -2.321  -3.879  21.788  1.00  0.00     0.029 A 
ATOM     60  C   UNL     1      -1.513  -2.747  21.866  1.00  0.00     0.049 A 
ATOM     61  H   UNL     1       0.551  -2.674  22.166  1.00  0.00     0.167 HD
ATOM     62  C   UNL     1      -0.797  -0.379  21.682  1.00  0.00     0.074 A 
ATOM     63  C   UNL     1       0.602  -0.426  22.084  1.00  0.00     0.031 C 
ATOM     64  C   UNL     1      -1.764  -1.340  21.654  1.00  0.00     0.037 A 
BRANCH  51  65
ATOM     65  C   UNL     1       2.291  -5.035  22.160  1.00  0.00     0.057 A 
ATOM     66  C   UNL     1       3.568  -4.532  21.835  1.00  0.00     0.134 A 
ATOM     67  C   UNL     1       2.064  -5.242  23.533  1.00  0.00     0.134 A 
ATOM     68  F   UNL     1       3.922  -4.202  20.588  1.00  0.00    -0.206 F 
ATOM     69  C   UNL     1       4.533  -4.229  22.799  1.00  0.00     0.040 A 
ATOM     70  C   UNL     1       3.006  -4.894  24.509  1.00  0.00     0.040 A 
ATOM     71  F   UNL     1       0.886  -5.708  23.974  1.00  0.00    -0.206 F 
ATOM     72  C   UNL     1       4.242  -4.376  24.144  1.00  0.00     0.006 A 
ENDBRANCH  51  65
BRANCH  52  73
ATOM     73  C   UNL     1       1.266   2.932  19.108  1.00  0.00     0.057 A 
ATOM     74  C   UNL     1       2.331   3.160  18.222  1.00  0.00     0.134 A 
ATOM     75  C   UNL     1       1.029   3.935  20.061  1.00  0.00     0.134 A 
ATOM     76  F   UNL     1       2.684   2.232  17.320  1.00  0.00    -0.206 F 
ATOM     77  C   UNL     1       3.134   4.304  18.297  1.00  0.00     0.040 A 
ATOM     78  C   UNL     1       1.826   5.086  20.146  1.00  0.00     0.040 A 
ATOM     79  F   UNL     1       0.060   3.794  20.976  1.00  0.00    -0.206 F 
ATOM     80  C   UNL     1       2.892   5.266  19.271  1.00  0.00     0.006 A 
ENDBRANCH  52  73
BRANCH  64  81
ATOM     81  C   UNL     1      -3.124  -0.913  21.199  1.00  0.00     0.057 A 
ATOM     82  C   UNL     1      -4.176  -0.960  22.120  1.00  0.00     0.134 A 
ATOM     83  C   UNL     1      -3.431  -0.499  19.896  1.00  0.00     0.134 A 
ATOM     84  F   UNL     1      -3.958  -1.385  23.375  1.00  0.00    -0.206 F 
ATOM     85  C   UNL     1      -5.476  -0.595  21.771  1.00  0.00     0.040 A 
ATOM     86  C   UNL     1      -4.723  -0.099  19.542  1.00  0.00     0.040 A 
ATOM     87  F   UNL     1      -2.500  -0.494  18.933  1.00  0.00    -0.206 F 
ATOM     88  C   UNL     1      -5.751  -0.149  20.481  1.00  0.00     0.006 A 
ENDBRANCH  64  81
ENDBRANCH  38  39
ENDBRANCH  31  33
ENDBRANCH  30  31
ENDBRANCH  29  30
ENDBRANCH  28  29
ENDBRANCH   1  28
TORSDOF 16
