REMARK SMILES O=C(OCCOC(=O)[C@H]1C[C@](O)(c2ccc(Cl)cc2)[C@@H](c2ccc(Cl)cc2)O1)c1ccc(-c2c3nc(c(-c4c(F)cccc4F)c4ccc([nH]4)c(-c4c(F)cccc4F)c4nc(c(-c5c(F)cccc5F)c5ccc2[nH]5)C=C4)C=C3)cc1
REMARK SMILES IDX 4 1 3 2 2 3 1 4 29 5 30 6 82 7 31 8 81 9 32 10 33 11 34 12
REMARK SMILES IDX 75 13 35 14 80 15 74 16 76 17 36 18 79 19 73 20 72 21 37 23
REMARK SMILES IDX 63 24 46 25 62 26 47 27 50 28 61 29 77 30 48 31 49 32 60 34
REMARK SMILES IDX 78 35 51 36 38 37 39 38 44 39 40 40 41 41 43 42 45 43 42 44
REMARK SMILES IDX 64 45 65 46 70 47 66 48 67 49 69 50 71 51 68 52 52 53 53 54
REMARK SMILES IDX 58 55 54 56 55 57 57 58 59 59 56 60 5 61 6 62 7 63 8 64 9 65
REMARK SMILES IDX 10 66 28 67 11 68 20 69 13 70 14 71 19 72 15 73 18 74 16 75
REMARK SMILES IDX 17 76 12 77 21 79 22 80 27 81 23 82 26 83 24 84 25 85
REMARK H PARENT 76 22 50 33 12 78
REMARK Flexibility Score: inf
ROOT
ATOM      1  C   UNL     1       5.390  -0.814  -5.867  1.00  0.00     0.275 C 
ENDROOT
BRANCH   1   2
ATOM      2  O   UNL     1       5.609   0.246  -4.905  1.00  0.00    -0.458 OA
BRANCH   2   3
ATOM      3  C   UNL     1       5.465   1.579  -5.183  1.00  0.00     0.338 C 
ATOM      4  O   UNL     1       6.414   2.341  -5.085  1.00  0.00    -0.246 OA
BRANCH   3   5
ATOM      5  C   UNL     1       4.051   2.135  -5.222  1.00  0.00     0.060 A 
ATOM      6  C   UNL     1       2.959   1.399  -5.633  1.00  0.00     0.016 A 
ATOM      7  C   UNL     1       3.735   3.413  -4.741  1.00  0.00     0.016 A 
ATOM      8  C   UNL     1       1.616   1.831  -5.415  1.00  0.00     0.010 A 
ATOM      9  C   UNL     1       2.363   3.796  -4.454  1.00  0.00     0.010 A 
ATOM     10  C   UNL     1       1.251   2.936  -4.667  1.00  0.00    -0.014 A 
BRANCH  10  11
ATOM     11  C   UNL     1      -0.273   3.243  -4.428  1.00  0.00     0.031 A 
ATOM     12  C   UNL     1      -0.779   4.423  -5.126  1.00  0.00     0.074 A 
ATOM     13  C   UNL     1      -1.320   2.596  -3.810  1.00  0.00     0.049 A 
ATOM     14  N   UNL     1      -1.838   5.120  -4.847  1.00  0.00    -0.248 NA
ATOM     15  C   UNL     1       0.028   4.875  -6.255  1.00  0.00     0.031 C 
ATOM     16  C   UNL     1      -1.194   1.331  -3.194  1.00  0.00     0.029 A 
ATOM     17  N   UNL     1      -2.669   2.836  -3.518  1.00  0.00    -0.354 N 
ATOM     18  C   UNL     1      -1.785   6.165  -5.723  1.00  0.00     0.074 A 
ATOM     19  C   UNL     1      -0.549   6.038  -6.477  1.00  0.00     0.031 C 
ATOM     20  C   UNL     1      -2.284   0.848  -2.596  1.00  0.00     0.029 A 
ATOM     21  C   UNL     1      -3.257   1.896  -2.654  1.00  0.00     0.049 A 
ATOM     22  H   UNL     1      -3.165   3.601  -3.889  1.00  0.00     0.167 HD
ATOM     23  C   UNL     1      -2.707   7.126  -5.900  1.00  0.00     0.037 A 
ATOM     24  C   UNL     1      -4.354   1.852  -1.861  1.00  0.00     0.037 A 
ATOM     25  C   UNL     1      -3.977   7.209  -5.242  1.00  0.00     0.049 A 
ATOM     26  C   UNL     1      -5.262   3.021  -1.894  1.00  0.00     0.074 A 
ATOM     27  C   UNL     1      -4.957   8.162  -5.439  1.00  0.00     0.029 A 
ATOM     28  N   UNL     1      -4.465   6.327  -4.288  1.00  0.00    -0.354 N 
ATOM     29  N   UNL     1      -5.114   4.104  -2.602  1.00  0.00    -0.248 NA
ATOM     30  C   UNL     1      -6.464   2.989  -1.050  1.00  0.00     0.031 C 
ATOM     31  C   UNL     1      -6.025   7.881  -4.586  1.00  0.00     0.029 A 
ATOM     32  C   UNL     1      -5.735   6.723  -3.887  1.00  0.00     0.049 A 
ATOM     33  H   UNL     1      -3.983   5.540  -3.946  1.00  0.00     0.167 HD
ATOM     34  C   UNL     1      -6.233   4.862  -2.347  1.00  0.00     0.074 A 
ATOM     35  C   UNL     1      -7.036   4.138  -1.382  1.00  0.00     0.031 C 
ATOM     36  C   UNL     1      -6.557   6.037  -2.924  1.00  0.00     0.037 A 
BRANCH  23  37
ATOM     37  C   UNL     1      -2.261   8.200  -6.817  1.00  0.00     0.057 A 
ATOM     38  C   UNL     1      -2.097   7.981  -8.191  1.00  0.00     0.134 A 
ATOM     39  C   UNL     1      -1.792   9.394  -6.265  1.00  0.00     0.134 A 
ATOM     40  F   UNL     1      -2.453   6.809  -8.741  1.00  0.00    -0.206 F 
ATOM     41  C   UNL     1      -1.409   8.897  -8.977  1.00  0.00     0.040 A 
ATOM     42  C   UNL     1      -1.145  10.337  -7.053  1.00  0.00     0.040 A 
ATOM     43  F   UNL     1      -1.896   9.624  -4.947  1.00  0.00    -0.206 F 
ATOM     44  C   UNL     1      -0.934  10.079  -8.407  1.00  0.00     0.006 A 
ENDBRANCH  23  37
BRANCH  24  45
ATOM     45  C   UNL     1      -4.602   0.764  -0.850  1.00  0.00     0.057 A 
ATOM     46  C   UNL     1      -5.626  -0.182  -0.994  1.00  0.00     0.134 A 
ATOM     47  C   UNL     1      -3.873   0.717   0.350  1.00  0.00     0.134 A 
ATOM     48  F   UNL     1      -6.402  -0.172  -2.086  1.00  0.00    -0.206 F 
ATOM     49  C   UNL     1      -5.914  -1.122   0.008  1.00  0.00     0.040 A 
ATOM     50  C   UNL     1      -4.137  -0.227   1.350  1.00  0.00     0.040 A 
ATOM     51  F   UNL     1      -2.899   1.607   0.580  1.00  0.00    -0.206 F 
ATOM     52  C   UNL     1      -5.166  -1.149   1.183  1.00  0.00     0.006 A 
ENDBRANCH  24  45
BRANCH  36  53
ATOM     53  C   UNL     1      -7.904   6.588  -2.604  1.00  0.00     0.057 A 
ATOM     54  C   UNL     1      -8.188   7.202  -1.381  1.00  0.00     0.134 A 
ATOM     55  C   UNL     1      -8.923   6.522  -3.562  1.00  0.00     0.134 A 
ATOM     56  F   UNL     1      -7.264   7.248  -0.410  1.00  0.00    -0.206 F 
ATOM     57  C   UNL     1      -9.444   7.751  -1.127  1.00  0.00     0.040 A 
ATOM     58  C   UNL     1     -10.173   7.088  -3.329  1.00  0.00     0.040 A 
ATOM     59  F   UNL     1      -8.711   5.918  -4.741  1.00  0.00    -0.206 F 
ATOM     60  C   UNL     1     -10.435   7.708  -2.109  1.00  0.00     0.006 A 
ENDBRANCH  36  53
ENDBRANCH  10  11
ENDBRANCH   3   5
ENDBRANCH   2   3
ENDBRANCH   1   2
BRANCH   1  61
ATOM     61  C   UNL     1       4.895  -2.082  -5.150  1.00  0.00     0.274 C 
BRANCH  61  62
ATOM     62  O   UNL     1       3.783  -1.822  -4.278  1.00  0.00    -0.460 OA
BRANCH  62  63
ATOM     63  C   UNL     1       3.988  -1.770  -2.928  1.00  0.00     0.335 C 
ATOM     64  O   UNL     1       5.076  -1.793  -2.388  1.00  0.00    -0.249 OA
BRANCH  63  65
ATOM     65  C   UNL     1       2.639  -1.793  -2.160  1.00  0.00     0.232 C 
ATOM     66  C   UNL     1       2.361  -0.551  -1.308  1.00  0.00     0.087 C 
ATOM     67  O   UNL     1       1.531  -2.041  -3.028  1.00  0.00    -0.355 OA
ATOM     68  C   UNL     1       1.730   0.428  -2.281  1.00  0.00     0.123 C 
ATOM     69  C   UNL     1       0.820  -0.808  -3.256  1.00  0.00     0.186 C 
BRANCH  68  70
ATOM     70  C   UNL     1       1.301   1.776  -1.403  1.00  0.00    -0.013 A 
ATOM     71  C   UNL     1       2.231   2.830  -1.133  1.00  0.00     0.008 A 
ATOM     72  C   UNL     1       0.041   2.065  -0.838  1.00  0.00     0.008 A 
ATOM     73  C   UNL     1       1.864   4.119  -0.641  1.00  0.00     0.021 A 
ATOM     74  C   UNL     1      -0.368   3.377  -0.429  1.00  0.00     0.021 A 
ATOM     75  C   UNL     1       0.542   4.414  -0.369  1.00  0.00     0.041 A 
ATOM     76  Cl  UNL     1       0.063   6.005   0.087  1.00  0.00    -0.084 Cl
ENDBRANCH  68  70
BRANCH  68  77
ATOM     77  O   UNL     1       2.886   0.786  -3.040  1.00  0.00    -0.382 OA
ATOM     78  H   UNL     1       3.173   0.026  -3.570  1.00  0.00     0.212 HD
ENDBRANCH  68  77
BRANCH  69  79
ATOM     79  C   UNL     1       0.359  -0.874  -4.831  1.00  0.00    -0.016 A 
ATOM     80  C   UNL     1       1.219  -1.220  -5.894  1.00  0.00     0.008 A 
ATOM     81  C   UNL     1      -0.964  -0.622  -5.304  1.00  0.00     0.008 A 
ATOM     82  C   UNL     1       0.900  -1.047  -7.277  1.00  0.00     0.021 A 
ATOM     83  C   UNL     1      -1.311  -0.447  -6.678  1.00  0.00     0.021 A 
ATOM     84  C   UNL     1      -0.358  -0.618  -7.663  1.00  0.00     0.041 A 
ATOM     85  Cl  UNL     1      -0.721  -0.317  -9.319  1.00  0.00    -0.084 Cl
ENDBRANCH  69  79
ENDBRANCH  63  65
ENDBRANCH  62  63
ENDBRANCH  61  62
ENDBRANCH   1  61
TORSDOF 14
