REMARK SMILES Cc1ccc2c(c1)c(-c1ccnc3c(C)cccc13)c(C)n2CC(=O)OCCOC(=O)c1ccc(-c2c3nc(c(-c4c(F)cccc4F)c4ccc([nH]4)c(-c4c(F)cccc4F)c4nc(c(-c5c(F)cccc5F)c5ccc2[nH]5)C=C4)C=C3)cc1
REMARK SMILES IDX 27 1 26 2 24 3 25 4 23 5 22 6 1 7 2 8 3 9 7 10 4 11 6 12
REMARK SMILES IDX 5 13 8 14 20 15 21 16 9 17 10 18 19 19 11 20 13 21 18 22
REMARK SMILES IDX 12 23 14 24 17 25 15 26 16 27 28 28 29 29 30 30 31 31 32 32
REMARK SMILES IDX 33 33 85 34 34 35 84 36 35 37 36 38 37 39 78 40 38 41 83 42
REMARK SMILES IDX 77 43 79 44 39 45 82 46 76 47 75 48 40 50 66 51 49 52 65 53
REMARK SMILES IDX 50 54 53 55 64 56 80 57 51 58 52 59 63 61 81 62 54 63 41 64
REMARK SMILES IDX 42 65 47 66 43 67 44 68 46 69 48 70 45 71 67 72 68 73 73 74
REMARK SMILES IDX 69 75 70 76 72 77 74 78 71 79 55 80 56 81 61 82 57 83 58 84
REMARK SMILES IDX 60 85 62 86 59 87
REMARK H PARENT 79 49 53 60
REMARK Flexibility Score: inf
ROOT
ATOM      1  C   UNL     1      -4.107  -4.736  -4.979  1.00  0.00     0.274 C 
ENDROOT
BRANCH   1   2
ATOM      2  O   UNL     1      -2.889  -3.957  -4.825  1.00  0.00    -0.461 OA
BRANCH   2   3
ATOM      3  C   UNL     1      -1.751  -4.664  -4.606  1.00  0.00     0.326 C 
ATOM      4  O   UNL     1      -1.705  -5.894  -4.608  1.00  0.00    -0.250 OA
BRANCH   3   5
ATOM      5  C   UNL     1      -0.491  -3.863  -4.389  1.00  0.00     0.244 C 
BRANCH   5   6
ATOM      6  N   UNL     1      -0.576  -2.440  -4.083  1.00  0.00    -0.333 N 
ATOM      7  C   UNL     1       0.978   0.469   0.494  1.00  0.00     0.044 C 
ATOM      8  C   UNL     1       0.532  -0.360  -0.670  1.00  0.00    -0.050 A 
ATOM      9  C   UNL     1       0.779  -1.733  -0.666  1.00  0.00     0.005 A 
ATOM     10  C   UNL     1      -0.078   0.239  -1.784  1.00  0.00     0.014 A 
ATOM     11  C   UNL     1       0.420  -2.536  -1.746  1.00  0.00     0.027 A 
ATOM     12  C   UNL     1      -0.403  -0.544  -2.908  1.00  0.00     0.008 A 
ATOM     13  C   UNL     1      -0.161  -1.918  -2.865  1.00  0.00     0.049 A 
ATOM     14  C   UNL     1      -0.929  -0.256  -4.194  1.00  0.00     0.011 A 
ATOM     15  C   UNL     1      -0.738  -1.387  -4.968  1.00  0.00     0.024 A 
ATOM     16  C   UNL     1      -0.707  -1.455  -6.450  1.00  0.00     0.065 C 
BRANCH  14  17
ATOM     17  C   UNL     1      -1.411   0.987  -4.776  1.00  0.00    -0.005 A 
ATOM     18  C   UNL     1      -0.495   1.984  -5.096  1.00  0.00     0.029 A 
ATOM     19  C   UNL     1      -2.790   1.148  -5.081  1.00  0.00     0.008 A 
ATOM     20  C   UNL     1      -0.983   3.125  -5.690  1.00  0.00     0.112 A 
ATOM     21  C   UNL     1      -3.188   2.371  -5.662  1.00  0.00     0.074 A 
ATOM     22  C   UNL     1      -3.764   0.145  -4.837  1.00  0.00     0.011 A 
ATOM     23  N   UNL     1      -2.290   3.336  -5.956  1.00  0.00    -0.256 NA
ATOM     24  C   UNL     1      -4.552   2.564  -5.938  1.00  0.00    -0.025 A 
ATOM     25  C   UNL     1      -5.104   0.343  -5.142  1.00  0.00     0.001 A 
ATOM     26  C   UNL     1      -5.064   3.868  -6.492  1.00  0.00     0.047 C 
ATOM     27  C   UNL     1      -5.499   1.556  -5.679  1.00  0.00     0.005 A 
ENDBRANCH  14  17
ENDBRANCH   5   6
ENDBRANCH   3   5
ENDBRANCH   2   3
ENDBRANCH   1   2
BRANCH   1  28
ATOM     28  C   UNL     1      -4.682  -4.611  -6.394  1.00  0.00     0.275 C 
BRANCH  28  29
ATOM     29  O   UNL     1      -3.865  -5.372  -7.298  1.00  0.00    -0.458 OA
BRANCH  29  30
ATOM     30  C   UNL     1      -3.059  -4.651  -8.111  1.00  0.00     0.338 C 
ATOM     31  O   UNL     1      -3.185  -3.481  -8.436  1.00  0.00    -0.246 OA
BRANCH  30  32
ATOM     32  C   UNL     1      -1.786  -5.388  -8.148  1.00  0.00     0.060 A 
ATOM     33  C   UNL     1      -1.677  -6.747  -8.414  1.00  0.00     0.016 A 
ATOM     34  C   UNL     1      -0.692  -4.681  -7.667  1.00  0.00     0.016 A 
ATOM     35  C   UNL     1      -0.491  -7.401  -8.074  1.00  0.00     0.010 A 
ATOM     36  C   UNL     1       0.460  -5.331  -7.273  1.00  0.00     0.010 A 
ATOM     37  C   UNL     1       0.544  -6.703  -7.429  1.00  0.00    -0.014 A 
BRANCH  37  38
ATOM     38  C   UNL     1       1.840  -7.326  -7.209  1.00  0.00     0.031 A 
ATOM     39  C   UNL     1       2.714  -7.188  -8.393  1.00  0.00     0.074 A 
ATOM     40  C   UNL     1       2.356  -7.847  -6.080  1.00  0.00     0.049 A 
ATOM     41  N   UNL     1       2.841  -8.049  -9.343  1.00  0.00    -0.248 NA
ATOM     42  C   UNL     1       3.360  -5.894  -8.655  1.00  0.00     0.031 C 
ATOM     43  C   UNL     1       1.867  -7.755  -4.706  1.00  0.00     0.029 A 
ATOM     44  N   UNL     1       3.511  -8.573  -5.958  1.00  0.00    -0.354 N 
ATOM     45  C   UNL     1       3.760  -7.496 -10.223  1.00  0.00     0.074 A 
ATOM     46  C   UNL     1       3.862  -6.106  -9.873  1.00  0.00     0.031 C 
ATOM     47  C   UNL     1       2.795  -8.283  -3.867  1.00  0.00     0.029 A 
ATOM     48  C   UNL     1       3.865  -8.883  -4.653  1.00  0.00     0.049 A 
ATOM     49  H   UNL     1       4.047  -8.852  -6.735  1.00  0.00     0.167 HD
ATOM     50  C   UNL     1       4.556  -8.304 -10.972  1.00  0.00     0.037 A 
ATOM     51  C   UNL     1       4.949  -9.600  -4.260  1.00  0.00     0.037 A 
ATOM     52  C   UNL     1       4.097  -9.674 -10.899  1.00  0.00     0.049 A 
ATOM     53  C   UNL     1       5.380 -10.433  -5.408  1.00  0.00     0.074 A 
ATOM     54  C   UNL     1       2.983 -10.378 -11.302  1.00  0.00     0.029 A 
ATOM     55  N   UNL     1       4.734 -10.441  -9.957  1.00  0.00    -0.354 N 
ATOM     56  N   UNL     1       4.715 -11.461  -5.851  1.00  0.00    -0.248 NA
ATOM     57  C   UNL     1       6.450  -9.966  -6.280  1.00  0.00     0.031 C 
ATOM     58  C   UNL     1       2.831 -11.441 -10.361  1.00  0.00     0.029 A 
ATOM     59  C   UNL     1       3.868 -11.361  -9.431  1.00  0.00     0.049 A 
ATOM     60  H   UNL     1       5.679 -10.344  -9.698  1.00  0.00     0.167 HD
ATOM     61  C   UNL     1       4.973 -11.483  -7.207  1.00  0.00     0.074 A 
ATOM     62  C   UNL     1       6.178 -10.684  -7.373  1.00  0.00     0.031 C 
ATOM     63  C   UNL     1       4.011 -11.882  -8.088  1.00  0.00     0.037 A 
BRANCH  50  64
ATOM     64  C   UNL     1       5.982  -7.987 -11.371  1.00  0.00     0.057 A 
ATOM     65  C   UNL     1       6.797  -7.003 -10.776  1.00  0.00     0.134 A 
ATOM     66  C   UNL     1       6.671  -8.924 -12.167  1.00  0.00     0.134 A 
ATOM     67  F   UNL     1       6.322  -6.063  -9.954  1.00  0.00    -0.206 F 
ATOM     68  C   UNL     1       8.189  -6.988 -10.912  1.00  0.00     0.040 A 
ATOM     69  C   UNL     1       8.066  -8.948 -12.266  1.00  0.00     0.040 A 
ATOM     70  F   UNL     1       6.013  -9.906 -12.801  1.00  0.00    -0.206 F 
ATOM     71  C   UNL     1       8.832  -7.985 -11.625  1.00  0.00     0.006 A 
ENDBRANCH  50  64
BRANCH  51  72
ATOM     72  C   UNL     1       5.721  -9.604  -2.998  1.00  0.00     0.057 A 
ATOM     73  C   UNL     1       5.891  -8.430  -2.250  1.00  0.00     0.134 A 
ATOM     74  C   UNL     1       6.554 -10.682  -2.652  1.00  0.00     0.134 A 
ATOM     75  F   UNL     1       5.186  -7.326  -2.535  1.00  0.00    -0.206 F 
ATOM     76  C   UNL     1       6.859  -8.320  -1.244  1.00  0.00     0.040 A 
ATOM     77  C   UNL     1       7.529 -10.584  -1.652  1.00  0.00     0.040 A 
ATOM     78  F   UNL     1       6.490 -11.841  -3.325  1.00  0.00    -0.206 F 
ATOM     79  C   UNL     1       7.695  -9.393  -0.955  1.00  0.00     0.006 A 
ENDBRANCH  51  72
BRANCH  63  80
ATOM     80  C   UNL     1       2.918 -12.760  -7.552  1.00  0.00     0.057 A 
ATOM     81  C   UNL     1       2.762 -14.036  -8.107  1.00  0.00     0.134 A 
ATOM     82  C   UNL     1       1.996 -12.378  -6.567  1.00  0.00     0.134 A 
ATOM     83  F   UNL     1       3.582 -14.453  -9.085  1.00  0.00    -0.206 F 
ATOM     84  C   UNL     1       1.749 -14.902  -7.695  1.00  0.00     0.040 A 
ATOM     85  C   UNL     1       1.002 -13.252  -6.116  1.00  0.00     0.040 A 
ATOM     86  F   UNL     1       2.010 -11.146  -6.040  1.00  0.00    -0.206 F 
ATOM     87  C   UNL     1       0.874 -14.517  -6.684  1.00  0.00     0.006 A 
ENDBRANCH  63  80
ENDBRANCH  37  38
ENDBRANCH  30  32
ENDBRANCH  29  30
ENDBRANCH  28  29
ENDBRANCH   1  28
TORSDOF 13
