REMARK SMILES CC1(C)O[C@@H]2C[C@H]3[C@H]4CCC5=CC(=O)C=C[C@@]5(C)[C@]4(F)[C@H](O)C[C@]3(C)[C@]2(C(=O)OCCOC(=O)c2ccc(-c3c4nc(c(-c5c(F)cccc5F)c5ccc([nH]5)c(-c5c(F)cccc5F)c5nc(c(-c6c(F)cccc6F)c6ccc3[nH]6)C=C5)C=C4)cc2)O1
REMARK SMILES IDX 31 1 30 2 29 3 27 4 28 5 26 6 1 7 2 8 4 9 89 10 3 11 5 12
REMARK SMILES IDX 6 13 24 14 7 15 23 16 25 17 8 18 21 19 9 20 19 21 10 22
REMARK SMILES IDX 17 23 20 24 11 25 16 26 18 27 12 28 15 29 13 30 14 31 22 32
REMARK SMILES IDX 32 34 33 35 34 36 35 37 36 38 88 39 37 40 87 41 38 42 39 43
REMARK SMILES IDX 40 44 81 45 41 46 86 47 80 48 82 49 42 50 85 51 79 52 78 53
REMARK SMILES IDX 43 55 69 56 52 57 68 58 53 59 56 60 67 61 83 62 54 63 55 64
REMARK SMILES IDX 66 66 84 67 57 68 44 69 45 70 50 71 46 72 47 73 49 74 51 75
REMARK SMILES IDX 48 76 70 77 71 78 76 79 72 80 73 81 75 82 77 83 74 84 58 85
REMARK SMILES IDX 59 86 64 87 60 88 61 89 63 90 65 91 62 92
REMARK H PARENT 22 33 82 54 56 65
REMARK Flexibility Score: inf
ROOT
ATOM      1  C   UNL     1      -4.421  -3.867   0.208  1.00  0.00     0.275 C 
ENDROOT
BRANCH   1   2
ATOM      2  C   UNL     1      -2.967  -3.441   0.049  1.00  0.00     0.274 C 
BRANCH   2   3
ATOM      3  O   UNL     1      -2.597  -2.515   1.089  1.00  0.00    -0.460 OA
BRANCH   3   4
ATOM      4  C   UNL     1      -2.500  -1.202   0.725  1.00  0.00     0.342 C 
ATOM      5  O   UNL     1      -2.813  -0.765  -0.376  1.00  0.00    -0.249 OA
BRANCH   4   6
ATOM      6  C   UNL     1      -1.748  -0.400   1.774  1.00  0.00     0.200 C 
ATOM      7  C   UNL     1       0.633  -0.460  -0.583  1.00  0.00     0.075 C 
ATOM      8  C   UNL     1       0.321   0.099   0.804  1.00  0.00     0.165 C 
ATOM      9  O   UNL     1      -0.477   1.277   0.653  1.00  0.00    -0.344 OA
ATOM     10  O   UNL     1      -0.391  -0.901   1.562  1.00  0.00    -0.329 OA
ATOM     11  C   UNL     1       1.611   0.467   1.551  1.00  0.00     0.075 C 
ATOM     12  C   UNL     1      -1.625   1.119   1.485  1.00  0.00     0.166 C 
ATOM     13  C   UNL     1      -1.363   1.819   2.865  1.00  0.00     0.040 C 
ATOM     14  C   UNL     1      -2.169  -0.427   3.302  1.00  0.00     0.016 C 
ATOM     15  C   UNL     1      -1.106   0.609   3.758  1.00  0.00     0.008 C 
ATOM     16  C   UNL     1      -2.115  -1.743   4.105  1.00  0.00     0.046 C 
ATOM     17  C   UNL     1      -3.621   0.096   3.475  1.00  0.00     0.015 C 
ATOM     18  C   UNL     1      -0.365   0.570   5.086  1.00  0.00     0.035 C 
ATOM     19  C   UNL     1      -0.924  -1.901   5.049  1.00  0.00     0.154 C 
ATOM     20  C   UNL     1      -0.217   1.863   5.867  1.00  0.00     0.012 C 
ATOM     21  C   UNL     1      -0.704  -0.645   5.961  1.00  0.00     0.152 C 
ATOM     22  C   UNL     1       1.034   1.710   6.742  1.00  0.00     0.032 C 
ATOM     23  C   UNL     1       0.408  -0.839   7.084  1.00  0.00     0.044 C 
ATOM     24  F   UNL     1      -1.901  -0.367   6.576  1.00  0.00    -0.239 F 
ATOM     25  C   UNL     1       0.965   0.498   7.641  1.00  0.00    -0.053 C 
ATOM     26  C   UNL     1      -0.129  -1.679   8.246  1.00  0.00    -0.009 C 
ATOM     27  C   UNL     1       1.633  -1.629   6.544  1.00  0.00     0.024 C 
ATOM     28  C   UNL     1       1.468   0.581   8.887  1.00  0.00     0.052 C 
ATOM     29  C   UNL     1       0.347  -1.581   9.497  1.00  0.00     0.048 C 
ATOM     30  C   UNL     1       1.374  -0.565   9.817  1.00  0.00     0.178 C 
ATOM     31  O   UNL     1       2.064  -0.636  10.824  1.00  0.00    -0.290 OA
BRANCH  19  32
ATOM     32  O   UNL     1       0.214  -2.195   4.239  1.00  0.00    -0.390 OA
ATOM     33  H   UNL     1       0.366  -1.464   3.619  1.00  0.00     0.211 HD
ENDBRANCH  19  32
ENDBRANCH   4   6
ENDBRANCH   3   4
ENDBRANCH   2   3
ENDBRANCH   1   2
BRANCH   1  34
ATOM     34  O   UNL     1      -5.255  -2.696   0.179  1.00  0.00    -0.458 OA
BRANCH  34  35
ATOM     35  C   UNL     1      -5.999  -2.467   1.280  1.00  0.00     0.338 C 
ATOM     36  O   UNL     1      -6.168  -3.234   2.228  1.00  0.00    -0.246 OA
BRANCH  35  37
ATOM     37  C   UNL     1      -6.541  -1.095   1.270  1.00  0.00     0.060 A 
ATOM     38  C   UNL     1      -5.773  -0.037   0.788  1.00  0.00     0.016 A 
ATOM     39  C   UNL     1      -7.755  -0.822   1.897  1.00  0.00     0.016 A 
ATOM     40  C   UNL     1      -6.138   1.280   1.050  1.00  0.00     0.010 A 
ATOM     41  C   UNL     1      -8.192   0.503   2.025  1.00  0.00     0.010 A 
ATOM     42  C   UNL     1      -7.372   1.578   1.638  1.00  0.00    -0.014 A 
BRANCH  42  43
ATOM     43  C   UNL     1      -7.797   2.995   1.849  1.00  0.00     0.031 A 
ATOM     44  C   UNL     1      -8.309   3.451   3.193  1.00  0.00     0.074 A 
ATOM     45  C   UNL     1      -7.742   3.889   0.838  1.00  0.00     0.049 A 
ATOM     46  N   UNL     1      -8.980   4.533   3.499  1.00  0.00    -0.248 NA
ATOM     47  C   UNL     1      -8.052   2.565   4.340  1.00  0.00     0.031 C 
ATOM     48  C   UNL     1      -7.229   3.630  -0.509  1.00  0.00     0.029 A 
ATOM     49  N   UNL     1      -8.127   5.208   0.788  1.00  0.00    -0.354 N 
ATOM     50  C   UNL     1      -9.297   4.418   4.847  1.00  0.00     0.074 A 
ATOM     51  C   UNL     1      -8.730   3.168   5.307  1.00  0.00     0.031 C 
ATOM     52  C   UNL     1      -7.278   4.757  -1.230  1.00  0.00     0.029 A 
ATOM     53  C   UNL     1      -7.951   5.784  -0.447  1.00  0.00     0.049 A 
ATOM     54  H   UNL     1      -8.493   5.694   1.563  1.00  0.00     0.167 HD
ATOM     55  C   UNL     1     -10.006   5.273   5.624  1.00  0.00     0.037 A 
ATOM     56  C   UNL     1      -8.347   6.974  -0.936  1.00  0.00     0.037 A 
ATOM     57  C   UNL     1     -10.498   6.555   5.183  1.00  0.00     0.049 A 
ATOM     58  C   UNL     1      -9.148   7.894  -0.068  1.00  0.00     0.074 A 
ATOM     59  C   UNL     1     -11.200   7.504   5.907  1.00  0.00     0.029 A 
ATOM     60  N   UNL     1     -10.317   7.078   3.912  1.00  0.00    -0.354 N 
ATOM     61  N   UNL     1      -9.525   7.733   1.176  1.00  0.00    -0.248 NA
ATOM     62  C   UNL     1      -9.608   9.147  -0.682  1.00  0.00     0.031 C 
ATOM     63  C   UNL     1     -11.473   8.587   5.064  1.00  0.00     0.029 A 
ATOM     64  C   UNL     1     -10.903   8.331   3.829  1.00  0.00     0.049 A 
ATOM     65  H   UNL     1      -9.843   6.626   3.177  1.00  0.00     0.167 HD
ATOM     66  C   UNL     1     -10.263   8.863   1.496  1.00  0.00     0.074 A 
ATOM     67  C   UNL     1     -10.260   9.714   0.323  1.00  0.00     0.031 C 
ATOM     68  C   UNL     1     -10.895   9.165   2.656  1.00  0.00     0.037 A 
BRANCH  55  69
ATOM     69  C   UNL     1     -10.330   4.847   7.027  1.00  0.00     0.057 A 
ATOM     70  C   UNL     1      -9.373   4.830   8.047  1.00  0.00     0.134 A 
ATOM     71  C   UNL     1     -11.649   4.517   7.373  1.00  0.00     0.134 A 
ATOM     72  F   UNL     1      -8.091   5.124   7.782  1.00  0.00    -0.206 F 
ATOM     73  C   UNL     1      -9.712   4.489   9.359  1.00  0.00     0.040 A 
ATOM     74  C   UNL     1     -12.004   4.199   8.684  1.00  0.00     0.040 A 
ATOM     75  F   UNL     1     -12.617   4.521   6.444  1.00  0.00    -0.206 F 
ATOM     76  C   UNL     1     -11.033   4.182   9.682  1.00  0.00     0.006 A 
ENDBRANCH  55  69
BRANCH  56  77
ATOM     77  C   UNL     1      -8.051   7.321  -2.349  1.00  0.00     0.057 A 
ATOM     78  C   UNL     1      -7.134   8.327  -2.670  1.00  0.00     0.134 A 
ATOM     79  C   UNL     1      -8.658   6.637  -3.411  1.00  0.00     0.134 A 
ATOM     80  F   UNL     1      -6.541   9.035  -1.698  1.00  0.00    -0.206 F 
ATOM     81  C   UNL     1      -6.829   8.639  -3.996  1.00  0.00     0.040 A 
ATOM     82  C   UNL     1      -8.339   6.917  -4.739  1.00  0.00     0.040 A 
ATOM     83  F   UNL     1      -9.545   5.660  -3.168  1.00  0.00    -0.206 F 
ATOM     84  C   UNL     1      -7.424   7.924  -5.034  1.00  0.00     0.006 A 
ENDBRANCH  56  77
BRANCH  68  85
ATOM     85  C   UNL     1     -11.606  10.482   2.715  1.00  0.00     0.057 A 
ATOM     86  C   UNL     1     -12.821  10.694   2.051  1.00  0.00     0.134 A 
ATOM     87  C   UNL     1     -11.072  11.548   3.449  1.00  0.00     0.134 A 
ATOM     88  F   UNL     1     -13.374   9.716   1.318  1.00  0.00    -0.206 F 
ATOM     89  C   UNL     1     -13.467  11.930   2.095  1.00  0.00     0.040 A 
ATOM     90  C   UNL     1     -11.720  12.782   3.518  1.00  0.00     0.040 A 
ATOM     91  F   UNL     1      -9.914  11.407   4.110  1.00  0.00    -0.206 F 
ATOM     92  C   UNL     1     -12.918  12.977   2.833  1.00  0.00     0.006 A 
ENDBRANCH  68  85
ENDBRANCH  42  43
ENDBRANCH  35  37
ENDBRANCH  34  35
ENDBRANCH   1  34
TORSDOF 12
