REMARK SMILES O=C(OCCOC(=O)c1ccc(-n2cccc2/C=N/NC(=O)c2cccs2)cc1)c1ccc(-c2c3nc(c(-c4c(F)cccc4F)c4ccc([nH]4)c(-c4c(F)cccc4F)c4nc(c(-c5c(F)cccc5F)c5ccc2[nH]5)C=C4)C=C3)cc1
REMARK SMILES IDX 5 1 4 2 3 3 2 4 1 5 30 6 31 7 83 8 32 9 82 10 33 11 34 12
REMARK SMILES IDX 35 13 76 14 36 15 81 16 75 17 77 18 37 19 80 20 74 21 73 22
REMARK SMILES IDX 38 24 64 25 47 26 63 27 48 28 51 29 62 30 78 31 49 32 50 33
REMARK SMILES IDX 61 35 79 36 52 37 39 38 40 39 45 40 41 41 42 42 44 43 46 44
REMARK SMILES IDX 43 45 65 46 66 47 71 48 67 49 68 50 70 51 72 52 69 53 53 54
REMARK SMILES IDX 54 55 59 56 55 57 56 58 58 59 60 60 57 61 6 62 7 63 8 64
REMARK SMILES IDX 9 65 10 66 29 67 11 68 28 69 12 70 13 71 14 72 17 73 15 74
REMARK SMILES IDX 16 75 18 76 19 77 20 78 21 79 22 81 23 82 24 83 27 84 25 85
REMARK SMILES IDX 26 86
REMARK H PARENT 77 23 51 34 20 80
REMARK Flexibility Score: inf
ROOT
ATOM      1  C   UNL     1       4.376  -1.254   1.349  1.00  0.00     0.275 C 
ENDROOT
BRANCH   1   2
ATOM      2  C   UNL     1       4.697   0.235   1.167  1.00  0.00     0.275 C 
BRANCH   2   3
ATOM      3  O   UNL     1       3.593   1.095   0.850  1.00  0.00    -0.458 OA
BRANCH   3   4
ATOM      4  C   UNL     1       2.843   0.849  -0.244  1.00  0.00     0.338 C 
ATOM      5  O   UNL     1       1.680   0.477  -0.175  1.00  0.00    -0.246 OA
BRANCH   4   6
ATOM      6  C   UNL     1       3.416   1.350  -1.524  1.00  0.00     0.060 A 
ATOM      7  C   UNL     1       4.669   0.962  -2.009  1.00  0.00     0.016 A 
ATOM      8  C   UNL     1       2.570   2.096  -2.353  1.00  0.00     0.016 A 
ATOM      9  C   UNL     1       5.086   1.338  -3.288  1.00  0.00     0.010 A 
ATOM     10  C   UNL     1       2.937   2.361  -3.674  1.00  0.00     0.010 A 
ATOM     11  C   UNL     1       4.202   1.982  -4.156  1.00  0.00    -0.014 A 
BRANCH  11  12
ATOM     12  C   UNL     1       4.599   2.304  -5.560  1.00  0.00     0.031 A 
ATOM     13  C   UNL     1       4.732   1.072  -6.544  1.00  0.00     0.074 A 
ATOM     14  C   UNL     1       4.748   3.649  -5.778  1.00  0.00     0.049 A 
ATOM     15  N   UNL     1       4.745   1.006  -7.849  1.00  0.00    -0.248 NA
ATOM     16  C   UNL     1       4.816  -0.304  -5.984  1.00  0.00     0.031 C 
ATOM     17  C   UNL     1       4.644   4.723  -4.755  1.00  0.00     0.029 A 
ATOM     18  N   UNL     1       5.027   4.393  -6.896  1.00  0.00    -0.354 N 
ATOM     19  C   UNL     1       4.627  -0.359  -8.244  1.00  0.00     0.074 A 
ATOM     20  C   UNL     1       4.663  -1.120  -7.035  1.00  0.00     0.031 C 
ATOM     21  C   UNL     1       4.933   5.932  -5.279  1.00  0.00     0.029 A 
ATOM     22  C   UNL     1       5.246   5.780  -6.680  1.00  0.00     0.049 A 
ATOM     23  H   UNL     1       5.072   3.991  -7.794  1.00  0.00     0.167 HD
ATOM     24  C   UNL     1       4.525  -0.788  -9.541  1.00  0.00     0.037 A 
ATOM     25  C   UNL     1       5.725   6.710  -7.562  1.00  0.00     0.037 A 
ATOM     26  C   UNL     1       4.966   0.214 -10.439  1.00  0.00     0.049 A 
ATOM     27  C   UNL     1       5.833   5.972  -8.824  1.00  0.00     0.074 A 
ATOM     28  C   UNL     1       6.180   0.468 -11.024  1.00  0.00     0.029 A 
ATOM     29  N   UNL     1       4.114   1.237 -10.717  1.00  0.00    -0.354 N 
ATOM     30  N   UNL     1       4.828   5.663  -9.579  1.00  0.00    -0.248 NA
ATOM     31  C   UNL     1       7.098   5.288  -9.082  1.00  0.00     0.031 C 
ATOM     32  C   UNL     1       6.104   1.795 -11.494  1.00  0.00     0.029 A 
ATOM     33  C   UNL     1       4.899   2.315 -11.039  1.00  0.00     0.049 A 
ATOM     34  H   UNL     1       3.130   1.209 -10.693  1.00  0.00     0.167 HD
ATOM     35  C   UNL     1       5.256   4.534 -10.237  1.00  0.00     0.074 A 
ATOM     36  C   UNL     1       6.681   4.393  -9.969  1.00  0.00     0.031 C 
ATOM     37  C   UNL     1       4.389   3.600 -10.687  1.00  0.00     0.037 A 
BRANCH  24  38
ATOM     38  C   UNL     1       4.115  -2.067 -10.247  1.00  0.00     0.057 A 
ATOM     39  C   UNL     1       5.018  -2.719 -11.108  1.00  0.00     0.134 A 
ATOM     40  C   UNL     1       2.758  -2.296 -10.546  1.00  0.00     0.134 A 
ATOM     41  F   UNL     1       6.338  -2.521 -10.977  1.00  0.00    -0.206 F 
ATOM     42  C   UNL     1       4.597  -3.482 -12.214  1.00  0.00     0.040 A 
ATOM     43  C   UNL     1       2.321  -3.131 -11.589  1.00  0.00     0.040 A 
ATOM     44  F   UNL     1       1.806  -1.573  -9.943  1.00  0.00    -0.206 F 
ATOM     45  C   UNL     1       3.244  -3.695 -12.457  1.00  0.00     0.006 A 
ENDBRANCH  24  38
BRANCH  25  46
ATOM     46  C   UNL     1       6.303   8.097  -7.513  1.00  0.00     0.057 A 
ATOM     47  C   UNL     1       6.164   9.014  -6.469  1.00  0.00     0.134 A 
ATOM     48  C   UNL     1       7.150   8.540  -8.565  1.00  0.00     0.134 A 
ATOM     49  F   UNL     1       5.297   8.809  -5.471  1.00  0.00    -0.206 F 
ATOM     50  C   UNL     1       6.910  10.209  -6.412  1.00  0.00     0.040 A 
ATOM     51  C   UNL     1       7.916   9.708  -8.511  1.00  0.00     0.040 A 
ATOM     52  F   UNL     1       7.294   7.838  -9.698  1.00  0.00    -0.206 F 
ATOM     53  C   UNL     1       7.818  10.540  -7.413  1.00  0.00     0.006 A 
ENDBRANCH  25  46
BRANCH  37  54
ATOM     54  C   UNL     1       2.936   3.872 -10.419  1.00  0.00     0.057 A 
ATOM     55  C   UNL     1       2.159   4.543 -11.355  1.00  0.00     0.134 A 
ATOM     56  C   UNL     1       2.294   3.473  -9.230  1.00  0.00     0.134 A 
ATOM     57  F   UNL     1       2.704   4.960 -12.507  1.00  0.00    -0.206 F 
ATOM     58  C   UNL     1       0.799   4.785 -11.134  1.00  0.00     0.040 A 
ATOM     59  C   UNL     1       0.933   3.684  -9.004  1.00  0.00     0.040 A 
ATOM     60  F   UNL     1       2.971   2.844  -8.266  1.00  0.00    -0.206 F 
ATOM     61  C   UNL     1       0.179   4.347  -9.963  1.00  0.00     0.006 A 
ENDBRANCH  37  54
ENDBRANCH  11  12
ENDBRANCH   4   6
ENDBRANCH   3   4
ENDBRANCH   2   3
ENDBRANCH   1   2
BRANCH   1  62
ATOM     62  O   UNL     1       3.808  -1.895   0.187  1.00  0.00    -0.458 OA
BRANCH  62  63
ATOM     63  C   UNL     1       2.638  -2.567   0.409  1.00  0.00     0.338 C 
ATOM     64  O   UNL     1       1.975  -2.564   1.432  1.00  0.00    -0.246 OA
BRANCH  63  65
ATOM     65  C   UNL     1       2.251  -3.353  -0.787  1.00  0.00     0.060 A 
ATOM     66  C   UNL     1       0.945  -3.248  -1.296  1.00  0.00     0.018 A 
ATOM     67  C   UNL     1       3.171  -4.203  -1.408  1.00  0.00     0.018 A 
ATOM     68  C   UNL     1       0.586  -3.908  -2.485  1.00  0.00     0.027 A 
ATOM     69  C   UNL     1       2.796  -4.917  -2.550  1.00  0.00     0.027 A 
ATOM     70  C   UNL     1       1.519  -4.738  -3.106  1.00  0.00     0.046 A 
BRANCH  70  71
ATOM     71  N   UNL     1       1.192  -5.470  -4.275  1.00  0.00    -0.316 N 
ATOM     72  C   UNL     1       1.254  -6.848  -4.339  1.00  0.00     0.092 A 
ATOM     73  C   UNL     1       1.027  -4.983  -5.564  1.00  0.00     0.066 A 
ATOM     74  C   UNL     1       1.189  -7.244  -5.653  1.00  0.00     0.021 A 
ATOM     75  C   UNL     1       1.094  -6.071  -6.425  1.00  0.00     0.030 A 
BRANCH  73  76
ATOM     76  C   UNL     1       0.884  -3.610  -5.965  1.00  0.00     0.160 C 
ATOM     77  N   UNL     1       1.504  -3.205  -7.026  1.00  0.00    -0.179 NA
BRANCH  77  78
ATOM     78  N   UNL     1       1.355  -1.924  -7.478  1.00  0.00    -0.242 N 
ATOM     79  C   UNL     1       1.081  -0.720  -6.864  1.00  0.00     0.281 C 
ATOM     80  H   UNL     1       1.466  -1.843  -8.453  1.00  0.00     0.194 HD
ATOM     81  O   UNL     1       0.809   0.255  -7.572  1.00  0.00    -0.266 OA
BRANCH  79  82
ATOM     82  C   UNL     1       1.159  -0.656  -5.432  1.00  0.00     0.094 A 
ATOM     83  C   UNL     1       2.097  -1.222  -4.596  1.00  0.00     0.026 A 
ATOM     84  S   UNL     1      -0.060   0.168  -4.568  1.00  0.00    -0.139 S 
ATOM     85  C   UNL     1       1.822  -0.951  -3.244  1.00  0.00     0.012 A 
ATOM     86  C   UNL     1       0.623  -0.297  -3.078  1.00  0.00     0.065 A 
ENDBRANCH  79  82
ENDBRANCH  77  78
ENDBRANCH  73  76
ENDBRANCH  70  71
ENDBRANCH  63  65
ENDBRANCH  62  63
ENDBRANCH   1  62
TORSDOF 15
