REMARK SMILES Nc1c(CC(=O)OCCOC(=O)c2ccc(-c3c4nc(c(-c5c(F)cccc5F)c5ccc([nH]5)c(-c5c(F)cccc5F)c5nc(c(-c6c(F)cccc6F)c6ccc3[nH]6)C=C5)C=C4)cc2)cccc1C(=O)c1ccc(Br)cc1
REMARK SMILES IDX 8 1 7 2 5 3 6 4 4 5 3 6 2 7 70 8 67 9 69 10 68 11 1 12 71 15
REMARK SMILES IDX 72 16 73 17 74 18 79 19 75 20 78 21 76 22 77 23 9 24 10 25
REMARK SMILES IDX 11 26 12 27 13 28 14 29 66 30 15 31 65 32 16 33 17 34 18 35
REMARK SMILES IDX 59 36 19 37 64 38 58 39 60 40 20 41 63 42 57 43 56 44 21 46
REMARK SMILES IDX 47 47 30 48 46 49 31 50 34 51 45 52 61 53 32 54 33 55 44 57
REMARK SMILES IDX 62 58 35 59 22 60 23 61 28 62 24 63 25 64 27 65 29 66 26 67
REMARK SMILES IDX 48 68 49 69 54 70 50 71 51 72 53 73 55 74 52 75 36 76 37 77
REMARK SMILES IDX 42 78 38 79 39 80 41 81 43 82 40 83
REMARK H PARENT 1 13 1 14 60 45 34 56
REMARK Flexibility Score: inf
ROOT
ATOM      1  C   UNL     1       0.666  -3.346   3.441  1.00  0.00     0.274 C 
ENDROOT
BRANCH   1   2
ATOM      2  O   UNL     1       0.754  -2.554   2.241  1.00  0.00    -0.462 OA
BRANCH   2   3
ATOM      3  C   UNL     1       1.401  -3.123   1.193  1.00  0.00     0.310 C 
ATOM      4  O   UNL     1       1.987  -4.201   1.236  1.00  0.00    -0.252 OA
BRANCH   3   5
ATOM      5  C   UNL     1       1.305  -2.334  -0.089  1.00  0.00     0.160 C 
BRANCH   5   6
ATOM      6  C   UNL     1       0.580  -1.009  -0.029  1.00  0.00    -0.013 A 
ATOM      7  C   UNL     1       1.248   0.185   0.315  1.00  0.00     0.047 A 
ATOM      8  C   UNL     1       0.552   1.407   0.140  1.00  0.00     0.046 A 
ATOM      9  C   UNL     1      -0.797  -0.989  -0.327  1.00  0.00     0.006 A 
ATOM     10  C   UNL     1      -0.821   1.405  -0.162  1.00  0.00     0.014 A 
ATOM     11  C   UNL     1      -1.498   0.210  -0.367  1.00  0.00     0.001 A 
BRANCH   7  12
ATOM     12  N   UNL     1       2.585   0.126   0.712  1.00  0.00    -0.398 N 
ATOM     13  H   UNL     1       3.028  -0.747   0.820  1.00  0.00     0.156 HD
ATOM     14  H   UNL     1       3.085   0.957   0.884  1.00  0.00     0.156 HD
ENDBRANCH   7  12
BRANCH   8  15
ATOM     15  C   UNL     1       1.184   2.755   0.266  1.00  0.00     0.195 C 
ATOM     16  O   UNL     1       0.528   3.716   0.660  1.00  0.00    -0.289 OA
BRANCH  15  17
ATOM     17  C   UNL     1       2.610   2.970  -0.066  1.00  0.00     0.023 A 
ATOM     18  C   UNL     1       3.408   3.631   0.875  1.00  0.00     0.013 A 
ATOM     19  C   UNL     1       3.177   2.445  -1.233  1.00  0.00     0.013 A 
ATOM     20  C   UNL     1       4.788   3.703   0.684  1.00  0.00     0.016 A 
ATOM     21  C   UNL     1       4.559   2.522  -1.424  1.00  0.00     0.016 A 
ATOM     22  C   UNL     1       5.357   3.135  -0.457  1.00  0.00     0.018 A 
ATOM     23  Br  UNL     1       7.234   3.171  -0.680  1.00  0.00    -0.051 Br
ENDBRANCH  15  17
ENDBRANCH   8  15
ENDBRANCH   5   6
ENDBRANCH   3   5
ENDBRANCH   2   3
ENDBRANCH   1   2
BRANCH   1  24
ATOM     24  C   UNL     1      -0.725  -3.962   3.559  1.00  0.00     0.275 C 
BRANCH  24  25
ATOM     25  O   UNL     1      -1.003  -4.768   2.399  1.00  0.00    -0.458 OA
BRANCH  25  26
ATOM     26  C   UNL     1      -2.013  -4.328   1.615  1.00  0.00     0.338 C 
ATOM     27  O   UNL     1      -2.739  -3.367   1.793  1.00  0.00    -0.246 OA
BRANCH  26  28
ATOM     28  C   UNL     1      -2.154  -5.217   0.454  1.00  0.00     0.060 A 
ATOM     29  C   UNL     1      -1.136  -5.305  -0.498  1.00  0.00     0.016 A 
ATOM     30  C   UNL     1      -3.362  -5.884   0.264  1.00  0.00     0.016 A 
ATOM     31  C   UNL     1      -1.346  -6.017  -1.678  1.00  0.00     0.010 A 
ATOM     32  C   UNL     1      -3.541  -6.660  -0.881  1.00  0.00     0.010 A 
ATOM     33  C   UNL     1      -2.544  -6.715  -1.873  1.00  0.00    -0.014 A 
BRANCH  33  34
ATOM     34  C   UNL     1      -2.795  -7.509  -3.101  1.00  0.00     0.031 A 
ATOM     35  C   UNL     1      -3.942  -7.143  -3.998  1.00  0.00     0.074 A 
ATOM     36  C   UNL     1      -2.050  -8.597  -3.370  1.00  0.00     0.049 A 
ATOM     37  N   UNL     1      -4.527  -7.852  -4.928  1.00  0.00    -0.248 NA
ATOM     38  C   UNL     1      -4.517  -5.801  -3.811  1.00  0.00     0.031 C 
ATOM     39  C   UNL     1      -0.874  -9.031  -2.615  1.00  0.00     0.029 A 
ATOM     40  N   UNL     1      -2.197  -9.557  -4.340  1.00  0.00    -0.354 N 
ATOM     41  C   UNL     1      -5.570  -7.066  -5.401  1.00  0.00     0.074 A 
ATOM     42  C   UNL     1      -5.534  -5.823  -4.661  1.00  0.00     0.031 C 
ATOM     43  C   UNL     1      -0.412 -10.176  -3.141  1.00  0.00     0.029 A 
ATOM     44  C   UNL     1      -1.306 -10.595  -4.215  1.00  0.00     0.049 A 
ATOM     45  H   UNL     1      -2.873  -9.507  -5.054  1.00  0.00     0.167 HD
ATOM     46  C   UNL     1      -6.479  -7.366  -6.359  1.00  0.00     0.037 A 
ATOM     47  C   UNL     1      -1.253 -11.781  -4.850  1.00  0.00     0.037 A 
ATOM     48  C   UNL     1      -6.485  -8.594  -7.109  1.00  0.00     0.049 A 
ATOM     49  C   UNL     1      -2.303 -12.117  -5.869  1.00  0.00     0.074 A 
ATOM     50  C   UNL     1      -7.361  -8.996  -8.103  1.00  0.00     0.029 A 
ATOM     51  N   UNL     1      -5.559  -9.614  -6.954  1.00  0.00    -0.354 N 
ATOM     52  N   UNL     1      -3.320 -11.396  -6.273  1.00  0.00    -0.248 NA
ATOM     53  C   UNL     1      -2.211 -13.438  -6.506  1.00  0.00     0.031 C 
ATOM     54  C   UNL     1      -6.979 -10.272  -8.531  1.00  0.00     0.029 A 
ATOM     55  C   UNL     1      -5.845 -10.648  -7.828  1.00  0.00     0.049 A 
ATOM     56  H   UNL     1      -4.809  -9.605  -6.316  1.00  0.00     0.167 HD
ATOM     57  C   UNL     1      -3.974 -12.163  -7.227  1.00  0.00     0.074 A 
ATOM     58  C   UNL     1      -3.239 -13.405  -7.343  1.00  0.00     0.031 C 
ATOM     59  C   UNL     1      -5.085 -11.865  -7.943  1.00  0.00     0.037 A 
BRANCH  46  60
ATOM     60  C   UNL     1      -7.562  -6.364  -6.626  1.00  0.00     0.057 A 
ATOM     61  C   UNL     1      -7.318  -5.177  -7.326  1.00  0.00     0.134 A 
ATOM     62  C   UNL     1      -8.875  -6.612  -6.206  1.00  0.00     0.134 A 
ATOM     63  F   UNL     1      -6.079  -4.875  -7.742  1.00  0.00    -0.206 F 
ATOM     64  C   UNL     1      -8.341  -4.263  -7.587  1.00  0.00     0.040 A 
ATOM     65  C   UNL     1      -9.910  -5.715  -6.478  1.00  0.00     0.040 A 
ATOM     66  F   UNL     1      -9.176  -7.732  -5.533  1.00  0.00    -0.206 F 
ATOM     67  C   UNL     1      -9.643  -4.534  -7.168  1.00  0.00     0.006 A 
ENDBRANCH  46  60
BRANCH  47  68
ATOM     68  C   UNL     1      -0.190 -12.756  -4.501  1.00  0.00     0.057 A 
ATOM     69  C   UNL     1       0.857 -13.026  -5.388  1.00  0.00     0.134 A 
ATOM     70  C   UNL     1      -0.188 -13.427  -3.272  1.00  0.00     0.134 A 
ATOM     71  F   UNL     1       0.895 -12.429  -6.588  1.00  0.00    -0.206 F 
ATOM     72  C   UNL     1       1.867 -13.935  -5.069  1.00  0.00     0.040 A 
ATOM     73  C   UNL     1       0.828 -14.320  -2.930  1.00  0.00     0.040 A 
ATOM     74  F   UNL     1      -1.163 -13.207  -2.378  1.00  0.00    -0.206 F 
ATOM     75  C   UNL     1       1.857 -14.579  -3.833  1.00  0.00     0.006 A 
ENDBRANCH  47  68
BRANCH  59  76
ATOM     76  C   UNL     1      -5.538 -12.871  -8.955  1.00  0.00     0.057 A 
ATOM     77  C   UNL     1      -6.239 -14.024  -8.585  1.00  0.00     0.134 A 
ATOM     78  C   UNL     1      -5.321 -12.648 -10.320  1.00  0.00     0.134 A 
ATOM     79  F   UNL     1      -6.466 -14.296  -7.291  1.00  0.00    -0.206 F 
ATOM     80  C   UNL     1      -6.703 -14.928  -9.541  1.00  0.00     0.040 A 
ATOM     81  C   UNL     1      -5.795 -13.536 -11.286  1.00  0.00     0.040 A 
ATOM     82  F   UNL     1      -4.660 -11.557 -10.735  1.00  0.00    -0.206 F 
ATOM     83  C   UNL     1      -6.488 -14.680 -10.896  1.00  0.00     0.006 A 
ENDBRANCH  59  76
ENDBRANCH  33  34
ENDBRANCH  26  28
ENDBRANCH  25  26
ENDBRANCH  24  25
ENDBRANCH   1  24
TORSDOF 15
