REMARK SMILES CCc1ccc2c(c1)C=C(C(=O)OCCOC(=O)c1ccc(-c3c4nc(c(-c5c(F)cccc5F)c5ccc([nH]5)c(-c5c(F)cccc5F)c5nc(c(-c6c(F)cccc6F)c6ccc3[nH]6)C=C5)C=C4)cc1)[C@H](C(F)(F)F)O2
REMARK SMILES IDX 15 1 14 2 13 3 11 4 12 5 10 6 3 7 4 8 8 9 5 10 7 11 6 12
REMARK SMILES IDX 9 13 78 14 73 15 2 16 1 17 74 18 75 19 76 20 77 21 16 22
REMARK SMILES IDX 17 23 18 24 19 25 20 26 72 27 21 28 71 29 22 30 23 31 24 32
REMARK SMILES IDX 65 33 25 34 70 35 64 36 66 37 26 38 69 39 63 40 62 41 27 43
REMARK SMILES IDX 53 44 36 45 52 46 37 47 40 48 51 49 67 50 38 51 39 52 50 54
REMARK SMILES IDX 68 55 41 56 28 57 29 58 34 59 30 60 31 61 33 62 35 63 32 64
REMARK SMILES IDX 54 65 55 66 60 67 56 68 57 69 59 70 61 71 58 72 42 73 43 74
REMARK SMILES IDX 48 75 44 76 45 77 47 78 49 79 46 80
REMARK H PARENT 66 42 40 53
REMARK Flexibility Score: inf
ROOT
ATOM      1  C   UNL     1       5.638   5.152  -6.255  1.00  0.00     0.275 C 
ENDROOT
BRANCH   1   2
ATOM      2  C   UNL     1       6.197   4.778  -4.879  1.00  0.00     0.275 C 
BRANCH   2   3
ATOM      3  O   UNL     1       5.149   4.580  -3.906  1.00  0.00    -0.459 OA
BRANCH   3   4
ATOM      4  C   UNL     1       5.027   5.546  -2.957  1.00  0.00     0.338 C 
ATOM      5  O   UNL     1       5.710   6.548  -2.889  1.00  0.00    -0.246 OA
BRANCH   4   6
ATOM      6  C   UNL     1       3.920   5.258  -2.012  1.00  0.00     0.087 C 
ATOM      7  C   UNL     1       0.944   2.246   0.357  1.00  0.00    -0.047 A 
ATOM      8  C   UNL     1       0.422   3.354   1.045  1.00  0.00     0.007 A 
ATOM      9  C   UNL     1       1.970   2.459  -0.580  1.00  0.00     0.015 A 
ATOM     10  C   UNL     1       0.942   4.631   0.843  1.00  0.00     0.047 A 
ATOM     11  C   UNL     1       2.487   3.745  -0.800  1.00  0.00     0.018 A 
ATOM     12  C   UNL     1       1.978   4.816  -0.066  1.00  0.00     0.128 A 
ATOM     13  C   UNL     1       3.587   3.984  -1.733  1.00  0.00     0.027 C 
ATOM     14  O   UNL     1       2.518   6.069  -0.127  1.00  0.00    -0.475 OA
ATOM     15  C   UNL     1       3.164   6.419  -1.382  1.00  0.00     0.316 C 
BRANCH   7  16
ATOM     16  C   UNL     1       0.406   0.882   0.728  1.00  0.00     0.032 C 
ATOM     17  C   UNL     1       0.882  -0.303  -0.100  1.00  0.00     0.009 C 
ENDBRANCH   7  16
BRANCH  15  18
ATOM     18  C   UNL     1       3.903   7.752  -1.147  1.00  0.00     0.430 C 
ATOM     19  F   UNL     1       4.171   8.399  -2.303  1.00  0.00    -0.167 F 
ATOM     20  F   UNL     1       3.116   8.604  -0.435  1.00  0.00    -0.167 F 
ATOM     21  F   UNL     1       5.049   7.601  -0.450  1.00  0.00    -0.167 F 
ENDBRANCH  15  18
ENDBRANCH   4   6
ENDBRANCH   3   4
ENDBRANCH   2   3
ENDBRANCH   1   2
BRANCH   1  22
ATOM     22  O   UNL     1       4.913   6.395  -6.212  1.00  0.00    -0.458 OA
BRANCH  22  23
ATOM     23  C   UNL     1       3.572   6.268  -6.074  1.00  0.00     0.338 C 
ATOM     24  O   UNL     1       2.932   5.229  -6.053  1.00  0.00    -0.246 OA
BRANCH  23  25
ATOM     25  C   UNL     1       2.976   7.574  -5.731  1.00  0.00     0.060 A 
ATOM     26  C   UNL     1       2.115   7.598  -4.632  1.00  0.00     0.016 A 
ATOM     27  C   UNL     1       3.226   8.744  -6.451  1.00  0.00     0.016 A 
ATOM     28  C   UNL     1       1.563   8.798  -4.191  1.00  0.00     0.010 A 
ATOM     29  C   UNL     1       2.626   9.944  -6.042  1.00  0.00     0.010 A 
ATOM     30  C   UNL     1       1.806   9.980  -4.900  1.00  0.00    -0.014 A 
BRANCH  30  31
ATOM     31  C   UNL     1       1.111  11.223  -4.488  1.00  0.00     0.031 A 
ATOM     32  C   UNL     1      -0.247  11.524  -5.049  1.00  0.00     0.074 A 
ATOM     33  C   UNL     1       1.661  12.051  -3.580  1.00  0.00     0.049 A 
ATOM     34  N   UNL     1      -1.023  12.557  -4.839  1.00  0.00    -0.248 NA
ATOM     35  C   UNL     1      -0.814  10.517  -5.960  1.00  0.00     0.031 C 
ATOM     36  C   UNL     1       2.935  11.832  -2.898  1.00  0.00     0.029 A 
ATOM     37  N   UNL     1       1.209  13.246  -3.077  1.00  0.00    -0.354 N 
ATOM     38  C   UNL     1      -2.170  12.324  -5.585  1.00  0.00     0.074 A 
ATOM     39  C   UNL     1      -1.983  11.061  -6.266  1.00  0.00     0.031 C 
ATOM     40  C   UNL     1       3.174  12.873  -2.081  1.00  0.00     0.029 A 
ATOM     41  C   UNL     1       2.087  13.844  -2.206  1.00  0.00     0.049 A 
ATOM     42  H   UNL     1       0.338  13.638  -3.318  1.00  0.00     0.167 HD
ATOM     43  C   UNL     1      -3.279  13.095  -5.692  1.00  0.00     0.037 A 
ATOM     44  C   UNL     1       2.032  15.049  -1.605  1.00  0.00     0.037 A 
ATOM     45  C   UNL     1      -3.455  14.364  -5.037  1.00  0.00     0.049 A 
ATOM     46  C   UNL     1       0.839  15.941  -1.837  1.00  0.00     0.074 A 
ATOM     47  C   UNL     1      -4.541  15.221  -5.098  1.00  0.00     0.029 A 
ATOM     48  N   UNL     1      -2.516  14.968  -4.214  1.00  0.00    -0.354 N 
ATOM     49  N   UNL     1      -0.248  15.710  -2.534  1.00  0.00    -0.248 NA
ATOM     50  C   UNL     1       0.865  17.266  -1.199  1.00  0.00     0.031 C 
ATOM     51  C   UNL     1      -4.234  16.369  -4.361  1.00  0.00     0.029 A 
ATOM     52  C   UNL     1      -2.984  16.201  -3.789  1.00  0.00     0.049 A 
ATOM     53  H   UNL     1      -1.646  14.578  -3.969  1.00  0.00     0.167 HD
ATOM     54  C   UNL     1      -1.044  16.841  -2.390  1.00  0.00     0.074 A 
ATOM     55  C   UNL     1      -0.322  17.753  -1.529  1.00  0.00     0.031 C 
ATOM     56  C   UNL     1      -2.264  17.100  -2.923  1.00  0.00     0.037 A 
BRANCH  43  57
ATOM     57  C   UNL     1      -4.371  12.604  -6.595  1.00  0.00     0.057 A 
ATOM     58  C   UNL     1      -5.187  11.518  -6.252  1.00  0.00     0.134 A 
ATOM     59  C   UNL     1      -4.627  13.247  -7.813  1.00  0.00     0.134 A 
ATOM     60  F   UNL     1      -4.983  10.849  -5.107  1.00  0.00    -0.206 F 
ATOM     61  C   UNL     1      -6.205  11.077  -7.098  1.00  0.00     0.040 A 
ATOM     62  C   UNL     1      -5.659  12.831  -8.655  1.00  0.00     0.040 A 
ATOM     63  F   UNL     1      -3.884  14.295  -8.200  1.00  0.00    -0.206 F 
ATOM     64  C   UNL     1      -6.448  11.739  -8.301  1.00  0.00     0.006 A 
ENDBRANCH  43  57
BRANCH  44  65
ATOM     65  C   UNL     1       3.157  15.516  -0.752  1.00  0.00     0.057 A 
ATOM     66  C   UNL     1       2.993  15.733   0.621  1.00  0.00     0.134 A 
ATOM     67  C   UNL     1       4.408  15.819  -1.305  1.00  0.00     0.134 A 
ATOM     68  F   UNL     1       1.810  15.493   1.206  1.00  0.00    -0.206 F 
ATOM     69  C   UNL     1       4.021  16.257   1.408  1.00  0.00     0.040 A 
ATOM     70  C   UNL     1       5.454  16.316  -0.526  1.00  0.00     0.040 A 
ATOM     71  F   UNL     1       4.630  15.644  -2.617  1.00  0.00    -0.206 F 
ATOM     72  C   UNL     1       5.258  16.547   0.834  1.00  0.00     0.006 A 
ENDBRANCH  44  65
BRANCH  56  73
ATOM     73  C   UNL     1      -2.920  18.403  -2.558  1.00  0.00     0.057 A 
ATOM     74  C   UNL     1      -2.452  19.633  -3.038  1.00  0.00     0.134 A 
ATOM     75  C   UNL     1      -4.064  18.421  -1.749  1.00  0.00     0.134 A 
ATOM     76  F   UNL     1      -1.355  19.690  -3.809  1.00  0.00    -0.206 F 
ATOM     77  C   UNL     1      -3.083  20.834  -2.707  1.00  0.00     0.040 A 
ATOM     78  C   UNL     1      -4.721  19.612  -1.435  1.00  0.00     0.040 A 
ATOM     79  F   UNL     1      -4.574  17.279  -1.263  1.00  0.00    -0.206 F 
ATOM     80  C   UNL     1      -4.226  20.825  -1.909  1.00  0.00     0.006 A 
ENDBRANCH  56  73
ENDBRANCH  30  31
ENDBRANCH  23  25
ENDBRANCH  22  23
ENDBRANCH   1  22
TORSDOF 13
