REMARK SMILES [NH3+][C@@H](Cc1cn(-c2nc(Cl)nc(N3CCOCC3)n2)c2ccccc12)C(=O)OCCOC(=O)c1ccc(-c2c3nc(c(-c4c(F)cccc4F)c4ccc([nH]4)c(-c4c(F)cccc4F)c4nc(c(-c5c(F)cccc5F)c5ccc2[nH]5)C=C4)C=C3)cc1
REMARK SMILES IDX 29 1 28 2 26 3 27 4 2 5 1 6 3 10 4 11 5 12 25 13 6 14 20 15
REMARK SMILES IDX 24 16 21 17 23 18 22 19 7 20 8 21 19 22 9 23 12 24 10 25
REMARK SMILES IDX 11 26 13 27 14 28 18 29 15 30 17 31 16 32 30 33 31 34 32 35
REMARK SMILES IDX 33 36 34 37 35 38 87 39 36 40 86 41 37 42 38 43 39 44 80 45
REMARK SMILES IDX 40 46 85 47 79 48 81 49 41 50 84 51 78 52 77 53 42 55 68 56
REMARK SMILES IDX 51 57 67 58 52 59 55 60 66 61 82 62 53 63 54 64 65 66 83 67
REMARK SMILES IDX 56 68 43 69 44 70 49 71 45 72 46 73 48 74 50 75 47 76 69 77
REMARK SMILES IDX 70 78 75 79 71 80 72 81 74 82 76 83 73 84 57 85 58 86 63 87
REMARK SMILES IDX 59 88 60 89 62 90 64 91 61 92
REMARK H PARENT 1 7 1 8 1 9 81 54 55 65
REMARK Flexibility Score: inf
ROOT
ATOM      1  C   UNL     1      -2.901  -0.809  -0.251  1.00  0.00     0.274 C 
ENDROOT
BRANCH   1   2
ATOM      2  O   UNL     1      -1.464  -0.672  -0.232  1.00  0.00    -0.458 OA
BRANCH   2   3
ATOM      3  C   UNL     1      -0.737  -1.633  -0.858  1.00  0.00     0.365 C 
ATOM      4  O   UNL     1      -1.227  -2.598  -1.440  1.00  0.00    -0.245 OA
BRANCH   3   5
ATOM      5  C   UNL     1       0.788  -1.429  -0.745  1.00  0.00     0.296 C 
BRANCH   5   6
ATOM      6  N   UNL     1       1.253  -0.074  -0.355  1.00  0.00    -0.346 N 
ATOM      7  H   UNL     1       2.272  -0.062  -0.314  1.00  0.00     0.345 HD
ATOM      8  H   UNL     1       0.874   0.165   0.561  1.00  0.00     0.345 HD
ATOM      9  H   UNL     1       0.933   0.607  -1.044  1.00  0.00     0.345 HD
ENDBRANCH   5   6
BRANCH   5  10
ATOM     10  C   UNL     1       1.454  -2.517   0.064  1.00  0.00     0.115 C 
BRANCH  10  11
ATOM     11  C   UNL     1       0.841  -2.875   1.363  1.00  0.00    -0.015 A 
ATOM     12  C   UNL     1       0.914  -4.167   1.819  1.00  0.00     0.099 A 
ATOM     13  C   UNL     1       0.122  -2.127   2.351  1.00  0.00     0.004 A 
ATOM     14  N   UNL     1       0.201  -4.276   2.980  1.00  0.00    -0.285 N 
ATOM     15  C   UNL     1      -0.274  -3.033   3.348  1.00  0.00     0.056 A 
ATOM     16  C   UNL     1      -0.249  -0.773   2.519  1.00  0.00     0.010 A 
ATOM     17  C   UNL     1      -0.949  -2.616   4.508  1.00  0.00     0.027 A 
ATOM     18  C   UNL     1      -0.921  -0.350   3.666  1.00  0.00     0.001 A 
ATOM     19  C   UNL     1      -1.250  -1.261   4.656  1.00  0.00     0.002 A 
BRANCH  14  20
ATOM     20  C   UNL     1       0.078  -5.506   3.659  1.00  0.00     0.240 A 
ATOM     21  N   UNL     1      -1.099  -5.884   4.128  1.00  0.00    -0.181 NA
ATOM     22  N   UNL     1       1.184  -6.248   3.662  1.00  0.00    -0.176 NA
ATOM     23  C   UNL     1      -1.089  -7.161   4.488  1.00  0.00     0.228 A 
ATOM     24  C   UNL     1       1.088  -7.462   4.165  1.00  0.00     0.231 A 
ATOM     25  Cl  UNL     1      -2.601  -7.802   4.962  1.00  0.00    -0.041 Cl
ATOM     26  N   UNL     1      -0.062  -8.007   4.516  1.00  0.00    -0.182 NA
BRANCH  24  27
ATOM     27  N   UNL     1       2.260  -8.124   4.354  1.00  0.00    -0.336 N 
ATOM     28  C   UNL     1       3.385  -7.439   4.982  1.00  0.00     0.148 C 
ATOM     29  C   UNL     1       2.474  -9.474   3.873  1.00  0.00     0.148 C 
ATOM     30  C   UNL     1       4.644  -7.585   4.123  1.00  0.00     0.181 C 
ATOM     31  C   UNL     1       3.781  -9.508   3.055  1.00  0.00     0.181 C 
ATOM     32  O   UNL     1       4.892  -8.962   3.790  1.00  0.00    -0.378 OA
ENDBRANCH  24  27
ENDBRANCH  14  20
ENDBRANCH  10  11
ENDBRANCH   5  10
ENDBRANCH   3   5
ENDBRANCH   2   3
ENDBRANCH   1   2
BRANCH   1  33
ATOM     33  C   UNL     1      -3.522   0.525  -0.677  1.00  0.00     0.275 C 
BRANCH  33  34
ATOM     34  O   UNL     1      -3.224   0.749  -2.066  1.00  0.00    -0.458 OA
BRANCH  34  35
ATOM     35  C   UNL     1      -2.080   1.437  -2.310  1.00  0.00     0.338 C 
ATOM     36  O   UNL     1      -1.644   2.374  -1.653  1.00  0.00    -0.246 OA
BRANCH  35  37
ATOM     37  C   UNL     1      -1.289   0.652  -3.291  1.00  0.00     0.060 A 
ATOM     38  C   UNL     1      -1.887  -0.338  -4.079  1.00  0.00     0.016 A 
ATOM     39  C   UNL     1       0.102   0.718  -3.199  1.00  0.00     0.016 A 
ATOM     40  C   UNL     1      -1.114  -1.384  -4.578  1.00  0.00     0.010 A 
ATOM     41  C   UNL     1       0.871  -0.323  -3.717  1.00  0.00     0.010 A 
ATOM     42  C   UNL     1       0.257  -1.440  -4.301  1.00  0.00    -0.014 A 
BRANCH  42  43
ATOM     43  C   UNL     1       1.067  -2.507  -4.910  1.00  0.00     0.031 A 
ATOM     44  C   UNL     1       1.460  -2.085  -6.267  1.00  0.00     0.074 A 
ATOM     45  C   UNL     1       1.478  -3.713  -4.449  1.00  0.00     0.049 A 
ATOM     46  N   UNL     1       0.834  -2.404  -7.348  1.00  0.00    -0.248 NA
ATOM     47  C   UNL     1       2.454  -1.016  -6.424  1.00  0.00     0.031 C 
ATOM     48  C   UNL     1       1.371  -4.294  -3.117  1.00  0.00     0.029 A 
ATOM     49  N   UNL     1       2.147  -4.702  -5.131  1.00  0.00    -0.354 N 
ATOM     50  C   UNL     1       1.488  -1.725  -8.360  1.00  0.00     0.074 A 
ATOM     51  C   UNL     1       2.293  -0.723  -7.715  1.00  0.00     0.031 C 
ATOM     52  C   UNL     1       2.160  -5.396  -3.014  1.00  0.00     0.029 A 
ATOM     53  C   UNL     1       2.666  -5.729  -4.336  1.00  0.00     0.049 A 
ATOM     54  H   UNL     1       2.253  -4.688  -6.110  1.00  0.00     0.167 HD
ATOM     55  C   UNL     1       1.525  -2.245  -9.613  1.00  0.00     0.037 A 
ATOM     56  C   UNL     1       3.397  -6.806  -4.742  1.00  0.00     0.037 A 
ATOM     57  C   UNL     1       0.524  -3.279  -9.770  1.00  0.00     0.049 A 
ATOM     58  C   UNL     1       3.094  -7.018  -6.174  1.00  0.00     0.074 A 
ATOM     59  C   UNL     1      -0.854  -3.339  -9.682  1.00  0.00     0.029 A 
ATOM     60  N   UNL     1       0.958  -4.579  -9.695  1.00  0.00    -0.354 N 
ATOM     61  N   UNL     1       1.954  -7.465  -6.612  1.00  0.00    -0.248 NA
ATOM     62  C   UNL     1       3.924  -6.339  -7.152  1.00  0.00     0.031 C 
ATOM     63  C   UNL     1      -1.144  -4.621  -9.124  1.00  0.00     0.029 A 
ATOM     64  C   UNL     1       0.062  -5.299  -8.952  1.00  0.00     0.049 A 
ATOM     65  H   UNL     1       1.779  -4.934 -10.107  1.00  0.00     0.167 HD
ATOM     66  C   UNL     1       1.713  -6.719  -7.753  1.00  0.00     0.074 A 
ATOM     67  C   UNL     1       3.004  -6.125  -8.095  1.00  0.00     0.031 C 
ATOM     68  C   UNL     1       0.435  -6.431  -8.134  1.00  0.00     0.037 A 
BRANCH  55  69
ATOM     69  C   UNL     1       2.737  -2.153 -10.510  1.00  0.00     0.057 A 
ATOM     70  C   UNL     1       4.044  -1.829 -10.086  1.00  0.00     0.134 A 
ATOM     71  C   UNL     1       2.655  -2.717 -11.795  1.00  0.00     0.134 A 
ATOM     72  F   UNL     1       4.321  -1.327  -8.879  1.00  0.00    -0.206 F 
ATOM     73  C   UNL     1       5.179  -2.098 -10.851  1.00  0.00     0.040 A 
ATOM     74  C   UNL     1       3.789  -3.038 -12.547  1.00  0.00     0.040 A 
ATOM     75  F   UNL     1       1.470  -3.063 -12.321  1.00  0.00    -0.206 F 
ATOM     76  C   UNL     1       5.058  -2.742 -12.069  1.00  0.00     0.006 A 
ENDBRANCH  55  69
BRANCH  56  77
ATOM     77  C   UNL     1       4.495  -7.572  -4.096  1.00  0.00     0.057 A 
ATOM     78  C   UNL     1       5.383  -6.944  -3.209  1.00  0.00     0.134 A 
ATOM     79  C   UNL     1       4.911  -8.825  -4.589  1.00  0.00     0.134 A 
ATOM     80  F   UNL     1       5.117  -5.721  -2.729  1.00  0.00    -0.206 F 
ATOM     81  C   UNL     1       6.623  -7.503  -2.867  1.00  0.00     0.040 A 
ATOM     82  C   UNL     1       6.149  -9.395  -4.254  1.00  0.00     0.040 A 
ATOM     83  F   UNL     1       4.158  -9.495  -5.474  1.00  0.00    -0.206 F 
ATOM     84  C   UNL     1       7.019  -8.724  -3.403  1.00  0.00     0.006 A 
ENDBRANCH  56  77
BRANCH  68  85
ATOM     85  C   UNL     1      -0.678  -7.216  -7.491  1.00  0.00     0.057 A 
ATOM     86  C   UNL     1      -1.547  -7.933  -8.321  1.00  0.00     0.134 A 
ATOM     87  C   UNL     1      -0.978  -7.206  -6.119  1.00  0.00     0.134 A 
ATOM     88  F   UNL     1      -1.349  -7.954  -9.649  1.00  0.00    -0.206 F 
ATOM     89  C   UNL     1      -2.657  -8.616  -7.819  1.00  0.00     0.040 A 
ATOM     90  C   UNL     1      -2.068  -7.915  -5.599  1.00  0.00     0.040 A 
ATOM     91  F   UNL     1      -0.257  -6.481  -5.253  1.00  0.00    -0.206 F 
ATOM     92  C   UNL     1      -2.915  -8.618  -6.451  1.00  0.00     0.006 A 
ENDBRANCH  68  85
ENDBRANCH  42  43
ENDBRANCH  35  37
ENDBRANCH  34  35
ENDBRANCH  33  34
ENDBRANCH   1  33
TORSDOF 16
