REMARK SMILES C[C@@](NC(=O)[C@H]1COc2ccccc21)(C(=O)OCCOC(=O)c1ccc(-c2c3nc(c(-c4c(F)cccc4F)c4ccc([nH]4)c(-c4c(F)cccc4F)c4nc(c(-c5c(F)cccc5F)c5ccc2[nH]5)C=C4)C=C3)cc1)C(F)(F)F
REMARK SMILES IDX 18 1 17 2 15 3 16 4 2 5 1 6 3 7 4 8 5 10 6 11 7 12 14 13
REMARK SMILES IDX 8 14 9 15 13 16 10 17 12 18 11 19 77 20 78 21 79 22 80 23
REMARK SMILES IDX 19 24 20 25 21 26 22 27 23 28 24 29 76 30 25 31 75 32 26 33
REMARK SMILES IDX 27 34 28 35 69 36 29 37 74 38 68 39 70 40 30 41 73 42 67 43
REMARK SMILES IDX 66 44 31 46 57 47 40 48 56 49 41 50 44 51 55 52 71 53 42 54
REMARK SMILES IDX 43 55 54 57 72 58 45 59 32 60 33 61 38 62 34 63 35 64 37 65
REMARK SMILES IDX 39 66 36 67 58 68 59 69 64 70 60 71 61 72 63 73 65 74 62 75
REMARK SMILES IDX 46 76 47 77 52 78 48 79 49 80 51 81 53 82 50 83
REMARK H PARENT 3 9 70 45 44 56
REMARK Flexibility Score: inf
ROOT
ATOM      1  C   UNL     1      -2.529  -0.172  -0.912  1.00  0.00     0.274 C 
ENDROOT
BRANCH   1   2
ATOM      2  O   UNL     1      -1.103  -0.059  -0.724  1.00  0.00    -0.460 OA
BRANCH   2   3
ATOM      3  C   UNL     1      -0.705   0.539   0.436  1.00  0.00     0.341 C 
ATOM      4  O   UNL     1      -1.408   0.574   1.435  1.00  0.00    -0.249 OA
BRANCH   3   5
ATOM      5  C   UNL     1       0.558   1.377   0.314  1.00  0.00     0.231 C 
ATOM      6  C   UNL     1       1.335   1.058  -0.976  1.00  0.00     0.058 C 
BRANCH   5   7
ATOM      7  N   UNL     1       0.121   2.835   0.288  1.00  0.00    -0.332 N 
ATOM      8  C   UNL     1      -0.247   3.495   1.449  1.00  0.00     0.232 C 
ATOM      9  H   UNL     1       0.100   3.318  -0.570  1.00  0.00     0.164 HD
ATOM     10  O   UNL     1       0.668   3.850   2.192  1.00  0.00    -0.274 OA
BRANCH   8  11
ATOM     11  C   UNL     1      -1.679   4.057   1.553  1.00  0.00     0.150 C 
ATOM     12  C   UNL     1      -2.810   3.043   1.411  1.00  0.00     0.248 C 
ATOM     13  C   UNL     1      -2.052   4.489   2.933  1.00  0.00     0.010 A 
ATOM     14  O   UNL     1      -3.043   2.427   2.700  1.00  0.00    -0.492 OA
ATOM     15  C   UNL     1      -2.760   3.463   3.552  1.00  0.00     0.123 A 
ATOM     16  C   UNL     1      -1.837   5.684   3.590  1.00  0.00     0.008 A 
ATOM     17  C   UNL     1      -3.194   3.541   4.858  1.00  0.00     0.047 A 
ATOM     18  C   UNL     1      -2.327   5.813   4.894  1.00  0.00     0.001 A 
ATOM     19  C   UNL     1      -2.980   4.742   5.532  1.00  0.00     0.004 A 
ENDBRANCH   8  11
ENDBRANCH   5   7
BRANCH   5  20
ATOM     20  C   UNL     1       1.442   0.955   1.510  1.00  0.00     0.422 C 
ATOM     21  F   UNL     1       1.722  -0.372   1.453  1.00  0.00    -0.168 F 
ATOM     22  F   UNL     1       2.638   1.597   1.471  1.00  0.00    -0.168 F 
ATOM     23  F   UNL     1       0.894   1.190   2.716  1.00  0.00    -0.168 F 
ENDBRANCH   5  20
ENDBRANCH   3   5
ENDBRANCH   2   3
ENDBRANCH   1   2
BRANCH   1  24
ATOM     24  C   UNL     1      -3.264  -1.348  -0.252  1.00  0.00     0.275 C 
BRANCH  24  25
ATOM     25  O   UNL     1      -3.048  -1.471   1.161  1.00  0.00    -0.458 OA
BRANCH  25  26
ATOM     26  C   UNL     1      -2.123  -2.398   1.499  1.00  0.00     0.338 C 
ATOM     27  O   UNL     1      -1.516  -3.134   0.735  1.00  0.00    -0.246 OA
BRANCH  26  28
ATOM     28  C   UNL     1      -1.833  -2.397   2.942  1.00  0.00     0.060 A 
ATOM     29  C   UNL     1      -0.738  -1.655   3.382  1.00  0.00     0.016 A 
ATOM     30  C   UNL     1      -2.424  -3.336   3.788  1.00  0.00     0.016 A 
ATOM     31  C   UNL     1      -0.174  -1.891   4.627  1.00  0.00     0.010 A 
ATOM     32  C   UNL     1      -1.870  -3.561   5.056  1.00  0.00     0.010 A 
ATOM     33  C   UNL     1      -0.704  -2.881   5.458  1.00  0.00    -0.014 A 
BRANCH  33  34
ATOM     34  C   UNL     1       0.095  -3.319   6.632  1.00  0.00     0.031 A 
ATOM     35  C   UNL     1       0.750  -4.675   6.611  1.00  0.00     0.074 A 
ATOM     36  C   UNL     1       0.351  -2.473   7.647  1.00  0.00     0.049 A 
ATOM     37  N   UNL     1       1.411  -5.295   7.556  1.00  0.00    -0.248 NA
ATOM     38  C   UNL     1       0.649  -5.437   5.354  1.00  0.00     0.031 C 
ATOM     39  C   UNL     1      -0.129  -1.095   7.743  1.00  0.00     0.029 A 
ATOM     40  N   UNL     1       1.106  -2.645   8.781  1.00  0.00    -0.354 N 
ATOM     41  C   UNL     1       1.761  -6.530   7.026  1.00  0.00     0.074 A 
ATOM     42  C   UNL     1       1.238  -6.579   5.678  1.00  0.00     0.031 C 
ATOM     43  C   UNL     1       0.363  -0.537   8.861  1.00  0.00     0.029 A 
ATOM     44  C   UNL     1       1.139  -1.537   9.591  1.00  0.00     0.049 A 
ATOM     45  H   UNL     1       1.578  -3.482   8.993  1.00  0.00     0.167 HD
ATOM     46  C   UNL     1       2.459  -7.534   7.609  1.00  0.00     0.037 A 
ATOM     47  C   UNL     1       1.704  -1.357  10.800  1.00  0.00     0.037 A 
ATOM     48  C   UNL     1       3.026  -7.465   8.930  1.00  0.00     0.049 A 
ATOM     49  C   UNL     1       2.445  -2.496  11.442  1.00  0.00     0.074 A 
ATOM     50  C   UNL     1       3.710  -8.443   9.630  1.00  0.00     0.029 A 
ATOM     51  N   UNL     1       2.999  -6.339   9.738  1.00  0.00    -0.354 N 
ATOM     52  N   UNL     1       2.674  -3.701  10.977  1.00  0.00    -0.248 NA
ATOM     53  C   UNL     1       2.992  -2.256  12.785  1.00  0.00     0.031 C 
ATOM     54  C   UNL     1       4.081  -7.913  10.872  1.00  0.00     0.029 A 
ATOM     55  C   UNL     1       3.656  -6.596  10.929  1.00  0.00     0.049 A 
ATOM     56  H   UNL     1       2.574  -5.483   9.500  1.00  0.00     0.167 HD
ATOM     57  C   UNL     1       3.392  -4.360  11.966  1.00  0.00     0.074 A 
ATOM     58  C   UNL     1       3.587  -3.412  13.044  1.00  0.00     0.031 C 
ATOM     59  C   UNL     1       3.839  -5.639  11.988  1.00  0.00     0.037 A 
BRANCH  46  60
ATOM     60  C   UNL     1       2.615  -8.807   6.832  1.00  0.00     0.057 A 
ATOM     61  C   UNL     1       3.500  -8.917   5.753  1.00  0.00     0.134 A 
ATOM     62  C   UNL     1       1.878  -9.945   7.184  1.00  0.00     0.134 A 
ATOM     63  F   UNL     1       4.220  -7.858   5.353  1.00  0.00    -0.206 F 
ATOM     64  C   UNL     1       3.633 -10.110   5.039  1.00  0.00     0.040 A 
ATOM     65  C   UNL     1       2.019 -11.149   6.493  1.00  0.00     0.040 A 
ATOM     66  F   UNL     1       1.013  -9.906   8.209  1.00  0.00    -0.206 F 
ATOM     67  C   UNL     1       2.896 -11.232   5.413  1.00  0.00     0.006 A 
ENDBRANCH  46  60
BRANCH  47  68
ATOM     68  C   UNL     1       1.545  -0.062  11.506  1.00  0.00     0.057 A 
ATOM     69  C   UNL     1       2.633   0.792  11.721  1.00  0.00     0.134 A 
ATOM     70  C   UNL     1       0.299   0.345  12.000  1.00  0.00     0.134 A 
ATOM     71  F   UNL     1       3.857   0.445  11.299  1.00  0.00    -0.206 F 
ATOM     72  C   UNL     1       2.490   1.998  12.410  1.00  0.00     0.040 A 
ATOM     73  C   UNL     1       0.136   1.559  12.666  1.00  0.00     0.040 A 
ATOM     74  F   UNL     1      -0.782  -0.431  11.831  1.00  0.00    -0.206 F 
ATOM     75  C   UNL     1       1.236   2.387  12.879  1.00  0.00     0.006 A 
ENDBRANCH  47  68
BRANCH  59  76
ATOM     76  C   UNL     1       4.593  -6.073  13.208  1.00  0.00     0.057 A 
ATOM     77  C   UNL     1       3.941  -6.332  14.420  1.00  0.00     0.134 A 
ATOM     78  C   UNL     1       5.982  -6.248  13.166  1.00  0.00     0.134 A 
ATOM     79  F   UNL     1       2.614  -6.170  14.525  1.00  0.00    -0.206 F 
ATOM     80  C   UNL     1       4.648  -6.726  15.556  1.00  0.00     0.040 A 
ATOM     81  C   UNL     1       6.697  -6.662  14.291  1.00  0.00     0.040 A 
ATOM     82  F   UNL     1       6.664  -6.023  12.033  1.00  0.00    -0.206 F 
ATOM     83  C   UNL     1       6.030  -6.896  15.492  1.00  0.00     0.006 A 
ENDBRANCH  59  76
ENDBRANCH  33  34
ENDBRANCH  26  28
ENDBRANCH  25  26
ENDBRANCH  24  25
ENDBRANCH   1  24
TORSDOF 14
