REMARK SMILES Cc1c(CC(=O)N[C@@H](CCO)C(=O)OCCOC(=O)c2ccc(-c3c4nc(c(-c5c(F)cccc5F)c5ccc([nH]5)c(-c5c(F)cccc5F)c5nc(c(-c6c(F)cccc6F)c6ccc3[nH]6)C=C5)C=C4)cc2)cc(-c2ccc(S(C)(=O)=O)cc2)n1-c1ccc(F)cc1
REMARK SMILES IDX 14 1 12 2 13 3 8 4 7 5 5 6 6 7 4 9 3 10 1 11 2 12 86 13
REMARK SMILES IDX 74 14 75 15 87 16 88 17 93 18 89 19 92 20 90 21 91 22 76 23
REMARK SMILES IDX 77 24 85 25 78 26 84 27 79 28 80 29 81 30 82 31 83 32 9 33
REMARK SMILES IDX 10 34 11 35 15 37 16 38 17 39 18 40 19 41 20 42 21 43 73 44
REMARK SMILES IDX 22 45 72 46 23 47 24 48 25 49 66 50 26 51 71 52 65 53 67 54
REMARK SMILES IDX 27 55 70 56 64 57 63 58 28 60 54 61 37 62 53 63 38 64 41 65
REMARK SMILES IDX 52 66 68 67 39 68 40 69 51 71 69 72 42 73 29 74 30 75 35 76
REMARK SMILES IDX 31 77 32 78 34 79 36 80 33 81 55 82 56 83 61 84 57 85 58 86
REMARK SMILES IDX 60 87 62 88 59 89 43 90 44 91 49 92 45 93 46 94 48 95 50 96
REMARK SMILES IDX 47 97
REMARK H PARENT 7 8 11 36 67 59 41 70
REMARK Flexibility Score: inf
ROOT
ATOM      1  O   UNL     1       1.450  -1.372  -6.550  1.00  0.00    -0.461 OA
ENDROOT
BRANCH   1   2
ATOM      2  C   UNL     1       1.838  -0.130  -6.134  1.00  0.00     0.328 C 
ATOM      3  O   UNL     1       2.007   0.827  -6.881  1.00  0.00    -0.250 OA
BRANCH   2   4
ATOM      4  C   UNL     1       1.927  -0.025  -4.594  1.00  0.00     0.194 C 
BRANCH   4   5
ATOM      5  N   UNL     1       1.761  -1.272  -3.838  1.00  0.00    -0.342 N 
ATOM      6  C   UNL     1       0.768  -1.621  -2.966  1.00  0.00     0.225 C 
ATOM      7  O   UNL     1       0.855  -2.718  -2.409  1.00  0.00    -0.275 OA
ATOM      8  H   UNL     1       2.461  -1.950  -3.978  1.00  0.00     0.164 HD
BRANCH   6   9
ATOM      9  C   UNL     1      -0.425  -0.701  -2.731  1.00  0.00     0.137 C 
BRANCH   9  10
ATOM     10  C   UNL     1      -0.058   0.628  -2.131  1.00  0.00    -0.017 A 
ATOM     11  C   UNL     1       1.035  -0.102   0.100  1.00  0.00     0.065 C 
ATOM     12  C   UNL     1       0.626   0.881  -0.951  1.00  0.00     0.024 A 
ATOM     13  N   UNL     1       0.827   2.257  -0.844  1.00  0.00    -0.314 N 
ATOM     14  C   UNL     1      -0.365   1.892  -2.702  1.00  0.00     0.033 A 
ATOM     15  C   UNL     1       0.249   2.879  -1.955  1.00  0.00     0.053 A 
BRANCH  13  16
ATOM     16  C   UNL     1       1.519   2.930   0.203  1.00  0.00     0.046 A 
ATOM     17  C   UNL     1       0.958   4.084   0.771  1.00  0.00     0.029 A 
ATOM     18  C   UNL     1       2.788   2.490   0.601  1.00  0.00     0.029 A 
ATOM     19  C   UNL     1       1.674   4.805   1.725  1.00  0.00     0.041 A 
ATOM     20  C   UNL     1       3.501   3.223   1.551  1.00  0.00     0.041 A 
ATOM     21  C   UNL     1       2.941   4.373   2.100  1.00  0.00     0.123 A 
ATOM     22  F   UNL     1       3.638   5.082   2.996  1.00  0.00    -0.207 F 
ENDBRANCH  13  16
BRANCH  15  23
ATOM     23  C   UNL     1       0.376   4.303  -2.305  1.00  0.00    -0.001 A 
ATOM     24  C   UNL     1       1.633   4.926  -2.373  1.00  0.00     0.011 A 
ATOM     25  C   UNL     1      -0.770   5.056  -2.595  1.00  0.00     0.011 A 
ATOM     26  C   UNL     1       1.742   6.288  -2.669  1.00  0.00     0.021 A 
ATOM     27  C   UNL     1      -0.669   6.417  -2.895  1.00  0.00     0.021 A 
ATOM     28  C   UNL     1       0.584   7.030  -2.911  1.00  0.00     0.067 A 
BRANCH  28  29
ATOM     29  S   UNL     1       0.733   8.760  -3.294  1.00  0.00     0.175 S 
ATOM     30  C   UNL     1       1.331   9.491  -1.793  1.00  0.00     0.163 C 
ATOM     31  O   UNL     1       1.745   8.891  -4.305  1.00  0.00    -0.224 OA
ATOM     32  O   UNL     1      -0.620   9.275  -3.511  1.00  0.00    -0.224 OA
ENDBRANCH  28  29
ENDBRANCH  15  23
ENDBRANCH   9  10
ENDBRANCH   6   9
ENDBRANCH   4   5
BRANCH   4  33
ATOM     33  C   UNL     1       3.143   0.767  -4.078  1.00  0.00     0.065 C 
BRANCH  33  34
ATOM     34  C   UNL     1       4.482   0.043  -4.159  1.00  0.00     0.159 C 
BRANCH  34  35
ATOM     35  O   UNL     1       4.833  -0.219  -5.505  1.00  0.00    -0.396 OA
ATOM     36  H   UNL     1       4.157  -0.784  -5.911  1.00  0.00     0.210 HD
ENDBRANCH  34  35
ENDBRANCH  33  34
ENDBRANCH   4  33
ENDBRANCH   2   4
ENDBRANCH   1   2
BRANCH   1  37
ATOM     37  C   UNL     1       1.276  -1.566  -7.981  1.00  0.00     0.274 C 
BRANCH  37  38
ATOM     38  C   UNL     1       0.081  -2.516  -8.286  1.00  0.00     0.275 C 
BRANCH  38  39
ATOM     39  O   UNL     1      -1.147  -1.953  -8.892  1.00  0.00    -0.458 OA
BRANCH  39  40
ATOM     40  C   UNL     1      -2.311  -1.996  -8.160  1.00  0.00     0.338 C 
ATOM     41  O   UNL     1      -2.324  -2.112  -6.941  1.00  0.00    -0.246 OA
BRANCH  40  42
ATOM     42  C   UNL     1      -3.623  -1.875  -8.969  1.00  0.00     0.060 A 
ATOM     43  C   UNL     1      -4.365  -0.704  -8.915  1.00  0.00     0.016 A 
ATOM     44  C   UNL     1      -4.306  -2.953  -9.584  1.00  0.00     0.016 A 
ATOM     45  C   UNL     1      -5.682  -0.610  -9.516  1.00  0.00     0.010 A 
ATOM     46  C   UNL     1      -5.687  -2.866 -10.137  1.00  0.00     0.010 A 
ATOM     47  C   UNL     1      -6.446  -1.680 -10.135  1.00  0.00    -0.014 A 
BRANCH  47  48
ATOM     48  C   UNL     1      -8.104  -1.450 -10.296  1.00  0.00     0.031 A 
ATOM     49  C   UNL     1      -8.410  -0.746  -9.018  1.00  0.00     0.074 A 
ATOM     50  C   UNL     1      -9.280  -1.760 -11.025  1.00  0.00     0.049 A 
ATOM     51  N   UNL     1      -8.083  -1.324  -7.894  1.00  0.00    -0.248 NA
ATOM     52  C   UNL     1      -8.669   0.690  -8.912  1.00  0.00     0.031 C 
ATOM     53  C   UNL     1      -9.439  -2.696 -12.157  1.00  0.00     0.029 A 
ATOM     54  N   UNL     1     -10.667  -1.317 -10.931  1.00  0.00    -0.354 N 
ATOM     55  C   UNL     1      -8.407  -0.439  -6.902  1.00  0.00     0.074 A 
ATOM     56  C   UNL     1      -8.519   0.841  -7.589  1.00  0.00     0.031 C 
ATOM     57  C   UNL     1     -10.690  -2.647 -12.717  1.00  0.00     0.029 A 
ATOM     58  C   UNL     1     -11.574  -1.715 -12.011  1.00  0.00     0.049 A 
ATOM     59  H   UNL     1     -10.981  -0.773 -10.172  1.00  0.00     0.167 HD
ATOM     60  C   UNL     1      -9.204  -0.955  -5.921  1.00  0.00     0.037 A 
ATOM     61  C   UNL     1     -12.927  -1.416 -12.284  1.00  0.00     0.037 A 
ATOM     62  C   UNL     1     -10.576  -0.567  -6.093  1.00  0.00     0.049 A 
ATOM     63  C   UNL     1     -13.535  -1.137 -10.983  1.00  0.00     0.074 A 
ATOM     64  C   UNL     1     -11.169   0.634  -6.430  1.00  0.00     0.029 A 
ATOM     65  N   UNL     1     -11.483  -1.558  -6.399  1.00  0.00    -0.354 N 
ATOM     66  N   UNL     1     -13.889  -2.102 -10.194  1.00  0.00    -0.248 NA
ATOM     67  C   UNL     1     -13.922   0.202 -10.558  1.00  0.00     0.031 C 
ATOM     68  C   UNL     1     -12.131   0.289  -7.399  1.00  0.00     0.029 A 
ATOM     69  C   UNL     1     -12.406  -1.067  -7.295  1.00  0.00     0.049 A 
ATOM     70  H   UNL     1     -11.472  -2.473  -6.035  1.00  0.00     0.167 HD
ATOM     71  C   UNL     1     -14.010  -1.481  -8.997  1.00  0.00     0.074 A 
ATOM     72  C   UNL     1     -14.304  -0.094  -9.313  1.00  0.00     0.031 C 
ATOM     73  C   UNL     1     -13.233  -1.997  -8.016  1.00  0.00     0.037 A 
BRANCH  60  74
ATOM     74  C   UNL     1      -8.736  -2.307  -5.453  1.00  0.00     0.057 A 
ATOM     75  C   UNL     1      -8.015  -2.395  -4.262  1.00  0.00     0.134 A 
ATOM     76  C   UNL     1      -8.788  -3.463  -6.257  1.00  0.00     0.134 A 
ATOM     77  F   UNL     1      -7.960  -1.348  -3.424  1.00  0.00    -0.206 F 
ATOM     78  C   UNL     1      -7.308  -3.553  -3.922  1.00  0.00     0.040 A 
ATOM     79  C   UNL     1      -8.039  -4.601  -5.960  1.00  0.00     0.040 A 
ATOM     80  F   UNL     1      -9.534  -3.493  -7.373  1.00  0.00    -0.206 F 
ATOM     81  C   UNL     1      -7.284  -4.643  -4.793  1.00  0.00     0.006 A 
ENDBRANCH  60  74
BRANCH  61  82
ATOM     82  C   UNL     1     -14.126  -1.460 -13.329  1.00  0.00     0.057 A 
ATOM     83  C   UNL     1     -15.508  -1.546 -12.904  1.00  0.00     0.134 A 
ATOM     84  C   UNL     1     -14.019  -1.003 -14.647  1.00  0.00     0.134 A 
ATOM     85  F   UNL     1     -15.854  -2.027 -11.702  1.00  0.00    -0.206 F 
ATOM     86  C   UNL     1     -16.624  -1.093 -13.645  1.00  0.00     0.040 A 
ATOM     87  C   UNL     1     -15.147  -0.581 -15.421  1.00  0.00     0.040 A 
ATOM     88  F   UNL     1     -12.816  -0.873 -15.217  1.00  0.00    -0.206 F 
ATOM     89  C   UNL     1     -16.445  -0.580 -14.910  1.00  0.00     0.006 A 
ENDBRANCH  61  82
BRANCH  73  90
ATOM     90  C   UNL     1     -13.199  -3.511  -7.891  1.00  0.00     0.057 A 
ATOM     91  C   UNL     1     -12.976  -4.457  -8.918  1.00  0.00     0.134 A 
ATOM     92  C   UNL     1     -13.510  -4.049  -6.636  1.00  0.00     0.134 A 
ATOM     93  F   UNL     1     -12.553  -4.112 -10.143  1.00  0.00    -0.206 F 
ATOM     94  C   UNL     1     -13.152  -5.834  -8.718  1.00  0.00     0.040 A 
ATOM     95  C   UNL     1     -13.630  -5.423  -6.411  1.00  0.00     0.040 A 
ATOM     96  F   UNL     1     -13.700  -3.236  -5.585  1.00  0.00    -0.206 F 
ATOM     97  C   UNL     1     -13.481  -6.321  -7.461  1.00  0.00     0.006 A 
ENDBRANCH  73  90
ENDBRANCH  47  48
ENDBRANCH  40  42
ENDBRANCH  39  40
ENDBRANCH  38  39
ENDBRANCH  37  38
ENDBRANCH   1  37
TORSDOF 20
