REMARK SMILES O=C(OCCOC(=O)[C@@H]1CCCN(C(=O)c2c(F)cc(Br)cc2F)C1)c1ccc(-c2c3nc(c(-c4c(F)cccc4F)c4ccc([nH]4)c(-c4c(F)cccc4F)c4nc(c(-c5c(F)cccc5F)c5ccc2[nH]5)C=C4)C=C3)cc1
REMARK SMILES IDX 4 1 3 2 2 3 1 4 26 5 27 6 79 7 28 8 78 9 29 10 30 11 31 12
REMARK SMILES IDX 72 13 32 14 77 15 71 16 73 17 33 18 76 19 70 20 69 21 34 23
REMARK SMILES IDX 60 24 43 25 59 26 44 27 47 28 58 29 74 30 45 31 46 32 57 34
REMARK SMILES IDX 75 35 48 36 35 37 36 38 41 39 37 40 38 41 40 42 42 43 39 44
REMARK SMILES IDX 61 45 62 46 67 47 63 48 64 49 66 50 68 51 65 52 49 53 50 54
REMARK SMILES IDX 55 55 51 56 52 57 54 58 56 59 53 60 5 61 6 62 7 63 8 64 9 65
REMARK SMILES IDX 10 66 25 67 11 68 13 69 12 70 14 71 15 72 16 73 17 74 23 75
REMARK SMILES IDX 18 76 19 77 22 78 24 79 20 80 21 81
REMARK H PARENT 73 22 47 33
REMARK Flexibility Score: inf
ROOT
ATOM      1  C   UNL     1       4.684  -1.562   0.066  1.00  0.00     0.275 C 
ENDROOT
BRANCH   1   2
ATOM      2  O   UNL     1       3.680  -0.951   0.885  1.00  0.00    -0.458 OA
BRANCH   2   3
ATOM      3  C   UNL     1       3.686   0.317   1.358  1.00  0.00     0.338 C 
ATOM      4  O   UNL     1       3.032   0.578   2.367  1.00  0.00    -0.246 OA
BRANCH   3   5
ATOM      5  C   UNL     1       4.247   1.461   0.566  1.00  0.00     0.060 A 
ATOM      6  C   UNL     1       5.304   1.412  -0.349  1.00  0.00     0.016 A 
ATOM      7  C   UNL     1       3.571   2.684   0.717  1.00  0.00     0.016 A 
ATOM      8  C   UNL     1       5.595   2.496  -1.182  1.00  0.00     0.010 A 
ATOM      9  C   UNL     1       3.825   3.756  -0.137  1.00  0.00     0.010 A 
ATOM     10  C   UNL     1       4.846   3.667  -1.092  1.00  0.00    -0.014 A 
BRANCH  10  11
ATOM     11  C   UNL     1       5.306   4.888  -1.783  1.00  0.00     0.031 A 
ATOM     12  C   UNL     1       5.909   5.946  -0.909  1.00  0.00     0.074 A 
ATOM     13  C   UNL     1       5.202   5.049  -3.114  1.00  0.00     0.049 A 
ATOM     14  N   UNL     1       6.273   7.163  -1.200  1.00  0.00    -0.248 NA
ATOM     15  C   UNL     1       6.062   5.593   0.515  1.00  0.00     0.031 C 
ATOM     16  C   UNL     1       4.639   4.079  -4.055  1.00  0.00     0.029 A 
ATOM     17  N   UNL     1       5.576   6.102  -3.908  1.00  0.00    -0.354 N 
ATOM     18  C   UNL     1       6.644   7.724   0.014  1.00  0.00     0.074 A 
ATOM     19  C   UNL     1       6.349   6.763   1.048  1.00  0.00     0.031 C 
ATOM     20  C   UNL     1       4.723   4.577  -5.302  1.00  0.00     0.029 A 
ATOM     21  C   UNL     1       5.325   5.907  -5.246  1.00  0.00     0.049 A 
ATOM     22  H   UNL     1       5.988   6.923  -3.553  1.00  0.00     0.167 HD
ATOM     23  C   UNL     1       7.242   8.913   0.246  1.00  0.00     0.037 A 
ATOM     24  C   UNL     1       5.569   6.723  -6.291  1.00  0.00     0.037 A 
ATOM     25  C   UNL     1       7.593   9.821  -0.804  1.00  0.00     0.049 A 
ATOM     26  C   UNL     1       6.231   8.054  -6.019  1.00  0.00     0.074 A 
ATOM     27  C   UNL     1       8.222  11.045  -0.718  1.00  0.00     0.029 A 
ATOM     28  N   UNL     1       7.352   9.576  -2.150  1.00  0.00    -0.354 N 
ATOM     29  N   UNL     1       6.609   8.571  -4.872  1.00  0.00    -0.248 NA
ATOM     30  C   UNL     1       6.510   8.909  -7.181  1.00  0.00     0.031 C 
ATOM     31  C   UNL     1       8.333  11.559  -2.014  1.00  0.00     0.029 A 
ATOM     32  C   UNL     1       7.819  10.630  -2.909  1.00  0.00     0.049 A 
ATOM     33  H   UNL     1       6.913   8.771  -2.509  1.00  0.00     0.167 HD
ATOM     34  C   UNL     1       7.208   9.787  -5.177  1.00  0.00     0.074 A 
ATOM     35  C   UNL     1       7.143   9.930  -6.618  1.00  0.00     0.031 C 
ATOM     36  C   UNL     1       7.766  10.706  -4.349  1.00  0.00     0.037 A 
BRANCH  23  37
ATOM     37  C   UNL     1       7.523   9.247   1.681  1.00  0.00     0.057 A 
ATOM     38  C   UNL     1       8.432   8.502   2.451  1.00  0.00     0.134 A 
ATOM     39  C   UNL     1       6.783  10.236   2.336  1.00  0.00     0.134 A 
ATOM     40  F   UNL     1       9.149   7.515   1.891  1.00  0.00    -0.206 F 
ATOM     41  C   UNL     1       8.533   8.676   3.832  1.00  0.00     0.040 A 
ATOM     42  C   UNL     1       6.907  10.447   3.710  1.00  0.00     0.040 A 
ATOM     43  F   UNL     1       5.897  10.984   1.662  1.00  0.00    -0.206 F 
ATOM     44  C   UNL     1       7.766   9.650   4.465  1.00  0.00     0.006 A 
ENDBRANCH  23  37
BRANCH  24  45
ATOM     45  C   UNL     1       5.231   6.307  -7.680  1.00  0.00     0.057 A 
ATOM     46  C   UNL     1       6.234   6.040  -8.622  1.00  0.00     0.134 A 
ATOM     47  C   UNL     1       3.904   6.194  -8.113  1.00  0.00     0.134 A 
ATOM     48  F   UNL     1       7.526   6.145  -8.278  1.00  0.00    -0.206 F 
ATOM     49  C   UNL     1       5.933   5.705  -9.945  1.00  0.00     0.040 A 
ATOM     50  C   UNL     1       3.588   5.836  -9.427  1.00  0.00     0.040 A 
ATOM     51  F   UNL     1       2.893   6.427  -7.264  1.00  0.00    -0.206 F 
ATOM     52  C   UNL     1       4.604   5.600 -10.350  1.00  0.00     0.006 A 
ENDBRANCH  24  45
BRANCH  36  53
ATOM     53  C   UNL     1       8.408  11.907  -4.973  1.00  0.00     0.057 A 
ATOM     54  C   UNL     1       7.653  12.957  -5.508  1.00  0.00     0.134 A 
ATOM     55  C   UNL     1       9.800  12.062  -4.925  1.00  0.00     0.134 A 
ATOM     56  F   UNL     1       6.317  12.863  -5.588  1.00  0.00    -0.206 F 
ATOM     57  C   UNL     1       8.262  14.121  -5.976  1.00  0.00     0.040 A 
ATOM     58  C   UNL     1      10.417  13.233  -5.362  1.00  0.00     0.040 A 
ATOM     59  F   UNL     1      10.575  11.095  -4.411  1.00  0.00    -0.206 F 
ATOM     60  C   UNL     1       9.646  14.267  -5.889  1.00  0.00     0.006 A 
ENDBRANCH  36  53
ENDBRANCH  10  11
ENDBRANCH   3   5
ENDBRANCH   2   3
ENDBRANCH   1   2
BRANCH   1  61
ATOM     61  C   UNL     1       4.370  -1.522  -1.434  1.00  0.00     0.274 C 
BRANCH  61  62
ATOM     62  O   UNL     1       3.546  -0.401  -1.827  1.00  0.00    -0.462 OA
BRANCH  62  63
ATOM     63  C   UNL     1       2.324  -0.731  -2.336  1.00  0.00     0.310 C 
ATOM     64  O   UNL     1       1.954  -1.886  -2.474  1.00  0.00    -0.252 OA
BRANCH  63  65
ATOM     65  C   UNL     1       1.536   0.465  -2.882  1.00  0.00     0.119 C 
ATOM     66  C   UNL     1       1.725   1.824  -2.200  1.00  0.00     0.019 C 
ATOM     67  C   UNL     1       0.038   0.132  -2.897  1.00  0.00     0.135 C 
ATOM     68  C   UNL     1       0.978   1.974  -0.869  1.00  0.00     0.022 C 
ATOM     69  N   UNL     1      -0.492   0.154  -1.533  1.00  0.00    -0.338 N 
ATOM     70  C   UNL     1      -0.448   1.459  -0.891  1.00  0.00     0.120 C 
BRANCH  69  71
ATOM     71  C   UNL     1      -0.817  -1.062  -0.939  1.00  0.00     0.259 C 
ATOM     72  O   UNL     1      -0.975  -2.102  -1.576  1.00  0.00    -0.269 OA
BRANCH  71  73
ATOM     73  C   UNL     1      -0.944  -1.176   0.516  1.00  0.00     0.111 A 
ATOM     74  C   UNL     1      -2.033  -0.636   1.188  1.00  0.00     0.140 A 
ATOM     75  C   UNL     1      -0.056  -2.001   1.208  1.00  0.00     0.140 A 
ATOM     76  F   UNL     1      -2.916   0.143   0.547  1.00  0.00    -0.206 F 
ATOM     77  C   UNL     1      -2.236  -0.901   2.541  1.00  0.00     0.056 A 
ATOM     78  C   UNL     1      -0.251  -2.285   2.558  1.00  0.00     0.056 A 
ATOM     79  F   UNL     1       0.999  -2.550   0.589  1.00  0.00    -0.206 F 
ATOM     80  C   UNL     1      -1.349  -1.738   3.217  1.00  0.00     0.023 A 
ATOM     81  Br  UNL     1      -1.660  -2.161   5.032  1.00  0.00    -0.051 Br
ENDBRANCH  71  73
ENDBRANCH  69  71
ENDBRANCH  63  65
ENDBRANCH  62  63
ENDBRANCH  61  62
ENDBRANCH   1  61
TORSDOF 13
