REMARK SMILES O=C(OCCOC(=O)[C@H]1[C@H]2CC[C@H](CC2)[C@@H]1C(=O)Nc1ccc(Cc2ccncc2)cc1)c1ccc(-c2c3nc(c(-c4c(F)cccc4F)c4ccc([nH]4)c(-c4c(F)cccc4F)c4nc(c(-c5c(F)cccc5F)c5ccc2[nH]5)C=C4)C=C3)cc1
REMARK SMILES IDX 5 1 4 2 3 3 2 4 1 5 33 6 34 7 86 8 35 9 85 10 36 11 37 12
REMARK SMILES IDX 38 13 79 14 39 15 84 16 78 17 80 18 40 19 83 20 77 21 76 22
REMARK SMILES IDX 41 24 67 25 50 26 66 27 51 28 54 29 65 30 81 31 52 32 53 33
REMARK SMILES IDX 64 35 82 36 55 37 42 38 43 39 48 40 44 41 45 42 47 43 49 44
REMARK SMILES IDX 46 45 68 46 69 47 74 48 70 49 71 50 73 51 75 52 72 53 56 54
REMARK SMILES IDX 57 55 62 56 58 57 59 58 61 59 63 60 60 61 6 62 7 63 8 64
REMARK SMILES IDX 9 65 10 66 16 67 15 68 11 69 13 70 14 71 12 72 17 73 18 74
REMARK SMILES IDX 19 75 20 77 21 78 32 79 22 80 31 81 23 82 24 83 25 84 26 85
REMARK SMILES IDX 30 86 27 87 29 88 28 89
REMARK H PARENT 80 23 54 34 19 76
REMARK Flexibility Score: inf
ROOT
ATOM      1  C   UNL     1       2.899  -2.181   1.238  1.00  0.00     0.274 C 
ENDROOT
BRANCH   1   2
ATOM      2  C   UNL     1       3.819  -1.064   1.790  1.00  0.00     0.275 C 
BRANCH   2   3
ATOM      3  O   UNL     1       3.183   0.225   1.849  1.00  0.00    -0.458 OA
BRANCH   3   4
ATOM      4  C   UNL     1       3.272   1.090   0.819  1.00  0.00     0.338 C 
ATOM      5  O   UNL     1       2.723   2.180   0.782  1.00  0.00    -0.246 OA
BRANCH   4   6
ATOM      6  C   UNL     1       3.924   0.554  -0.365  1.00  0.00     0.060 A 
ATOM      7  C   UNL     1       5.571   0.697  -0.765  1.00  0.00     0.016 A 
ATOM      8  C   UNL     1       2.940  -0.004  -1.618  1.00  0.00     0.016 A 
ATOM      9  C   UNL     1       6.245   0.289  -2.613  1.00  0.00     0.010 A 
ATOM     10  C   UNL     1       3.473  -0.444  -3.349  1.00  0.00     0.010 A 
ATOM     11  C   UNL     1       5.125  -0.236  -3.876  1.00  0.00    -0.014 A 
BRANCH  11  12
ATOM     12  C   UNL     1       5.555  -0.231  -5.287  1.00  0.00     0.031 A 
ATOM     13  C   UNL     1       6.059   1.030  -5.947  1.00  0.00     0.074 A 
ATOM     14  C   UNL     1       5.534  -1.389  -5.957  1.00  0.00     0.049 A 
ATOM     15  N   UNL     1       6.831   1.187  -6.994  1.00  0.00    -0.248 NA
ATOM     16  C   UNL     1       5.646   2.301  -5.346  1.00  0.00     0.031 C 
ATOM     17  C   UNL     1       5.027  -2.655  -5.433  1.00  0.00     0.029 A 
ATOM     18  N   UNL     1       5.984  -1.690  -7.212  1.00  0.00    -0.354 N 
ATOM     19  C   UNL     1       7.062   2.560  -7.100  1.00  0.00     0.074 A 
ATOM     20  C   UNL     1       6.324   3.200  -6.041  1.00  0.00     0.031 C 
ATOM     21  C   UNL     1       5.211  -3.609  -6.357  1.00  0.00     0.029 A 
ATOM     22  C   UNL     1       5.868  -3.020  -7.520  1.00  0.00     0.049 A 
ATOM     23  H   UNL     1       6.353  -1.020  -7.831  1.00  0.00     0.167 HD
ATOM     24  C   UNL     1       7.800   3.232  -8.016  1.00  0.00     0.037 A 
ATOM     25  C   UNL     1       6.289  -3.686  -8.608  1.00  0.00     0.037 A 
ATOM     26  C   UNL     1       8.361   2.589  -9.172  1.00  0.00     0.049 A 
ATOM     27  C   UNL     1       7.083  -2.932  -9.638  1.00  0.00     0.074 A 
ATOM     28  C   UNL     1       9.097   3.132 -10.208  1.00  0.00     0.029 A 
ATOM     29  N   UNL     1       8.178   1.244  -9.465  1.00  0.00    -0.354 N 
ATOM     30  N   UNL     1       7.434  -1.666  -9.650  1.00  0.00    -0.248 NA
ATOM     31  C   UNL     1       7.566  -3.702 -10.789  1.00  0.00     0.031 C 
ATOM     32  C   UNL     1       9.305   2.125 -11.158  1.00  0.00     0.029 A 
ATOM     33  C   UNL     1       8.758   0.942 -10.680  1.00  0.00     0.049 A 
ATOM     34  H   UNL     1       7.704   0.600  -8.891  1.00  0.00     0.167 HD
ATOM     35  C   UNL     1       8.196  -1.489 -10.797  1.00  0.00     0.074 A 
ATOM     36  C   UNL     1       8.271  -2.788 -11.441  1.00  0.00     0.031 C 
ATOM     37  C   UNL     1       8.784  -0.367 -11.284  1.00  0.00     0.037 A 
BRANCH  24  38
ATOM     38  C   UNL     1       7.985   4.716  -7.828  1.00  0.00     0.057 A 
ATOM     39  C   UNL     1       8.758   5.230  -6.775  1.00  0.00     0.134 A 
ATOM     40  C   UNL     1       7.405   5.646  -8.702  1.00  0.00     0.134 A 
ATOM     41  F   UNL     1       9.336   4.404  -5.890  1.00  0.00    -0.206 F 
ATOM     42  C   UNL     1       8.928   6.606  -6.587  1.00  0.00     0.040 A 
ATOM     43  C   UNL     1       7.584   7.024  -8.535  1.00  0.00     0.040 A 
ATOM     44  F   UNL     1       6.653   5.235  -9.733  1.00  0.00    -0.206 F 
ATOM     45  C   UNL     1       8.342   7.508  -7.471  1.00  0.00     0.006 A 
ENDBRANCH  24  38
BRANCH  25  46
ATOM     46  C   UNL     1       6.018  -5.141  -8.715  1.00  0.00     0.057 A 
ATOM     47  C   UNL     1       7.042  -6.088  -8.613  1.00  0.00     0.134 A 
ATOM     48  C   UNL     1       4.708  -5.621  -8.852  1.00  0.00     0.134 A 
ATOM     49  F   UNL     1       8.316  -5.695  -8.477  1.00  0.00    -0.206 F 
ATOM     50  C   UNL     1       6.776  -7.459  -8.656  1.00  0.00     0.040 A 
ATOM     51  C   UNL     1       4.425  -6.987  -8.869  1.00  0.00     0.040 A 
ATOM     52  F   UNL     1       3.678  -4.765  -8.928  1.00  0.00    -0.206 F 
ATOM     53  C   UNL     1       5.463  -7.911  -8.776  1.00  0.00     0.006 A 
ENDBRANCH  25  46
BRANCH  37  54
ATOM     54  C   UNL     1       9.550  -0.507 -12.564  1.00  0.00     0.057 A 
ATOM     55  C   UNL     1       8.904  -0.702 -13.790  1.00  0.00     0.134 A 
ATOM     56  C   UNL     1      10.945  -0.389 -12.570  1.00  0.00     0.134 A 
ATOM     57  F   UNL     1       7.569  -0.827 -13.845  1.00  0.00    -0.206 F 
ATOM     58  C   UNL     1       9.624  -0.807 -14.979  1.00  0.00     0.040 A 
ATOM     59  C   UNL     1      11.673  -0.461 -13.757  1.00  0.00     0.040 A 
ATOM     60  F   UNL     1      11.618  -0.184 -11.428  1.00  0.00    -0.206 F 
ATOM     61  C   UNL     1      11.012  -0.678 -14.964  1.00  0.00     0.006 A 
ENDBRANCH  37  54
ENDBRANCH  11  12
ENDBRANCH   4   6
ENDBRANCH   3   4
ENDBRANCH   2   3
ENDBRANCH   1   2
BRANCH   1  62
ATOM     62  O   UNL     1       2.515  -2.100  -0.168  1.00  0.00    -0.462 OA
BRANCH  62  63
ATOM     63  C   UNL     1       1.223  -1.783  -0.553  1.00  0.00     0.310 C 
ATOM     64  O   UNL     1       0.315  -1.574   0.235  1.00  0.00    -0.252 OA
BRANCH  63  65
ATOM     65  C   UNL     1       1.114  -1.632  -2.142  1.00  0.00     0.115 C 
ATOM     66  C   UNL     1       0.225  -2.748  -2.709  1.00  0.00     0.004 C 
ATOM     67  C   UNL     1       0.687  -0.085  -2.781  1.00  0.00     0.096 C 
ATOM     68  C   UNL     1      -1.230  -2.494  -2.348  1.00  0.00     0.005 C 
ATOM     69  C   UNL     1       0.381  -2.723  -4.237  1.00  0.00     0.005 C 
ATOM     70  C   UNL     1      -0.547  -0.414  -3.690  1.00  0.00     0.002 C 
ATOM     71  C   UNL     1      -1.634  -1.080  -2.786  1.00  0.00     0.005 C 
ATOM     72  C   UNL     1      -0.202  -1.423  -4.804  1.00  0.00     0.005 C 
BRANCH  67  73
ATOM     73  C   UNL     1       1.715   1.342  -3.367  1.00  0.00     0.228 C 
ATOM     74  O   UNL     1       1.138   2.104  -4.170  1.00  0.00    -0.274 OA
ATOM     75  N   UNL     1       3.104   1.842  -2.973  1.00  0.00    -0.326 N 
ATOM     76  H   UNL     1       3.193   2.811  -3.122  1.00  0.00     0.169 HD
BRANCH  75  77
ATOM     77  C   UNL     1       4.546   1.168  -2.342  1.00  0.00     0.041 A 
ATOM     78  C   UNL     1       5.944   2.309  -2.069  1.00  0.00     0.026 A 
ATOM     79  C   UNL     1       4.882  -0.753  -1.806  1.00  0.00     0.026 A 
ATOM     80  C   UNL     1       7.460   1.628  -1.336  1.00  0.00     0.006 A 
ATOM     81  C   UNL     1       6.391  -1.296  -1.117  1.00  0.00     0.006 A 
ATOM     82  C   UNL     1       7.630  -0.110  -0.859  1.00  0.00    -0.043 A 
BRANCH  82  83
ATOM     83  C   UNL     1       8.638  -0.681   0.117  1.00  0.00     0.071 C 
BRANCH  83  84
ATOM     84  C   UNL     1       9.768  -1.407  -0.538  1.00  0.00    -0.041 A 
ATOM     85  C   UNL     1      10.846  -0.653  -0.985  1.00  0.00     0.024 A 
ATOM     86  C   UNL     1       9.787  -2.797  -0.732  1.00  0.00     0.024 A 
ATOM     87  C   UNL     1      11.902  -1.304  -1.588  1.00  0.00     0.111 A 
ATOM     88  C   UNL     1      10.897  -3.357  -1.348  1.00  0.00     0.111 A 
ATOM     89  N   UNL     1      11.958  -2.640  -1.773  1.00  0.00    -0.265 NA
ENDBRANCH  83  84
ENDBRANCH  82  83
ENDBRANCH  75  77
ENDBRANCH  67  73
ENDBRANCH  63  65
ENDBRANCH  62  63
ENDBRANCH   1  62
TORSDOF 15
