REMARK SMILES Cc1cccc(-c2cc(C[C@]3(C(=O)OCCOC(=O)c4ccc(-c5c6nc(c(-c7c(F)cccc7F)c7ccc([nH]7)c(-c7c(F)cccc7F)c7nc(c(-c8c(F)cccc8F)c8ccc5[nH]8)C=C7)C=C6)cc4)CCCN(C(=O)C(C)C)C3)on2)c1
REMARK SMILES IDX 15 1 14 2 12 3 13 4 11 5 74 6 83 7 75 8 77 9 76 10 10 11
REMARK SMILES IDX 9 12 7 13 8 14 85 15 84 16 6 17 1 18 2 19 3 20 86 21 4 22
REMARK SMILES IDX 5 23 78 24 79 25 80 26 81 27 82 28 16 29 17 30 18 31 19 32
REMARK SMILES IDX 20 33 21 34 73 35 22 36 72 37 23 38 24 39 25 40 66 41 26 42
REMARK SMILES IDX 71 43 65 44 67 45 27 46 70 47 64 48 63 49 28 51 54 52 37 53
REMARK SMILES IDX 53 54 38 55 41 56 52 57 68 58 39 59 40 60 51 62 69 63 42 64
REMARK SMILES IDX 29 65 30 66 35 67 31 68 32 69 34 70 36 71 33 72 55 73 56 74
REMARK SMILES IDX 61 75 57 76 58 77 60 78 62 79 59 80 43 81 44 82 49 83 45 84
REMARK SMILES IDX 46 85 48 86 50 87 47 88
REMARK H PARENT 67 50 41 61
REMARK Flexibility Score: inf
ROOT
ATOM      1  C   UNL     1      -6.790   8.977  -2.759  1.00  0.00     0.274 C 
ENDROOT
BRANCH   1   2
ATOM      2  O   UNL     1      -6.218   7.917  -1.826  1.00  0.00    -0.462 OA
BRANCH   2   3
ATOM      3  C   UNL     1      -5.864   6.678  -2.306  1.00  0.00     0.314 C 
ATOM      4  O   UNL     1      -6.402   6.359  -3.361  1.00  0.00    -0.252 OA
BRANCH   3   5
ATOM      5  C   UNL     1      -4.812   5.570  -1.392  1.00  0.00     0.093 C 
ATOM      6  C   UNL     1      -5.577   5.590  -0.085  1.00  0.00     0.023 C 
ATOM      7  C   UNL     1      -5.096   4.379  -2.341  1.00  0.00     0.138 C 
ATOM      8  C   UNL     1      -5.559   4.222   0.528  1.00  0.00     0.023 C 
ATOM      9  N   UNL     1      -4.976   3.169  -1.668  1.00  0.00    -0.341 N 
ATOM     10  C   UNL     1      -5.904   3.139  -0.516  1.00  0.00     0.119 C 
BRANCH   5  11
ATOM     11  C   UNL     1      -3.060   5.426  -0.852  1.00  0.00     0.099 C 
BRANCH  11  12
ATOM     12  C   UNL     1      -2.323   4.257  -0.226  1.00  0.00     0.138 A 
ATOM     13  C   UNL     1      -1.129   2.490   0.400  1.00  0.00     0.114 A 
ATOM     14  C   UNL     1      -1.336   3.398  -0.687  1.00  0.00     0.077 A 
ATOM     15  N   UNL     1      -1.676   2.982   1.523  1.00  0.00    -0.080 NA
ATOM     16  O   UNL     1      -2.356   4.133   1.135  1.00  0.00    -0.361 OA
BRANCH  13  17
ATOM     17  C   UNL     1      -0.603   1.119   0.286  1.00  0.00     0.004 A 
ATOM     18  C   UNL     1       2.838  -0.139  -0.037  1.00  0.00     0.044 C 
ATOM     19  C   UNL     1       1.363  -0.170   0.021  1.00  0.00    -0.050 A 
ATOM     20  C   UNL     1       0.652  -1.380   0.005  1.00  0.00     0.003 A 
ATOM     21  C   UNL     1       0.743   1.065   0.127  1.00  0.00     0.014 A 
ATOM     22  C   UNL     1      -0.713  -1.357   0.056  1.00  0.00     0.001 A 
ATOM     23  C   UNL     1      -1.310  -0.118   0.206  1.00  0.00     0.010 A 
ENDBRANCH  13  17
ENDBRANCH  11  12
ENDBRANCH   5  11
BRANCH   9  24
ATOM     24  C   UNL     1      -4.064   2.273  -2.206  1.00  0.00     0.225 C 
ATOM     25  O   UNL     1      -3.291   2.534  -3.131  1.00  0.00    -0.275 OA
BRANCH  24  26
ATOM     26  C   UNL     1      -3.983   0.964  -1.511  1.00  0.00     0.072 C 
ATOM     27  C   UNL     1      -3.806   1.307  -0.064  1.00  0.00     0.018 C 
ATOM     28  C   UNL     1      -5.178   0.102  -1.702  1.00  0.00     0.018 C 
ENDBRANCH  24  26
ENDBRANCH   9  24
ENDBRANCH   3   5
ENDBRANCH   2   3
ENDBRANCH   1   2
BRANCH   1  29
ATOM     29  C   UNL     1      -6.212  10.360  -2.292  1.00  0.00     0.275 C 
BRANCH  29  30
ATOM     30  O   UNL     1      -4.800  10.603  -2.058  1.00  0.00    -0.458 OA
BRANCH  30  31
ATOM     31  C   UNL     1      -4.006   9.610  -1.649  1.00  0.00     0.338 C 
ATOM     32  O   UNL     1      -3.414   9.563  -0.583  1.00  0.00    -0.246 OA
BRANCH  31  33
ATOM     33  C   UNL     1      -3.812   8.686  -2.780  1.00  0.00     0.060 A 
ATOM     34  C   UNL     1      -3.377   7.443  -2.560  1.00  0.00     0.016 A 
ATOM     35  C   UNL     1      -4.323   8.789  -4.015  1.00  0.00     0.016 A 
ATOM     36  C   UNL     1      -3.263   6.466  -3.667  1.00  0.00     0.010 A 
ATOM     37  C   UNL     1      -4.405   7.664  -4.825  1.00  0.00     0.010 A 
ATOM     38  C   UNL     1      -3.481   6.656  -4.997  1.00  0.00    -0.014 A 
BRANCH  38  39
ATOM     39  C   UNL     1      -3.729   6.901  -6.467  1.00  0.00     0.031 A 
ATOM     40  C   UNL     1      -4.916   5.524  -6.612  1.00  0.00     0.074 A 
ATOM     41  C   UNL     1      -2.979   8.083  -7.130  1.00  0.00     0.049 A 
ATOM     42  N   UNL     1      -4.790   4.349  -7.171  1.00  0.00    -0.248 NA
ATOM     43  C   UNL     1      -6.206   5.183  -5.713  1.00  0.00     0.031 C 
ATOM     44  C   UNL     1      -2.550   8.703  -8.639  1.00  0.00     0.029 A 
ATOM     45  N   UNL     1      -2.046   8.989  -6.502  1.00  0.00    -0.354 N 
ATOM     46  C   UNL     1      -6.130   3.917  -7.463  1.00  0.00     0.074 A 
ATOM     47  C   UNL     1      -6.926   4.230  -6.346  1.00  0.00     0.031 C 
ATOM     48  C   UNL     1      -1.210   9.042  -8.656  1.00  0.00     0.029 A 
ATOM     49  C   UNL     1      -0.827   9.026  -7.282  1.00  0.00     0.049 A 
ATOM     50  H   UNL     1      -2.213   9.499  -5.677  1.00  0.00     0.167 HD
ATOM     51  C   UNL     1      -6.576   3.932  -8.751  1.00  0.00     0.037 A 
ATOM     52  C   UNL     1       0.164   8.241  -6.838  1.00  0.00     0.037 A 
ATOM     53  C   UNL     1      -5.544   4.657  -9.469  1.00  0.00     0.049 A 
ATOM     54  C   UNL     1      -0.086   6.956  -7.658  1.00  0.00     0.074 A 
ATOM     55  C   UNL     1      -5.471   5.980  -9.844  1.00  0.00     0.029 A 
ATOM     56  N   UNL     1      -4.243   4.187  -9.399  1.00  0.00    -0.354 N 
ATOM     57  N   UNL     1      -1.210   6.352  -8.005  1.00  0.00    -0.248 NA
ATOM     58  C   UNL     1       1.062   6.475  -8.348  1.00  0.00     0.031 C 
ATOM     59  C   UNL     1      -4.097   6.248 -10.102  1.00  0.00     0.029 A 
ATOM     60  C   UNL     1      -3.320   5.147  -9.750  1.00  0.00     0.049 A 
ATOM     61  H   UNL     1      -4.005   3.271  -9.129  1.00  0.00     0.167 HD
ATOM     62  C   UNL     1      -0.967   5.481  -9.049  1.00  0.00     0.074 A 
ATOM     63  C   UNL     1       0.475   5.599  -9.153  1.00  0.00     0.031 C 
ATOM     64  C   UNL     1      -1.894   4.762  -9.788  1.00  0.00     0.037 A 
BRANCH  51  65
ATOM     65  C   UNL     1      -7.939   3.675  -9.389  1.00  0.00     0.057 A 
ATOM     66  C   UNL     1      -8.049   3.989 -10.765  1.00  0.00     0.134 A 
ATOM     67  C   UNL     1      -9.095   3.063  -8.857  1.00  0.00     0.134 A 
ATOM     68  F   UNL     1      -7.032   4.527 -11.448  1.00  0.00    -0.206 F 
ATOM     69  C   UNL     1      -9.173   3.742 -11.550  1.00  0.00     0.040 A 
ATOM     70  C   UNL     1     -10.247   2.804  -9.649  1.00  0.00     0.040 A 
ATOM     71  F   UNL     1      -9.162   2.655  -7.580  1.00  0.00    -0.206 F 
ATOM     72  C   UNL     1     -10.283   3.140 -11.000  1.00  0.00     0.006 A 
ENDBRANCH  51  65
BRANCH  52  73
ATOM     73  C   UNL     1       0.087   8.390  -5.370  1.00  0.00     0.057 A 
ATOM     74  C   UNL     1      -0.149   9.684  -4.741  1.00  0.00     0.134 A 
ATOM     75  C   UNL     1      -0.311   7.261  -4.711  1.00  0.00     0.134 A 
ATOM     76  F   UNL     1       0.021  10.833  -5.421  1.00  0.00    -0.206 F 
ATOM     77  C   UNL     1      -0.848   9.793  -3.556  1.00  0.00     0.040 A 
ATOM     78  C   UNL     1      -0.684   7.383  -3.408  1.00  0.00     0.040 A 
ATOM     79  F   UNL     1      -0.579   6.105  -5.342  1.00  0.00    -0.206 F 
ATOM     80  C   UNL     1      -0.948   8.636  -2.825  1.00  0.00     0.006 A 
ENDBRANCH  52  73
BRANCH  64  81
ATOM     81  C   UNL     1      -1.517   3.544 -10.675  1.00  0.00     0.057 A 
ATOM     82  C   UNL     1      -0.213   3.132 -10.980  1.00  0.00     0.134 A 
ATOM     83  C   UNL     1      -2.471   2.663 -11.250  1.00  0.00     0.134 A 
ATOM     84  F   UNL     1       0.895   3.753 -10.639  1.00  0.00    -0.206 F 
ATOM     85  C   UNL     1       0.140   2.017 -11.724  1.00  0.00     0.040 A 
ATOM     86  C   UNL     1      -2.133   1.525 -11.999  1.00  0.00     0.040 A 
ATOM     87  F   UNL     1      -3.796   2.819 -11.152  1.00  0.00    -0.206 F 
ATOM     88  C   UNL     1      -0.818   1.201 -12.246  1.00  0.00     0.006 A 
ENDBRANCH  64  81
ENDBRANCH  38  39
ENDBRANCH  31  33
ENDBRANCH  30  31
ENDBRANCH  29  30
ENDBRANCH   1  29
TORSDOF 16
