REMARK SMILES C[C@]1(C(=O)N2CCC(CC(=O)OCCOC(=O)c3ccc(-c4c5nc(c(-c6c(F)cccc6F)c6ccc([nH]6)c(-c6c(F)cccc6F)c6nc(c(-c7c(F)cccc7F)c7ccc4[nH]7)C=C6)C=C5)cc3)CC2)CCC[NH2+]C1
REMARK SMILES IDX 13 1 12 2 10 3 11 4 9 5 8 6 3 7 4 8 5 9 6 10 73 11 7 12
REMARK SMILES IDX 72 13 2 14 1 15 74 16 78 17 75 18 77 19 76 20 14 23 15 24
REMARK SMILES IDX 16 25 17 26 18 27 19 28 71 29 20 30 70 31 21 32 22 33 23 34
REMARK SMILES IDX 64 35 24 36 69 37 63 38 65 39 25 40 68 41 62 42 61 43 26 45
REMARK SMILES IDX 52 46 35 47 51 48 36 49 39 50 50 51 66 52 37 53 38 54 49 56
REMARK SMILES IDX 67 57 40 58 27 59 28 60 33 61 29 62 30 63 32 64 34 65 31 66
REMARK SMILES IDX 53 67 54 68 59 69 55 70 56 71 58 72 60 73 57 74 41 75 42 76
REMARK SMILES IDX 47 77 43 78 44 79 46 80 48 81 45 82
REMARK H PARENT 77 21 77 22 65 44 39 55
REMARK Flexibility Score: inf
ROOT
ATOM      1  C   UNL     1      -2.088  -6.095   3.320  1.00  0.00     0.274 C 
ENDROOT
BRANCH   1   2
ATOM      2  O   UNL     1      -1.412  -4.829   3.196  1.00  0.00    -0.462 OA
BRANCH   2   3
ATOM      3  C   UNL     1      -0.824  -4.354   4.322  1.00  0.00     0.306 C 
ATOM      4  O   UNL     1      -0.864  -4.900   5.419  1.00  0.00    -0.252 OA
BRANCH   3   5
ATOM      5  C   UNL     1      -0.150  -3.019   4.110  1.00  0.00     0.126 C 
BRANCH   5   6
ATOM      6  C   UNL     1       0.652  -2.868   2.802  1.00  0.00     0.003 C 
ATOM      7  C   UNL     1       1.769   0.293   0.264  1.00  0.00     0.234 C 
ATOM      8  O   UNL     1       2.934   0.628   0.014  1.00  0.00    -0.274 OA
ATOM      9  N   UNL     1       1.532  -0.943   0.832  1.00  0.00    -0.342 N 
ATOM     10  C   UNL     1       2.526  -1.482   1.746  1.00  0.00     0.120 C 
ATOM     11  C   UNL     1       0.512  -1.897   0.434  1.00  0.00     0.120 C 
ATOM     12  C   UNL     1       1.835  -1.903   3.039  1.00  0.00     0.026 C 
ATOM     13  C   UNL     1      -0.263  -2.396   1.651  1.00  0.00     0.026 C 
BRANCH   7  14
ATOM     14  C   UNL     1       0.596   1.260  -0.059  1.00  0.00     0.095 C 
ATOM     15  C   UNL     1       0.321   1.172  -1.569  1.00  0.00     0.028 C 
ATOM     16  C   UNL     1      -0.726   1.073   0.717  1.00  0.00     0.028 C 
ATOM     17  C   UNL     1       1.099   2.696   0.280  1.00  0.00     0.277 C 
ATOM     18  C   UNL     1      -0.571   1.348   2.210  1.00  0.00     0.063 C 
ATOM     19  N   UNL     1       1.257   2.922   1.725  1.00  0.00    -0.345 N 
ATOM     20  C   UNL     1       0.011   2.735   2.457  1.00  0.00     0.260 C 
ATOM     21  H   UNL     1       1.950   2.266   2.086  1.00  0.00     0.346 HD
ATOM     22  H   UNL     1       1.552   3.889   1.858  1.00  0.00     0.346 HD
ENDBRANCH   7  14
ENDBRANCH   5   6
ENDBRANCH   3   5
ENDBRANCH   2   3
ENDBRANCH   1   2
BRANCH   1  23
ATOM     23  C   UNL     1      -1.203  -7.250   2.850  1.00  0.00     0.275 C 
BRANCH  23  24
ATOM     24  O   UNL     1      -0.085  -7.449   3.735  1.00  0.00    -0.458 OA
BRANCH  24  25
ATOM     25  C   UNL     1       1.077  -6.882   3.337  1.00  0.00     0.338 C 
ATOM     26  O   UNL     1       1.293  -6.273   2.305  1.00  0.00    -0.246 OA
BRANCH  25  27
ATOM     27  C   UNL     1       2.076  -7.026   4.405  1.00  0.00     0.060 A 
ATOM     28  C   UNL     1       2.460  -5.892   5.126  1.00  0.00     0.016 A 
ATOM     29  C   UNL     1       2.688  -8.258   4.634  1.00  0.00     0.016 A 
ATOM     30  C   UNL     1       3.467  -5.987   6.085  1.00  0.00     0.010 A 
ATOM     31  C   UNL     1       3.695  -8.352   5.598  1.00  0.00     0.010 A 
ATOM     32  C   UNL     1       4.098  -7.216   6.322  1.00  0.00    -0.014 A 
BRANCH  32  33
ATOM     33  C   UNL     1       5.208  -7.312   7.299  1.00  0.00     0.031 A 
ATOM     34  C   UNL     1       6.622  -7.448   6.815  1.00  0.00     0.074 A 
ATOM     35  C   UNL     1       4.945  -7.289   8.618  1.00  0.00     0.049 A 
ATOM     36  N   UNL     1       7.717  -7.650   7.502  1.00  0.00    -0.248 NA
ATOM     37  C   UNL     1       6.831  -7.346   5.362  1.00  0.00     0.031 C 
ATOM     38  C   UNL     1       3.618  -7.128   9.212  1.00  0.00     0.029 A 
ATOM     39  N   UNL     1       5.784  -7.413   9.697  1.00  0.00    -0.354 N 
ATOM     40  C   UNL     1       8.743  -7.715   6.569  1.00  0.00     0.074 A 
ATOM     41  C   UNL     1       8.138  -7.548   5.264  1.00  0.00     0.031 C 
ATOM     42  C   UNL     1       3.731  -7.170  10.550  1.00  0.00     0.029 A 
ATOM     43  C   UNL     1       5.129  -7.403  10.904  1.00  0.00     0.049 A 
ATOM     44  H   UNL     1       6.761  -7.502   9.614  1.00  0.00     0.167 HD
ATOM     45  C   UNL     1      10.068  -7.892   6.782  1.00  0.00     0.037 A 
ATOM     46  C   UNL     1       5.600  -7.589  12.151  1.00  0.00     0.037 A 
ATOM     47  C   UNL     1      10.669  -8.046   8.081  1.00  0.00     0.049 A 
ATOM     48  C   UNL     1       7.067  -7.845  12.357  1.00  0.00     0.074 A 
ATOM     49  C   UNL     1      12.007  -8.212   8.399  1.00  0.00     0.029 A 
ATOM     50  N   UNL     1       9.970  -8.052   9.278  1.00  0.00    -0.354 N 
ATOM     51  N   UNL     1       8.029  -7.902  11.468  1.00  0.00    -0.248 NA
ATOM     52  C   UNL     1       7.514  -8.069  13.739  1.00  0.00     0.031 C 
ATOM     53  C   UNL     1      12.112  -8.356   9.787  1.00  0.00     0.029 A 
ATOM     54  C   UNL     1      10.845  -8.240  10.336  1.00  0.00     0.049 A 
ATOM     55  H   UNL     1       8.996  -7.939   9.364  1.00  0.00     0.167 HD
ATOM     56  C   UNL     1       9.194  -8.147  12.182  1.00  0.00     0.074 A 
ATOM     57  C   UNL     1       8.822  -8.217  13.580  1.00  0.00     0.031 C 
ATOM     58  C   UNL     1      10.459  -8.302  11.722  1.00  0.00     0.037 A 
BRANCH  45  59
ATOM     59  C   UNL     1      10.960  -7.950   5.578  1.00  0.00     0.057 A 
ATOM     60  C   UNL     1      11.287  -6.803   4.845  1.00  0.00     0.134 A 
ATOM     61  C   UNL     1      11.527  -9.164   5.170  1.00  0.00     0.134 A 
ATOM     62  F   UNL     1      10.765  -5.612   5.178  1.00  0.00    -0.206 F 
ATOM     63  C   UNL     1      12.134  -6.863   3.737  1.00  0.00     0.040 A 
ATOM     64  C   UNL     1      12.392  -9.233   4.077  1.00  0.00     0.040 A 
ATOM     65  F   UNL     1      11.257 -10.299   5.832  1.00  0.00    -0.206 F 
ATOM     66  C   UNL     1      12.694  -8.081   3.354  1.00  0.00     0.006 A 
ENDBRANCH  45  59
BRANCH  46  67
ATOM     67  C   UNL     1       4.669  -7.561  13.306  1.00  0.00     0.057 A 
ATOM     68  C   UNL     1       4.690  -6.508  14.226  1.00  0.00     0.134 A 
ATOM     69  C   UNL     1       3.746  -8.591  13.521  1.00  0.00     0.134 A 
ATOM     70  F   UNL     1       5.570  -5.506  14.085  1.00  0.00    -0.206 F 
ATOM     71  C   UNL     1       3.833  -6.484  15.328  1.00  0.00     0.040 A 
ATOM     72  C   UNL     1       2.867  -8.569  14.605  1.00  0.00     0.040 A 
ATOM     73  F   UNL     1       3.678  -9.628  12.674  1.00  0.00    -0.206 F 
ATOM     74  C   UNL     1       2.914  -7.515  15.516  1.00  0.00     0.006 A 
ENDBRANCH  46  67
BRANCH  58  75
ATOM     75  C   UNL     1      11.535  -8.532  12.740  1.00  0.00     0.057 A 
ATOM     76  C   UNL     1      11.688  -9.767  13.383  1.00  0.00     0.134 A 
ATOM     77  C   UNL     1      12.450  -7.519  13.052  1.00  0.00     0.134 A 
ATOM     78  F   UNL     1      10.835 -10.772  13.136  1.00  0.00    -0.206 F 
ATOM     79  C   UNL     1      12.706  -9.980  14.314  1.00  0.00     0.040 A 
ATOM     80  C   UNL     1      13.484  -7.728  13.966  1.00  0.00     0.040 A 
ATOM     81  F   UNL     1      12.361  -6.316  12.466  1.00  0.00    -0.206 F 
ATOM     82  C   UNL     1      13.611  -8.960  14.603  1.00  0.00     0.006 A 
ENDBRANCH  58  75
ENDBRANCH  32  33
ENDBRANCH  25  27
ENDBRANCH  24  25
ENDBRANCH  23  24
ENDBRANCH   1  23
TORSDOF 13
