REMARK SMILES CC(C)[NH2+][C@@H](C(=O)OCCOC(=O)c1ccc(-c2c3nc(c(-c4c(F)cccc4F)c4ccc([nH]4)c(-c4c(F)cccc4F)c4nc(c(-c5c(F)cccc5F)c5ccc2[nH]5)C=C4)C=C3)cc1)c1c[nH]c2ccc(Br)cc12
REMARK SMILES IDX 9 1 8 2 6 3 7 4 5 5 4 6 2 9 1 10 3 11 68 12 69 13 77 14
REMARK SMILES IDX 70 15 71 16 76 17 72 19 74 20 73 21 75 22 10 23 11 24 12 25
REMARK SMILES IDX 13 26 14 27 15 28 67 29 16 30 66 31 17 32 18 33 19 34 60 35
REMARK SMILES IDX 20 36 65 37 59 38 61 39 21 40 64 41 58 42 57 43 22 45 48 46
REMARK SMILES IDX 31 47 47 48 32 49 35 50 46 51 62 52 33 53 34 54 45 56 63 57
REMARK SMILES IDX 36 58 23 59 24 60 29 61 25 62 26 63 28 64 30 65 27 66 49 67
REMARK SMILES IDX 50 68 55 69 51 70 52 71 54 72 56 73 53 74 37 75 38 76 43 77
REMARK SMILES IDX 39 78 40 79 42 80 44 81 41 82
REMARK H PARENT 4 7 4 8 70 18 61 44 35 55
REMARK Flexibility Score: inf
ROOT
ATOM      1  C   UNL     1       0.268   4.863  -1.070  1.00  0.00     0.274 C 
ENDROOT
BRANCH   1   2
ATOM      2  O   UNL     1      -0.381   3.570  -1.141  1.00  0.00    -0.457 OA
BRANCH   2   3
ATOM      3  C   UNL     1      -1.175   3.236  -0.084  1.00  0.00     0.370 C 
ATOM      4  O   UNL     1      -1.555   4.048   0.761  1.00  0.00    -0.245 OA
BRANCH   3   5
ATOM      5  C   UNL     1      -1.451   1.743   0.072  1.00  0.00     0.327 C 
BRANCH   5   6
ATOM      6  N   UNL     1      -0.301   0.857  -0.267  1.00  0.00    -0.329 N 
ATOM      7  H   UNL     1      -0.625  -0.106  -0.176  1.00  0.00     0.347 HD
ATOM      8  H   UNL     1      -0.027   1.147  -1.206  1.00  0.00     0.347 HD
BRANCH   6   9
ATOM      9  C   UNL     1       0.920   0.980   0.520  1.00  0.00     0.177 C 
ATOM     10  C   UNL     1       1.495  -0.434   0.693  1.00  0.00     0.075 C 
ATOM     11  C   UNL     1       1.935   1.835  -0.235  1.00  0.00     0.075 C 
ENDBRANCH   6   9
ENDBRANCH   5   6
BRANCH   5  12
ATOM     12  C   UNL     1      -2.609   1.087  -0.678  1.00  0.00     0.046 A 
ATOM     13  C   UNL     1      -3.260  -0.026  -0.147  1.00  0.00     0.094 A 
ATOM     14  C   UNL     1      -2.903   0.990  -2.082  1.00  0.00     0.010 A 
ATOM     15  N   UNL     1      -3.100  -0.992  -1.115  1.00  0.00    -0.361 N 
ATOM     16  C   UNL     1      -2.984  -0.382  -2.337  1.00  0.00     0.046 A 
ATOM     17  C   UNL     1      -3.049   1.852  -3.182  1.00  0.00     0.026 A 
ATOM     18  H   UNL     1      -3.074  -1.963  -0.955  1.00  0.00     0.166 HD
ATOM     19  C   UNL     1      -2.965  -0.935  -3.621  1.00  0.00     0.028 A 
ATOM     20  C   UNL     1      -3.279   1.309  -4.453  1.00  0.00     0.018 A 
ATOM     21  C   UNL     1      -3.160  -0.056  -4.685  1.00  0.00     0.018 A 
ATOM     22  Br  UNL     1      -3.847   2.432  -5.868  1.00  0.00    -0.051 Br
ENDBRANCH   5  12
ENDBRANCH   3   5
ENDBRANCH   2   3
ENDBRANCH   1   2
BRANCH   1  23
ATOM     23  C   UNL     1      -0.208   5.789  -2.178  1.00  0.00     0.275 C 
BRANCH  23  24
ATOM     24  O   UNL     1      -1.617   5.984  -2.013  1.00  0.00    -0.458 OA
BRANCH  24  25
ATOM     25  C   UNL     1      -2.374   5.581  -3.048  1.00  0.00     0.338 C 
ATOM     26  O   UNL     1      -1.985   5.318  -4.187  1.00  0.00    -0.246 OA
BRANCH  25  27
ATOM     27  C   UNL     1      -3.766   5.363  -2.617  1.00  0.00     0.060 A 
ATOM     28  C   UNL     1      -4.053   4.900  -1.326  1.00  0.00     0.016 A 
ATOM     29  C   UNL     1      -4.774   5.411  -3.581  1.00  0.00     0.016 A 
ATOM     30  C   UNL     1      -5.320   4.411  -1.023  1.00  0.00     0.010 A 
ATOM     31  C   UNL     1      -6.062   4.996  -3.254  1.00  0.00     0.010 A 
ATOM     32  C   UNL     1      -6.341   4.479  -1.978  1.00  0.00    -0.014 A 
BRANCH  32  33
ATOM     33  C   UNL     1      -7.734   4.117  -1.641  1.00  0.00     0.031 A 
ATOM     34  C   UNL     1      -8.424   2.987  -2.340  1.00  0.00     0.074 A 
ATOM     35  C   UNL     1      -8.404   4.896  -0.773  1.00  0.00     0.049 A 
ATOM     36  N   UNL     1      -9.705   2.744  -2.442  1.00  0.00    -0.248 NA
ATOM     37  C   UNL     1      -7.564   2.003  -3.014  1.00  0.00     0.031 C 
ATOM     38  C   UNL     1      -7.819   5.988   0.008  1.00  0.00     0.029 A 
ATOM     39  N   UNL     1      -9.732   4.916  -0.435  1.00  0.00    -0.354 N 
ATOM     40  C   UNL     1      -9.813   1.604  -3.226  1.00  0.00     0.074 A 
ATOM     41  C   UNL     1      -8.464   1.191  -3.559  1.00  0.00     0.031 C 
ATOM     42  C   UNL     1      -8.785   6.588   0.715  1.00  0.00     0.029 A 
ATOM     43  C   UNL     1     -10.063   5.980   0.365  1.00  0.00     0.049 A 
ATOM     44  H   UNL     1     -10.380   4.238  -0.735  1.00  0.00     0.167 HD
ATOM     45  C   UNL     1     -10.943   0.978  -3.634  1.00  0.00     0.037 A 
ATOM     46  C   UNL     1     -11.265   6.470   0.717  1.00  0.00     0.037 A 
ATOM     47  C   UNL     1     -12.274   1.397  -3.268  1.00  0.00     0.049 A 
ATOM     48  C   UNL     1     -12.501   5.804   0.200  1.00  0.00     0.074 A 
ATOM     49  C   UNL     1     -13.487   0.826  -3.618  1.00  0.00     0.029 A 
ATOM     50  N   UNL     1     -12.566   2.488  -2.463  1.00  0.00    -0.354 N 
ATOM     51  N   UNL     1     -12.605   4.774  -0.603  1.00  0.00    -0.248 NA
ATOM     52  C   UNL     1     -13.784   6.377   0.622  1.00  0.00     0.031 C 
ATOM     53  C   UNL     1     -14.512   1.589  -3.046  1.00  0.00     0.029 A 
ATOM     54  C   UNL     1     -13.938   2.612  -2.310  1.00  0.00     0.049 A 
ATOM     55  H   UNL     1     -11.896   3.086  -2.059  1.00  0.00     0.167 HD
ATOM     56  C   UNL     1     -13.964   4.567  -0.779  1.00  0.00     0.074 A 
ATOM     57  C   UNL     1     -14.645   5.573   0.014  1.00  0.00     0.031 C 
ATOM     58  C   UNL     1     -14.592   3.629  -1.527  1.00  0.00     0.037 A 
BRANCH  45  59
ATOM     59  C   UNL     1     -10.806  -0.203  -4.548  1.00  0.00     0.057 A 
ATOM     60  C   UNL     1     -10.401  -1.460  -4.082  1.00  0.00     0.134 A 
ATOM     61  C   UNL     1     -11.168  -0.100  -5.898  1.00  0.00     0.134 A 
ATOM     62  F   UNL     1     -10.034  -1.626  -2.803  1.00  0.00    -0.206 F 
ATOM     63  C   UNL     1     -10.359  -2.571  -4.928  1.00  0.00     0.040 A 
ATOM     64  C   UNL     1     -11.147  -1.207  -6.748  1.00  0.00     0.040 A 
ATOM     65  F   UNL     1     -11.573   1.073  -6.406  1.00  0.00    -0.206 F 
ATOM     66  C   UNL     1     -10.742  -2.449  -6.263  1.00  0.00     0.006 A 
ENDBRANCH  45  59
BRANCH  46  67
ATOM     67  C   UNL     1     -11.326   7.690   1.553  1.00  0.00     0.057 A 
ATOM     68  C   UNL     1     -11.675   7.619   2.904  1.00  0.00     0.134 A 
ATOM     69  C   UNL     1     -10.957   8.941   1.040  1.00  0.00     0.134 A 
ATOM     70  F   UNL     1     -12.051   6.451   3.443  1.00  0.00    -0.206 F 
ATOM     71  C   UNL     1     -11.647   8.749   3.722  1.00  0.00     0.040 A 
ATOM     72  C   UNL     1     -10.902  10.074   1.852  1.00  0.00     0.040 A 
ATOM     73  F   UNL     1     -10.601   9.067  -0.247  1.00  0.00    -0.206 F 
ATOM     74  C   UNL     1     -11.247   9.978   3.198  1.00  0.00     0.006 A 
ENDBRANCH  46  67
BRANCH  58  75
ATOM     75  C   UNL     1     -16.089   3.642  -1.495  1.00  0.00     0.057 A 
ATOM     76  C   UNL     1     -16.830   4.593  -2.206  1.00  0.00     0.134 A 
ATOM     77  C   UNL     1     -16.793   2.694  -0.743  1.00  0.00     0.134 A 
ATOM     78  F   UNL     1     -16.209   5.537  -2.930  1.00  0.00    -0.206 F 
ATOM     79  C   UNL     1     -18.224   4.615  -2.151  1.00  0.00     0.040 A 
ATOM     80  C   UNL     1     -18.187   2.695  -0.695  1.00  0.00     0.040 A 
ATOM     81  F   UNL     1     -16.138   1.756  -0.043  1.00  0.00    -0.206 F 
ATOM     82  C   UNL     1     -18.906   3.662  -1.396  1.00  0.00     0.006 A 
ENDBRANCH  58  75
ENDBRANCH  32  33
ENDBRANCH  25  27
ENDBRANCH  24  25
ENDBRANCH  23  24
ENDBRANCH   1  23
TORSDOF 14
