REMARK SMILES C[C@@H]1SC[C@H](C(=O)OCCOC(=O)c2ccc(-c3c4nc(c(-c5c(F)cccc5F)c5ccc([nH]5)c(-c5c(F)cccc5F)c5nc(c(-c6c(F)cccc6F)c6ccc3[nH]6)C=C5)C=C4)cc2)N1C(=O)N(C)[C@@H](C)Cc1cccs1
REMARK SMILES IDX 8 1 6 2 7 3 5 4 1 5 2 6 3 7 68 8 4 9 69 10 70 11 71 12 72 13
REMARK SMILES IDX 73 14 74 15 75 16 76 17 77 18 80 19 78 20 79 21 9 22 10 23
REMARK SMILES IDX 11 24 12 25 13 26 14 27 15 28 67 29 16 30 66 31 17 32 18 33
REMARK SMILES IDX 19 34 60 35 20 36 65 37 59 38 61 39 21 40 64 41 58 42 57 43
REMARK SMILES IDX 22 45 48 46 31 47 47 48 32 49 35 50 46 51 62 52 33 53 34 54
REMARK SMILES IDX 45 56 63 57 36 58 23 59 24 60 29 61 25 62 26 63 28 64 30 65
REMARK SMILES IDX 27 66 49 67 50 68 55 69 51 70 52 71 54 72 56 73 53 74 37 75
REMARK SMILES IDX 38 76 43 77 39 78 40 79 42 80 44 81 41 82
REMARK H PARENT 61 44 35 55
REMARK Flexibility Score: inf
ROOT
ATOM      1  O   UNL     1       3.497  -0.154   4.413  1.00  0.00    -0.461 OA
ENDROOT
BRANCH   1   2
ATOM      2  C   UNL     1       2.313  -0.810   4.265  1.00  0.00     0.329 C 
ATOM      3  O   UNL     1       1.929  -1.719   4.998  1.00  0.00    -0.250 OA
BRANCH   2   4
ATOM      4  C   UNL     1       1.449  -0.278   3.103  1.00  0.00     0.208 C 
ATOM      5  C   UNL     1       1.710   0.789  -0.390  1.00  0.00     0.043 C 
ATOM      6  C   UNL     1       0.910   0.229   0.782  1.00  0.00     0.143 C 
ATOM      7  S   UNL     1       0.336   1.658   1.779  1.00  0.00    -0.134 SA
ATOM      8  N   UNL     1       1.655  -0.661   1.681  1.00  0.00    -0.298 N 
ATOM      9  C   UNL     1       1.385   1.241   3.175  1.00  0.00     0.109 C 
BRANCH   8  10
ATOM     10  C   UNL     1       2.221  -1.893   1.467  1.00  0.00     0.321 C 
ATOM     11  O   UNL     1       2.909  -2.371   2.376  1.00  0.00    -0.248 OA
BRANCH  10  12
ATOM     12  N   UNL     1       2.075  -2.626   0.310  1.00  0.00    -0.325 N 
ATOM     13  C   UNL     1       1.319  -2.303  -0.889  1.00  0.00     0.149 C 
BRANCH  12  14
ATOM     14  C   UNL     1       2.668  -3.998   0.293  1.00  0.00     0.088 C 
ATOM     15  C   UNL     1       4.195  -3.999   0.464  1.00  0.00     0.031 C 
BRANCH  14  16
ATOM     16  C   UNL     1       1.983  -4.971   1.293  1.00  0.00     0.071 C 
BRANCH  16  17
ATOM     17  C   UNL     1       0.538  -5.238   0.949  1.00  0.00     0.007 A 
ATOM     18  C   UNL     1       0.018  -6.281   0.208  1.00  0.00     0.015 A 
ATOM     19  S   UNL     1      -0.705  -4.201   1.523  1.00  0.00    -0.149 S 
ATOM     20  C   UNL     1      -1.397  -6.190   0.060  1.00  0.00     0.012 A 
ATOM     21  C   UNL     1      -1.913  -5.088   0.703  1.00  0.00     0.065 A 
ENDBRANCH  16  17
ENDBRANCH  14  16
ENDBRANCH  12  14
ENDBRANCH  10  12
ENDBRANCH   8  10
ENDBRANCH   2   4
ENDBRANCH   1   2
BRANCH   1  22
ATOM     22  C   UNL     1       4.342  -0.660   5.467  1.00  0.00     0.274 C 
BRANCH  22  23
ATOM     23  C   UNL     1       4.143   0.079   6.798  1.00  0.00     0.275 C 
BRANCH  23  24
ATOM     24  O   UNL     1       2.856  -0.185   7.392  1.00  0.00    -0.458 OA
BRANCH  24  25
ATOM     25  C   UNL     1       1.878   0.681   7.045  1.00  0.00     0.338 C 
ATOM     26  O   UNL     1       1.995   1.676   6.341  1.00  0.00    -0.246 OA
BRANCH  25  27
ATOM     27  C   UNL     1       0.567   0.194   7.503  1.00  0.00     0.060 A 
ATOM     28  C   UNL     1      -0.433   0.005   6.543  1.00  0.00     0.016 A 
ATOM     29  C   UNL     1       0.288   0.007   8.858  1.00  0.00     0.016 A 
ATOM     30  C   UNL     1      -1.717  -0.367   6.926  1.00  0.00     0.010 A 
ATOM     31  C   UNL     1      -1.007  -0.358   9.245  1.00  0.00     0.010 A 
ATOM     32  C   UNL     1      -2.017  -0.533   8.282  1.00  0.00    -0.014 A 
BRANCH  32  33
ATOM     33  C   UNL     1      -3.412  -0.821   8.683  1.00  0.00     0.031 A 
ATOM     34  C   UNL     1      -4.278   0.291   9.199  1.00  0.00     0.074 A 
ATOM     35  C   UNL     1      -3.910  -2.062   8.546  1.00  0.00     0.049 A 
ATOM     36  N   UNL     1      -5.505   0.243   9.650  1.00  0.00    -0.248 NA
ATOM     37  C   UNL     1      -3.683   1.636   9.204  1.00  0.00     0.031 C 
ATOM     38  C   UNL     1      -3.185  -3.207   7.997  1.00  0.00     0.029 A 
ATOM     39  N   UNL     1      -5.147  -2.563   8.858  1.00  0.00    -0.354 N 
ATOM     40  C   UNL     1      -5.825   1.546  10.008  1.00  0.00     0.074 A 
ATOM     41  C   UNL     1      -4.660   2.360   9.733  1.00  0.00     0.031 C 
ATOM     42  C   UNL     1      -3.992  -4.281   8.013  1.00  0.00     0.029 A 
ATOM     43  C   UNL     1      -5.272  -3.907   8.608  1.00  0.00     0.049 A 
ATOM     44  H   UNL     1      -5.876  -2.013   9.226  1.00  0.00     0.167 HD
ATOM     45  C   UNL     1      -6.987   2.018  10.518  1.00  0.00     0.037 A 
ATOM     46  C   UNL     1      -6.298  -4.743   8.854  1.00  0.00     0.037 A 
ATOM     47  C   UNL     1      -8.147   1.208  10.780  1.00  0.00     0.049 A 
ATOM     48  C   UNL     1      -7.549  -4.207   9.492  1.00  0.00     0.074 A 
ATOM     49  C   UNL     1      -9.377   1.598  11.282  1.00  0.00     0.029 A 
ATOM     50  N   UNL     1      -8.219  -0.159  10.562  1.00  0.00    -0.354 N 
ATOM     51  N   UNL     1      -7.843  -2.976   9.832  1.00  0.00    -0.248 NA
ATOM     52  C   UNL     1      -8.609  -5.182   9.791  1.00  0.00     0.031 C 
ATOM     53  C   UNL     1     -10.180   0.458  11.403  1.00  0.00     0.029 A 
ATOM     54  C   UNL     1      -9.463  -0.634  10.942  1.00  0.00     0.049 A 
ATOM     55  H   UNL     1      -7.492  -0.711  10.192  1.00  0.00     0.167 HD
ATOM     56  C   UNL     1      -9.125  -3.022  10.361  1.00  0.00     0.074 A 
ATOM     57  C   UNL     1      -9.558  -4.402  10.290  1.00  0.00     0.031 C 
ATOM     58  C   UNL     1      -9.878  -2.011  10.860  1.00  0.00     0.037 A 
BRANCH  45  59
ATOM     59  C   UNL     1      -7.043   3.476  10.859  1.00  0.00     0.057 A 
ATOM     60  C   UNL     1      -7.145   4.465   9.873  1.00  0.00     0.134 A 
ATOM     61  C   UNL     1      -7.010   3.894  12.195  1.00  0.00     0.134 A 
ATOM     62  F   UNL     1      -7.164   4.129   8.574  1.00  0.00    -0.206 F 
ATOM     63  C   UNL     1      -7.192   5.820  10.203  1.00  0.00     0.040 A 
ATOM     64  C   UNL     1      -7.078   5.245  12.539  1.00  0.00     0.040 A 
ATOM     65  F   UNL     1      -6.915   2.997  13.188  1.00  0.00    -0.206 F 
ATOM     66  C   UNL     1      -7.164   6.213  11.540  1.00  0.00     0.006 A 
ENDBRANCH  45  59
BRANCH  46  67
ATOM     67  C   UNL     1      -6.179  -6.181   8.513  1.00  0.00     0.057 A 
ATOM     68  C   UNL     1      -6.915  -6.738   7.462  1.00  0.00     0.134 A 
ATOM     69  C   UNL     1      -5.338  -7.034   9.237  1.00  0.00     0.134 A 
ATOM     70  F   UNL     1      -7.757  -5.975   6.749  1.00  0.00    -0.206 F 
ATOM     71  C   UNL     1      -6.827  -8.095   7.147  1.00  0.00     0.040 A 
ATOM     72  C   UNL     1      -5.223  -8.388   8.920  1.00  0.00     0.040 A 
ATOM     73  F   UNL     1      -4.610  -6.561  10.259  1.00  0.00    -0.206 F 
ATOM     74  C   UNL     1      -5.973  -8.923   7.875  1.00  0.00     0.006 A 
ENDBRANCH  46  67
BRANCH  58  75
ATOM     75  C   UNL     1     -11.255  -2.358  11.338  1.00  0.00     0.057 A 
ATOM     76  C   UNL     1     -11.468  -3.023  12.552  1.00  0.00     0.134 A 
ATOM     77  C   UNL     1     -12.383  -1.993  10.591  1.00  0.00     0.134 A 
ATOM     78  F   UNL     1     -10.428  -3.411  13.305  1.00  0.00    -0.206 F 
ATOM     79  C   UNL     1     -12.754  -3.329  12.998  1.00  0.00     0.040 A 
ATOM     80  C   UNL     1     -13.674  -2.275  11.037  1.00  0.00     0.040 A 
ATOM     81  F   UNL     1     -12.246  -1.348   9.423  1.00  0.00    -0.206 F 
ATOM     82  C   UNL     1     -13.862  -2.949  12.242  1.00  0.00     0.006 A 
ENDBRANCH  58  75
ENDBRANCH  32  33
ENDBRANCH  25  27
ENDBRANCH  24  25
ENDBRANCH  23  24
ENDBRANCH  22  23
ENDBRANCH   1  22
TORSDOF 16
