REMARK SMILES O=C(OCCOC(=O)c1ccc(-c2c3nc(c(-c4c(F)cccc4F)c4ccc([nH]4)c(-c4c(F)cccc4F)c4nc(c(-c5c(F)cccc5F)c5ccc2[nH]5)C=C4)C=C3)cc1)c1ccc(/C=C/c2ccc3cccc(O)c3n2)cc1
REMARK SMILES IDX 4 1 3 2 2 3 1 4 63 5 64 6 81 7 65 8 80 9 66 10 67 11 68 12
REMARK SMILES IDX 69 13 70 14 79 15 71 16 78 17 72 18 76 19 73 20 75 21 74 22
REMARK SMILES IDX 77 23 5 25 6 26 7 27 8 28 9 29 10 30 62 31 11 32 61 33 12 34
REMARK SMILES IDX 13 35 14 36 55 37 15 38 60 39 54 40 56 41 16 42 59 43 53 44
REMARK SMILES IDX 52 45 17 47 43 48 26 49 42 50 27 51 30 52 41 53 57 54 28 55
REMARK SMILES IDX 29 56 40 58 58 59 31 60 18 61 19 62 24 63 20 64 21 65 23 66
REMARK SMILES IDX 25 67 22 68 44 69 45 70 50 71 46 72 47 73 49 74 51 75 48 76
REMARK SMILES IDX 32 77 33 78 38 79 34 80 35 81 37 82 39 83 36 84
REMARK H PARENT 77 24 56 46 30 57
REMARK Flexibility Score: inf
ROOT
ATOM      1  C   UNL     1       4.266   1.071  -0.755  1.00  0.00     0.275 C 
ENDROOT
BRANCH   1   2
ATOM      2  O   UNL     1       3.144   0.186  -0.920  1.00  0.00    -0.458 OA
BRANCH   2   3
ATOM      3  C   UNL     1       2.999  -1.097  -0.516  1.00  0.00     0.338 C 
ATOM      4  O   UNL     1       2.154  -1.794  -1.078  1.00  0.00    -0.246 OA
BRANCH   3   5
ATOM      5  C   UNL     1       3.688  -1.679   0.684  1.00  0.00     0.060 A 
ATOM      6  C   UNL     1       4.899  -1.267   1.248  1.00  0.00     0.016 A 
ATOM      7  C   UNL     1       3.022  -2.745   1.309  1.00  0.00     0.016 A 
ATOM      8  C   UNL     1       5.378  -1.815   2.448  1.00  0.00     0.009 A 
ATOM      9  C   UNL     1       3.519  -3.318   2.482  1.00  0.00     0.009 A 
ATOM     10  C   UNL     1       4.678  -2.827   3.094  1.00  0.00    -0.026 A 
BRANCH  10  11
ATOM     11  C   UNL     1       5.161  -3.519   4.291  1.00  0.00     0.010 C 
ATOM     12  C   UNL     1       6.329  -3.338   4.944  1.00  0.00     0.029 C 
BRANCH  12  13
ATOM     13  C   UNL     1       6.892  -4.613   5.455  1.00  0.00     0.064 A 
ATOM     14  C   UNL     1       7.549  -5.301   4.435  1.00  0.00     0.029 A 
ATOM     15  N   UNL     1       6.178  -5.233   6.425  1.00  0.00    -0.245 NA
ATOM     16  C   UNL     1       7.118  -6.589   4.163  1.00  0.00     0.013 A 
ATOM     17  C   UNL     1       5.829  -6.518   6.193  1.00  0.00     0.113 A 
ATOM     18  C   UNL     1       6.174  -7.186   5.001  1.00  0.00     0.004 A 
ATOM     19  C   UNL     1       5.031  -7.205   7.101  1.00  0.00     0.141 A 
ATOM     20  C   UNL     1       5.550  -8.396   4.659  1.00  0.00     0.010 A 
ATOM     21  C   UNL     1       4.462  -8.439   6.803  1.00  0.00     0.048 A 
ATOM     22  C   UNL     1       4.670  -9.005   5.549  1.00  0.00     0.005 A 
BRANCH  19  23
ATOM     23  O   UNL     1       4.766  -6.654   8.331  1.00  0.00    -0.506 OA
ATOM     24  H   UNL     1       4.228  -7.115   8.944  1.00  0.00     0.293 HD
ENDBRANCH  19  23
ENDBRANCH  12  13
ENDBRANCH  10  11
ENDBRANCH   3   5
ENDBRANCH   2   3
ENDBRANCH   1   2
BRANCH   1  25
ATOM     25  C   UNL     1       4.109   2.033   0.427  1.00  0.00     0.275 C 
BRANCH  25  26
ATOM     26  O   UNL     1       3.719   1.360   1.637  1.00  0.00    -0.458 OA
BRANCH  26  27
ATOM     27  C   UNL     1       2.379   1.355   1.880  1.00  0.00     0.338 C 
ATOM     28  O   UNL     1       1.536   1.962   1.254  1.00  0.00    -0.246 OA
BRANCH  27  29
ATOM     29  C   UNL     1       2.041   0.397   2.967  1.00  0.00     0.060 A 
ATOM     30  C   UNL     1       0.787  -0.224   2.909  1.00  0.00     0.016 A 
ATOM     31  C   UNL     1       2.905   0.108   4.028  1.00  0.00     0.016 A 
ATOM     32  C   UNL     1       0.377  -1.086   3.930  1.00  0.00     0.010 A 
ATOM     33  C   UNL     1       2.502  -0.779   5.038  1.00  0.00     0.010 A 
ATOM     34  C   UNL     1       1.216  -1.349   5.020  1.00  0.00    -0.014 A 
BRANCH  34  35
ATOM     35  C   UNL     1       0.674  -2.077   6.202  1.00  0.00     0.031 A 
ATOM     36  C   UNL     1       0.309  -1.294   7.437  1.00  0.00     0.074 A 
ATOM     37  C   UNL     1       0.430  -3.401   6.176  1.00  0.00     0.049 A 
ATOM     38  N   UNL     1      -0.293  -1.698   8.528  1.00  0.00    -0.248 NA
ATOM     39  C   UNL     1       0.663   0.134   7.441  1.00  0.00     0.031 C 
ATOM     40  C   UNL     1       0.709  -4.292   5.054  1.00  0.00     0.029 A 
ATOM     41  N   UNL     1      -0.122  -4.228   7.126  1.00  0.00    -0.354 N 
ATOM     42  C   UNL     1      -0.404  -0.574   9.336  1.00  0.00     0.074 A 
ATOM     43  C   UNL     1       0.248   0.513   8.640  1.00  0.00     0.031 C 
ATOM     44  C   UNL     1       0.332  -5.542   5.377  1.00  0.00     0.029 A 
ATOM     45  C   UNL     1      -0.231  -5.538   6.726  1.00  0.00     0.049 A 
ATOM     46  H   UNL     1      -0.414  -3.910   8.011  1.00  0.00     0.167 HD
ATOM     47  C   UNL     1      -1.018  -0.443  10.535  1.00  0.00     0.037 A 
ATOM     48  C   UNL     1      -0.741  -6.609   7.365  1.00  0.00     0.037 A 
ATOM     49  C   UNL     1      -1.675  -1.509  11.242  1.00  0.00     0.049 A 
ATOM     50  C   UNL     1      -1.344  -6.454   8.735  1.00  0.00     0.074 A 
ATOM     51  C   UNL     1      -2.365  -1.449  12.441  1.00  0.00     0.029 A 
ATOM     52  N   UNL     1      -1.712  -2.829  10.825  1.00  0.00    -0.354 N 
ATOM     53  N   UNL     1      -1.519  -5.369   9.446  1.00  0.00    -0.248 NA
ATOM     54  C   UNL     1      -1.838  -7.680   9.382  1.00  0.00     0.031 C 
ATOM     55  C   UNL     1      -2.779  -2.744  12.774  1.00  0.00     0.029 A 
ATOM     56  C   UNL     1      -2.389  -3.599  11.757  1.00  0.00     0.049 A 
ATOM     57  H   UNL     1      -1.317  -3.169   9.989  1.00  0.00     0.167 HD
ATOM     58  C   UNL     1      -2.186  -5.772  10.597  1.00  0.00     0.074 A 
ATOM     59  C   UNL     1      -2.383  -7.201  10.491  1.00  0.00     0.031 C 
ATOM     60  C   UNL     1      -2.606  -5.018  11.642  1.00  0.00     0.037 A 
BRANCH  47  61
ATOM     61  C   UNL     1      -1.005   0.919  11.161  1.00  0.00     0.057 A 
ATOM     62  C   UNL     1      -1.782   1.969  10.655  1.00  0.00     0.134 A 
ATOM     63  C   UNL     1      -0.224   1.178  12.293  1.00  0.00     0.134 A 
ATOM     64  F   UNL     1      -2.541   1.788   9.562  1.00  0.00    -0.206 F 
ATOM     65  C   UNL     1      -1.763   3.237  11.237  1.00  0.00     0.040 A 
ATOM     66  C   UNL     1      -0.216   2.434  12.900  1.00  0.00     0.040 A 
ATOM     67  F   UNL     1       0.540   0.214  12.829  1.00  0.00    -0.206 F 
ATOM     68  C   UNL     1      -0.982   3.470  12.367  1.00  0.00     0.006 A 
ENDBRANCH  47  61
BRANCH  48  69
ATOM     69  C   UNL     1      -0.724  -7.947   6.722  1.00  0.00     0.057 A 
ATOM     70  C   UNL     1      -1.895  -8.568   6.277  1.00  0.00     0.134 A 
ATOM     71  C   UNL     1       0.468  -8.668   6.612  1.00  0.00     0.134 A 
ATOM     72  F   UNL     1      -3.075  -7.943   6.392  1.00  0.00    -0.206 F 
ATOM     73  C   UNL     1      -1.881  -9.865   5.760  1.00  0.00     0.040 A 
ATOM     74  C   UNL     1       0.503  -9.956   6.079  1.00  0.00     0.040 A 
ATOM     75  F   UNL     1       1.611  -8.127   7.046  1.00  0.00    -0.206 F 
ATOM     76  C   UNL     1      -0.678 -10.562   5.657  1.00  0.00     0.006 A 
ENDBRANCH  48  69
BRANCH  60  77
ATOM     77  C   UNL     1      -3.383  -5.706  12.726  1.00  0.00     0.057 A 
ATOM     78  C   UNL     1      -2.780  -6.587  13.633  1.00  0.00     0.134 A 
ATOM     79  C   UNL     1      -4.753  -5.458  12.883  1.00  0.00     0.134 A 
ATOM     80  F   UNL     1      -1.475  -6.880  13.532  1.00  0.00    -0.206 F 
ATOM     81  C   UNL     1      -3.517  -7.216  14.639  1.00  0.00     0.040 A 
ATOM     82  C   UNL     1      -5.495  -6.059  13.901  1.00  0.00     0.040 A 
ATOM     83  F   UNL     1      -5.393  -4.619  12.054  1.00  0.00    -0.206 F 
ATOM     84  C   UNL     1      -4.878  -6.947  14.779  1.00  0.00     0.006 A 
ENDBRANCH  60  77
ENDBRANCH  34  35
ENDBRANCH  27  29
ENDBRANCH  26  27
ENDBRANCH  25  26
ENDBRANCH   1  25
TORSDOF 14
