REMARK SMILES C[C@H](Nc1ccc(N(C)C)cc1)[C@@H](C)C(=O)OCCOC(=O)c1ccc(-c2c3nc(c(-c4c(F)cccc4F)c4ccc([nH]4)c(-c4c(F)cccc4F)c4nc(c(-c5c(F)cccc5F)c5ccc2[nH]5)C=C4)C=C3)cc1
REMARK SMILES IDX 18 1 17 2 15 3 16 4 13 5 14 6 2 7 1 8 3 9 4 11 5 12 12 13
REMARK SMILES IDX 6 14 11 15 7 16 8 17 9 18 10 19 19 20 20 21 21 22 22 23
REMARK SMILES IDX 23 24 24 25 76 26 25 27 75 28 26 29 27 30 28 31 69 32 29 33
REMARK SMILES IDX 74 34 68 35 70 36 30 37 73 38 67 39 66 40 31 42 57 43 40 44
REMARK SMILES IDX 56 45 41 46 44 47 55 48 71 49 42 50 43 51 54 53 72 54 45 55
REMARK SMILES IDX 32 56 33 57 38 58 34 59 35 60 37 61 39 62 36 63 58 64 59 65
REMARK SMILES IDX 64 66 60 67 61 68 63 69 65 70 62 71 46 72 47 73 52 74 48 75
REMARK SMILES IDX 49 76 51 77 53 78 50 79
REMARK H PARENT 3 10 70 41 44 52
REMARK Flexibility Score: inf
ROOT
ATOM      1  C   UNL     1      -1.714  -4.040  -2.732  1.00  0.00     0.274 C 
ENDROOT
BRANCH   1   2
ATOM      2  O   UNL     1      -1.017  -2.897  -2.194  1.00  0.00    -0.462 OA
BRANCH   2   3
ATOM      3  C   UNL     1      -1.767  -2.060  -1.429  1.00  0.00     0.310 C 
ATOM      4  O   UNL     1      -2.966  -2.199  -1.211  1.00  0.00    -0.252 OA
BRANCH   3   5
ATOM      5  C   UNL     1      -0.994  -0.863  -0.906  1.00  0.00     0.118 C 
ATOM      6  C   UNL     1      -1.282   0.297  -1.860  1.00  0.00     0.022 C 
BRANCH   5   7
ATOM      7  C   UNL     1       0.517  -1.116  -0.698  1.00  0.00     0.090 C 
ATOM      8  C   UNL     1       0.762  -2.188   0.376  1.00  0.00     0.031 C 
BRANCH   7   9
ATOM      9  N   UNL     1       1.164   0.126  -0.251  1.00  0.00    -0.382 N 
ATOM     10  H   UNL     1       0.604   0.913  -0.059  1.00  0.00     0.160 HD
BRANCH   9  11
ATOM     11  C   UNL     1       2.538   0.223  -0.091  1.00  0.00     0.034 A 
ATOM     12  C   UNL     1       3.052   0.938   0.988  1.00  0.00     0.028 A 
ATOM     13  C   UNL     1       3.451  -0.428  -0.913  1.00  0.00     0.028 A 
ATOM     14  C   UNL     1       4.429   0.953   1.269  1.00  0.00     0.028 A 
ATOM     15  C   UNL     1       4.826  -0.407  -0.629  1.00  0.00     0.028 A 
ATOM     16  C   UNL     1       5.362   0.259   0.486  1.00  0.00     0.036 A 
BRANCH  16  17
ATOM     17  N   UNL     1       6.714   0.201   0.794  1.00  0.00    -0.378 N 
ATOM     18  C   UNL     1       7.319   0.891   1.927  1.00  0.00     0.143 C 
ATOM     19  C   UNL     1       7.645  -0.494  -0.091  1.00  0.00     0.143 C 
ENDBRANCH  16  17
ENDBRANCH   9  11
ENDBRANCH   7   9
ENDBRANCH   5   7
ENDBRANCH   3   5
ENDBRANCH   2   3
ENDBRANCH   1   2
BRANCH   1  20
ATOM     20  C   UNL     1      -1.546  -5.259  -1.828  1.00  0.00     0.275 C 
BRANCH  20  21
ATOM     21  O   UNL     1      -2.036  -4.952  -0.513  1.00  0.00    -0.458 OA
BRANCH  21  22
ATOM     22  C   UNL     1      -1.291  -5.418   0.514  1.00  0.00     0.338 C 
ATOM     23  O   UNL     1      -0.308  -6.134   0.446  1.00  0.00    -0.246 OA
BRANCH  22  24
ATOM     24  C   UNL     1      -1.846  -4.930   1.791  1.00  0.00     0.060 A 
ATOM     25  C   UNL     1      -2.166  -3.582   1.974  1.00  0.00     0.016 A 
ATOM     26  C   UNL     1      -1.962  -5.828   2.853  1.00  0.00     0.016 A 
ATOM     27  C   UNL     1      -2.557  -3.119   3.230  1.00  0.00     0.010 A 
ATOM     28  C   UNL     1      -2.421  -5.377   4.091  1.00  0.00     0.010 A 
ATOM     29  C   UNL     1      -2.701  -4.015   4.298  1.00  0.00    -0.014 A 
BRANCH  29  30
ATOM     30  C   UNL     1      -3.123  -3.541   5.639  1.00  0.00     0.031 A 
ATOM     31  C   UNL     1      -2.188  -3.667   6.810  1.00  0.00     0.074 A 
ATOM     32  C   UNL     1      -4.354  -3.026   5.815  1.00  0.00     0.049 A 
ATOM     33  N   UNL     1      -2.428  -3.487   8.084  1.00  0.00    -0.248 NA
ATOM     34  C   UNL     1      -0.803  -4.058   6.506  1.00  0.00     0.031 C 
ATOM     35  C   UNL     1      -5.345  -2.816   4.759  1.00  0.00     0.029 A 
ATOM     36  N   UNL     1      -4.986  -2.595   6.955  1.00  0.00    -0.354 N 
ATOM     37  C   UNL     1      -1.238  -3.783   8.737  1.00  0.00     0.074 A 
ATOM     38  C   UNL     1      -0.279  -4.159   7.720  1.00  0.00     0.031 C 
ATOM     39  C   UNL     1      -6.455  -2.287   5.298  1.00  0.00     0.029 A 
ATOM     40  C   UNL     1      -6.278  -2.184   6.743  1.00  0.00     0.049 A 
ATOM     41  H   UNL     1      -4.554  -2.583   7.840  1.00  0.00     0.167 HD
ATOM     42  C   UNL     1      -0.973  -3.744  10.065  1.00  0.00     0.037 A 
ATOM     43  C   UNL     1      -7.228  -1.803   7.616  1.00  0.00     0.037 A 
ATOM     44  C   UNL     1      -1.918  -3.337  11.071  1.00  0.00     0.049 A 
ATOM     45  C   UNL     1      -6.920  -1.803   9.086  1.00  0.00     0.074 A 
ATOM     46  C   UNL     1      -1.738  -3.250  12.441  1.00  0.00     0.029 A 
ATOM     47  N   UNL     1      -3.221  -2.939  10.813  1.00  0.00    -0.354 N 
ATOM     48  N   UNL     1      -5.804  -2.117   9.696  1.00  0.00    -0.248 NA
ATOM     49  C   UNL     1      -8.011  -1.409   9.989  1.00  0.00     0.031 C 
ATOM     50  C   UNL     1      -2.942  -2.826  13.015  1.00  0.00     0.029 A 
ATOM     51  C   UNL     1      -3.860  -2.615  11.999  1.00  0.00     0.049 A 
ATOM     52  H   UNL     1      -3.631  -2.893   9.920  1.00  0.00     0.167 HD
ATOM     53  C   UNL     1      -6.051  -1.947  11.051  1.00  0.00     0.074 A 
ATOM     54  C   UNL     1      -7.419  -1.486  11.173  1.00  0.00     0.031 C 
ATOM     55  C   UNL     1      -5.221  -2.156  12.101  1.00  0.00     0.037 A 
BRANCH  42  56
ATOM     56  C   UNL     1       0.392  -4.179  10.508  1.00  0.00     0.057 A 
ATOM     57  C   UNL     1       1.524  -3.376  10.322  1.00  0.00     0.134 A 
ATOM     58  C   UNL     1       0.569  -5.408  11.157  1.00  0.00     0.134 A 
ATOM     59  F   UNL     1       1.423  -2.195   9.694  1.00  0.00    -0.206 F 
ATOM     60  C   UNL     1       2.787  -3.788  10.750  1.00  0.00     0.040 A 
ATOM     61  C   UNL     1       1.824  -5.821  11.608  1.00  0.00     0.040 A 
ATOM     62  F   UNL     1      -0.475  -6.223  11.369  1.00  0.00    -0.206 F 
ATOM     63  C   UNL     1       2.938  -5.012  11.400  1.00  0.00     0.006 A 
ENDBRANCH  42  56
BRANCH  43  64
ATOM     64  C   UNL     1      -8.572  -1.417   7.122  1.00  0.00     0.057 A 
ATOM     65  C   UNL     1      -8.996  -0.085   7.154  1.00  0.00     0.134 A 
ATOM     66  C   UNL     1      -9.459  -2.367   6.602  1.00  0.00     0.134 A 
ATOM     67  F   UNL     1      -8.197   0.866   7.662  1.00  0.00    -0.206 F 
ATOM     68  C   UNL     1     -10.259   0.290   6.694  1.00  0.00     0.040 A 
ATOM     69  C   UNL     1     -10.715  -2.004   6.117  1.00  0.00     0.040 A 
ATOM     70  F   UNL     1      -9.108  -3.660   6.543  1.00  0.00    -0.206 F 
ATOM     71  C   UNL     1     -11.120  -0.671   6.167  1.00  0.00     0.006 A 
ENDBRANCH  43  64
BRANCH  55  72
ATOM     72  C   UNL     1      -5.764  -1.860  13.465  1.00  0.00     0.057 A 
ATOM     73  C   UNL     1      -6.672  -2.718  14.098  1.00  0.00     0.134 A 
ATOM     74  C   UNL     1      -5.359  -0.714  14.161  1.00  0.00     0.134 A 
ATOM     75  F   UNL     1      -7.109  -3.823  13.476  1.00  0.00    -0.206 F 
ATOM     76  C   UNL     1      -7.175  -2.435  15.368  1.00  0.00     0.040 A 
ATOM     77  C   UNL     1      -5.839  -0.431  15.440  1.00  0.00     0.040 A 
ATOM     78  F   UNL     1      -4.487   0.144  13.610  1.00  0.00    -0.206 F 
ATOM     79  C   UNL     1      -6.755  -1.291  16.045  1.00  0.00     0.006 A 
ENDBRANCH  55  72
ENDBRANCH  29  30
ENDBRANCH  22  24
ENDBRANCH  21  22
ENDBRANCH  20  21
ENDBRANCH   1  20
TORSDOF 15
