REMARK SMILES CCn1ncc(NC(=O)[C@@H]2CCCC[C@@H]2C(=O)OCCOC(=O)c2ccc(-c3c4nc(c(-c5c(F)cccc5F)c5ccc([nH]5)c(-c5c(F)cccc5F)c5nc(c(-c6c(F)cccc6F)c6ccc3[nH]6)C=C5)C=C4)cc2)c1C(=O)Nc1cnn(C)c1C
REMARK SMILES IDX 19 1 18 2 16 3 17 4 15 5 10 6 11 7 12 8 14 9 13 10 8 11 7 12
REMARK SMILES IDX 9 14 6 15 3 16 4 17 78 18 5 19 2 20 1 21 79 22 80 23 81 24
REMARK SMILES IDX 82 26 83 27 87 28 84 29 85 30 88 31 86 32 20 33 21 34 22 35
REMARK SMILES IDX 23 36 24 37 25 38 77 39 26 40 76 41 27 42 28 43 29 44 70 45
REMARK SMILES IDX 30 46 75 47 69 48 71 49 31 50 74 51 68 52 67 53 32 55 58 56
REMARK SMILES IDX 41 57 57 58 42 59 45 60 56 61 72 62 43 63 44 64 55 66 73 67
REMARK SMILES IDX 46 68 33 69 34 70 39 71 35 72 36 73 38 74 40 75 37 76 59 77
REMARK SMILES IDX 60 78 65 79 61 80 62 81 64 82 66 83 63 84 47 85 48 86 53 87
REMARK SMILES IDX 49 88 50 89 52 90 54 91 51 92
REMARK H PARENT 7 13 81 25 71 54 45 65
REMARK Flexibility Score: inf
ROOT
ATOM      1  C   UNL     1       5.405  -1.509   9.787  1.00  0.00     0.274 C 
ENDROOT
BRANCH   1   2
ATOM      2  O   UNL     1       5.444  -1.547   8.348  1.00  0.00    -0.462 OA
BRANCH   2   3
ATOM      3  C   UNL     1       4.441  -0.892   7.679  1.00  0.00     0.309 C 
ATOM      4  O   UNL     1       3.558  -0.250   8.240  1.00  0.00    -0.252 OA
BRANCH   3   5
ATOM      5  C   UNL     1       4.519  -1.172   6.177  1.00  0.00     0.111 C 
ATOM      6  C   UNL     1       3.506  -0.403   5.279  1.00  0.00     0.093 C 
ATOM      7  C   UNL     1       2.076  -0.588   5.800  1.00  0.00     0.014 C 
ATOM      8  C   UNL     1       1.711  -2.065   6.009  1.00  0.00     0.001 C 
ATOM      9  C   UNL     1       4.227  -2.661   5.965  1.00  0.00     0.016 C 
ATOM     10  C   UNL     1       2.826  -3.016   6.461  1.00  0.00     0.001 C 
BRANCH   6  11
ATOM     11  C   UNL     1       3.964   1.023   4.985  1.00  0.00     0.228 C 
ATOM     12  N   UNL     1       3.164   1.949   4.385  1.00  0.00    -0.322 N 
ATOM     13  H   UNL     1       3.386   2.879   4.620  1.00  0.00     0.170 HD
ATOM     14  O   UNL     1       5.107   1.385   5.275  1.00  0.00    -0.274 OA
BRANCH  12  15
ATOM     15  C   UNL     1       2.102   1.833   3.511  1.00  0.00     0.092 A 
ATOM     16  N   UNL     1       0.623   1.295   1.974  1.00  0.00    -0.258 N 
ATOM     17  N   UNL     1       0.212   2.501   2.405  1.00  0.00    -0.178 NA
ATOM     18  C   UNL     1       1.774   0.846   2.598  1.00  0.00     0.150 A 
ATOM     19  C   UNL     1       1.144   2.851   3.287  1.00  0.00     0.162 A 
BRANCH  16  20
ATOM     20  C   UNL     1      -0.129   0.666   0.900  1.00  0.00     0.142 C 
ATOM     21  C   UNL     1       0.494   0.875  -0.469  1.00  0.00     0.029 C 
ENDBRANCH  16  20
BRANCH  18  22
ATOM     22  C   UNL     1       2.503  -0.307   2.130  1.00  0.00     0.276 C 
ATOM     23  O   UNL     1       3.563  -0.229   1.524  1.00  0.00    -0.267 OA
ATOM     24  N   UNL     1       1.824  -1.484   2.358  1.00  0.00    -0.318 N 
ATOM     25  H   UNL     1       1.542  -1.716   3.272  1.00  0.00     0.170 HD
BRANCH  24  26
ATOM     26  C   UNL     1       1.534  -2.341   1.315  1.00  0.00     0.082 A 
ATOM     27  C   UNL     1       1.958  -2.319  -0.029  1.00  0.00     0.161 A 
ATOM     28  C   UNL     1       0.537  -3.293   1.368  1.00  0.00     0.059 A 
ATOM     29  N   UNL     1       1.148  -3.038  -0.809  1.00  0.00    -0.179 NA
ATOM     30  N   UNL     1       0.239  -3.540   0.048  1.00  0.00    -0.271 N 
ATOM     31  C   UNL     1      -0.234  -3.864   2.498  1.00  0.00     0.068 C 
ATOM     32  C   UNL     1      -1.029  -3.999  -0.474  1.00  0.00     0.174 C 
ENDBRANCH  24  26
ENDBRANCH  18  22
ENDBRANCH  12  15
ENDBRANCH   6  11
ENDBRANCH   3   5
ENDBRANCH   2   3
ENDBRANCH   1   2
BRANCH   1  33
ATOM     33  C   UNL     1       6.145  -0.317  10.391  1.00  0.00     0.275 C 
BRANCH  33  34
ATOM     34  O   UNL     1       5.424   0.904  10.219  1.00  0.00    -0.458 OA
BRANCH  34  35
ATOM     35  C   UNL     1       5.694   1.503   9.040  1.00  0.00     0.338 C 
ATOM     36  O   UNL     1       6.389   1.066   8.137  1.00  0.00    -0.246 OA
BRANCH  35  37
ATOM     37  C   UNL     1       5.166   2.865   9.014  1.00  0.00     0.060 A 
ATOM     38  C   UNL     1       4.958   3.422   7.753  1.00  0.00     0.016 A 
ATOM     39  C   UNL     1       5.281   3.653  10.157  1.00  0.00     0.016 A 
ATOM     40  C   UNL     1       5.125   4.773   7.576  1.00  0.00     0.010 A 
ATOM     41  C   UNL     1       5.403   5.015   9.990  1.00  0.00     0.010 A 
ATOM     42  C   UNL     1       5.450   5.539   8.689  1.00  0.00    -0.014 A 
BRANCH  42  43
ATOM     43  C   UNL     1       5.847   6.920   8.463  1.00  0.00     0.031 A 
ATOM     44  C   UNL     1       4.779   7.810   7.925  1.00  0.00     0.074 A 
ATOM     45  C   UNL     1       7.053   7.331   8.905  1.00  0.00     0.049 A 
ATOM     46  N   UNL     1       4.872   8.778   7.071  1.00  0.00    -0.248 NA
ATOM     47  C   UNL     1       3.394   7.528   8.357  1.00  0.00     0.031 C 
ATOM     48  C   UNL     1       8.055   6.531   9.626  1.00  0.00     0.029 A 
ATOM     49  N   UNL     1       7.561   8.590   8.983  1.00  0.00    -0.354 N 
ATOM     50  C   UNL     1       3.599   9.342   7.004  1.00  0.00     0.074 A 
ATOM     51  C   UNL     1       2.708   8.463   7.709  1.00  0.00     0.031 C 
ATOM     52  C   UNL     1       8.863   7.360  10.315  1.00  0.00     0.029 A 
ATOM     53  C   UNL     1       8.501   8.729   9.996  1.00  0.00     0.049 A 
ATOM     54  H   UNL     1       7.290   9.325   8.386  1.00  0.00     0.167 HD
ATOM     55  C   UNL     1       3.391  10.616   6.583  1.00  0.00     0.037 A 
ATOM     56  C   UNL     1       8.853   9.877  10.623  1.00  0.00     0.037 A 
ATOM     57  C   UNL     1       4.422  11.074   5.698  1.00  0.00     0.049 A 
ATOM     58  C   UNL     1       8.379  11.012   9.795  1.00  0.00     0.074 A 
ATOM     59  C   UNL     1       4.908  10.640   4.480  1.00  0.00     0.029 A 
ATOM     60  N   UNL     1       5.346  11.974   6.165  1.00  0.00    -0.354 N 
ATOM     61  N   UNL     1       8.881  11.342   8.639  1.00  0.00    -0.248 NA
ATOM     62  C   UNL     1       7.049  11.539  10.069  1.00  0.00     0.031 C 
ATOM     63  C   UNL     1       6.302  10.924   4.512  1.00  0.00     0.029 A 
ATOM     64  C   UNL     1       6.572  11.533   5.737  1.00  0.00     0.049 A 
ATOM     65  H   UNL     1       5.165  12.779   6.702  1.00  0.00     0.167 HD
ATOM     66  C   UNL     1       7.792  11.754   7.884  1.00  0.00     0.074 A 
ATOM     67  C   UNL     1       6.713  11.956   8.847  1.00  0.00     0.031 C 
ATOM     68  C   UNL     1       7.777  11.617   6.526  1.00  0.00     0.037 A 
BRANCH  55  69
ATOM     69  C   UNL     1       2.417  11.536   7.271  1.00  0.00     0.057 A 
ATOM     70  C   UNL     1       2.068  12.758   6.676  1.00  0.00     0.134 A 
ATOM     71  C   UNL     1       2.031  11.388   8.621  1.00  0.00     0.134 A 
ATOM     72  F   UNL     1       2.412  13.028   5.409  1.00  0.00    -0.206 F 
ATOM     73  C   UNL     1       1.423  13.776   7.389  1.00  0.00     0.040 A 
ATOM     74  C   UNL     1       1.341  12.376   9.325  1.00  0.00     0.040 A 
ATOM     75  F   UNL     1       2.386  10.325   9.355  1.00  0.00    -0.206 F 
ATOM     76  C   UNL     1       1.059  13.588   8.718  1.00  0.00     0.006 A 
ENDBRANCH  55  69
BRANCH  56  77
ATOM     77  C   UNL     1       9.294  10.037  12.028  1.00  0.00     0.057 A 
ATOM     78  C   UNL     1       9.974  11.187  12.446  1.00  0.00     0.134 A 
ATOM     79  C   UNL     1       8.877   9.163  13.051  1.00  0.00     0.134 A 
ATOM     80  F   UNL     1      10.361  12.110  11.554  1.00  0.00    -0.206 F 
ATOM     81  C   UNL     1      10.233  11.449  13.799  1.00  0.00     0.040 A 
ATOM     82  C   UNL     1       9.145   9.402  14.402  1.00  0.00     0.040 A 
ATOM     83  F   UNL     1       8.123   8.086  12.784  1.00  0.00    -0.206 F 
ATOM     84  C   UNL     1       9.819  10.554  14.781  1.00  0.00     0.006 A 
ENDBRANCH  56  77
BRANCH  68  85
ATOM     85  C   UNL     1       9.059  11.225   5.846  1.00  0.00     0.057 A 
ATOM     86  C   UNL     1       9.697   9.993   6.055  1.00  0.00     0.134 A 
ATOM     87  C   UNL     1       9.574  12.039   4.833  1.00  0.00     0.134 A 
ATOM     88  F   UNL     1       9.208   9.099   6.920  1.00  0.00    -0.206 F 
ATOM     89  C   UNL     1      10.828   9.613   5.328  1.00  0.00     0.040 A 
ATOM     90  C   UNL     1      10.684  11.656   4.075  1.00  0.00     0.040 A 
ATOM     91  F   UNL     1       8.975  13.201   4.527  1.00  0.00    -0.206 F 
ATOM     92  C   UNL     1      11.322  10.445   4.330  1.00  0.00     0.006 A 
ENDBRANCH  68  85
ENDBRANCH  42  43
ENDBRANCH  35  37
ENDBRANCH  34  35
ENDBRANCH  33  34
ENDBRANCH   1  33
TORSDOF 16
