REMARK SMILES Cc1cc(-c2cncc(C(=O)OCCOC(=O)c3ccc(-c4c5nc(c(-c6c(F)cccc6F)c6ccc([nH]6)c(-c6c(F)cccc6F)c6nc(c(-c7c(F)cccc7F)c7ccc4[nH]7)C=C6)C=C5)cc3)c2)ccc1F
REMARK SMILES IDX 14 1 13 2 12 3 10 4 11 5 9 6 5 7 6 8 72 9 7 10 8 11 4 12
REMARK SMILES IDX 1 13 2 14 3 15 75 16 74 17 76 18 73 19 15 20 16 21 17 22
REMARK SMILES IDX 18 23 19 24 71 25 20 26 70 27 21 28 22 29 23 30 64 31 24 32
REMARK SMILES IDX 69 33 63 34 65 35 25 36 68 37 62 38 61 39 26 41 52 42 35 43
REMARK SMILES IDX 51 44 36 45 39 46 50 47 66 48 37 49 38 50 49 52 67 53 40 54
REMARK SMILES IDX 27 55 28 56 33 57 29 58 30 59 32 60 34 61 31 62 53 63 54 64
REMARK SMILES IDX 59 65 55 66 56 67 58 68 60 69 57 70 41 71 42 72 47 73 43 74
REMARK SMILES IDX 44 75 46 76 48 77 45 78
REMARK H PARENT 65 40 39 51
REMARK Flexibility Score: inf
ROOT
ATOM      1  C   UNL     1      -5.875   4.234  -4.907  1.00  0.00     0.275 C 
ENDROOT
BRANCH   1   2
ATOM      2  C   UNL     1      -4.752   4.790  -4.026  1.00  0.00     0.275 C 
BRANCH   2   3
ATOM      3  O   UNL     1      -4.339   3.877  -2.982  1.00  0.00    -0.458 OA
BRANCH   3   4
ATOM      4  C   UNL     1      -4.958   3.992  -1.777  1.00  0.00     0.339 C 
ATOM      5  O   UNL     1      -5.785   4.840  -1.469  1.00  0.00    -0.246 OA
BRANCH   4   6
ATOM      6  C   UNL     1      -4.598   2.874  -0.877  1.00  0.00     0.079 A 
ATOM      7  C   UNL     1      -3.139   1.099  -0.108  1.00  0.00     0.001 A 
ATOM      8  C   UNL     1      -4.070   0.853   0.902  1.00  0.00     0.119 A 
ATOM      9  C   UNL     1      -3.454   2.100  -1.042  1.00  0.00     0.027 A 
ATOM     10  N   UNL     1      -5.206   1.565   1.076  1.00  0.00    -0.263 NA
ATOM     11  C   UNL     1      -5.414   2.587   0.209  1.00  0.00     0.126 A 
BRANCH   7  12
ATOM     12  C   UNL     1      -1.822   0.461  -0.112  1.00  0.00    -0.016 A 
ATOM     13  C   UNL     1       1.807   1.645   0.009  1.00  0.00     0.047 C 
ATOM     14  C   UNL     1       0.611   0.747  -0.035  1.00  0.00    -0.015 A 
ATOM     15  C   UNL     1      -0.678   1.283  -0.081  1.00  0.00     0.015 A 
ATOM     16  C   UNL     1       0.750  -0.638  -0.020  1.00  0.00     0.126 A 
ATOM     17  C   UNL     1      -0.363  -1.476  -0.049  1.00  0.00     0.040 A 
ATOM     18  F   UNL     1       1.973  -1.183   0.029  1.00  0.00    -0.207 F 
ATOM     19  C   UNL     1      -1.649  -0.930  -0.093  1.00  0.00     0.012 A 
ENDBRANCH   7  12
ENDBRANCH   4   6
ENDBRANCH   3   4
ENDBRANCH   2   3
ENDBRANCH   1   2
BRANCH   1  20
ATOM     20  O   UNL     1      -7.110   4.212  -4.191  1.00  0.00    -0.458 OA
BRANCH  20  21
ATOM     21  C   UNL     1      -7.238   3.100  -3.443  1.00  0.00     0.338 C 
ATOM     22  O   UNL     1      -6.449   2.171  -3.345  1.00  0.00    -0.246 OA
BRANCH  21  23
ATOM     23  C   UNL     1      -8.561   3.042  -2.828  1.00  0.00     0.060 A 
ATOM     24  C   UNL     1      -8.585   2.326  -1.620  1.00  0.00     0.016 A 
ATOM     25  C   UNL     1      -9.565   2.937  -3.784  1.00  0.00     0.016 A 
ATOM     26  C   UNL     1      -9.402   1.228  -1.520  1.00  0.00     0.010 A 
ATOM     27  C   UNL     1     -10.377   1.843  -3.689  1.00  0.00     0.010 A 
ATOM     28  C   UNL     1     -10.214   0.958  -2.609  1.00  0.00    -0.014 A 
BRANCH  28  29
ATOM     29  C   UNL     1     -11.066  -0.196  -2.669  1.00  0.00     0.031 A 
ATOM     30  C   UNL     1     -12.376  -0.055  -2.026  1.00  0.00     0.074 A 
ATOM     31  C   UNL     1     -10.708  -1.173  -3.524  1.00  0.00     0.049 A 
ATOM     32  N   UNL     1     -13.208  -1.015  -1.879  1.00  0.00    -0.248 NA
ATOM     33  C   UNL     1     -12.840   1.208  -1.443  1.00  0.00     0.031 C 
ATOM     34  C   UNL     1     -11.568  -2.129  -4.200  1.00  0.00     0.029 A 
ATOM     35  N   UNL     1      -9.408  -1.596  -3.827  1.00  0.00    -0.354 N 
ATOM     36  C   UNL     1     -14.404  -0.454  -1.500  1.00  0.00     0.074 A 
ATOM     37  C   UNL     1     -14.107   0.909  -1.144  1.00  0.00     0.031 C 
ATOM     38  C   UNL     1     -10.821  -3.161  -4.629  1.00  0.00     0.029 A 
ATOM     39  C   UNL     1      -9.494  -2.985  -4.060  1.00  0.00     0.049 A 
ATOM     40  H   UNL     1      -8.598  -1.038  -3.869  1.00  0.00     0.167 HD
ATOM     41  C   UNL     1     -15.535  -1.181  -1.692  1.00  0.00     0.037 A 
ATOM     42  C   UNL     1      -8.918  -3.869  -3.188  1.00  0.00     0.037 A 
ATOM     43  C   UNL     1     -15.197  -2.496  -2.217  1.00  0.00     0.049 A 
ATOM     44  C   UNL     1      -9.933  -4.766  -2.517  1.00  0.00     0.074 A 
ATOM     45  C   UNL     1     -15.067  -2.974  -3.511  1.00  0.00     0.029 A 
ATOM     46  N   UNL     1     -14.516  -3.380  -1.395  1.00  0.00    -0.354 N 
ATOM     47  N   UNL     1     -11.172  -4.423  -2.287  1.00  0.00    -0.248 NA
ATOM     48  C   UNL     1      -9.652  -6.142  -2.121  1.00  0.00     0.031 C 
ATOM     49  C   UNL     1     -14.260  -4.139  -3.465  1.00  0.00     0.029 A 
ATOM     50  C   UNL     1     -13.918  -4.371  -2.144  1.00  0.00     0.049 A 
ATOM     51  H   UNL     1     -14.466  -3.310  -0.414  1.00  0.00     0.167 HD
ATOM     52  C   UNL     1     -11.856  -5.497  -1.772  1.00  0.00     0.074 A 
ATOM     53  C   UNL     1     -10.857  -6.544  -1.680  1.00  0.00     0.031 C 
ATOM     54  C   UNL     1     -13.191  -5.441  -1.485  1.00  0.00     0.037 A 
BRANCH  41  55
ATOM     55  C   UNL     1     -16.922  -0.618  -1.666  1.00  0.00     0.057 A 
ATOM     56  C   UNL     1     -17.904  -1.111  -2.547  1.00  0.00     0.134 A 
ATOM     57  C   UNL     1     -17.355   0.403  -0.805  1.00  0.00     0.134 A 
ATOM     58  F   UNL     1     -17.640  -2.096  -3.416  1.00  0.00    -0.206 F 
ATOM     59  C   UNL     1     -19.206  -0.607  -2.593  1.00  0.00     0.040 A 
ATOM     60  C   UNL     1     -18.646   0.947  -0.870  1.00  0.00     0.040 A 
ATOM     61  F   UNL     1     -16.560   0.890   0.158  1.00  0.00    -0.206 F 
ATOM     62  C   UNL     1     -19.579   0.438  -1.764  1.00  0.00     0.006 A 
ENDBRANCH  41  55
BRANCH  42  63
ATOM     63  C   UNL     1      -7.679  -3.321  -2.563  1.00  0.00     0.057 A 
ATOM     64  C   UNL     1      -6.575  -3.095  -3.407  1.00  0.00     0.134 A 
ATOM     65  C   UNL     1      -7.728  -2.592  -1.369  1.00  0.00     0.134 A 
ATOM     66  F   UNL     1      -6.459  -3.773  -4.560  1.00  0.00    -0.206 F 
ATOM     67  C   UNL     1      -5.656  -2.072  -3.160  1.00  0.00     0.040 A 
ATOM     68  C   UNL     1      -6.808  -1.568  -1.108  1.00  0.00     0.040 A 
ATOM     69  F   UNL     1      -8.737  -2.765  -0.504  1.00  0.00    -0.206 F 
ATOM     70  C   UNL     1      -5.803  -1.274  -2.030  1.00  0.00     0.006 A 
ENDBRANCH  42  63
BRANCH  54  71
ATOM     71  C   UNL     1     -13.988  -6.393  -0.616  1.00  0.00     0.057 A 
ATOM     72  C   UNL     1     -13.428  -7.242   0.346  1.00  0.00     0.134 A 
ATOM     73  C   UNL     1     -15.406  -6.330  -0.595  1.00  0.00     0.134 A 
ATOM     74  F   UNL     1     -12.105  -7.343   0.517  1.00  0.00    -0.206 F 
ATOM     75  C   UNL     1     -14.212  -7.989   1.237  1.00  0.00     0.040 A 
ATOM     76  C   UNL     1     -16.191  -7.012   0.336  1.00  0.00     0.040 A 
ATOM     77  F   UNL     1     -16.102  -5.572  -1.456  1.00  0.00    -0.206 F 
ATOM     78  C   UNL     1     -15.595  -7.858   1.251  1.00  0.00     0.006 A 
ENDBRANCH  54  71
ENDBRANCH  28  29
ENDBRANCH  21  23
ENDBRANCH  20  21
ENDBRANCH   1  20
TORSDOF 12
