REMARK SMILES CN1C(=O)/C(=N\Nc2cccc(C(=O)OCCOC(=O)c3ccc(-c4c5nc(c(-c6c(F)cccc6F)c6ccc([nH]6)c(-c6c(F)cccc6F)c6nc(c(-c7c(F)cccc7F)c7ccc4[nH]7)C=C6)C=C5)cc3)c2)c2ccccc21
REMARK SMILES IDX 16 1 15 2 13 3 14 4 12 5 8 6 9 7 75 8 10 9 11 10 7 11 6 13
REMARK SMILES IDX 1 14 2 15 3 16 81 17 4 18 5 19 76 20 80 21 77 22 79 23 78 24
REMARK SMILES IDX 17 25 18 26 19 27 20 28 21 29 22 30 74 31 23 32 73 33 24 34
REMARK SMILES IDX 25 35 26 36 67 37 27 38 72 39 66 40 68 41 28 42 71 43 65 44
REMARK SMILES IDX 64 45 29 47 55 48 38 49 54 50 39 51 42 52 53 53 69 54 40 55
REMARK SMILES IDX 41 56 52 58 70 59 43 60 30 61 31 62 36 63 32 64 33 65 35 66
REMARK SMILES IDX 37 67 34 68 56 69 57 70 62 71 58 72 59 73 61 74 63 75 60 76
REMARK SMILES IDX 44 77 45 78 50 79 46 80 47 81 49 82 51 83 48 84
REMARK H PARENT 7 12 68 46 42 57
REMARK Flexibility Score: inf
ROOT
ATOM      1  C   UNL     1      -3.067   2.178  -3.622  1.00  0.00     0.275 C 
ENDROOT
BRANCH   1   2
ATOM      2  O   UNL     1      -3.273   1.000  -2.816  1.00  0.00    -0.458 OA
BRANCH   2   3
ATOM      3  C   UNL     1      -3.801   1.220  -1.587  1.00  0.00     0.338 C 
ATOM      4  O   UNL     1      -4.058   2.304  -1.087  1.00  0.00    -0.246 OA
BRANCH   3   5
ATOM      5  C   UNL     1      -4.069  -0.062  -0.901  1.00  0.00     0.062 A 
ATOM      6  C   UNL     1      -3.188  -2.119   0.016  1.00  0.00     0.057 A 
ATOM      7  C   UNL     1      -4.372  -2.276   0.755  1.00  0.00     0.028 A 
ATOM      8  C   UNL     1      -3.095  -1.062  -0.898  1.00  0.00     0.043 A 
ATOM      9  C   UNL     1      -5.383  -1.320   0.694  1.00  0.00     0.003 A 
ATOM     10  C   UNL     1      -5.202  -0.185  -0.089  1.00  0.00     0.016 A 
BRANCH   6  11
ATOM     11  N   UNL     1      -2.059  -2.865   0.416  1.00  0.00    -0.278 N 
ATOM     12  H   UNL     1      -2.219  -3.727   0.864  1.00  0.00     0.190 HD
BRANCH  11  13
ATOM     13  N   UNL     1      -0.772  -2.486   0.229  1.00  0.00    -0.169 NA
ATOM     14  C   UNL     1      -0.827   2.389   0.860  1.00  0.00     0.153 C 
ATOM     15  N   UNL     1      -0.388   1.024   0.748  1.00  0.00    -0.309 N 
ATOM     16  C   UNL     1      -1.125  -0.078   1.152  1.00  0.00     0.279 C 
ATOM     17  C   UNL     1       0.861   0.622   0.255  1.00  0.00     0.053 A 
ATOM     18  O   UNL     1      -2.111  -0.101   1.857  1.00  0.00    -0.267 OA
ATOM     19  C   UNL     1      -0.377  -1.288   0.550  1.00  0.00     0.158 C 
ATOM     20  C   UNL     1       0.942  -0.769   0.194  1.00  0.00     0.031 A 
ATOM     21  C   UNL     1       1.943   1.403  -0.099  1.00  0.00     0.027 A 
ATOM     22  C   UNL     1       2.082  -1.439  -0.202  1.00  0.00     0.013 A 
ATOM     23  C   UNL     1       3.121   0.749  -0.480  1.00  0.00     0.002 A 
ATOM     24  C   UNL     1       3.192  -0.658  -0.524  1.00  0.00     0.001 A 
ENDBRANCH  11  13
ENDBRANCH   6  11
ENDBRANCH   3   5
ENDBRANCH   2   3
ENDBRANCH   1   2
BRANCH   1  25
ATOM     25  C   UNL     1      -4.229   2.359  -4.596  1.00  0.00     0.275 C 
BRANCH  25  26
ATOM     26  O   UNL     1      -5.433   2.595  -3.847  1.00  0.00    -0.458 OA
BRANCH  26  27
ATOM     27  C   UNL     1      -6.544   1.953  -4.274  1.00  0.00     0.338 C 
ATOM     28  O   UNL     1      -6.666   1.282  -5.285  1.00  0.00    -0.246 OA
BRANCH  27  29
ATOM     29  C   UNL     1      -7.644   2.194  -3.316  1.00  0.00     0.060 A 
ATOM     30  C   UNL     1      -7.406   2.170  -1.942  1.00  0.00     0.016 A 
ATOM     31  C   UNL     1      -8.943   2.382  -3.786  1.00  0.00     0.016 A 
ATOM     32  C   UNL     1      -8.459   2.264  -1.035  1.00  0.00     0.010 A 
ATOM     33  C   UNL     1      -9.988   2.573  -2.876  1.00  0.00     0.010 A 
ATOM     34  C   UNL     1      -9.763   2.492  -1.489  1.00  0.00    -0.014 A 
BRANCH  34  35
ATOM     35  C   UNL     1     -10.895   2.615  -0.529  1.00  0.00     0.031 A 
ATOM     36  C   UNL     1     -12.065   1.674  -0.625  1.00  0.00     0.074 A 
ATOM     37  C   UNL     1     -10.891   3.565   0.428  1.00  0.00     0.049 A 
ATOM     38  N   UNL     1     -13.243   1.756  -0.059  1.00  0.00    -0.248 NA
ATOM     39  C   UNL     1     -11.891   0.493  -1.484  1.00  0.00     0.031 C 
ATOM     40  C   UNL     1      -9.807   4.515   0.682  1.00  0.00     0.029 A 
ATOM     41  N   UNL     1     -11.839   3.885   1.369  1.00  0.00    -0.354 N 
ATOM     42  C   UNL     1     -13.971   0.678  -0.547  1.00  0.00     0.074 A 
ATOM     43  C   UNL     1     -13.100  -0.050  -1.444  1.00  0.00     0.031 C 
ATOM     44  C   UNL     1     -10.135   5.288   1.729  1.00  0.00     0.029 A 
ATOM     45  C   UNL     1     -11.485   4.948   2.165  1.00  0.00     0.049 A 
ATOM     46  H   UNL     1     -12.690   3.400   1.465  1.00  0.00     0.167 HD
ATOM     47  C   UNL     1     -15.252   0.334  -0.276  1.00  0.00     0.037 A 
ATOM     48  C   UNL     1     -12.183   5.610   3.107  1.00  0.00     0.037 A 
ATOM     49  C   UNL     1     -16.099   1.020   0.663  1.00  0.00     0.049 A 
ATOM     50  C   UNL     1     -13.603   5.216   3.388  1.00  0.00     0.074 A 
ATOM     51  C   UNL     1     -17.413   0.748   1.003  1.00  0.00     0.029 A 
ATOM     52  N   UNL     1     -15.702   2.102   1.434  1.00  0.00    -0.354 N 
ATOM     53  N   UNL     1     -14.315   4.257   2.849  1.00  0.00    -0.248 NA
ATOM     54  C   UNL     1     -14.327   6.016   4.386  1.00  0.00     0.031 C 
ATOM     55  C   UNL     1     -17.817   1.676   1.970  1.00  0.00     0.029 A 
ATOM     56  C   UNL     1     -16.745   2.509   2.249  1.00  0.00     0.049 A 
ATOM     57  H   UNL     1     -14.811   2.519   1.406  1.00  0.00     0.167 HD
ATOM     58  C   UNL     1     -15.571   4.343   3.433  1.00  0.00     0.074 A 
ATOM     59  C   UNL     1     -15.517   5.430   4.389  1.00  0.00     0.031 C 
ATOM     60  C   UNL     1     -16.675   3.597   3.188  1.00  0.00     0.037 A 
BRANCH  47  61
ATOM     61  C   UNL     1     -15.828  -0.821  -1.037  1.00  0.00     0.057 A 
ATOM     62  C   UNL     1     -15.505  -2.148  -0.731  1.00  0.00     0.134 A 
ATOM     63  C   UNL     1     -16.735  -0.597  -2.081  1.00  0.00     0.134 A 
ATOM     64  F   UNL     1     -14.629  -2.426   0.245  1.00  0.00    -0.206 F 
ATOM     65  C   UNL     1     -16.052  -3.213  -1.450  1.00  0.00     0.040 A 
ATOM     66  C   UNL     1     -17.303  -1.654  -2.793  1.00  0.00     0.040 A 
ATOM     67  F   UNL     1     -17.086   0.652  -2.422  1.00  0.00    -0.206 F 
ATOM     68  C   UNL     1     -16.958  -2.967  -2.481  1.00  0.00     0.006 A 
ENDBRANCH  47  61
BRANCH  48  69
ATOM     69  C   UNL     1     -11.558   6.753   3.817  1.00  0.00     0.057 A 
ATOM     70  C   UNL     1     -11.172   6.646   5.156  1.00  0.00     0.134 A 
ATOM     71  C   UNL     1     -11.318   7.970   3.167  1.00  0.00     0.134 A 
ATOM     72  F   UNL     1     -11.400   5.513   5.837  1.00  0.00    -0.206 F 
ATOM     73  C   UNL     1     -10.568   7.710   5.827  1.00  0.00     0.040 A 
ATOM     74  C   UNL     1     -10.696   9.034   3.819  1.00  0.00     0.040 A 
ATOM     75  F   UNL     1     -11.668   8.132   1.883  1.00  0.00    -0.206 F 
ATOM     76  C   UNL     1     -10.321   8.907   5.155  1.00  0.00     0.006 A 
ENDBRANCH  48  69
BRANCH  60  77
ATOM     77  C   UNL     1     -17.907   3.933   3.969  1.00  0.00     0.057 A 
ATOM     78  C   UNL     1     -18.706   5.031   3.631  1.00  0.00     0.134 A 
ATOM     79  C   UNL     1     -18.311   3.138   5.047  1.00  0.00     0.134 A 
ATOM     80  F   UNL     1     -18.361   5.837   2.615  1.00  0.00    -0.206 F 
ATOM     81  C   UNL     1     -19.863   5.336   4.350  1.00  0.00     0.040 A 
ATOM     82  C   UNL     1     -19.474   3.425   5.764  1.00  0.00     0.040 A 
ATOM     83  F   UNL     1     -17.587   2.071   5.417  1.00  0.00    -0.206 F 
ATOM     84  C   UNL     1     -20.251   4.528   5.417  1.00  0.00     0.006 A 
ENDBRANCH  60  77
ENDBRANCH  34  35
ENDBRANCH  27  29
ENDBRANCH  26  27
ENDBRANCH  25  26
ENDBRANCH   1  25
TORSDOF 13
