REMARK SMILES O=C(OCCOC(=O)[C@]1(CCc2cccnc2)CCC[NH2+]C1)c1ccc(-c2c3nc(c(-c4c(F)cccc4F)c4ccc([nH]4)c(-c4c(F)cccc4F)c4nc(c(-c5c(F)cccc5F)c5ccc2[nH]5)C=C4)C=C3)cc1
REMARK SMILES IDX 5 1 4 2 3 3 2 4 1 5 23 6 24 7 76 8 25 9 75 10 26 11 27 12
REMARK SMILES IDX 28 13 69 14 29 15 74 16 68 17 70 18 30 19 73 20 67 21 66 22
REMARK SMILES IDX 31 24 57 25 40 26 56 27 41 28 44 29 55 30 71 31 42 32 43 33
REMARK SMILES IDX 54 35 72 36 45 37 32 38 33 39 38 40 34 41 35 42 37 43 39 44
REMARK SMILES IDX 36 45 58 46 59 47 64 48 60 49 61 50 63 51 65 52 62 53 46 54
REMARK SMILES IDX 47 55 52 56 48 57 49 58 51 59 53 60 50 61 6 62 7 63 8 64
REMARK SMILES IDX 9 65 18 66 22 67 19 68 21 69 20 70 10 73 11 74 12 75 13 76
REMARK SMILES IDX 17 77 14 78 16 79 15 80
REMARK H PARENT 70 23 44 34 21 71 21 72
REMARK Flexibility Score: inf
ROOT
ATOM      1  C   UNL     1       4.492   0.485   2.130  1.00  0.00     0.274 C 
ENDROOT
BRANCH   1   2
ATOM      2  C   UNL     1       4.293   2.122   1.089  1.00  0.00     0.275 C 
BRANCH   2   3
ATOM      3  O   UNL     1       3.049   1.926  -0.314  1.00  0.00    -0.458 OA
BRANCH   3   4
ATOM      4  C   UNL     1       2.395   0.097  -0.629  1.00  0.00     0.338 C 
ATOM      5  O   UNL     1       1.251  -0.200  -0.229  1.00  0.00    -0.246 OA
BRANCH   4   6
ATOM      6  C   UNL     1       3.602  -1.210  -1.357  1.00  0.00     0.060 A 
ATOM      7  C   UNL     1       4.831  -1.670  -0.764  1.00  0.00     0.016 A 
ATOM      8  C   UNL     1       3.520  -1.648  -2.708  1.00  0.00     0.016 A 
ATOM      9  C   UNL     1       5.715  -2.595  -1.352  1.00  0.00     0.010 A 
ATOM     10  C   UNL     1       4.305  -2.654  -3.263  1.00  0.00     0.010 A 
ATOM     11  C   UNL     1       5.392  -3.162  -2.569  1.00  0.00    -0.014 A 
BRANCH  11  12
ATOM     12  C   UNL     1       6.094  -4.309  -3.164  1.00  0.00     0.031 A 
ATOM     13  C   UNL     1       6.689  -4.144  -4.526  1.00  0.00     0.074 A 
ATOM     14  C   UNL     1       5.930  -5.509  -2.576  1.00  0.00     0.049 A 
ATOM     15  N   UNL     1       7.097  -5.057  -5.359  1.00  0.00    -0.248 NA
ATOM     16  C   UNL     1       6.804  -2.764  -5.037  1.00  0.00     0.031 C 
ATOM     17  C   UNL     1       5.341  -5.730  -1.253  1.00  0.00     0.029 A 
ATOM     18  N   UNL     1       6.161  -6.776  -3.035  1.00  0.00    -0.354 N 
ATOM     19  C   UNL     1       7.527  -4.366  -6.482  1.00  0.00     0.074 A 
ATOM     20  C   UNL     1       7.234  -2.968  -6.273  1.00  0.00     0.031 C 
ATOM     21  C   UNL     1       5.149  -7.041  -1.052  1.00  0.00     0.029 A 
ATOM     22  C   UNL     1       5.640  -7.754  -2.216  1.00  0.00     0.049 A 
ATOM     23  H   UNL     1       6.650  -6.970  -3.867  1.00  0.00     0.167 HD
ATOM     24  C   UNL     1       8.164  -4.871  -7.561  1.00  0.00     0.037 A 
ATOM     25  C   UNL     1       5.579  -9.084  -2.395  1.00  0.00     0.037 A 
ATOM     26  C   UNL     1       8.455  -6.272  -7.691  1.00  0.00     0.049 A 
ATOM     27  C   UNL     1       6.282  -9.623  -3.604  1.00  0.00     0.074 A 
ATOM     28  C   UNL     1       9.195  -6.921  -8.659  1.00  0.00     0.029 A 
ATOM     29  N   UNL     1       8.007  -7.244  -6.802  1.00  0.00    -0.354 N 
ATOM     30  N   UNL     1       6.827  -8.958  -4.597  1.00  0.00    -0.248 NA
ATOM     31  C   UNL     1       6.435 -11.077  -3.688  1.00  0.00     0.031 C 
ATOM     32  C   UNL     1       9.159  -8.291  -8.376  1.00  0.00     0.029 A 
ATOM     33  C   UNL     1       8.428  -8.493  -7.213  1.00  0.00     0.049 A 
ATOM     34  H   UNL     1       7.468  -7.067  -5.997  1.00  0.00     0.167 HD
ATOM     35  C   UNL     1       7.438  -9.906  -5.398  1.00  0.00     0.074 A 
ATOM     36  C   UNL     1       7.196 -11.192  -4.768  1.00  0.00     0.031 C 
ATOM     37  C   UNL     1       8.145  -9.738  -6.542  1.00  0.00     0.037 A 
BRANCH  24  38
ATOM     38  C   UNL     1       8.606  -3.908  -8.622  1.00  0.00     0.057 A 
ATOM     39  C   UNL     1       9.608  -2.955  -8.381  1.00  0.00     0.134 A 
ATOM     40  C   UNL     1       8.031  -3.922  -9.898  1.00  0.00     0.134 A 
ATOM     41  F   UNL     1      10.191  -2.872  -7.175  1.00  0.00    -0.206 F 
ATOM     42  C   UNL     1       9.997  -2.034  -9.355  1.00  0.00     0.040 A 
ATOM     43  C   UNL     1       8.429  -3.023 -10.890  1.00  0.00     0.040 A 
ATOM     44  F   UNL     1       7.065  -4.803 -10.199  1.00  0.00    -0.206 F 
ATOM     45  C   UNL     1       9.410  -2.070 -10.618  1.00  0.00     0.006 A 
ENDBRANCH  24  38
BRANCH  25  46
ATOM     46  C   UNL     1       4.942  -9.961  -1.380  1.00  0.00     0.057 A 
ATOM     47  C   UNL     1       5.713 -10.776  -0.543  1.00  0.00     0.134 A 
ATOM     48  C   UNL     1       3.553  -9.996  -1.201  1.00  0.00     0.134 A 
ATOM     49  F   UNL     1       7.050 -10.780  -0.654  1.00  0.00    -0.206 F 
ATOM     50  C   UNL     1       5.130 -11.624   0.401  1.00  0.00     0.040 A 
ATOM     51  C   UNL     1       2.956 -10.824  -0.245  1.00  0.00     0.040 A 
ATOM     52  F   UNL     1       2.753  -9.215  -1.943  1.00  0.00    -0.206 F 
ATOM     53  C   UNL     1       3.746 -11.651   0.551  1.00  0.00     0.006 A 
ENDBRANCH  25  46
BRANCH  37  54
ATOM     54  C   UNL     1       8.690 -10.983  -7.163  1.00  0.00     0.057 A 
ATOM     55  C   UNL     1       7.852 -11.894  -7.816  1.00  0.00     0.134 A 
ATOM     56  C   UNL     1      10.064 -11.244  -7.147  1.00  0.00     0.134 A 
ATOM     57  F   UNL     1       6.525 -11.700  -7.842  1.00  0.00    -0.206 F 
ATOM     58  C   UNL     1       8.364 -13.038  -8.421  1.00  0.00     0.040 A 
ATOM     59  C   UNL     1      10.591 -12.369  -7.777  1.00  0.00     0.040 A 
ATOM     60  F   UNL     1      10.913 -10.401  -6.540  1.00  0.00    -0.206 F 
ATOM     61  C   UNL     1       9.739 -13.272  -8.412  1.00  0.00     0.006 A 
ENDBRANCH  37  54
ENDBRANCH  11  12
ENDBRANCH   4   6
ENDBRANCH   3   4
ENDBRANCH   2   3
ENDBRANCH   1   2
BRANCH   1  62
ATOM     62  O   UNL     1       3.694  -1.040   1.615  1.00  0.00    -0.461 OA
BRANCH  62  63
ATOM     63  C   UNL     1       2.353  -1.557   1.569  1.00  0.00     0.317 C 
ATOM     64  O   UNL     1       1.605  -1.270   2.515  1.00  0.00    -0.251 OA
BRANCH  63  65
ATOM     65  C   UNL     1       1.675  -2.469   0.129  1.00  0.00     0.117 C 
ATOM     66  C   UNL     1       0.339  -3.091   0.746  1.00  0.00     0.030 C 
ATOM     67  C   UNL     1       2.480  -3.778  -0.143  1.00  0.00     0.279 C 
ATOM     68  C   UNL     1       0.562  -4.081   1.909  1.00  0.00     0.063 C 
ATOM     69  N   UNL     1       2.804  -4.564   1.050  1.00  0.00    -0.345 N 
ATOM     70  C   UNL     1       1.592  -5.157   1.596  1.00  0.00     0.260 C 
ATOM     71  H   UNL     1       3.460  -5.304   0.800  1.00  0.00     0.346 HD
ATOM     72  H   UNL     1       3.225  -3.953   1.751  1.00  0.00     0.346 HD
BRANCH  65  73
ATOM     73  C   UNL     1       1.034  -1.832  -1.551  1.00  0.00     0.029 C 
BRANCH  73  74
ATOM     74  C   UNL     1       1.171  -0.203  -2.540  1.00  0.00     0.038 C 
BRANCH  74  75
ATOM     75  C   UNL     1       2.248   1.355  -2.304  1.00  0.00    -0.030 A 
ATOM     76  C   UNL     1       1.097   2.055  -1.211  1.00  0.00     0.007 A 
ATOM     77  C   UNL     1       3.861   0.976  -1.687  1.00  0.00     0.114 A 
ATOM     78  C   UNL     1       1.153   1.895   0.465  1.00  0.00     0.020 A 
ATOM     79  N   UNL     1       3.968   0.527   0.079  1.00  0.00    -0.264 NA
ATOM     80  C   UNL     1       2.455   1.024   1.136  1.00  0.00     0.111 A 
ENDBRANCH  74  75
ENDBRANCH  73  74
ENDBRANCH  65  73
ENDBRANCH  63  65
ENDBRANCH  62  63
ENDBRANCH   1  62
TORSDOF 14
