REMARK SMILES O=C(Cc1ccc(-c2ccc(Cl)cc2)cc1)OCCOC(=O)c1ccc(-c2c3nc(c(-c4c(F)cccc4F)c4ccc([nH]4)c(-c4c(F)cccc4F)c4nc(c(-c5c(F)cccc5F)c5ccc2[nH]5)C=C4)C=C3)cc1
REMARK SMILES IDX 18 1 17 2 2 3 1 4 3 5 4 6 5 7 16 8 6 9 15 10 7 11 8 12 9 13
REMARK SMILES IDX 14 14 10 15 13 16 11 17 12 18 19 19 20 20 21 21 22 22 23 23
REMARK SMILES IDX 24 24 76 25 25 26 75 27 26 28 27 29 28 30 69 31 29 32 74 33
REMARK SMILES IDX 68 34 70 35 30 36 73 37 67 38 66 39 31 41 57 42 40 43 56 44
REMARK SMILES IDX 41 45 44 46 55 47 71 48 42 49 43 50 54 52 72 53 45 54 32 55
REMARK SMILES IDX 33 56 38 57 34 58 35 59 37 60 39 61 36 62 58 63 59 64 64 65
REMARK SMILES IDX 60 66 61 67 63 68 65 69 62 70 46 71 47 72 52 73 48 74 49 75
REMARK SMILES IDX 51 76 53 77 50 78
REMARK H PARENT 70 40 44 51
REMARK Flexibility Score: inf
ROOT
ATOM      1  C   UNL     1       4.086   0.795  -0.851  1.00  0.00     0.274 C 
ENDROOT
BRANCH   1   2
ATOM      2  O   UNL     1       2.718   0.347  -0.950  1.00  0.00    -0.462 OA
BRANCH   2   3
ATOM      3  C   UNL     1       2.210  -0.720  -0.284  1.00  0.00     0.310 C 
ATOM      4  O   UNL     1       1.210  -1.295  -0.711  1.00  0.00    -0.252 OA
BRANCH   3   5
ATOM      5  C   UNL     1       2.837  -1.126   1.029  1.00  0.00     0.158 C 
BRANCH   5   6
ATOM      6  C   UNL     1       3.781  -2.292   0.965  1.00  0.00    -0.037 A 
ATOM      7  C   UNL     1       3.301  -3.582   0.737  1.00  0.00     0.005 A 
ATOM      8  C   UNL     1       5.153  -2.100   1.169  1.00  0.00     0.005 A 
ATOM      9  C   UNL     1       4.187  -4.659   0.689  1.00  0.00     0.009 A 
ATOM     10  C   UNL     1       6.037  -3.175   1.096  1.00  0.00     0.009 A 
ATOM     11  C   UNL     1       5.570  -4.473   0.850  1.00  0.00    -0.018 A 
BRANCH  11  12
ATOM     12  C   UNL     1       6.502  -5.607   0.755  1.00  0.00    -0.018 A 
ATOM     13  C   UNL     1       6.414  -6.518  -0.312  1.00  0.00     0.010 A 
ATOM     14  C   UNL     1       7.505  -5.810   1.718  1.00  0.00     0.010 A 
ATOM     15  C   UNL     1       7.287  -7.603  -0.407  1.00  0.00     0.021 A 
ATOM     16  C   UNL     1       8.383  -6.893   1.625  1.00  0.00     0.021 A 
ATOM     17  C   UNL     1       8.267  -7.787   0.564  1.00  0.00     0.041 A 
ATOM     18  Cl  UNL     1       9.338  -9.128   0.454  1.00  0.00    -0.084 Cl
ENDBRANCH  11  12
ENDBRANCH   5   6
ENDBRANCH   3   5
ENDBRANCH   2   3
ENDBRANCH   1   2
BRANCH   1  19
ATOM     19  C   UNL     1       4.207   2.137  -0.123  1.00  0.00     0.275 C 
BRANCH  19  20
ATOM     20  O   UNL     1       3.834   1.998   1.260  1.00  0.00    -0.458 OA
BRANCH  20  21
ATOM     21  C   UNL     1       2.551   2.329   1.552  1.00  0.00     0.338 C 
ATOM     22  O   UNL     1       1.750   2.870   0.809  1.00  0.00    -0.246 OA
BRANCH  21  23
ATOM     23  C   UNL     1       2.179   1.741   2.861  1.00  0.00     0.060 A 
ATOM     24  C   UNL     1       0.890   1.206   2.990  1.00  0.00     0.016 A 
ATOM     25  C   UNL     1       3.079   1.665   3.931  1.00  0.00     0.016 A 
ATOM     26  C   UNL     1       0.487   0.629   4.195  1.00  0.00     0.010 A 
ATOM     27  C   UNL     1       2.671   1.092   5.141  1.00  0.00     0.010 A 
ATOM     28  C   UNL     1       1.363   0.599   5.288  1.00  0.00    -0.014 A 
BRANCH  28  29
ATOM     29  C   UNL     1       0.847   0.225   6.628  1.00  0.00     0.031 A 
ATOM     30  C   UNL     1       0.367   1.319   7.541  1.00  0.00     0.074 A 
ATOM     31  C   UNL     1       0.777  -1.058   7.025  1.00  0.00     0.049 A 
ATOM     32  N   UNL     1      -0.162   1.233   8.735  1.00  0.00    -0.248 NA
ATOM     33  C   UNL     1       0.503   2.695   7.038  1.00  0.00     0.031 C 
ATOM     34  C   UNL     1       1.192  -2.217   6.237  1.00  0.00     0.029 A 
ATOM     35  N   UNL     1       0.325  -1.596   8.205  1.00  0.00    -0.354 N 
ATOM     36  C   UNL     1      -0.436   2.539   9.117  1.00  0.00     0.074 A 
ATOM     37  C   UNL     1       0.025   3.401   8.051  1.00  0.00     0.031 C 
ATOM     38  C   UNL     1       0.980  -3.332   6.960  1.00  0.00     0.029 A 
ATOM     39  C   UNL     1       0.425  -2.964   8.262  1.00  0.00     0.049 A 
ATOM     40  H   UNL     1      -0.037  -1.052   8.941  1.00  0.00     0.167 HD
ATOM     41  C   UNL     1      -1.034   2.985  10.247  1.00  0.00     0.037 A 
ATOM     42  C   UNL     1       0.107  -3.818   9.255  1.00  0.00     0.037 A 
ATOM     43  C   UNL     1      -1.482   2.141  11.320  1.00  0.00     0.049 A 
ATOM     44  C   UNL     1      -0.489  -3.291  10.536  1.00  0.00     0.074 A 
ATOM     45  C   UNL     1      -2.115   2.504  12.497  1.00  0.00     0.029 A 
ATOM     46  N   UNL     1      -1.333   0.764  11.353  1.00  0.00    -0.354 N 
ATOM     47  N   UNL     1      -0.798  -2.060  10.862  1.00  0.00    -0.248 NA
ATOM     48  C   UNL     1      -0.787  -4.280  11.584  1.00  0.00     0.031 C 
ATOM     49  C   UNL     1      -2.310   1.349  13.261  1.00  0.00     0.029 A 
ATOM     50  C   UNL     1      -1.838   0.264  12.542  1.00  0.00     0.049 A 
ATOM     51  H   UNL     1      -0.928   0.222  10.638  1.00  0.00     0.167 HD
ATOM     52  C   UNL     1      -1.358  -2.130  12.133  1.00  0.00     0.074 A 
ATOM     53  C   UNL     1      -1.350  -3.525  12.518  1.00  0.00     0.031 C 
ATOM     54  C   UNL     1      -1.838  -1.129  12.909  1.00  0.00     0.037 A 
BRANCH  41  55
ATOM     55  C   UNL     1      -1.225   4.466  10.376  1.00  0.00     0.057 A 
ATOM     56  C   UNL     1      -2.192   5.148   9.627  1.00  0.00     0.134 A 
ATOM     57  C   UNL     1      -0.443   5.213  11.263  1.00  0.00     0.134 A 
ATOM     58  F   UNL     1      -2.960   4.489   8.746  1.00  0.00    -0.206 F 
ATOM     59  C   UNL     1      -2.360   6.529   9.741  1.00  0.00     0.040 A 
ATOM     60  C   UNL     1      -0.616   6.591  11.402  1.00  0.00     0.040 A 
ATOM     61  F   UNL     1       0.501   4.618  12.008  1.00  0.00    -0.206 F 
ATOM     62  C   UNL     1      -1.573   7.253  10.635  1.00  0.00     0.006 A 
ENDBRANCH  41  55
BRANCH  42  63
ATOM     63  C   UNL     1       0.335  -5.276   9.089  1.00  0.00     0.057 A 
ATOM     64  C   UNL     1      -0.738  -6.166   8.961  1.00  0.00     0.134 A 
ATOM     65  C   UNL     1       1.625  -5.817   9.108  1.00  0.00     0.134 A 
ATOM     66  F   UNL     1      -1.998  -5.708   8.967  1.00  0.00    -0.206 F 
ATOM     67  C   UNL     1      -0.537  -7.545   8.878  1.00  0.00     0.040 A 
ATOM     68  C   UNL     1       1.841  -7.192   9.004  1.00  0.00     0.040 A 
ATOM     69  F   UNL     1       2.694  -5.017   9.234  1.00  0.00    -0.206 F 
ATOM     70  C   UNL     1       0.757  -8.061   8.897  1.00  0.00     0.006 A 
ENDBRANCH  42  63
BRANCH  54  71
ATOM     71  C   UNL     1      -2.434  -1.503  14.235  1.00  0.00     0.057 A 
ATOM     72  C   UNL     1      -1.639  -1.894  15.319  1.00  0.00     0.134 A 
ATOM     73  C   UNL     1      -3.817  -1.423  14.442  1.00  0.00     0.134 A 
ATOM     74  F   UNL     1      -0.309  -2.001  15.184  1.00  0.00    -0.206 F 
ATOM     75  C   UNL     1      -2.201  -2.211  16.558  1.00  0.00     0.040 A 
ATOM     76  C   UNL     1      -4.388  -1.715  15.681  1.00  0.00     0.040 A 
ATOM     77  F   UNL     1      -4.634  -1.045  13.447  1.00  0.00    -0.206 F 
ATOM     78  C   UNL     1      -3.579  -2.115  16.743  1.00  0.00     0.006 A 
ENDBRANCH  54  71
ENDBRANCH  28  29
ENDBRANCH  21  23
ENDBRANCH  20  21
ENDBRANCH  19  20
ENDBRANCH   1  19
TORSDOF 13
