REMARK SMILES Cc1ccc(NC(=O)Cn2c(CCC(=O)OCCOC(=O)c3ccc(-c4c5nc(c(-c6c(F)cccc6F)c6ccc([nH]6)c(-c6c(F)cccc6F)c6nc(c(-c7c(F)cccc7F)c7ccc4[nH]7)C=C6)C=C5)cc3)ccc2-c2ccccc2)cc1
REMARK SMILES IDX 16 1 14 2 15 3 13 4 12 5 11 6 10 7 78 8 76 9 77 10 9 11 7 12
REMARK SMILES IDX 6 13 8 15 5 16 1 17 2 18 3 19 86 20 4 21 85 22 79 23 80 24
REMARK SMILES IDX 84 25 81 26 83 27 82 28 17 29 18 30 19 31 20 32 21 33 22 34
REMARK SMILES IDX 23 35 75 36 24 37 74 38 25 39 26 40 27 41 68 42 28 43 73 44
REMARK SMILES IDX 67 45 69 46 29 47 72 48 66 49 65 50 30 52 56 53 39 54 55 55
REMARK SMILES IDX 40 56 43 57 54 58 70 59 41 60 42 61 53 63 71 64 44 65 31 66
REMARK SMILES IDX 32 67 37 68 33 69 34 70 36 71 38 72 35 73 57 74 58 75 63 76
REMARK SMILES IDX 59 77 60 78 62 79 64 80 61 81 45 82 46 83 51 84 47 85 48 86
REMARK SMILES IDX 50 87 52 88 49 89
REMARK H PARENT 6 14 69 51 43 62
REMARK Flexibility Score: inf
ROOT
ATOM      1  O   UNL     1      -7.284  -0.689  -1.063  1.00  0.00    -0.462 OA
ENDROOT
BRANCH   1   2
ATOM      2  C   UNL     1      -6.777   0.103  -2.184  1.00  0.00     0.306 C 
ATOM      3  O   UNL     1      -7.846   0.702  -2.515  1.00  0.00    -0.252 OA
BRANCH   2   4
ATOM      4  C   UNL     1      -4.752   0.260  -2.956  1.00  0.00     0.129 C 
BRANCH   4   5
ATOM      5  C   UNL     1      -3.101  -0.226  -2.328  1.00  0.00     0.066 C 
BRANCH   5   6
ATOM      6  C   UNL     1      -2.528  -1.639  -2.581  1.00  0.00     0.019 A 
ATOM      7  N   UNL     1      -2.414  -2.739  -1.718  1.00  0.00    -0.335 N 
ATOM      8  C   UNL     1      -2.165  -3.884  -2.498  1.00  0.00     0.049 A 
ATOM      9  C   UNL     1      -1.804  -2.029  -3.706  1.00  0.00     0.024 A 
ATOM     10  C   UNL     1      -1.545  -3.419  -3.636  1.00  0.00     0.029 A 
BRANCH   7  11
ATOM     11  C   UNL     1      -2.163  -2.885  -0.272  1.00  0.00     0.222 C 
BRANCH  11  12
ATOM     12  C   UNL     1      -2.616  -1.846   0.690  1.00  0.00     0.244 C 
ATOM     13  N   UNL     1      -1.876  -0.738   0.976  1.00  0.00    -0.325 N 
ATOM     14  H   UNL     1      -2.365  -0.030   1.454  1.00  0.00     0.169 HD
ATOM     15  O   UNL     1      -3.721  -1.992   1.224  1.00  0.00    -0.273 OA
BRANCH  13  16
ATOM     16  C   UNL     1      -0.537  -0.442   0.703  1.00  0.00     0.041 A 
ATOM     17  C   UNL     1       3.502   0.624  -0.334  1.00  0.00     0.044 C 
ATOM     18  C   UNL     1       2.102   0.277   0.073  1.00  0.00    -0.051 A 
ATOM     19  C   UNL     1       1.784  -1.046   0.389  1.00  0.00     0.005 A 
ATOM     20  C   UNL     1       1.099   1.250   0.130  1.00  0.00     0.005 A 
ATOM     21  C   UNL     1       0.475  -1.398   0.720  1.00  0.00     0.026 A 
ATOM     22  C   UNL     1      -0.210   0.894   0.463  1.00  0.00     0.026 A 
ENDBRANCH  13  16
ENDBRANCH  11  12
ENDBRANCH   7  11
BRANCH   8  23
ATOM     23  C   UNL     1      -2.408  -5.250  -2.018  1.00  0.00    -0.002 A 
ATOM     24  C   UNL     1      -1.374  -6.121  -1.655  1.00  0.00     0.010 A 
ATOM     25  C   UNL     1      -3.737  -5.668  -1.850  1.00  0.00     0.010 A 
ATOM     26  C   UNL     1      -1.672  -7.382  -1.121  1.00  0.00     0.001 A 
ATOM     27  C   UNL     1      -4.032  -6.925  -1.320  1.00  0.00     0.001 A 
ATOM     28  C   UNL     1      -2.999  -7.782  -0.952  1.00  0.00     0.000 A 
ENDBRANCH   8  23
ENDBRANCH   5   6
ENDBRANCH   4   5
ENDBRANCH   2   4
ENDBRANCH   1   2
BRANCH   1  29
ATOM     29  C   UNL     1      -7.025  -1.778  -0.077  1.00  0.00     0.274 C 
BRANCH  29  30
ATOM     30  C   UNL     1      -6.610  -1.264   1.284  1.00  0.00     0.275 C 
BRANCH  30  31
ATOM     31  O   UNL     1      -5.795  -0.082   1.374  1.00  0.00    -0.458 OA
BRANCH  31  32
ATOM     32  C   UNL     1      -4.871   0.345   0.498  1.00  0.00     0.338 C 
ATOM     33  O   UNL     1      -3.935   1.066   0.834  1.00  0.00    -0.246 OA
BRANCH  32  34
ATOM     34  C   UNL     1      -5.157   0.212  -0.935  1.00  0.00     0.060 A 
ATOM     35  C   UNL     1      -5.599   1.770  -1.708  1.00  0.00     0.016 A 
ATOM     36  C   UNL     1      -5.321  -1.336  -1.911  1.00  0.00     0.016 A 
ATOM     37  C   UNL     1      -6.204   1.830  -3.405  1.00  0.00     0.010 A 
ATOM     38  C   UNL     1      -6.063  -1.256  -3.561  1.00  0.00     0.010 A 
ATOM     39  C   UNL     1      -6.487   0.340  -4.335  1.00  0.00    -0.014 A 
BRANCH  39  40
ATOM     40  C   UNL     1      -7.162   0.268  -5.716  1.00  0.00     0.031 A 
ATOM     41  C   UNL     1      -6.846  -0.996  -6.345  1.00  0.00     0.074 A 
ATOM     42  C   UNL     1      -8.204   0.804  -6.444  1.00  0.00     0.049 A 
ATOM     43  N   UNL     1      -7.640  -1.975  -6.122  1.00  0.00    -0.248 NA
ATOM     44  C   UNL     1      -5.684  -1.286  -7.149  1.00  0.00     0.031 C 
ATOM     45  C   UNL     1      -8.993   1.992  -6.175  1.00  0.00     0.029 A 
ATOM     46  N   UNL     1      -8.906   0.207  -7.572  1.00  0.00    -0.354 N 
ATOM     47  C   UNL     1      -7.146  -3.057  -6.763  1.00  0.00     0.074 A 
ATOM     48  C   UNL     1      -5.944  -2.571  -7.437  1.00  0.00     0.031 C 
ATOM     49  C   UNL     1     -10.064   2.023  -7.003  1.00  0.00     0.029 A 
ATOM     50  C   UNL     1     -10.159   0.799  -7.853  1.00  0.00     0.049 A 
ATOM     51  H   UNL     1      -8.540  -0.543  -8.094  1.00  0.00     0.167 HD
ATOM     52  C   UNL     1      -7.859  -4.208  -6.659  1.00  0.00     0.037 A 
ATOM     53  C   UNL     1     -11.393   0.190  -8.039  1.00  0.00     0.037 A 
ATOM     54  C   UNL     1      -8.945  -4.202  -5.639  1.00  0.00     0.049 A 
ATOM     55  C   UNL     1     -11.763  -0.104  -6.636  1.00  0.00     0.074 A 
ATOM     56  C   UNL     1      -9.418  -5.105  -4.703  1.00  0.00     0.029 A 
ATOM     57  N   UNL     1      -9.709  -3.057  -5.404  1.00  0.00    -0.354 N 
ATOM     58  N   UNL     1     -11.227  -1.098  -6.010  1.00  0.00    -0.248 NA
ATOM     59  C   UNL     1     -12.640   0.751  -5.861  1.00  0.00     0.031 C 
ATOM     60  C   UNL     1     -10.364  -4.434  -3.849  1.00  0.00     0.029 A 
ATOM     61  C   UNL     1     -10.507  -3.123  -4.269  1.00  0.00     0.049 A 
ATOM     62  H   UNL     1      -9.684  -2.269  -5.994  1.00  0.00     0.167 HD
ATOM     63  C   UNL     1     -11.638  -1.008  -4.716  1.00  0.00     0.074 A 
ATOM     64  C   UNL     1     -12.422   0.224  -4.652  1.00  0.00     0.031 C 
ATOM     65  C   UNL     1     -11.255  -1.934  -3.798  1.00  0.00     0.037 A 
BRANCH  52  66
ATOM     66  C   UNL     1      -7.609  -5.308  -7.640  1.00  0.00     0.057 A 
ATOM     67  C   UNL     1      -8.712  -5.961  -8.209  1.00  0.00     0.134 A 
ATOM     68  C   UNL     1      -6.355  -5.657  -8.169  1.00  0.00     0.134 A 
ATOM     69  F   UNL     1      -9.957  -5.724  -7.769  1.00  0.00    -0.206 F 
ATOM     70  C   UNL     1      -8.584  -6.844  -9.284  1.00  0.00     0.040 A 
ATOM     71  C   UNL     1      -6.218  -6.483  -9.290  1.00  0.00     0.040 A 
ATOM     72  F   UNL     1      -5.216  -5.210  -7.619  1.00  0.00    -0.206 F 
ATOM     73  C   UNL     1      -7.338  -7.077  -9.855  1.00  0.00     0.006 A 
ENDBRANCH  52  66
BRANCH  53  74
ATOM     74  C   UNL     1     -12.060  -0.817  -8.990  1.00  0.00     0.057 A 
ATOM     75  C   UNL     1     -12.392  -0.435 -10.299  1.00  0.00     0.134 A 
ATOM     76  C   UNL     1     -12.715  -2.015  -8.572  1.00  0.00     0.134 A 
ATOM     77  F   UNL     1     -11.919   0.714 -10.804  1.00  0.00    -0.206 F 
ATOM     78  C   UNL     1     -13.304  -1.162 -11.106  1.00  0.00     0.040 A 
ATOM     79  C   UNL     1     -13.623  -2.741  -9.362  1.00  0.00     0.040 A 
ATOM     80  F   UNL     1     -12.576  -2.524  -7.345  1.00  0.00    -0.206 F 
ATOM     81  C   UNL     1     -13.934  -2.311 -10.635  1.00  0.00     0.006 A 
ENDBRANCH  53  74
BRANCH  65  82
ATOM     82  C   UNL     1     -11.462  -1.578  -2.355  1.00  0.00     0.057 A 
ATOM     83  C   UNL     1     -12.616  -0.970  -1.831  1.00  0.00     0.134 A 
ATOM     84  C   UNL     1     -10.391  -1.695  -1.470  1.00  0.00     0.134 A 
ATOM     85  F   UNL     1     -13.748  -0.908  -2.549  1.00  0.00    -0.206 F 
ATOM     86  C   UNL     1     -12.645  -0.363  -0.569  1.00  0.00     0.040 A 
ATOM     87  C   UNL     1     -10.433  -1.143  -0.182  1.00  0.00     0.040 A 
ATOM     88  F   UNL     1      -9.272  -2.333  -1.843  1.00  0.00    -0.206 F 
ATOM     89  C   UNL     1     -11.540  -0.437   0.259  1.00  0.00     0.006 A 
ENDBRANCH  65  82
ENDBRANCH  39  40
ENDBRANCH  32  34
ENDBRANCH  31  32
ENDBRANCH  30  31
ENDBRANCH  29  30
ENDBRANCH   1  29
TORSDOF 17
