REMARK SMILES O=C(Nc1c(F)cc(F)cc1F)N[C@H]1C=C[C@H](C(=O)OCCOC(=O)c2ccc(-c3c4nc(c(-c5c(F)cccc5F)c5ccc([nH]5)c(-c5c(F)cccc5F)c5nc(c(-c6c(F)cccc6F)c6ccc3[nH]6)C=C5)C=C4)cc2)C1
REMARK SMILES IDX 21 1 20 2 18 3 19 4 17 5 14 6 15 7 80 8 16 9 13 10 1 11 2 12
REMARK SMILES IDX 3 13 4 16 5 17 11 18 6 19 7 20 10 21 12 22 8 23 9 24 22 25
REMARK SMILES IDX 23 26 24 27 25 28 26 29 27 30 79 31 28 32 78 33 29 34 30 35
REMARK SMILES IDX 31 36 72 37 32 38 77 39 71 40 73 41 33 42 76 43 70 44 69 45
REMARK SMILES IDX 34 47 60 48 43 49 59 50 44 51 47 52 58 53 74 54 45 55 46 56
REMARK SMILES IDX 57 58 75 59 48 60 35 61 36 62 41 63 37 64 38 65 40 66 42 67
REMARK SMILES IDX 39 68 61 69 62 70 67 71 63 72 64 73 66 74 68 75 65 76 49 77
REMARK SMILES IDX 50 78 55 79 51 80 52 81 54 82 56 83 53 84
REMARK H PARENT 3 14 13 15 73 46 47 57
REMARK Flexibility Score: inf
ROOT
ATOM      1  C   UNL     1      -0.072  -5.984   4.624  1.00  0.00     0.274 C 
ENDROOT
BRANCH   1   2
ATOM      2  O   UNL     1       0.887  -5.626   3.612  1.00  0.00    -0.462 OA
BRANCH   2   3
ATOM      3  C   UNL     1       1.091  -4.290   3.430  1.00  0.00     0.312 C 
ATOM      4  O   UNL     1       0.448  -3.406   3.982  1.00  0.00    -0.252 OA
BRANCH   3   5
ATOM      5  C   UNL     1       2.295  -4.048   2.527  1.00  0.00     0.124 C 
ATOM      6  C   UNL     1       1.942  -2.153   1.019  1.00  0.00     0.107 C 
ATOM      7  C   UNL     1       1.906  -3.454   0.286  1.00  0.00    -0.006 C 
ATOM      8  C   UNL     1       2.587  -2.549   2.353  1.00  0.00     0.048 C 
ATOM      9  C   UNL     1       2.079  -4.492   1.112  1.00  0.00    -0.014 C 
BRANCH   6  10
ATOM     10  N   UNL     1       2.777  -1.223   0.306  1.00  0.00    -0.332 N 
ATOM     11  O   UNL     1       1.167   0.330  -0.066  1.00  0.00    -0.248 OA
ATOM     12  C   UNL     1       2.347  -0.013  -0.113  1.00  0.00     0.319 C 
ATOM     13  N   UNL     1       3.269   0.911  -0.490  1.00  0.00    -0.303 N 
ATOM     14  H   UNL     1       2.867   1.781  -0.718  1.00  0.00     0.172 HD
ATOM     15  H   UNL     1       3.707  -1.482   0.115  1.00  0.00     0.165 HD
BRANCH  13  16
ATOM     16  C   UNL     1       4.673   0.906  -0.629  1.00  0.00     0.115 A 
ATOM     17  C   UNL     1       5.492  -0.215  -0.794  1.00  0.00     0.152 A 
ATOM     18  C   UNL     1       5.302   2.160  -0.606  1.00  0.00     0.152 A 
ATOM     19  F   UNL     1       4.975  -1.445  -0.917  1.00  0.00    -0.204 F 
ATOM     20  C   UNL     1       6.878  -0.098  -0.884  1.00  0.00     0.081 A 
ATOM     21  C   UNL     1       6.684   2.298  -0.681  1.00  0.00     0.081 A 
ATOM     22  F   UNL     1       4.555   3.268  -0.472  1.00  0.00    -0.204 F 
ATOM     23  C   UNL     1       7.461   1.158  -0.814  1.00  0.00     0.129 A 
ATOM     24  F   UNL     1       8.793   1.271  -0.886  1.00  0.00    -0.207 F 
ENDBRANCH  13  16
ENDBRANCH   6  10
ENDBRANCH   3   5
ENDBRANCH   2   3
ENDBRANCH   1   2
BRANCH   1  25
ATOM     25  C   UNL     1       0.627  -6.407   5.921  1.00  0.00     0.275 C 
BRANCH  25  26
ATOM     26  O   UNL     1       1.318  -5.309   6.549  1.00  0.00    -0.458 OA
BRANCH  26  27
ATOM     27  C   UNL     1       2.611  -5.153   6.175  1.00  0.00     0.338 C 
ATOM     28  O   UNL     1       3.239  -5.851   5.396  1.00  0.00    -0.246 OA
BRANCH  27  29
ATOM     29  C   UNL     1       3.163  -3.905   6.736  1.00  0.00     0.060 A 
ATOM     30  C   UNL     1       3.886  -3.073   5.875  1.00  0.00     0.016 A 
ATOM     31  C   UNL     1       3.037  -3.578   8.089  1.00  0.00     0.016 A 
ATOM     32  C   UNL     1       4.478  -1.908   6.355  1.00  0.00     0.010 A 
ATOM     33  C   UNL     1       3.648  -2.417   8.576  1.00  0.00     0.010 A 
ATOM     34  C   UNL     1       4.378  -1.581   7.712  1.00  0.00    -0.014 A 
BRANCH  34  35
ATOM     35  C   UNL     1       5.101  -0.395   8.223  1.00  0.00     0.031 A 
ATOM     36  C   UNL     1       6.446  -0.564   8.867  1.00  0.00     0.074 A 
ATOM     37  C   UNL     1       4.578   0.833   8.061  1.00  0.00     0.049 A 
ATOM     38  N   UNL     1       7.238   0.343   9.378  1.00  0.00    -0.248 NA
ATOM     39  C   UNL     1       6.971  -1.936   8.937  1.00  0.00     0.031 C 
ATOM     40  C   UNL     1       3.303   1.127   7.407  1.00  0.00     0.029 A 
ATOM     41  N   UNL     1       5.058   2.062   8.433  1.00  0.00    -0.354 N 
ATOM     42  C   UNL     1       8.357  -0.345   9.829  1.00  0.00     0.074 A 
ATOM     43  C   UNL     1       8.131  -1.748   9.552  1.00  0.00     0.031 C 
ATOM     44  C   UNL     1       3.098   2.454   7.431  1.00  0.00     0.029 A 
ATOM     45  C   UNL     1       4.211   3.098   8.125  1.00  0.00     0.049 A 
ATOM     46  H   UNL     1       5.927   2.190   8.878  1.00  0.00     0.167 HD
ATOM     47  C   UNL     1       9.472   0.149  10.416  1.00  0.00     0.037 A 
ATOM     48  C   UNL     1       4.314   4.413   8.393  1.00  0.00     0.037 A 
ATOM     49  C   UNL     1       9.692   1.543  10.702  1.00  0.00     0.049 A 
ATOM     50  C   UNL     1       5.529   4.928   9.114  1.00  0.00     0.074 A 
ATOM     51  C   UNL     1      10.788   2.139  11.301  1.00  0.00     0.029 A 
ATOM     52  N   UNL     1       8.793   2.558  10.413  1.00  0.00    -0.354 N 
ATOM     53  N   UNL     1       6.584   4.270   9.531  1.00  0.00    -0.248 NA
ATOM     54  C   UNL     1       5.568   6.369   9.403  1.00  0.00     0.031 C 
ATOM     55  C   UNL     1      10.536   3.511  11.408  1.00  0.00     0.029 A 
ATOM     56  C   UNL     1       9.300   3.774  10.840  1.00  0.00     0.049 A 
ATOM     57  H   UNL     1       7.922   2.433   9.971  1.00  0.00     0.167 HD
ATOM     58  C   UNL     1       7.419   5.216  10.111  1.00  0.00     0.074 A 
ATOM     59  C   UNL     1       6.754   6.497   9.982  1.00  0.00     0.031 C 
ATOM     60  C   UNL     1       8.627   5.040  10.700  1.00  0.00     0.037 A 
BRANCH  47  61
ATOM     61  C   UNL     1      10.531  -0.835  10.812  1.00  0.00     0.057 A 
ATOM     62  C   UNL     1      11.365  -1.441   9.864  1.00  0.00     0.134 A 
ATOM     63  C   UNL     1      10.732  -1.163  12.158  1.00  0.00     0.134 A 
ATOM     64  F   UNL     1      11.211  -1.180   8.557  1.00  0.00    -0.206 F 
ATOM     65  C   UNL     1      12.351  -2.355  10.241  1.00  0.00     0.040 A 
ATOM     66  C   UNL     1      11.728  -2.059  12.548  1.00  0.00     0.040 A 
ATOM     67  F   UNL     1       9.968  -0.615  13.114  1.00  0.00    -0.206 F 
ATOM     68  C   UNL     1      12.538  -2.662  11.587  1.00  0.00     0.006 A 
ENDBRANCH  47  61
BRANCH  48  69
ATOM     69  C   UNL     1       3.224   5.336   7.995  1.00  0.00     0.057 A 
ATOM     70  C   UNL     1       3.400   6.270   6.968  1.00  0.00     0.134 A 
ATOM     71  C   UNL     1       1.984   5.314   8.645  1.00  0.00     0.134 A 
ATOM     72  F   UNL     1       4.574   6.354   6.326  1.00  0.00    -0.206 F 
ATOM     73  C   UNL     1       2.385   7.158   6.609  1.00  0.00     0.040 A 
ATOM     74  C   UNL     1       0.953   6.181   8.281  1.00  0.00     0.040 A 
ATOM     75  F   UNL     1       1.756   4.444   9.639  1.00  0.00    -0.206 F 
ATOM     76  C   UNL     1       1.155   7.111   7.263  1.00  0.00     0.006 A 
ENDBRANCH  48  69
BRANCH  60  77
ATOM     77  C   UNL     1       9.319   6.264  11.223  1.00  0.00     0.057 A 
ATOM     78  C   UNL     1       8.903   6.899  12.399  1.00  0.00     0.134 A 
ATOM     79  C   UNL     1      10.435   6.790  10.561  1.00  0.00     0.134 A 
ATOM     80  F   UNL     1       7.832   6.451  13.072  1.00  0.00    -0.206 F 
ATOM     81  C   UNL     1       9.563   8.027  12.890  1.00  0.00     0.040 A 
ATOM     82  C   UNL     1      11.117   7.904  11.054  1.00  0.00     0.040 A 
ATOM     83  F   UNL     1      10.888   6.223   9.433  1.00  0.00    -0.206 F 
ATOM     84  C   UNL     1      10.677   8.528  12.219  1.00  0.00     0.006 A 
ENDBRANCH  60  77
ENDBRANCH  34  35
ENDBRANCH  27  29
ENDBRANCH  26  27
ENDBRANCH  25  26
ENDBRANCH   1  25
TORSDOF 13
