REMARK SMILES Cc1cccc(C)c1OCC(=O)N1CCC[C@@H](C(=O)OCCOC(=O)c2ccc(-c3c4nc(c(-c5c(F)cccc5F)c5ccc([nH]5)c(-c5c(F)cccc5F)c5nc(c(-c6c(F)cccc6F)c6ccc3[nH]6)C=C5)C=C4)cc2)C1
REMARK SMILES IDX 21 1 20 2 18 3 19 4 17 5 13 6 14 7 80 8 15 9 16 10 11 11
REMARK SMILES IDX 12 12 10 13 9 14 8 15 1 16 2 17 3 18 4 19 6 20 5 21 7 22
REMARK SMILES IDX 22 23 23 24 24 25 25 26 26 27 27 28 79 29 28 30 78 31 29 32
REMARK SMILES IDX 30 33 31 34 72 35 32 36 77 37 71 38 73 39 33 40 76 41 70 42
REMARK SMILES IDX 69 43 34 45 60 46 43 47 59 48 44 49 47 50 58 51 74 52 45 53
REMARK SMILES IDX 46 54 57 56 75 57 48 58 35 59 36 60 41 61 37 62 38 63 40 64
REMARK SMILES IDX 42 65 39 66 61 67 62 68 67 69 63 70 64 71 66 72 68 73 65 74
REMARK SMILES IDX 49 75 50 76 55 77 51 78 52 79 54 80 56 81 53 82
REMARK H PARENT 73 44 47 55
REMARK Flexibility Score: inf
ROOT
ATOM      1  C   UNL     1      -2.929   0.046   4.853  1.00  0.00     0.274 C 
ENDROOT
BRANCH   1   2
ATOM      2  O   UNL     1      -1.563   0.282   4.460  1.00  0.00    -0.462 OA
BRANCH   2   3
ATOM      3  C   UNL     1      -1.351   1.432   3.762  1.00  0.00     0.310 C 
ATOM      4  O   UNL     1      -2.226   2.236   3.462  1.00  0.00    -0.252 OA
BRANCH   3   5
ATOM      5  C   UNL     1       0.107   1.593   3.380  1.00  0.00     0.119 C 
ATOM      6  N   UNL     1       1.665   3.174   2.321  1.00  0.00    -0.339 N 
ATOM      7  C   UNL     1       2.546   3.239   3.482  1.00  0.00     0.119 C 
ATOM      8  C   UNL     1       0.267   2.937   2.652  1.00  0.00     0.134 C 
ATOM      9  C   UNL     1       2.488   1.917   4.245  1.00  0.00     0.022 C 
ATOM     10  C   UNL     1       1.050   1.516   4.595  1.00  0.00     0.019 C 
BRANCH   6  11
ATOM     11  C   UNL     1       2.201   3.245   1.046  1.00  0.00     0.260 C 
ATOM     12  O   UNL     1       3.406   3.455   0.867  1.00  0.00    -0.271 OA
BRANCH  11  13
ATOM     13  C   UNL     1       1.280   3.130  -0.188  1.00  0.00     0.329 C 
BRANCH  13  14
ATOM     14  O   UNL     1       0.203   2.235  -0.296  1.00  0.00    -0.483 OA
BRANCH  14  15
ATOM     15  C   UNL     1       0.282   0.877  -0.218  1.00  0.00     0.125 A 
ATOM     16  C   UNL     1       2.843   0.503  -0.344  1.00  0.00     0.048 C 
ATOM     17  C   UNL     1       1.418   0.051  -0.215  1.00  0.00    -0.009 A 
ATOM     18  C   UNL     1       1.236  -1.342  -0.057  1.00  0.00     0.007 A 
ATOM     19  C   UNL     1      -0.028  -1.914   0.054  1.00  0.00     0.001 A 
ATOM     20  C   UNL     1      -1.008   0.284  -0.130  1.00  0.00    -0.009 A 
ATOM     21  C   UNL     1      -1.149  -1.103   0.010  1.00  0.00     0.007 A 
ATOM     22  C   UNL     1      -2.256   1.133  -0.174  1.00  0.00     0.048 C 
ENDBRANCH  14  15
ENDBRANCH  13  14
ENDBRANCH  11  13
ENDBRANCH   6  11
ENDBRANCH   3   5
ENDBRANCH   2   3
ENDBRANCH   1   2
BRANCH   1  23
ATOM     23  C   UNL     1      -3.176   0.517   6.285  1.00  0.00     0.275 C 
BRANCH  23  24
ATOM     24  O   UNL     1      -2.877   1.920   6.400  1.00  0.00    -0.458 OA
BRANCH  24  25
ATOM     25  C   UNL     1      -2.056   2.260   7.418  1.00  0.00     0.338 C 
ATOM     26  O   UNL     1      -1.588   1.530   8.275  1.00  0.00    -0.246 OA
BRANCH  25  27
ATOM     27  C   UNL     1      -1.768   3.703   7.367  1.00  0.00     0.060 A 
ATOM     28  C   UNL     1      -1.092   4.240   6.272  1.00  0.00     0.016 A 
ATOM     29  C   UNL     1      -2.046   4.496   8.479  1.00  0.00     0.016 A 
ATOM     30  C   UNL     1      -0.613   5.547   6.317  1.00  0.00     0.010 A 
ATOM     31  C   UNL     1      -1.637   5.832   8.491  1.00  0.00     0.010 A 
ATOM     32  C   UNL     1      -0.881   6.359   7.428  1.00  0.00    -0.014 A 
BRANCH  32  33
ATOM     33  C   UNL     1      -0.327   7.735   7.509  1.00  0.00     0.031 A 
ATOM     34  C   UNL     1       0.662   8.082   8.589  1.00  0.00     0.074 A 
ATOM     35  C   UNL     1      -0.693   8.672   6.615  1.00  0.00     0.049 A 
ATOM     36  N   UNL     1       1.129   9.254   8.938  1.00  0.00    -0.248 NA
ATOM     37  C   UNL     1       1.190   6.964   9.386  1.00  0.00     0.031 C 
ATOM     38  C   UNL     1      -1.601   8.462   5.487  1.00  0.00     0.029 A 
ATOM     39  N   UNL     1      -0.340   9.995   6.516  1.00  0.00    -0.354 N 
ATOM     40  C   UNL     1       1.963   9.021  10.024  1.00  0.00     0.074 A 
ATOM     41  C   UNL     1       1.944   7.596  10.275  1.00  0.00     0.031 C 
ATOM     42  C   UNL     1      -1.712   9.606   4.794  1.00  0.00     0.029 A 
ATOM     43  C   UNL     1      -0.942  10.646   5.468  1.00  0.00     0.049 A 
ATOM     44  H   UNL     1       0.285  10.435   7.137  1.00  0.00     0.167 HD
ATOM     45  C   UNL     1       2.676   9.915  10.749  1.00  0.00     0.037 A 
ATOM     46  C   UNL     1      -0.908  11.943   5.110  1.00  0.00     0.037 A 
ATOM     47  C   UNL     1       2.735  11.326  10.472  1.00  0.00     0.049 A 
ATOM     48  C   UNL     1      -0.128  12.920   5.941  1.00  0.00     0.074 A 
ATOM     49  C   UNL     1       3.428  12.312  11.153  1.00  0.00     0.029 A 
ATOM     50  N   UNL     1       2.091  11.947   9.414  1.00  0.00    -0.354 N 
ATOM     51  N   UNL     1       0.596  12.699   7.011  1.00  0.00    -0.248 NA
ATOM     52  C   UNL     1      -0.181  14.330   5.529  1.00  0.00     0.031 C 
ATOM     53  C   UNL     1       3.188  13.535  10.516  1.00  0.00     0.029 A 
ATOM     54  C   UNL     1       2.366  13.304   9.425  1.00  0.00     0.049 A 
ATOM     55  H   UNL     1       1.522  11.491   8.753  1.00  0.00     0.167 HD
ATOM     56  C   UNL     1       1.085  13.938   7.400  1.00  0.00     0.074 A 
ATOM     57  C   UNL     1       0.593  14.905   6.440  1.00  0.00     0.031 C 
ATOM     58  C   UNL     1       1.865  14.249   8.463  1.00  0.00     0.037 A 
BRANCH  45  59
ATOM     59  C   UNL     1       3.426   9.395  11.937  1.00  0.00     0.057 A 
ATOM     60  C   UNL     1       4.638   8.708  11.805  1.00  0.00     0.134 A 
ATOM     61  C   UNL     1       2.938   9.611  13.232  1.00  0.00     0.134 A 
ATOM     62  F   UNL     1       5.147   8.455  10.590  1.00  0.00    -0.206 F 
ATOM     63  C   UNL     1       5.333   8.240  12.922  1.00  0.00     0.040 A 
ATOM     64  C   UNL     1       3.633   9.164  14.357  1.00  0.00     0.040 A 
ATOM     65  F   UNL     1       1.782  10.264  13.424  1.00  0.00    -0.206 F 
ATOM     66  C   UNL     1       4.833   8.473  14.202  1.00  0.00     0.006 A 
ENDBRANCH  45  59
BRANCH  46  67
ATOM     67  C   UNL     1      -1.671  12.399   3.924  1.00  0.00     0.057 A 
ATOM     68  C   UNL     1      -1.018  12.762   2.742  1.00  0.00     0.134 A 
ATOM     69  C   UNL     1      -3.069  12.474   3.942  1.00  0.00     0.134 A 
ATOM     70  F   UNL     1       0.321  12.732   2.675  1.00  0.00    -0.206 F 
ATOM     71  C   UNL     1      -1.727  13.187   1.618  1.00  0.00     0.040 A 
ATOM     72  C   UNL     1      -3.792  12.877   2.820  1.00  0.00     0.040 A 
ATOM     73  F   UNL     1      -3.751  12.139   5.047  1.00  0.00    -0.206 F 
ATOM     74  C   UNL     1      -3.120  13.239   1.653  1.00  0.00     0.006 A 
ENDBRANCH  46  67
BRANCH  58  75
ATOM     75  C   UNL     1       2.238  15.688   8.632  1.00  0.00     0.057 A 
ATOM     76  C   UNL     1       1.337  16.617   9.167  1.00  0.00     0.134 A 
ATOM     77  C   UNL     1       3.515  16.143   8.284  1.00  0.00     0.134 A 
ATOM     78  F   UNL     1       0.095  16.242   9.506  1.00  0.00    -0.206 F 
ATOM     79  C   UNL     1       1.691  17.956   9.337  1.00  0.00     0.040 A 
ATOM     80  C   UNL     1       3.885  17.476   8.463  1.00  0.00     0.040 A 
ATOM     81  F   UNL     1       4.421  15.299   7.770  1.00  0.00    -0.206 F 
ATOM     82  C   UNL     1       2.970  18.387   8.989  1.00  0.00     0.006 A 
ENDBRANCH  58  75
ENDBRANCH  32  33
ENDBRANCH  25  27
ENDBRANCH  24  25
ENDBRANCH  23  24
ENDBRANCH   1  23
TORSDOF 15
