REMARK SMILES O=C(OCCOC(=O)c1sccc1S(=O)(=O)NC[C@H](O)c1ccccc1)c1ccc(-c2c3nc(c(-c4c(F)cccc4F)c4ccc([nH]4)c(-c4c(F)cccc4F)c4nc(c(-c5c(F)cccc5F)c5ccc2[nH]5)C=C4)C=C3)cc1
REMARK SMILES IDX 6 1 5 2 4 3 3 4 2 5 1 6 27 7 28 8 80 9 29 10 79 11 30 12
REMARK SMILES IDX 31 13 32 14 73 15 33 16 78 17 72 18 74 19 34 20 77 21 71 22
REMARK SMILES IDX 70 23 35 25 61 26 44 27 60 28 45 29 48 30 59 31 75 32 46 33
REMARK SMILES IDX 47 34 58 36 76 37 49 38 36 39 37 40 42 41 38 42 39 43 41 44
REMARK SMILES IDX 43 45 40 46 62 47 63 48 68 49 64 50 65 51 67 52 69 53 66 54
REMARK SMILES IDX 50 55 51 56 56 57 52 58 53 59 55 60 57 61 54 62 7 63 8 64
REMARK SMILES IDX 9 65 10 66 13 67 11 68 12 69 14 70 15 71 16 72 17 73 18 75
REMARK SMILES IDX 19 76 21 77 22 78 26 79 23 80 25 81 24 82 20 83
REMARK H PARENT 74 24 48 35 17 74 20 84
REMARK Flexibility Score: inf
ROOT
ATOM      1  O   UNL     1       6.662   5.794   2.028  1.00  0.00    -0.458 OA
ENDROOT
BRANCH   1   2
ATOM      2  C   UNL     1       7.082   6.215   0.725  1.00  0.00     0.275 C 
BRANCH   2   3
ATOM      3  C   UNL     1       8.356   7.045   0.781  1.00  0.00     0.275 C 
BRANCH   3   4
ATOM      4  O   UNL     1       9.405   6.448   1.567  1.00  0.00    -0.458 OA
BRANCH   4   5
ATOM      5  C   UNL     1       9.629   6.436   2.901  1.00  0.00     0.338 C 
ATOM      6  O   UNL     1      10.654   5.893   3.313  1.00  0.00    -0.246 OA
BRANCH   5   7
ATOM      7  C   UNL     1       8.684   6.973   3.933  1.00  0.00     0.060 A 
ATOM      8  C   UNL     1       7.787   8.026   3.749  1.00  0.00     0.016 A 
ATOM      9  C   UNL     1       8.764   6.398   5.220  1.00  0.00     0.016 A 
ATOM     10  C   UNL     1       6.981   8.474   4.801  1.00  0.00     0.010 A 
ATOM     11  C   UNL     1       7.976   6.857   6.284  1.00  0.00     0.010 A 
ATOM     12  C   UNL     1       7.091   7.916   6.080  1.00  0.00    -0.014 A 
BRANCH  12  13
ATOM     13  C   UNL     1       6.418   8.608   7.206  1.00  0.00     0.031 A 
ATOM     14  C   UNL     1       7.129   9.758   7.842  1.00  0.00     0.074 A 
ATOM     15  C   UNL     1       5.161   8.300   7.569  1.00  0.00     0.049 A 
ATOM     16  N   UNL     1       6.689  10.615   8.722  1.00  0.00    -0.248 NA
ATOM     17  C   UNL     1       8.526   9.968   7.429  1.00  0.00     0.031 C 
ATOM     18  C   UNL     1       4.402   7.198   7.010  1.00  0.00     0.029 A 
ATOM     19  N   UNL     1       4.282   8.892   8.439  1.00  0.00    -0.354 N 
ATOM     20  C   UNL     1       7.753  11.467   8.969  1.00  0.00     0.074 A 
ATOM     21  C   UNL     1       8.863  11.021   8.156  1.00  0.00     0.031 C 
ATOM     22  C   UNL     1       3.140   7.235   7.460  1.00  0.00     0.029 A 
ATOM     23  C   UNL     1       3.018   8.343   8.398  1.00  0.00     0.049 A 
ATOM     24  H   UNL     1       4.530   9.636   9.034  1.00  0.00     0.167 HD
ATOM     25  C   UNL     1       7.798  12.521   9.815  1.00  0.00     0.037 A 
ATOM     26  C   UNL     1       1.891   8.709   9.038  1.00  0.00     0.037 A 
ATOM     27  C   UNL     1       6.703  12.907  10.662  1.00  0.00     0.049 A 
ATOM     28  C   UNL     1       1.971   9.882   9.975  1.00  0.00     0.074 A 
ATOM     29  C   UNL     1       6.664  13.882  11.640  1.00  0.00     0.029 A 
ATOM     30  N   UNL     1       5.446  12.315  10.632  1.00  0.00    -0.354 N 
ATOM     31  N   UNL     1       2.990  10.674  10.217  1.00  0.00    -0.248 NA
ATOM     32  C   UNL     1       0.763  10.201  10.746  1.00  0.00     0.031 C 
ATOM     33  C   UNL     1       5.390  13.861  12.222  1.00  0.00     0.029 A 
ATOM     34  C   UNL     1       4.624  12.900  11.578  1.00  0.00     0.049 A 
ATOM     35  H   UNL     1       5.180  11.586  10.026  1.00  0.00     0.167 HD
ATOM     36  C   UNL     1       2.553  11.575  11.175  1.00  0.00     0.074 A 
ATOM     37  C   UNL     1       1.160  11.263  11.434  1.00  0.00     0.031 C 
ATOM     38  C   UNL     1       3.244  12.555  11.807  1.00  0.00     0.037 A 
BRANCH  25  39
ATOM     39  C   UNL     1       9.102  13.251   9.891  1.00  0.00     0.057 A 
ATOM     40  C   UNL     1       9.538  14.086   8.853  1.00  0.00     0.134 A 
ATOM     41  C   UNL     1       9.970  13.049  10.969  1.00  0.00     0.134 A 
ATOM     42  F   UNL     1       8.767  14.288   7.774  1.00  0.00    -0.206 F 
ATOM     43  C   UNL     1      10.806  14.669   8.872  1.00  0.00     0.040 A 
ATOM     44  C   UNL     1      11.232  13.643  11.009  1.00  0.00     0.040 A 
ATOM     45  F   UNL     1       9.618  12.248  11.986  1.00  0.00    -0.206 F 
ATOM     46  C   UNL     1      11.657  14.447   9.953  1.00  0.00     0.006 A 
ENDBRANCH  25  39
BRANCH  26  47
ATOM     47  C   UNL     1       0.613   7.976   8.826  1.00  0.00     0.057 A 
ATOM     48  C   UNL     1      -0.498   8.602   8.247  1.00  0.00     0.134 A 
ATOM     49  C   UNL     1       0.458   6.638   9.213  1.00  0.00     0.134 A 
ATOM     50  F   UNL     1      -0.429   9.888   7.871  1.00  0.00    -0.206 F 
ATOM     51  C   UNL     1      -1.716   7.937   8.080  1.00  0.00     0.040 A 
ATOM     52  C   UNL     1      -0.744   5.951   9.026  1.00  0.00     0.040 A 
ATOM     53  F   UNL     1       1.478   5.972   9.774  1.00  0.00    -0.206 F 
ATOM     54  C   UNL     1      -1.839   6.604   8.465  1.00  0.00     0.006 A 
ENDBRANCH  26  47
BRANCH  38  55
ATOM     55  C   UNL     1       2.495  13.340  12.839  1.00  0.00     0.057 A 
ATOM     56  C   UNL     1       2.192  12.794  14.093  1.00  0.00     0.134 A 
ATOM     57  C   UNL     1       2.103  14.659  12.588  1.00  0.00     0.134 A 
ATOM     58  F   UNL     1       2.531  11.529  14.384  1.00  0.00    -0.206 F 
ATOM     59  C   UNL     1       1.504  13.530  15.057  1.00  0.00     0.040 A 
ATOM     60  C   UNL     1       1.434  15.412  13.552  1.00  0.00     0.040 A 
ATOM     61  F   UNL     1       2.370  15.236  11.406  1.00  0.00    -0.206 F 
ATOM     62  C   UNL     1       1.129  14.845  14.789  1.00  0.00     0.006 A 
ENDBRANCH  38  55
ENDBRANCH  12  13
ENDBRANCH   5   7
ENDBRANCH   4   5
ENDBRANCH   3   4
ENDBRANCH   2   3
ENDBRANCH   1   2
BRANCH   1  63
ATOM     63  C   UNL     1       6.843   4.475   2.310  1.00  0.00     0.349 C 
ATOM     64  O   UNL     1       7.371   3.670   1.556  1.00  0.00    -0.245 OA
BRANCH  63  65
ATOM     65  C   UNL     1       6.308   4.166   3.614  1.00  0.00     0.132 A 
ATOM     66  S   UNL     1       7.215   3.093   4.608  1.00  0.00    -0.136 S 
ATOM     67  C   UNL     1       5.137   4.553   4.236  1.00  0.00     0.107 A 
ATOM     68  C   UNL     1       6.096   3.209   5.889  1.00  0.00     0.067 A 
ATOM     69  C   UNL     1       5.009   3.977   5.545  1.00  0.00     0.034 A 
BRANCH  67  70
ATOM     70  S   UNL     1       3.912   5.579   3.569  1.00  0.00     0.242 S 
ATOM     71  O   UNL     1       2.676   4.954   3.973  1.00  0.00    -0.207 OA
ATOM     72  O   UNL     1       4.268   6.908   4.003  1.00  0.00    -0.207 OA
BRANCH  70  73
ATOM     73  N   UNL     1       3.952   5.658   1.913  1.00  0.00    -0.208 NA
ATOM     74  H   UNL     1       4.887   5.985   1.671  1.00  0.00     0.141 HD
BRANCH  73  75
ATOM     75  C   UNL     1       3.692   4.508   1.049  1.00  0.00     0.135 C 
BRANCH  75  76
ATOM     76  C   UNL     1       2.259   3.950   1.051  1.00  0.00     0.159 C 
BRANCH  76  77
ATOM     77  C   UNL     1       1.186   4.751   0.333  1.00  0.00    -0.018 A 
ATOM     78  C   UNL     1       1.275   6.124   0.058  1.00  0.00     0.006 A 
ATOM     79  C   UNL     1      -0.009   4.097  -0.019  1.00  0.00     0.006 A 
ATOM     80  C   UNL     1       0.216   6.813  -0.543  1.00  0.00     0.000 A 
ATOM     81  C   UNL     1      -1.061   4.779  -0.633  1.00  0.00     0.000 A 
ATOM     82  C   UNL     1      -0.950   6.140  -0.890  1.00  0.00     0.000 A 
ENDBRANCH  76  77
BRANCH  76  83
ATOM     83  O   UNL     1       2.337   2.652   0.433  1.00  0.00    -0.387 OA
ATOM     84  H   UNL     1       2.632   2.749  -0.486  1.00  0.00     0.211 HD
ENDBRANCH  76  83
ENDBRANCH  75  76
ENDBRANCH  73  75
ENDBRANCH  70  73
ENDBRANCH  67  70
ENDBRANCH  63  65
ENDBRANCH   1  63
TORSDOF 17
