REMARK SMILES Cc1ccc(C(=O)OCCOC(=O)c2ccc(-c3c4nc(c(-c5c(F)cccc5F)c5ccc([nH]5)c(-c5c(F)cccc5F)c5nc(c(-c6c(F)cccc6F)c6ccc3[nH]6)C=C5)C=C4)cc2)cc1S(=O)(=O)N(C)[C@H]1CCSC1
REMARK SMILES IDX 9 1 8 2 6 3 7 4 5 5 1 6 2 7 3 8 69 9 4 10 68 11 70 12 71 13
REMARK SMILES IDX 72 14 73 15 74 16 75 17 76 18 79 19 77 20 78 21 10 22 11 23
REMARK SMILES IDX 12 24 13 25 14 26 15 27 67 28 16 29 66 30 17 31 18 32 19 33
REMARK SMILES IDX 60 34 20 35 65 36 59 37 61 38 21 39 64 40 58 41 57 42 22 44
REMARK SMILES IDX 48 45 31 46 47 47 32 48 35 49 46 50 62 51 33 52 34 53 45 55
REMARK SMILES IDX 63 56 36 57 23 58 24 59 29 60 25 61 26 62 28 63 30 64 27 65
REMARK SMILES IDX 49 66 50 67 55 68 51 69 52 70 54 71 56 72 53 73 37 74 38 75
REMARK SMILES IDX 43 76 39 77 40 78 42 79 44 80 41 81
REMARK H PARENT 61 43 35 54
REMARK Flexibility Score: inf
ROOT
ATOM      1  C   UNL     1      -4.102   4.164  -4.294  1.00  0.00     0.275 C 
ENDROOT
BRANCH   1   2
ATOM      2  O   UNL     1      -2.924   3.404  -4.009  1.00  0.00    -0.458 OA
BRANCH   2   3
ATOM      3  C   UNL     1      -2.178   3.993  -3.044  1.00  0.00     0.338 C 
ATOM      4  O   UNL     1      -2.438   5.044  -2.473  1.00  0.00    -0.246 OA
BRANCH   3   5
ATOM      5  C   UNL     1      -0.927   3.273  -2.767  1.00  0.00     0.061 A 
ATOM      6  C   UNL     1       2.628   1.425  -1.181  1.00  0.00     0.046 C 
ATOM      7  C   UNL     1       1.501   2.169  -1.827  1.00  0.00    -0.031 A 
ATOM      8  C   UNL     1       0.384   1.360  -2.148  1.00  0.00     0.006 A 
ATOM      9  C   UNL     1       1.395   3.549  -2.076  1.00  0.00     0.086 A 
ATOM     10  C   UNL     1      -0.799   1.896  -2.663  1.00  0.00     0.016 A 
ATOM     11  C   UNL     1       0.168   4.080  -2.497  1.00  0.00     0.037 A 
BRANCH   9  12
ATOM     12  S   UNL     1       2.631   4.835  -2.017  1.00  0.00     0.243 S 
ATOM     13  O   UNL     1       3.022   5.061  -3.385  1.00  0.00    -0.207 OA
ATOM     14  O   UNL     1       2.043   5.904  -1.221  1.00  0.00    -0.207 OA
BRANCH  12  15
ATOM     15  N   UNL     1       3.958   4.274  -1.169  1.00  0.00    -0.197 NA
ATOM     16  C   UNL     1       5.080   3.747  -1.947  1.00  0.00     0.125 C 
BRANCH  15  17
ATOM     17  C   UNL     1       3.927   4.360   0.304  1.00  0.00     0.083 C 
ATOM     18  C   UNL     1       4.797   3.352   1.044  1.00  0.00     0.032 C 
ATOM     19  C   UNL     1       4.362   5.734   0.821  1.00  0.00     0.089 C 
ATOM     20  C   UNL     1       4.583   3.665   2.516  1.00  0.00     0.071 C 
ATOM     21  S   UNL     1       4.679   5.475   2.598  1.00  0.00    -0.160 SA
ENDBRANCH  15  17
ENDBRANCH  12  15
ENDBRANCH   9  12
ENDBRANCH   3   5
ENDBRANCH   2   3
ENDBRANCH   1   2
BRANCH   1  22
ATOM     22  C   UNL     1      -5.228   3.329  -4.910  1.00  0.00     0.275 C 
BRANCH  22  23
ATOM     23  O   UNL     1      -5.294   1.895  -4.655  1.00  0.00    -0.458 OA
BRANCH  23  24
ATOM     24  C   UNL     1      -4.899   1.176  -3.579  1.00  0.00     0.338 C 
ATOM     25  O   UNL     1      -4.612  -0.013  -3.660  1.00  0.00    -0.246 OA
BRANCH  24  26
ATOM     26  C   UNL     1      -4.790   1.861  -2.287  1.00  0.00     0.060 A 
ATOM     27  C   UNL     1      -3.784   1.454  -1.391  1.00  0.00     0.016 A 
ATOM     28  C   UNL     1      -5.626   2.932  -1.996  1.00  0.00     0.016 A 
ATOM     29  C   UNL     1      -3.539   2.183  -0.242  1.00  0.00     0.010 A 
ATOM     30  C   UNL     1      -5.311   3.736  -0.934  1.00  0.00     0.010 A 
ATOM     31  C   UNL     1      -4.324   3.308  -0.029  1.00  0.00    -0.014 A 
BRANCH  31  32
ATOM     32  C   UNL     1      -4.557   3.824   1.302  1.00  0.00     0.031 A 
ATOM     33  C   UNL     1      -3.780   4.951   1.818  1.00  0.00     0.074 A 
ATOM     34  C   UNL     1      -5.700   3.288   1.787  1.00  0.00     0.049 A 
ATOM     35  N   UNL     1      -3.674   5.246   3.064  1.00  0.00    -0.248 NA
ATOM     36  C   UNL     1      -2.975   5.823   0.962  1.00  0.00     0.031 C 
ATOM     37  C   UNL     1      -6.642   3.733   2.789  1.00  0.00     0.029 A 
ATOM     38  N   UNL     1      -6.202   2.030   1.399  1.00  0.00    -0.354 N 
ATOM     39  C   UNL     1      -3.200   6.543   3.115  1.00  0.00     0.074 A 
ATOM     40  C   UNL     1      -2.587   6.766   1.830  1.00  0.00     0.031 C 
ATOM     41  C   UNL     1      -7.398   2.677   3.160  1.00  0.00     0.029 A 
ATOM     42  C   UNL     1      -6.851   1.491   2.503  1.00  0.00     0.049 A 
ATOM     43  H   UNL     1      -6.109   1.612   0.512  1.00  0.00     0.167 HD
ATOM     44  C   UNL     1      -3.640   7.350   4.127  1.00  0.00     0.037 A 
ATOM     45  C   UNL     1      -6.238   0.441   3.128  1.00  0.00     0.037 A 
ATOM     46  C   UNL     1      -4.540   6.581   4.992  1.00  0.00     0.049 A 
ATOM     47  C   UNL     1      -5.749   0.883   4.484  1.00  0.00     0.074 A 
ATOM     48  C   UNL     1      -5.922   6.482   4.999  1.00  0.00     0.029 A 
ATOM     49  N   UNL     1      -4.061   5.476   5.689  1.00  0.00    -0.354 N 
ATOM     50  N   UNL     1      -5.281   2.076   4.746  1.00  0.00    -0.248 NA
ATOM     51  C   UNL     1      -5.877   0.043   5.668  1.00  0.00     0.031 C 
ATOM     52  C   UNL     1      -6.269   5.264   5.635  1.00  0.00     0.029 A 
ATOM     53  C   UNL     1      -5.099   4.616   5.997  1.00  0.00     0.049 A 
ATOM     54  H   UNL     1      -3.117   5.328   5.929  1.00  0.00     0.167 HD
ATOM     55  C   UNL     1      -5.159   2.211   6.104  1.00  0.00     0.074 A 
ATOM     56  C   UNL     1      -5.503   0.901   6.632  1.00  0.00     0.031 C 
ATOM     57  C   UNL     1      -4.853   3.386   6.728  1.00  0.00     0.037 A 
BRANCH  44  58
ATOM     58  C   UNL     1      -3.610   8.869   4.115  1.00  0.00     0.057 A 
ATOM     59  C   UNL     1      -4.564   9.609   4.848  1.00  0.00     0.134 A 
ATOM     60  C   UNL     1      -2.709   9.666   3.388  1.00  0.00     0.134 A 
ATOM     61  F   UNL     1      -5.429   9.018   5.683  1.00  0.00    -0.206 F 
ATOM     62  C   UNL     1      -4.683  11.004   4.777  1.00  0.00     0.040 A 
ATOM     63  C   UNL     1      -2.832  11.064   3.286  1.00  0.00     0.040 A 
ATOM     64  F   UNL     1      -1.636   9.144   2.784  1.00  0.00    -0.206 F 
ATOM     65  C   UNL     1      -3.831  11.738   3.971  1.00  0.00     0.006 A 
ENDBRANCH  44  58
BRANCH  45  66
ATOM     66  C   UNL     1      -5.522  -0.498   2.196  1.00  0.00     0.057 A 
ATOM     67  C   UNL     1      -6.237  -1.064   1.116  1.00  0.00     0.134 A 
ATOM     68  C   UNL     1      -4.133  -0.650   2.157  1.00  0.00     0.134 A 
ATOM     69  F   UNL     1      -7.577  -0.970   1.072  1.00  0.00    -0.206 F 
ATOM     70  C   UNL     1      -5.605  -1.657   0.017  1.00  0.00     0.040 A 
ATOM     71  C   UNL     1      -3.486  -1.263   1.067  1.00  0.00     0.040 A 
ATOM     72  F   UNL     1      -3.359  -0.148   3.129  1.00  0.00    -0.206 F 
ATOM     73  C   UNL     1      -4.219  -1.743  -0.018  1.00  0.00     0.006 A 
ENDBRANCH  45  66
BRANCH  57  74
ATOM     74  C   UNL     1      -4.395   3.499   8.154  1.00  0.00     0.057 A 
ATOM     75  C   UNL     1      -3.672   2.493   8.807  1.00  0.00     0.134 A 
ATOM     76  C   UNL     1      -4.503   4.723   8.853  1.00  0.00     0.134 A 
ATOM     77  F   UNL     1      -3.396   1.325   8.210  1.00  0.00    -0.206 F 
ATOM     78  C   UNL     1      -3.146   2.667  10.089  1.00  0.00     0.040 A 
ATOM     79  C   UNL     1      -3.922   4.929  10.102  1.00  0.00     0.040 A 
ATOM     80  F   UNL     1      -5.145   5.782   8.338  1.00  0.00    -0.206 F 
ATOM     81  C   UNL     1      -3.256   3.893  10.734  1.00  0.00     0.006 A 
ENDBRANCH  57  74
ENDBRANCH  31  32
ENDBRANCH  24  26
ENDBRANCH  23  24
ENDBRANCH  22  23
ENDBRANCH   1  22
TORSDOF 14
