REMARK SMILES COc1cccc([C@@H]2CN(C(=O)c3cnn(C)c3)C[C@H]2C(=O)OCCOC(=O)c2ccc(-c3c4nc(c(-c5c(F)cccc5F)c5ccc([nH]5)c(-c5c(F)cccc5F)c5nc(c(-c6c(F)cccc6F)c6ccc3[nH]6)C=C5)C=C4)cc2)c1OC
REMARK SMILES IDX 24 1 23 2 21 3 22 4 20 5 8 6 9 7 10 8 19 9 7 10 3 11 4 12
REMARK SMILES IDX 83 13 5 14 6 15 2 16 1 17 84 18 85 19 11 20 12 21 13 22
REMARK SMILES IDX 14 23 18 24 15 25 16 26 17 27 25 28 26 29 27 30 28 31 29 32
REMARK SMILES IDX 30 33 82 34 31 35 81 36 32 37 33 38 34 39 75 40 35 41 80 42
REMARK SMILES IDX 74 43 76 44 36 45 79 46 73 47 72 48 37 50 63 51 46 52 62 53
REMARK SMILES IDX 47 54 50 55 61 56 77 57 48 58 49 59 60 61 78 62 51 63 38 64
REMARK SMILES IDX 39 65 44 66 40 67 41 68 43 69 45 70 42 71 64 72 65 73 70 74
REMARK SMILES IDX 66 75 67 76 69 77 71 78 68 79 52 80 53 81 58 82 54 83 55 84
REMARK SMILES IDX 57 85 59 86 56 87
REMARK H PARENT 76 49 50 60
REMARK Flexibility Score: inf
ROOT
ATOM      1  C   UNL     1       4.686   6.403  -2.762  1.00  0.00     0.274 C 
ENDROOT
BRANCH   1   2
ATOM      2  O   UNL     1       4.726   4.990  -3.044  1.00  0.00    -0.462 OA
BRANCH   2   3
ATOM      3  C   UNL     1       4.999   4.186  -1.985  1.00  0.00     0.311 C 
ATOM      4  O   UNL     1       5.213   4.587  -0.846  1.00  0.00    -0.252 OA
BRANCH   3   5
ATOM      5  C   UNL     1       5.103   2.723  -2.340  1.00  0.00     0.128 C 
ATOM      6  C   UNL     1       4.327   2.235  -3.577  1.00  0.00     0.059 C 
ATOM      7  C   UNL     1       5.234   1.154  -4.171  1.00  0.00     0.129 C 
ATOM      8  N   UNL     1       6.581   1.534  -3.787  1.00  0.00    -0.337 N 
ATOM      9  C   UNL     1       6.569   2.426  -2.646  1.00  0.00     0.135 C 
BRANCH   6  10
ATOM     10  C   UNL     1       2.907   1.710  -3.388  1.00  0.00     0.004 A 
ATOM     11  C   UNL     1       1.253   0.162  -2.487  1.00  0.00     0.161 A 
ATOM     12  C   UNL     1       0.283   0.705  -3.340  1.00  0.00     0.050 A 
ATOM     13  C   UNL     1       2.574   0.645  -2.511  1.00  0.00     0.164 A 
ATOM     14  C   UNL     1       0.604   1.753  -4.192  1.00  0.00     0.004 A 
ATOM     15  C   UNL     1       1.904   2.250  -4.216  1.00  0.00     0.008 A 
BRANCH  11  16
ATOM     16  O   UNL     1       0.897  -0.936  -1.746  1.00  0.00    -0.493 OA
ATOM     17  C   UNL     1       0.013  -0.594  -0.680  1.00  0.00     0.278 C 
ENDBRANCH  11  16
BRANCH  13  18
ATOM     18  O   UNL     1       3.629   0.179  -1.772  1.00  0.00    -0.493 OA
ATOM     19  C   UNL     1       3.450  -0.905  -0.874  1.00  0.00     0.278 C 
ENDBRANCH  13  18
ENDBRANCH   6  10
BRANCH   8  20
ATOM     20  C   UNL     1       7.766   0.943  -4.195  1.00  0.00     0.257 C 
ATOM     21  O   UNL     1       8.827   1.155  -3.611  1.00  0.00    -0.269 OA
BRANCH  20  22
ATOM     22  C   UNL     1       7.708   0.027  -5.317  1.00  0.00     0.077 A 
ATOM     23  C   UNL     1       8.346  -1.228  -5.431  1.00  0.00     0.149 A 
ATOM     24  C   UNL     1       7.088   0.192  -6.541  1.00  0.00     0.122 A 
ATOM     25  N   UNL     1       8.073  -1.844  -6.586  1.00  0.00    -0.181 NA
ATOM     26  N   UNL     1       7.292  -0.963  -7.234  1.00  0.00    -0.275 N 
ATOM     27  C   UNL     1       6.745  -1.303  -8.524  1.00  0.00     0.173 C 
ENDBRANCH  20  22
ENDBRANCH   8  20
ENDBRANCH   3   5
ENDBRANCH   2   3
ENDBRANCH   1   2
BRANCH   1  28
ATOM     28  C   UNL     1       3.256   6.886  -2.527  1.00  0.00     0.275 C 
BRANCH  28  29
ATOM     29  O   UNL     1       2.660   6.194  -1.414  1.00  0.00    -0.458 OA
BRANCH  29  30
ATOM     30  C   UNL     1       1.725   5.277  -1.749  1.00  0.00     0.338 C 
ATOM     31  O   UNL     1       1.294   5.033  -2.862  1.00  0.00    -0.246 OA
BRANCH  30  32
ATOM     32  C   UNL     1       1.268   4.559  -0.551  1.00  0.00     0.060 A 
ATOM     33  C   UNL     1       1.961   3.429  -0.122  1.00  0.00     0.016 A 
ATOM     34  C   UNL     1       0.051   4.903   0.038  1.00  0.00     0.016 A 
ATOM     35  C   UNL     1       1.400   2.594   0.841  1.00  0.00     0.010 A 
ATOM     36  C   UNL     1      -0.486   4.088   1.042  1.00  0.00     0.010 A 
ATOM     37  C   UNL     1       0.153   2.892   1.413  1.00  0.00    -0.014 A 
BRANCH  37  38
ATOM     38  C   UNL     1      -0.515   1.898   2.303  1.00  0.00     0.031 A 
ATOM     39  C   UNL     1      -1.807   1.239   1.877  1.00  0.00     0.074 A 
ATOM     40  C   UNL     1       0.065   1.511   3.457  1.00  0.00     0.049 A 
ATOM     41  N   UNL     1      -2.509   0.316   2.491  1.00  0.00    -0.248 NA
ATOM     42  C   UNL     1      -2.371   1.645   0.579  1.00  0.00     0.031 C 
ATOM     43  C   UNL     1       1.333   2.020   3.978  1.00  0.00     0.029 A 
ATOM     44  N   UNL     1      -0.336   0.591   4.396  1.00  0.00    -0.354 N 
ATOM     45  C   UNL     1      -3.582   0.030   1.655  1.00  0.00     0.074 A 
ATOM     46  C   UNL     1      -3.459   0.893   0.502  1.00  0.00     0.031 C 
ATOM     47  C   UNL     1       1.614   1.397   5.134  1.00  0.00     0.029 A 
ATOM     48  C   UNL     1       0.521   0.487   5.465  1.00  0.00     0.049 A 
ATOM     49  H   UNL     1      -1.160   0.058   4.311  1.00  0.00     0.167 HD
ATOM     50  C   UNL     1      -4.575  -0.877   1.819  1.00  0.00     0.037 A 
ATOM     51  C   UNL     1       0.428  -0.234   6.599  1.00  0.00     0.037 A 
ATOM     52  C   UNL     1      -4.739  -1.718   2.975  1.00  0.00     0.049 A 
ATOM     53  C   UNL     1      -0.759  -1.129   6.820  1.00  0.00     0.074 A 
ATOM     54  C   UNL     1      -5.741  -2.637   3.238  1.00  0.00     0.029 A 
ATOM     55  N   UNL     1      -3.890  -1.731   4.070  1.00  0.00    -0.354 N 
ATOM     56  N   UNL     1      -1.760  -1.390   6.016  1.00  0.00    -0.248 NA
ATOM     57  C   UNL     1      -0.830  -1.828   8.113  1.00  0.00     0.031 C 
ATOM     58  C   UNL     1      -5.526  -3.168   4.515  1.00  0.00     0.029 A 
ATOM     59  C   UNL     1      -4.361  -2.619   5.023  1.00  0.00     0.049 A 
ATOM     60  H   UNL     1      -3.072  -1.189   4.157  1.00  0.00     0.167 HD
ATOM     61  C   UNL     1      -2.563  -2.302   6.692  1.00  0.00     0.074 A 
ATOM     62  C   UNL     1      -1.927  -2.558   7.966  1.00  0.00     0.031 C 
ATOM     63  C   UNL     1      -3.722  -2.877   6.288  1.00  0.00     0.037 A 
BRANCH  50  64
ATOM     64  C   UNL     1      -5.593  -0.985   0.722  1.00  0.00     0.057 A 
ATOM     65  C   UNL     1      -5.303  -1.623  -0.491  1.00  0.00     0.134 A 
ATOM     66  C   UNL     1      -6.887  -0.477   0.894  1.00  0.00     0.134 A 
ATOM     67  F   UNL     1      -4.075  -2.112  -0.724  1.00  0.00    -0.206 F 
ATOM     68  C   UNL     1      -6.261  -1.741  -1.499  1.00  0.00     0.040 A 
ATOM     69  C   UNL     1      -7.859  -0.606  -0.098  1.00  0.00     0.040 A 
ATOM     70  F   UNL     1      -7.228   0.143   2.034  1.00  0.00    -0.206 F 
ATOM     71  C   UNL     1      -7.546  -1.237  -1.301  1.00  0.00     0.006 A 
ENDBRANCH  50  64
BRANCH  51  72
ATOM     72  C   UNL     1       1.480  -0.112   7.642  1.00  0.00     0.057 A 
ATOM     73  C   UNL     1       2.330  -1.179   7.951  1.00  0.00     0.134 A 
ATOM     74  C   UNL     1       1.640   1.073   8.372  1.00  0.00     0.134 A 
ATOM     75  F   UNL     1       2.206  -2.349   7.307  1.00  0.00    -0.206 F 
ATOM     76  C   UNL     1       3.293  -1.078   8.957  1.00  0.00     0.040 A 
ATOM     77  C   UNL     1       2.617   1.198   9.360  1.00  0.00     0.040 A 
ATOM     78  F   UNL     1       0.853   2.131   8.127  1.00  0.00    -0.206 F 
ATOM     79  C   UNL     1       3.442   0.117   9.659  1.00  0.00     0.006 A 
ENDBRANCH  51  72
BRANCH  63  80
ATOM     80  C   UNL     1      -4.356  -3.873   7.214  1.00  0.00     0.057 A 
ATOM     81  C   UNL     1      -4.984  -3.487   8.405  1.00  0.00     0.134 A 
ATOM     82  C   UNL     1      -4.354  -5.239   6.898  1.00  0.00     0.134 A 
ATOM     83  F   UNL     1      -5.010  -2.197   8.772  1.00  0.00    -0.206 F 
ATOM     84  C   UNL     1      -5.561  -4.426   9.262  1.00  0.00     0.040 A 
ATOM     85  C   UNL     1      -4.951  -6.183   7.734  1.00  0.00     0.040 A 
ATOM     86  F   UNL     1      -3.778  -5.676   5.768  1.00  0.00    -0.206 F 
ATOM     87  C   UNL     1      -5.550  -5.778   8.925  1.00  0.00     0.006 A 
ENDBRANCH  63  80
ENDBRANCH  37  38
ENDBRANCH  30  32
ENDBRANCH  29  30
ENDBRANCH  28  29
ENDBRANCH   1  28
TORSDOF 16
