REMARK SMILES C[C@@H](c1ccncc1)N1C[C@@H](C(=O)OCCOC(=O)c2ccc(-c3c4nc(c(-c5c(F)cccc5F)c5ccc([nH]5)c(-c5c(F)cccc5F)c5nc(c(-c6c(F)cccc6F)c6ccc3[nH]6)C=C5)C=C4)cc2)CC1=O
REMARK SMILES IDX 15 1 14 2 12 3 13 4 11 5 9 6 10 7 75 8 74 9 76 10 2 11 1 12
REMARK SMILES IDX 3 13 4 14 8 15 5 16 7 17 6 18 16 19 17 20 18 21 19 22 20 23
REMARK SMILES IDX 21 24 73 25 22 26 72 27 23 28 24 29 25 30 66 31 26 32 71 33
REMARK SMILES IDX 65 34 67 35 27 36 70 37 64 38 63 39 28 41 54 42 37 43 53 44
REMARK SMILES IDX 38 45 41 46 52 47 68 48 39 49 40 50 51 52 69 53 42 54 29 55
REMARK SMILES IDX 30 56 35 57 31 58 32 59 34 60 36 61 33 62 55 63 56 64 61 65
REMARK SMILES IDX 57 66 58 67 60 68 62 69 59 70 43 71 44 72 49 73 45 74 46 75
REMARK SMILES IDX 48 76 50 77 47 78
REMARK H PARENT 67 40 41 51
REMARK Flexibility Score: inf
ROOT
ATOM      1  C   UNL     1      -5.625  -1.281   2.588  1.00  0.00     0.274 C 
ENDROOT
BRANCH   1   2
ATOM      2  O   UNL     1      -4.590  -0.365   2.179  1.00  0.00    -0.462 OA
BRANCH   2   3
ATOM      3  C   UNL     1      -3.780  -0.757   1.167  1.00  0.00     0.311 C 
ATOM      4  O   UNL     1      -3.768  -1.877   0.670  1.00  0.00    -0.252 OA
BRANCH   3   5
ATOM      5  C   UNL     1      -2.894   0.349   0.659  1.00  0.00     0.128 C 
ATOM      6  N   UNL     1      -0.806   1.345   0.783  1.00  0.00    -0.335 N 
ATOM      7  C   UNL     1      -1.439   0.049   0.919  1.00  0.00     0.136 C 
ATOM      8  C   UNL     1      -1.714   2.343   1.148  1.00  0.00     0.224 C 
ATOM      9  C   UNL     1      -3.088   1.733   1.251  1.00  0.00     0.117 C 
ATOM     10  O   UNL     1      -1.484   3.512   1.413  1.00  0.00    -0.275 OA
BRANCH   6  11
ATOM     11  C   UNL     1       0.659   1.518   0.760  1.00  0.00     0.112 C 
ATOM     12  C   UNL     1       1.399   0.227   0.361  1.00  0.00     0.036 C 
BRANCH  11  13
ATOM     13  C   UNL     1       1.116   2.697  -0.097  1.00  0.00    -0.023 A 
ATOM     14  C   UNL     1       1.488   2.582  -1.442  1.00  0.00     0.026 A 
ATOM     15  C   UNL     1       1.187   3.975   0.475  1.00  0.00     0.026 A 
ATOM     16  C   UNL     1       1.921   3.713  -2.123  1.00  0.00     0.111 A 
ATOM     17  C   UNL     1       1.595   5.052  -0.296  1.00  0.00     0.111 A 
ATOM     18  N   UNL     1       1.983   4.947  -1.581  1.00  0.00    -0.265 NA
ENDBRANCH  11  13
ENDBRANCH   6  11
ENDBRANCH   3   5
ENDBRANCH   2   3
ENDBRANCH   1   2
BRANCH   1  19
ATOM     19  C   UNL     1      -6.997  -0.765   2.146  1.00  0.00     0.275 C 
BRANCH  19  20
ATOM     20  O   UNL     1      -7.125  -0.759   0.710  1.00  0.00    -0.458 OA
BRANCH  20  21
ATOM     21  C   UNL     1      -6.791   0.409   0.112  1.00  0.00     0.338 C 
ATOM     22  O   UNL     1      -6.403   1.431   0.650  1.00  0.00    -0.246 OA
BRANCH  21  23
ATOM     23  C   UNL     1      -6.815   0.251  -1.349  1.00  0.00     0.060 A 
ATOM     24  C   UNL     1      -5.593   0.258  -2.020  1.00  0.00     0.016 A 
ATOM     25  C   UNL     1      -8.010   0.221  -2.064  1.00  0.00     0.016 A 
ATOM     26  C   UNL     1      -5.546   0.262  -3.407  1.00  0.00     0.010 A 
ATOM     27  C   UNL     1      -7.966   0.197  -3.464  1.00  0.00     0.010 A 
ATOM     28  C   UNL     1      -6.734   0.231  -4.143  1.00  0.00    -0.014 A 
BRANCH  28  29
ATOM     29  C   UNL     1      -6.669   0.276  -5.623  1.00  0.00     0.031 A 
ATOM     30  C   UNL     1      -7.127   1.501  -6.359  1.00  0.00     0.074 A 
ATOM     31  C   UNL     1      -6.164  -0.772  -6.302  1.00  0.00     0.049 A 
ATOM     32  N   UNL     1      -7.254   1.693  -7.646  1.00  0.00    -0.248 NA
ATOM     33  C   UNL     1      -7.494   2.664  -5.536  1.00  0.00     0.031 C 
ATOM     34  C   UNL     1      -5.630  -1.993  -5.696  1.00  0.00     0.029 A 
ATOM     35  N   UNL     1      -6.017  -0.975  -7.650  1.00  0.00    -0.354 N 
ATOM     36  C   UNL     1      -7.747   2.983  -7.789  1.00  0.00     0.074 A 
ATOM     37  C   UNL     1      -7.903   3.526  -6.456  1.00  0.00     0.031 C 
ATOM     38  C   UNL     1      -5.210  -2.817  -6.669  1.00  0.00     0.029 A 
ATOM     39  C   UNL     1      -5.499  -2.208  -7.964  1.00  0.00     0.049 A 
ATOM     40  H   UNL     1      -6.259  -0.303  -8.327  1.00  0.00     0.167 HD
ATOM     41  C   UNL     1      -8.043   3.650  -8.930  1.00  0.00     0.037 A 
ATOM     42  C   UNL     1      -5.313  -2.796  -9.160  1.00  0.00     0.037 A 
ATOM     43  C   UNL     1      -7.856   3.115 -10.253  1.00  0.00     0.049 A 
ATOM     44  C   UNL     1      -5.697  -2.054 -10.409  1.00  0.00     0.074 A 
ATOM     45  C   UNL     1      -8.113   3.717 -11.473  1.00  0.00     0.029 A 
ATOM     46  N   UNL     1      -7.357   1.850 -10.529  1.00  0.00    -0.354 N 
ATOM     47  N   UNL     1      -6.191  -0.847 -10.532  1.00  0.00    -0.248 NA
ATOM     48  C   UNL     1      -5.508  -2.761 -11.683  1.00  0.00     0.031 C 
ATOM     49  C   UNL     1      -7.805   2.803 -12.486  1.00  0.00     0.029 A 
ATOM     50  C   UNL     1      -7.316   1.647 -11.899  1.00  0.00     0.049 A 
ATOM     51  H   UNL     1      -7.073   1.194  -9.852  1.00  0.00     0.167 HD
ATOM     52  C   UNL     1      -6.357  -0.641 -11.895  1.00  0.00     0.074 A 
ATOM     53  C   UNL     1      -5.896  -1.844 -12.558  1.00  0.00     0.031 C 
ATOM     54  C   UNL     1      -6.850   0.444 -12.540  1.00  0.00     0.037 A 
BRANCH  41  55
ATOM     55  C   UNL     1      -8.634   5.022  -8.795  1.00  0.00     0.057 A 
ATOM     56  C   UNL     1      -7.868   6.128  -8.410  1.00  0.00     0.134 A 
ATOM     57  C   UNL     1      -9.987   5.241  -9.085  1.00  0.00     0.134 A 
ATOM     58  F   UNL     1      -6.570   5.983  -8.104  1.00  0.00    -0.206 F 
ATOM     59  C   UNL     1      -8.431   7.401  -8.299  1.00  0.00     0.040 A 
ATOM     60  C   UNL     1     -10.556   6.512  -9.001  1.00  0.00     0.040 A 
ATOM     61  F   UNL     1     -10.776   4.223  -9.464  1.00  0.00    -0.206 F 
ATOM     62  C   UNL     1      -9.778   7.596  -8.601  1.00  0.00     0.006 A 
ENDBRANCH  41  55
BRANCH  42  63
ATOM     63  C   UNL     1      -4.770  -4.175  -9.229  1.00  0.00     0.057 A 
ATOM     64  C   UNL     1      -3.488  -4.426  -9.731  1.00  0.00     0.134 A 
ATOM     65  C   UNL     1      -5.520  -5.275  -8.794  1.00  0.00     0.134 A 
ATOM     66  F   UNL     1      -2.731  -3.415 -10.183  1.00  0.00    -0.206 F 
ATOM     67  C   UNL     1      -2.975  -5.721  -9.808  1.00  0.00     0.040 A 
ATOM     68  C   UNL     1      -5.010  -6.572  -8.841  1.00  0.00     0.040 A 
ATOM     69  F   UNL     1      -6.755  -5.100  -8.300  1.00  0.00    -0.206 F 
ATOM     70  C   UNL     1      -3.735  -6.799  -9.355  1.00  0.00     0.006 A 
ENDBRANCH  42  63
BRANCH  54  71
ATOM     71  C   UNL     1      -6.888   0.388 -14.037  1.00  0.00     0.057 A 
ATOM     72  C   UNL     1      -7.835  -0.383 -14.722  1.00  0.00     0.134 A 
ATOM     73  C   UNL     1      -5.987   1.139 -14.802  1.00  0.00     0.134 A 
ATOM     74  F   UNL     1      -8.716  -1.137 -14.046  1.00  0.00    -0.206 F 
ATOM     75  C   UNL     1      -7.873  -0.419 -16.117  1.00  0.00     0.040 A 
ATOM     76  C   UNL     1      -6.030   1.129 -16.196  1.00  0.00     0.040 A 
ATOM     77  F   UNL     1      -5.059   1.903 -14.205  1.00  0.00    -0.206 F 
ATOM     78  C   UNL     1      -6.972   0.344 -16.857  1.00  0.00     0.006 A 
ENDBRANCH  54  71
ENDBRANCH  28  29
ENDBRANCH  21  23
ENDBRANCH  20  21
ENDBRANCH  19  20
ENDBRANCH   1  19
TORSDOF 13
