REMARK SMILES CCCCCCNC(=O)Oc1cccc(-c2ccc([C@@H](C)C(=O)OCCOC(=O)c3ccc(-c4c5nc(c(-c6c(F)cccc6F)c6ccc([nH]6)c(-c6c(F)cccc6F)c6nc(c(-c7c(F)cccc7F)c7ccc4[nH]7)C=C6)C=C5)cc3)cc2[N+](=O)[O-])c1
REMARK SMILES IDX 20 1 21 2 19 3 16 4 17 5 85 6 18 7 84 8 15 9 11 10 12 11
REMARK SMILES IDX 89 12 13 13 14 14 10 15 8 16 7 17 9 19 6 20 5 21 4 22 3 23
REMARK SMILES IDX 2 24 1 25 86 26 87 27 88 28 22 29 23 30 24 31 25 32 26 33
REMARK SMILES IDX 27 34 28 35 29 36 30 37 31 38 83 39 32 40 82 41 33 42 34 43
REMARK SMILES IDX 35 44 76 45 36 46 81 47 75 48 77 49 37 50 80 51 74 52 73 53
REMARK SMILES IDX 38 55 64 56 47 57 63 58 48 59 51 60 62 61 78 62 49 63 50 64
REMARK SMILES IDX 61 66 79 67 52 68 39 69 40 70 45 71 41 72 42 73 44 74 46 75
REMARK SMILES IDX 43 76 65 77 66 78 71 79 67 80 68 81 70 82 72 83 69 84 53 85
REMARK SMILES IDX 54 86 59 87 55 88 56 89 58 90 60 91 57 92
REMARK H PARENT 7 18 77 54 51 65
REMARK Flexibility Score: inf
ROOT
ATOM      1  C   UNL     1      -4.749 -13.093  -4.886  1.00  0.00     0.126 C 
ATOM      2  C   UNL     1      -5.984 -13.751  -5.498  1.00  0.00     0.025 C 
ENDROOT
BRANCH   1   3
ATOM      3  C   UNL     1      -4.779 -11.575  -5.003  1.00  0.00    -0.027 A 
ATOM      4  C   UNL     1      -4.866  -8.714  -5.181  1.00  0.00     0.060 A 
ATOM      5  C   UNL     1      -4.911  -9.531  -6.327  1.00  0.00     0.016 A 
ATOM      6  C   UNL     1      -4.761  -9.376  -3.946  1.00  0.00     0.277 A 
ATOM      7  C   UNL     1      -4.877 -10.929  -6.241  1.00  0.00     0.006 A 
ATOM      8  C   UNL     1      -4.719 -10.780  -3.850  1.00  0.00     0.091 A 
BRANCH   4   9
ATOM      9  C   UNL     1      -4.959  -7.252  -5.348  1.00  0.00    -0.008 A 
ATOM     10  C   UNL     1      -4.104  -5.005  -5.045  1.00  0.00     0.133 A 
ATOM     11  C   UNL     1      -5.231  -4.461  -5.658  1.00  0.00     0.047 A 
ATOM     12  C   UNL     1      -3.958  -6.385  -4.886  1.00  0.00     0.056 A 
ATOM     13  C   UNL     1      -6.223  -5.310  -6.136  1.00  0.00     0.004 A 
ATOM     14  C   UNL     1      -6.088  -6.691  -5.978  1.00  0.00     0.009 A 
BRANCH  10  15
ATOM     15  O   UNL     1      -3.202  -4.095  -4.470  1.00  0.00    -0.410 OA
BRANCH  15  16
ATOM     16  C   UNL     1      -1.853  -4.219  -4.762  1.00  0.00     0.412 C 
ATOM     17  N   UNL     1      -1.076  -3.324  -4.077  1.00  0.00    -0.321 N 
ATOM     18  H   UNL     1      -0.108  -3.360  -4.250  1.00  0.00     0.167 HD
ATOM     19  O   UNL     1      -1.355  -5.014  -5.549  1.00  0.00    -0.224 OA
BRANCH  17  20
ATOM     20  C   UNL     1      -1.530  -2.329  -3.125  1.00  0.00     0.119 C 
BRANCH  20  21
ATOM     21  C   UNL     1      -0.940  -2.554  -1.733  1.00  0.00     0.021 C 
BRANCH  21  22
ATOM     22  C   UNL     1       0.589  -2.449  -1.653  1.00  0.00     0.002 C 
BRANCH  22  23
ATOM     23  C   UNL     1       1.187  -1.120  -2.128  1.00  0.00    -0.000 C 
BRANCH  23  24
ATOM     24  C   UNL     1       0.701   0.124  -1.381  1.00  0.00    -0.003 C 
ATOM     25  C   UNL     1       1.072   0.124   0.094  1.00  0.00     0.004 C 
ENDBRANCH  23  24
ENDBRANCH  22  23
ENDBRANCH  21  22
ENDBRANCH  20  21
ENDBRANCH  17  20
ENDBRANCH  15  16
ENDBRANCH  10  15
ENDBRANCH   4   9
BRANCH   6  26
ATOM     26  N   UNL     1      -4.745  -8.637  -2.691  1.00  0.00     0.063 N 
ATOM     27  O   UNL     1      -3.824  -8.891  -1.900  1.00  0.00    -0.258 OA
ATOM     28  O   UNL     1      -5.680  -7.857  -2.469  1.00  0.00    -0.258 OA
ENDBRANCH   6  26
ENDBRANCH   1   3
BRANCH   1  29
ATOM     29  C   UNL     1      -3.485 -13.779  -5.393  1.00  0.00     0.313 C 
ATOM     30  O   UNL     1      -3.068 -14.822  -4.898  1.00  0.00    -0.252 OA
BRANCH  29  31
ATOM     31  O   UNL     1      -2.910 -13.151  -6.451  1.00  0.00    -0.462 OA
BRANCH  31  32
ATOM     32  C   UNL     1      -1.677 -13.707  -6.949  1.00  0.00     0.274 C 
BRANCH  32  33
ATOM     33  C   UNL     1      -0.464 -12.920  -6.444  1.00  0.00     0.275 C 
BRANCH  33  34
ATOM     34  O   UNL     1      -0.259 -13.117  -5.032  1.00  0.00    -0.458 OA
BRANCH  34  35
ATOM     35  C   UNL     1      -0.829 -12.182  -4.238  1.00  0.00     0.338 C 
ATOM     36  O   UNL     1      -1.448 -11.192  -4.585  1.00  0.00    -0.246 OA
BRANCH  35  37
ATOM     37  C   UNL     1      -0.729 -12.598  -2.832  1.00  0.00     0.060 A 
ATOM     38  C   UNL     1      -1.918 -12.861  -2.148  1.00  0.00     0.016 A 
ATOM     39  C   UNL     1       0.496 -12.639  -2.166  1.00  0.00     0.016 A 
ATOM     40  C   UNL     1      -1.897 -13.139  -0.787  1.00  0.00     0.010 A 
ATOM     41  C   UNL     1       0.519 -12.931  -0.798  1.00  0.00     0.010 A 
ATOM     42  C   UNL     1      -0.678 -13.164  -0.098  1.00  0.00    -0.014 A 
BRANCH  42  43
ATOM     43  C   UNL     1      -0.681 -13.375   1.369  1.00  0.00     0.031 A 
ATOM     44  C   UNL     1      -0.430 -12.217   2.290  1.00  0.00     0.074 A 
ATOM     45  C   UNL     1      -0.955 -14.593   1.869  1.00  0.00     0.049 A 
ATOM     46  N   UNL     1      -0.337 -12.204   3.596  1.00  0.00    -0.248 NA
ATOM     47  C   UNL     1      -0.257 -10.899   1.659  1.00  0.00     0.031 C 
ATOM     48  C   UNL     1      -1.261 -15.783   1.075  1.00  0.00     0.029 A 
ATOM     49  N   UNL     1      -1.023 -15.029   3.168  1.00  0.00    -0.354 N 
ATOM     50  C   UNL     1      -0.075 -10.885   3.942  1.00  0.00     0.074 A 
ATOM     51  C   UNL     1      -0.006 -10.130   2.709  1.00  0.00     0.031 C 
ATOM     52  C   UNL     1      -1.490 -16.814   1.905  1.00  0.00     0.029 A 
ATOM     53  C   UNL     1      -1.307 -16.367   3.283  1.00  0.00     0.049 A 
ATOM     54  H   UNL     1      -0.882 -14.439   3.943  1.00  0.00     0.167 HD
ATOM     55  C   UNL     1       0.088 -10.354   5.177  1.00  0.00     0.037 A 
ATOM     56  C   UNL     1      -1.387 -17.148   4.376  1.00  0.00     0.037 A 
ATOM     57  C   UNL     1      -0.007 -11.103   6.402  1.00  0.00     0.049 A 
ATOM     58  C   UNL     1      -1.163 -16.541   5.733  1.00  0.00     0.074 A 
ATOM     59  C   UNL     1       0.132 -10.651   7.704  1.00  0.00     0.029 A 
ATOM     60  N   UNL     1      -0.271 -12.462   6.477  1.00  0.00    -0.354 N 
ATOM     61  N   UNL     1      -0.903 -15.296   6.048  1.00  0.00    -0.248 NA
ATOM     62  C   UNL     1      -1.241 -17.450   6.885  1.00  0.00     0.031 C 
ATOM     63  C   UNL     1      -0.016 -11.745   8.565  1.00  0.00     0.029 A 
ATOM     64  C   UNL     1      -0.284 -12.869   7.801  1.00  0.00     0.049 A 
ATOM     65  H   UNL     1      -0.426 -13.051   5.703  1.00  0.00     0.167 HD
ATOM     66  C   UNL     1      -0.804 -15.267   7.432  1.00  0.00     0.074 A 
ATOM     67  C   UNL     1      -1.047 -16.616   7.898  1.00  0.00     0.031 C 
ATOM     68  C   UNL     1      -0.533 -14.216   8.245  1.00  0.00     0.037 A 
BRANCH  55  69
ATOM     69  C   UNL     1       0.412  -8.892   5.259  1.00  0.00     0.057 A 
ATOM     70  C   UNL     1      -0.549  -7.904   5.016  1.00  0.00     0.134 A 
ATOM     71  C   UNL     1       1.700  -8.469   5.613  1.00  0.00     0.134 A 
ATOM     72  F   UNL     1      -1.798  -8.243   4.661  1.00  0.00    -0.206 F 
ATOM     73  C   UNL     1      -0.236  -6.546   5.099  1.00  0.00     0.040 A 
ATOM     74  C   UNL     1       2.020  -7.115   5.721  1.00  0.00     0.040 A 
ATOM     75  F   UNL     1       2.667  -9.365   5.864  1.00  0.00    -0.206 F 
ATOM     76  C   UNL     1       1.051  -6.149   5.458  1.00  0.00     0.006 A 
ENDBRANCH  55  69
BRANCH  56  77
ATOM     77  C   UNL     1      -1.679 -18.595   4.230  1.00  0.00     0.057 A 
ATOM     78  C   UNL     1      -2.903 -19.133   4.640  1.00  0.00     0.134 A 
ATOM     79  C   UNL     1      -0.737 -19.474   3.683  1.00  0.00     0.134 A 
ATOM     80  F   UNL     1      -3.836 -18.345   5.193  1.00  0.00    -0.206 F 
ATOM     81  C   UNL     1      -3.178 -20.497   4.521  1.00  0.00     0.040 A 
ATOM     82  C   UNL     1      -1.006 -20.835   3.536  1.00  0.00     0.040 A 
ATOM     83  F   UNL     1       0.456 -19.019   3.271  1.00  0.00    -0.206 F 
ATOM     84  C   UNL     1      -2.229 -21.351   3.962  1.00  0.00     0.006 A 
ENDBRANCH  56  77
BRANCH  68  85
ATOM     85  C   UNL     1      -0.516 -14.484   9.721  1.00  0.00     0.057 A 
ATOM     86  C   UNL     1       0.544 -15.163  10.334  1.00  0.00     0.134 A 
ATOM     87  C   UNL     1      -1.557 -14.031  10.540  1.00  0.00     0.134 A 
ATOM     88  F   UNL     1       1.564 -15.634   9.601  1.00  0.00    -0.206 F 
ATOM     89  C   UNL     1       0.557 -15.402  11.709  1.00  0.00     0.040 A 
ATOM     90  C   UNL     1      -1.545 -14.243  11.919  1.00  0.00     0.040 A 
ATOM     91  F   UNL     1      -2.598 -13.367  10.014  1.00  0.00    -0.206 F 
ATOM     92  C   UNL     1      -0.488 -14.936  12.506  1.00  0.00     0.006 A 
ENDBRANCH  68  85
ENDBRANCH  42  43
ENDBRANCH  35  37
ENDBRANCH  34  35
ENDBRANCH  33  34
ENDBRANCH  32  33
ENDBRANCH  31  32
ENDBRANCH  29  31
ENDBRANCH   1  29
TORSDOF 21
