REMARK SMILES O=C(OCCOC(=O)c1c(F)ccc(F)c1Br)c1ccc(-c2c3nc(c(-c4c(F)cccc4F)c4ccc([nH]4)c(-c4c(F)cccc4F)c4nc(c(-c5c(F)cccc5F)c5ccc2[nH]5)C=C4)C=C3)cc1
REMARK SMILES IDX 4 1 3 2 2 3 1 4 18 5 19 6 71 7 20 8 70 9 21 10 22 11 23 12
REMARK SMILES IDX 64 13 24 14 69 15 63 16 65 17 25 18 68 19 62 20 61 21 26 23
REMARK SMILES IDX 52 24 35 25 51 26 36 27 39 28 50 29 66 30 37 31 38 32 49 34
REMARK SMILES IDX 67 35 40 36 27 37 28 38 33 39 29 40 30 41 32 42 34 43 31 44
REMARK SMILES IDX 53 45 54 46 59 47 55 48 56 49 58 50 60 51 57 52 41 53 42 54
REMARK SMILES IDX 47 55 43 56 44 57 46 58 48 59 45 60 5 61 6 62 7 63 8 64 9 65
REMARK SMILES IDX 10 66 16 67 11 68 12 69 14 70 17 71 13 72 15 73
REMARK H PARENT 65 22 39 33
REMARK Flexibility Score: inf
ROOT
ATOM      1  C   UNL     1       4.382  -1.222   0.315  1.00  0.00     0.275 C 
ENDROOT
BRANCH   1   2
ATOM      2  O   UNL     1       3.502  -0.399   1.104  1.00  0.00    -0.458 OA
BRANCH   2   3
ATOM      3  C   UNL     1       3.342   0.946   1.095  1.00  0.00     0.338 C 
ATOM      4  O   UNL     1       2.698   1.479   1.996  1.00  0.00    -0.246 OA
BRANCH   3   5
ATOM      5  C   UNL     1       3.777   1.810  -0.043  1.00  0.00     0.060 A 
ATOM      6  C   UNL     1       2.926   2.878  -0.376  1.00  0.00     0.016 A 
ATOM      7  C   UNL     1       4.960   1.665  -0.770  1.00  0.00     0.016 A 
ATOM      8  C   UNL     1       3.197   3.705  -1.471  1.00  0.00     0.010 A 
ATOM      9  C   UNL     1       5.237   2.491  -1.866  1.00  0.00     0.010 A 
ATOM     10  C   UNL     1       4.352   3.506  -2.239  1.00  0.00    -0.014 A 
BRANCH  10  11
ATOM     11  C   UNL     1       4.728   4.462  -3.307  1.00  0.00     0.031 A 
ATOM     12  C   UNL     1       4.710   4.090  -4.762  1.00  0.00     0.074 A 
ATOM     13  C   UNL     1       5.152   5.682  -2.930  1.00  0.00     0.049 A 
ATOM     14  N   UNL     1       4.819   4.871  -5.807  1.00  0.00    -0.248 NA
ATOM     15  C   UNL     1       4.503   2.677  -5.101  1.00  0.00     0.031 C 
ATOM     16  C   UNL     1       5.257   6.150  -1.546  1.00  0.00     0.029 A 
ATOM     17  N   UNL     1       5.618   6.732  -3.675  1.00  0.00    -0.354 N 
ATOM     18  C   UNL     1       4.576   4.066  -6.913  1.00  0.00     0.074 A 
ATOM     19  C   UNL     1       4.367   2.723  -6.422  1.00  0.00     0.031 C 
ATOM     20  C   UNL     1       5.799   7.376  -1.539  1.00  0.00     0.029 A 
ATOM     21  C   UNL     1       6.110   7.760  -2.910  1.00  0.00     0.049 A 
ATOM     22  H   UNL     1       5.602   6.749  -4.659  1.00  0.00     0.167 HD
ATOM     23  C   UNL     1       4.548   4.418  -8.220  1.00  0.00     0.037 A 
ATOM     24  C   UNL     1       6.787   8.861  -3.277  1.00  0.00     0.037 A 
ATOM     25  C   UNL     1       5.027   5.683  -8.711  1.00  0.00     0.049 A 
ATOM     26  C   UNL     1       7.017   9.110  -4.741  1.00  0.00     0.074 A 
ATOM     27  C   UNL     1       5.138   6.117 -10.020  1.00  0.00     0.029 A 
ATOM     28  N   UNL     1       5.583   6.670  -7.911  1.00  0.00    -0.354 N 
ATOM     29  N   UNL     1       6.594   8.419  -5.772  1.00  0.00    -0.248 NA
ATOM     30  C   UNL     1       7.815  10.290  -5.093  1.00  0.00     0.031 C 
ATOM     31  C   UNL     1       5.873   7.308 -10.017  1.00  0.00     0.029 A 
ATOM     32  C   UNL     1       6.131   7.663  -8.702  1.00  0.00     0.049 A 
ATOM     33  H   UNL     1       5.586   6.665  -6.927  1.00  0.00     0.167 HD
ATOM     34  C   UNL     1       7.034   9.106  -6.895  1.00  0.00     0.074 A 
ATOM     35  C   UNL     1       7.760  10.264  -6.417  1.00  0.00     0.031 C 
ATOM     36  C   UNL     1       6.844   8.812  -8.205  1.00  0.00     0.037 A 
BRANCH  23  37
ATOM     37  C   UNL     1       4.066   3.405  -9.214  1.00  0.00     0.057 A 
ATOM     38  C   UNL     1       4.959   2.743 -10.065  1.00  0.00     0.134 A 
ATOM     39  C   UNL     1       2.699   3.151  -9.386  1.00  0.00     0.134 A 
ATOM     40  F   UNL     1       6.280   2.945  -9.952  1.00  0.00    -0.206 F 
ATOM     41  C   UNL     1       4.509   1.873 -11.060  1.00  0.00     0.040 A 
ATOM     42  C   UNL     1       2.237   2.276 -10.373  1.00  0.00     0.040 A 
ATOM     43  F   UNL     1       1.791   3.751  -8.601  1.00  0.00    -0.206 F 
ATOM     44  C   UNL     1       3.144   1.639 -11.218  1.00  0.00     0.006 A 
ENDBRANCH  23  37
BRANCH  24  45
ATOM     45  C   UNL     1       7.345   9.770  -2.246  1.00  0.00     0.057 A 
ATOM     46  C   UNL     1       8.366   9.345  -1.384  1.00  0.00     0.134 A 
ATOM     47  C   UNL     1       6.902  11.090  -2.118  1.00  0.00     0.134 A 
ATOM     48  F   UNL     1       8.830   8.088  -1.450  1.00  0.00    -0.206 F 
ATOM     49  C   UNL     1       8.927  10.199  -0.436  1.00  0.00     0.040 A 
ATOM     50  C   UNL     1       7.477  11.965  -1.195  1.00  0.00     0.040 A 
ATOM     51  F   UNL     1       5.937  11.559  -2.922  1.00  0.00    -0.206 F 
ATOM     52  C   UNL     1       8.492  11.519  -0.349  1.00  0.00     0.006 A 
ENDBRANCH  24  45
BRANCH  36  53
ATOM     53  C   UNL     1       7.381   9.784  -9.211  1.00  0.00     0.057 A 
ATOM     54  C   UNL     1       6.502  10.557  -9.980  1.00  0.00     0.134 A 
ATOM     55  C   UNL     1       8.752   9.921  -9.459  1.00  0.00     0.134 A 
ATOM     56  F   UNL     1       5.176  10.466  -9.796  1.00  0.00    -0.206 F 
ATOM     57  C   UNL     1       6.966  11.424 -10.968  1.00  0.00     0.040 A 
ATOM     58  C   UNL     1       9.231  10.808 -10.423  1.00  0.00     0.040 A 
ATOM     59  F   UNL     1       9.646   9.219  -8.746  1.00  0.00    -0.206 F 
ATOM     60  C   UNL     1       8.335  11.555 -11.188  1.00  0.00     0.006 A 
ENDBRANCH  36  53
ENDBRANCH  10  11
ENDBRANCH   3   5
ENDBRANCH   2   3
ENDBRANCH   1   2
BRANCH   1  61
ATOM     61  C   UNL     1       3.818  -1.642  -1.042  1.00  0.00     0.275 C 
BRANCH  61  62
ATOM     62  O   UNL     1       3.140  -0.567  -1.709  1.00  0.00    -0.458 OA
BRANCH  62  63
ATOM     63  C   UNL     1       1.793  -0.703  -1.844  1.00  0.00     0.342 C 
ATOM     64  O   UNL     1       1.114  -1.649  -1.511  1.00  0.00    -0.246 OA
BRANCH  63  65
ATOM     65  C   UNL     1       1.253   0.538  -2.424  1.00  0.00     0.112 A 
ATOM     66  C   UNL     1       1.733   0.951  -3.667  1.00  0.00     0.139 A 
ATOM     67  C   UNL     1       0.292   1.312  -1.765  1.00  0.00     0.071 A 
ATOM     68  F   UNL     1       2.629   0.208  -4.333  1.00  0.00    -0.206 F 
ATOM     69  C   UNL     1       1.301   2.146  -4.244  1.00  0.00     0.043 A 
ATOM     70  C   UNL     1      -0.110   2.525  -2.337  1.00  0.00     0.138 A 
ATOM     71  Br  UNL     1      -0.447   0.828  -0.086  1.00  0.00    -0.047 Br
ATOM     72  C   UNL     1       0.395   2.951  -3.563  1.00  0.00     0.043 A 
ATOM     73  F   UNL     1      -0.973   3.330  -1.700  1.00  0.00    -0.206 F 
ENDBRANCH  63  65
ENDBRANCH  62  63
ENDBRANCH  61  62
ENDBRANCH   1  61
TORSDOF 11
