REMARK SMILES C[C@@H](C(=O)OCCOC(=O)c1ccc(-c2c3nc(c(-c4c(F)cccc4F)c4ccc([nH]4)c(-c4c(F)cccc4F)c4nc(c(-c5c(F)cccc5F)c5ccc2[nH]5)C=C4)C=C3)cc1)c1ccc(-c2ccn(C(F)F)c(=O)c2)cc1
REMARK SMILES IDX 6 1 5 2 3 3 4 4 2 5 1 6 65 7 66 8 80 9 67 10 79 11 68 12
REMARK SMILES IDX 69 13 70 14 78 15 71 16 76 17 72 18 77 19 73 20 74 21 75 22
REMARK SMILES IDX 7 23 8 24 9 25 10 26 11 27 12 28 64 29 13 30 63 31 14 32
REMARK SMILES IDX 15 33 16 34 57 35 17 36 62 37 56 38 58 39 18 40 61 41 55 42
REMARK SMILES IDX 54 43 19 45 45 46 28 47 44 48 29 49 32 50 43 51 59 52 30 53
REMARK SMILES IDX 31 54 42 56 60 57 33 58 20 59 21 60 26 61 22 62 23 63 25 64
REMARK SMILES IDX 27 65 24 66 46 67 47 68 52 69 48 70 49 71 51 72 53 73 50 74
REMARK SMILES IDX 34 75 35 76 40 77 36 78 37 79 39 80 41 81 38 82
REMARK H PARENT 58 44 32 55
REMARK Flexibility Score: inf
ROOT
ATOM      1  C   UNL     1       2.523   2.321   2.499  1.00  0.00     0.274 C 
ENDROOT
BRANCH   1   2
ATOM      2  O   UNL     1       2.003   1.230   1.705  1.00  0.00    -0.462 OA
BRANCH   2   3
ATOM      3  C   UNL     1       1.165   0.341   2.310  1.00  0.00     0.313 C 
ATOM      4  O   UNL     1       0.837   0.401   3.490  1.00  0.00    -0.252 OA
BRANCH   3   5
ATOM      5  C   UNL     1       0.689  -0.764   1.345  1.00  0.00     0.126 C 
ATOM      6  C   UNL     1       1.101  -0.515  -0.110  1.00  0.00     0.025 C 
BRANCH   5   7
ATOM      7  C   UNL     1      -0.821  -0.979   1.397  1.00  0.00    -0.034 A 
ATOM      8  C   UNL     1      -1.675   0.125   1.389  1.00  0.00     0.005 A 
ATOM      9  C   UNL     1      -1.397  -2.260   1.368  1.00  0.00     0.005 A 
ATOM     10  C   UNL     1      -3.055  -0.038   1.390  1.00  0.00     0.009 A 
ATOM     11  C   UNL     1      -2.795  -2.425   1.357  1.00  0.00     0.009 A 
ATOM     12  C   UNL     1      -3.632  -1.308   1.371  1.00  0.00    -0.018 A 
BRANCH  12  13
ATOM     13  C   UNL     1      -5.103  -1.366   1.319  1.00  0.00    -0.011 A 
ATOM     14  C   UNL     1      -5.946  -1.578   2.479  1.00  0.00     0.027 A 
ATOM     15  C   UNL     1      -5.672  -1.009   0.154  1.00  0.00     0.080 A 
ATOM     16  C   UNL     1      -7.260  -1.324   2.412  1.00  0.00     0.095 A 
ATOM     17  C   UNL     1      -7.137  -0.792   0.048  1.00  0.00     0.255 A 
ATOM     18  N   UNL     1      -7.846  -0.901   1.232  1.00  0.00    -0.258 N 
ATOM     19  O   UNL     1      -7.599  -0.512  -1.053  1.00  0.00    -0.269 OA
BRANCH  18  20
ATOM     20  C   UNL     1      -9.257  -0.610   1.170  1.00  0.00     0.451 C 
ATOM     21  F   UNL     1      -9.490   0.563   0.538  1.00  0.00    -0.185 F 
ATOM     22  F   UNL     1      -9.908  -1.588   0.494  1.00  0.00    -0.185 F 
ENDBRANCH  18  20
ENDBRANCH  12  13
ENDBRANCH   5   7
ENDBRANCH   3   5
ENDBRANCH   2   3
ENDBRANCH   1   2
BRANCH   1  23
ATOM     23  C   UNL     1       2.192   3.650   1.816  1.00  0.00     0.275 C 
BRANCH  23  24
ATOM     24  O   UNL     1       0.786   3.888   1.993  1.00  0.00    -0.458 OA
BRANCH  24  25
ATOM     25  C   UNL     1       0.151   4.629   1.052  1.00  0.00     0.338 C 
ATOM     26  O   UNL     1       0.667   5.213   0.117  1.00  0.00    -0.246 OA
BRANCH  25  27
ATOM     27  C   UNL     1      -1.318   4.555   1.296  1.00  0.00     0.060 A 
ATOM     28  C   UNL     1      -1.840   3.592   2.154  1.00  0.00     0.016 A 
ATOM     29  C   UNL     1      -2.204   5.376   0.592  1.00  0.00     0.016 A 
ATOM     30  C   UNL     1      -3.214   3.361   2.198  1.00  0.00     0.010 A 
ATOM     31  C   UNL     1      -3.597   5.199   0.722  1.00  0.00     0.010 A 
ATOM     32  C   UNL     1      -4.132   4.143   1.481  1.00  0.00    -0.014 A 
BRANCH  32  33
ATOM     33  C   UNL     1      -5.599   3.789   1.464  1.00  0.00     0.031 A 
ATOM     34  C   UNL     1      -6.373   3.742   0.160  1.00  0.00     0.074 A 
ATOM     35  C   UNL     1      -6.262   3.400   2.578  1.00  0.00     0.049 A 
ATOM     36  N   UNL     1      -7.671   3.721  -0.029  1.00  0.00    -0.248 NA
ATOM     37  C   UNL     1      -5.593   3.728  -1.086  1.00  0.00     0.031 C 
ATOM     38  C   UNL     1      -5.694   3.291   3.921  1.00  0.00     0.029 A 
ATOM     39  N   UNL     1      -7.564   2.977   2.748  1.00  0.00    -0.354 N 
ATOM     40  C   UNL     1      -7.861   3.780  -1.407  1.00  0.00     0.074 A 
ATOM     41  C   UNL     1      -6.544   3.818  -2.006  1.00  0.00     0.031 C 
ATOM     42  C   UNL     1      -6.586   2.714   4.738  1.00  0.00     0.029 A 
ATOM     43  C   UNL     1      -7.852   2.570   4.030  1.00  0.00     0.049 A 
ATOM     44  H   UNL     1      -8.226   2.967   2.019  1.00  0.00     0.167 HD
ATOM     45  C   UNL     1      -9.022   3.818  -2.108  1.00  0.00     0.037 A 
ATOM     46  C   UNL     1      -9.006   2.188   4.612  1.00  0.00     0.037 A 
ATOM     47  C   UNL     1     -10.335   3.679  -1.531  1.00  0.00     0.049 A 
ATOM     48  C   UNL     1     -10.288   2.262   3.840  1.00  0.00     0.074 A 
ATOM     49  C   UNL     1     -11.573   3.816  -2.138  1.00  0.00     0.029 A 
ATOM     50  N   UNL     1     -10.577   3.291  -0.224  1.00  0.00    -0.354 N 
ATOM     51  N   UNL     1     -10.470   2.530   2.573  1.00  0.00    -0.248 NA
ATOM     52  C   UNL     1     -11.532   2.027   4.590  1.00  0.00     0.031 C 
ATOM     53  C   UNL     1     -12.564   3.538  -1.189  1.00  0.00     0.029 A 
ATOM     54  C   UNL     1     -11.942   3.203   0.001  1.00  0.00     0.049 A 
ATOM     55  H   UNL     1      -9.882   3.104   0.447  1.00  0.00     0.167 HD
ATOM     56  C   UNL     1     -11.843   2.524   2.376  1.00  0.00     0.074 A 
ATOM     57  C   UNL     1     -12.449   2.169   3.642  1.00  0.00     0.031 C 
ATOM     58  C   UNL     1     -12.538   2.820   1.252  1.00  0.00     0.037 A 
BRANCH  45  59
ATOM     59  C   UNL     1      -8.935   4.090  -3.582  1.00  0.00     0.057 A 
ATOM     60  C   UNL     1      -8.553   3.115  -4.509  1.00  0.00     0.134 A 
ATOM     61  C   UNL     1      -9.290   5.352  -4.082  1.00  0.00     0.134 A 
ATOM     62  F   UNL     1      -8.180   1.895  -4.099  1.00  0.00    -0.206 F 
ATOM     63  C   UNL     1      -8.514   3.388  -5.879  1.00  0.00     0.040 A 
ATOM     64  C   UNL     1      -9.277   5.629  -5.450  1.00  0.00     0.040 A 
ATOM     65  F   UNL     1      -9.673   6.331  -3.249  1.00  0.00    -0.206 F 
ATOM     66  C   UNL     1      -8.884   4.645  -6.354  1.00  0.00     0.006 A 
ENDBRANCH  45  59
BRANCH  46  67
ATOM     67  C   UNL     1      -9.023   1.775   6.038  1.00  0.00     0.057 A 
ATOM     68  C   UNL     1      -9.310   0.453   6.395  1.00  0.00     0.134 A 
ATOM     69  C   UNL     1      -8.769   2.685   7.072  1.00  0.00     0.134 A 
ATOM     70  F   UNL     1      -9.585  -0.457   5.447  1.00  0.00    -0.206 F 
ATOM     71  C   UNL     1      -9.348   0.051   7.731  1.00  0.00     0.040 A 
ATOM     72  C   UNL     1      -8.767   2.289   8.409  1.00  0.00     0.040 A 
ATOM     73  F   UNL     1      -8.492   3.967   6.793  1.00  0.00    -0.206 F 
ATOM     74  C   UNL     1      -9.065   0.970   8.742  1.00  0.00     0.006 A 
ENDBRANCH  46  67
BRANCH  58  75
ATOM     75  C   UNL     1     -14.032   2.752   1.335  1.00  0.00     0.057 A 
ATOM     76  C   UNL     1     -14.777   3.758   1.964  1.00  0.00     0.134 A 
ATOM     77  C   UNL     1     -14.734   1.687   0.760  1.00  0.00     0.134 A 
ATOM     78  F   UNL     1     -14.160   4.796   2.549  1.00  0.00    -0.206 F 
ATOM     79  C   UNL     1     -16.170   3.697   2.033  1.00  0.00     0.040 A 
ATOM     80  C   UNL     1     -16.128   1.624   0.807  1.00  0.00     0.040 A 
ATOM     81  F   UNL     1     -14.078   0.691   0.146  1.00  0.00    -0.206 F 
ATOM     82  C   UNL     1     -16.849   2.630   1.448  1.00  0.00     0.006 A 
ENDBRANCH  58  75
ENDBRANCH  32  33
ENDBRANCH  25  27
ENDBRANCH  24  25
ENDBRANCH  23  24
ENDBRANCH   1  23
TORSDOF 14
