REMARK SMILES COc1ccc(-n2ccnc2C[N@@H+]2Cc3[nH]cnc3C[C@H]2C(=O)OCCOC(=O)c2ccc(-c3c4nc(c(-c5c(F)cccc5F)c5ccc([nH]5)c(-c5c(F)cccc5F)c5nc(c(-c6c(F)cccc6F)c6ccc3[nH]6)C=C5)C=C4)cc2)cc1
REMARK SMILES IDX 25 1 24 2 22 3 23 4 21 5 13 6 14 7 15 9 20 10 16 11 19 12
REMARK SMILES IDX 17 13 18 15 12 16 11 17 7 18 8 19 9 20 10 21 6 22 3 23 4 24
REMARK SMILES IDX 85 25 5 26 84 27 2 28 1 29 26 30 27 31 28 32 29 33 30 34
REMARK SMILES IDX 31 35 83 36 32 37 82 38 33 39 34 40 35 41 76 42 36 43 81 44
REMARK SMILES IDX 75 45 77 46 37 47 80 48 74 49 73 50 38 52 64 53 47 54 63 55
REMARK SMILES IDX 48 56 51 57 62 58 78 59 49 60 50 61 61 63 79 64 52 65 39 66
REMARK SMILES IDX 40 67 45 68 41 69 42 70 44 71 46 72 43 73 65 74 66 75 71 76
REMARK SMILES IDX 67 77 68 78 70 79 72 80 69 81 53 82 54 83 59 84 55 85 56 86
REMARK SMILES IDX 58 87 60 88 57 89
REMARK H PARENT 13 8 16 14 77 51 51 62
REMARK Flexibility Score: inf
ROOT
ATOM      1  C   UNL     1       0.958 -10.178   0.987  1.00  0.00     0.274 C 
ENDROOT
BRANCH   1   2
ATOM      2  O   UNL     1       0.823  -8.806   1.397  1.00  0.00    -0.458 OA
BRANCH   2   3
ATOM      3  C   UNL     1      -0.340  -8.464   2.022  1.00  0.00     0.365 C 
ATOM      4  O   UNL     1      -1.284  -9.230   2.200  1.00  0.00    -0.245 OA
BRANCH   3   5
ATOM      5  C   UNL     1      -0.396  -6.980   2.399  1.00  0.00     0.301 C 
ATOM      6  N   UNL     1       0.646  -6.613   3.435  1.00  0.00    -0.312 N 
ATOM      7  C   UNL     1       1.972  -6.364   2.837  1.00  0.00     0.320 C 
ATOM      8  H   UNL     1       0.779  -7.416   4.049  1.00  0.00     0.349 HD
ATOM      9  C   UNL     1       1.825  -5.420   1.714  1.00  0.00     0.093 A 
ATOM     10  C   UNL     1      -0.469  -6.171   1.066  1.00  0.00     0.136 C 
ATOM     11  N   UNL     1       2.663  -4.422   1.320  1.00  0.00    -0.344 N 
ATOM     12  C   UNL     1       0.731  -5.327   0.894  1.00  0.00     0.074 A 
ATOM     13  C   UNL     1       2.037  -3.770   0.288  1.00  0.00     0.197 A 
ATOM     14  H   UNL     1       3.546  -4.210   1.700  1.00  0.00     0.167 HD
ATOM     15  N   UNL     1       0.867  -4.303   0.003  1.00  0.00    -0.241 NA
BRANCH   6  16
ATOM     16  C   UNL     1       0.165  -5.489   4.276  1.00  0.00     0.340 C 
BRANCH  16  17
ATOM     17  C   UNL     1       1.171  -4.963   5.280  1.00  0.00     0.168 A 
ATOM     18  N   UNL     1       1.834  -3.740   5.169  1.00  0.00    -0.299 N 
ATOM     19  C   UNL     1       2.900  -3.801   6.042  1.00  0.00     0.113 A 
ATOM     20  C   UNL     1       2.738  -4.962   6.753  1.00  0.00     0.132 A 
ATOM     21  N   UNL     1       1.663  -5.665   6.290  1.00  0.00    -0.236 NA
BRANCH  18  22
ATOM     22  C   UNL     1       1.548  -2.651   4.307  1.00  0.00     0.047 A 
ATOM     23  C   UNL     1       0.979  -0.616   2.487  1.00  0.00     0.119 A 
ATOM     24  C   UNL     1      -0.060  -1.256   3.157  1.00  0.00     0.048 A 
ATOM     25  C   UNL     1       2.306  -0.930   2.782  1.00  0.00     0.048 A 
ATOM     26  C   UNL     1       0.221  -2.278   4.064  1.00  0.00     0.030 A 
ATOM     27  C   UNL     1       2.595  -1.939   3.705  1.00  0.00     0.030 A 
BRANCH  23  28
ATOM     28  O   UNL     1       0.645   0.378   1.609  1.00  0.00    -0.497 OA
ATOM     29  C   UNL     1       1.081   0.079   0.283  1.00  0.00     0.278 C 
ENDBRANCH  23  28
ENDBRANCH  18  22
ENDBRANCH  16  17
ENDBRANCH   6  16
ENDBRANCH   3   5
ENDBRANCH   2   3
ENDBRANCH   1   2
BRANCH   1  30
ATOM     30  C   UNL     1       1.583 -11.032   2.078  1.00  0.00     0.275 C 
BRANCH  30  31
ATOM     31  O   UNL     1       0.656 -11.222   3.142  1.00  0.00    -0.458 OA
BRANCH  31  32
ATOM     32  C   UNL     1       0.779 -10.346   4.165  1.00  0.00     0.338 C 
ATOM     33  O   UNL     1       1.509  -9.375   4.214  1.00  0.00    -0.246 OA
BRANCH  32  34
ATOM     34  C   UNL     1       0.056 -10.871   5.326  1.00  0.00     0.060 A 
ATOM     35  C   UNL     1      -0.076 -10.043   6.448  1.00  0.00     0.016 A 
ATOM     36  C   UNL     1      -0.165 -12.252   5.388  1.00  0.00     0.016 A 
ATOM     37  C   UNL     1      -0.260 -10.630   7.684  1.00  0.00     0.010 A 
ATOM     38  C   UNL     1      -0.297 -12.836   6.619  1.00  0.00     0.010 A 
ATOM     39  C   UNL     1      -0.277 -12.024   7.755  1.00  0.00    -0.014 A 
BRANCH  39  40
ATOM     40  C   UNL     1      -0.255 -12.678   9.047  1.00  0.00     0.031 A 
ATOM     41  C   UNL     1      -1.588 -12.917   9.652  1.00  0.00     0.074 A 
ATOM     42  C   UNL     1       0.886 -13.260   9.470  1.00  0.00     0.049 A 
ATOM     43  N   UNL     1      -1.989 -12.655  10.852  1.00  0.00    -0.248 NA
ATOM     44  C   UNL     1      -2.647 -13.454   8.775  1.00  0.00     0.031 C 
ATOM     45  C   UNL     1       2.145 -13.385   8.722  1.00  0.00     0.029 A 
ATOM     46  N   UNL     1       1.112 -14.019  10.574  1.00  0.00    -0.354 N 
ATOM     47  C   UNL     1      -3.283 -13.164  10.933  1.00  0.00     0.074 A 
ATOM     48  C   UNL     1      -3.692 -13.486   9.595  1.00  0.00     0.031 C 
ATOM     49  C   UNL     1       2.891 -14.366   9.277  1.00  0.00     0.029 A 
ATOM     50  C   UNL     1       2.208 -14.863  10.460  1.00  0.00     0.049 A 
ATOM     51  H   UNL     1       0.550 -13.975  11.381  1.00  0.00     0.167 HD
ATOM     52  C   UNL     1      -3.832 -13.531  12.120  1.00  0.00     0.037 A 
ATOM     53  C   UNL     1       2.461 -15.962  11.213  1.00  0.00     0.037 A 
ATOM     54  C   UNL     1      -3.184 -12.881  13.228  1.00  0.00     0.049 A 
ATOM     55  C   UNL     1       1.581 -15.904  12.410  1.00  0.00     0.074 A 
ATOM     56  C   UNL     1      -2.922 -11.561  13.548  1.00  0.00     0.029 A 
ATOM     57  N   UNL     1      -2.366 -13.626  14.041  1.00  0.00    -0.354 N 
ATOM     58  N   UNL     1       1.711 -15.052  13.388  1.00  0.00    -0.248 NA
ATOM     59  C   UNL     1       0.271 -16.535  12.307  1.00  0.00     0.031 C 
ATOM     60  C   UNL     1      -1.629 -11.577  14.147  1.00  0.00     0.029 A 
ATOM     61  C   UNL     1      -1.209 -12.906  14.197  1.00  0.00     0.049 A 
ATOM     62  H   UNL     1      -2.570 -14.505  14.435  1.00  0.00     0.167 HD
ATOM     63  C   UNL     1       0.411 -14.723  13.748  1.00  0.00     0.074 A 
ATOM     64  C   UNL     1      -0.428 -15.738  13.118  1.00  0.00     0.031 C 
ATOM     65  C   UNL     1       0.103 -13.502  14.277  1.00  0.00     0.037 A 
BRANCH  52  66
ATOM     66  C   UNL     1      -4.705 -14.751  12.277  1.00  0.00     0.057 A 
ATOM     67  C   UNL     1      -5.367 -14.969  13.495  1.00  0.00     0.134 A 
ATOM     68  C   UNL     1      -4.695 -15.854  11.394  1.00  0.00     0.134 A 
ATOM     69  F   UNL     1      -5.424 -14.008  14.429  1.00  0.00    -0.206 F 
ATOM     70  C   UNL     1      -5.918 -16.210  13.837  1.00  0.00     0.040 A 
ATOM     71  C   UNL     1      -5.294 -17.078  11.701  1.00  0.00     0.040 A 
ATOM     72  F   UNL     1      -4.023 -15.848  10.237  1.00  0.00    -0.206 F 
ATOM     73  C   UNL     1      -5.879 -17.271  12.940  1.00  0.00     0.006 A 
ENDBRANCH  52  66
BRANCH  53  74
ATOM     74  C   UNL     1       3.173 -17.200  10.814  1.00  0.00     0.057 A 
ATOM     75  C   UNL     1       3.649 -18.103  11.775  1.00  0.00     0.134 A 
ATOM     76  C   UNL     1       3.208 -17.651   9.481  1.00  0.00     0.134 A 
ATOM     77  F   UNL     1       3.611 -17.791  13.078  1.00  0.00    -0.206 F 
ATOM     78  C   UNL     1       4.126 -19.376  11.432  1.00  0.00     0.040 A 
ATOM     79  C   UNL     1       3.698 -18.911   9.123  1.00  0.00     0.040 A 
ATOM     80  F   UNL     1       2.689 -16.920   8.484  1.00  0.00    -0.206 F 
ATOM     81  C   UNL     1       4.149 -19.785  10.102  1.00  0.00     0.006 A 
ENDBRANCH  53  74
BRANCH  65  82
ATOM     82  C   UNL     1       1.226 -12.602  14.708  1.00  0.00     0.057 A 
ATOM     83  C   UNL     1       2.214 -12.112  13.841  1.00  0.00     0.134 A 
ATOM     84  C   UNL     1       1.208 -12.077  16.006  1.00  0.00     0.134 A 
ATOM     85  F   UNL     1       2.245 -12.467  12.551  1.00  0.00    -0.206 F 
ATOM     86  C   UNL     1       3.170 -11.183  14.261  1.00  0.00     0.040 A 
ATOM     87  C   UNL     1       2.135 -11.120  16.427  1.00  0.00     0.040 A 
ATOM     88  F   UNL     1       0.254 -12.449  16.874  1.00  0.00    -0.206 F 
ATOM     89  C   UNL     1       3.127 -10.678  15.557  1.00  0.00     0.006 A 
ENDBRANCH  65  82
ENDBRANCH  39  40
ENDBRANCH  32  34
ENDBRANCH  31  32
ENDBRANCH  30  31
ENDBRANCH   1  30
TORSDOF 15
