REMARK SMILES CCCCCCNC(=O)Oc1cccc(-c2ccc([C@@H](C)C(=O)OCCOC(=O)c3ccc(-c4c5nc(c(-c6c(F)cccc6F)c6ccc([nH]6)c(-c6c(F)cccc6F)c6nc(c(-c7c(F)cccc7F)c7ccc4[nH]7)C=C6)C=C5)cc3)cc2F)c1
REMARK SMILES IDX 20 1 21 2 19 3 16 4 17 5 85 6 18 7 84 8 86 9 15 10 11 11
REMARK SMILES IDX 12 12 87 13 13 14 14 15 10 16 8 17 7 18 9 20 6 21 5 22 4 23
REMARK SMILES IDX 3 24 2 25 1 26 22 27 23 28 24 29 25 30 26 31 27 32 28 33
REMARK SMILES IDX 29 34 30 35 31 36 83 37 32 38 82 39 33 40 34 41 35 42 76 43
REMARK SMILES IDX 36 44 81 45 75 46 77 47 37 48 80 49 74 50 73 51 38 53 64 54
REMARK SMILES IDX 47 55 63 56 48 57 51 58 62 59 78 60 49 61 50 62 61 64 79 65
REMARK SMILES IDX 52 66 39 67 40 68 45 69 41 70 42 71 44 72 46 73 43 74 65 75
REMARK SMILES IDX 66 76 71 77 67 78 68 79 70 80 72 81 69 82 53 83 54 84 59 85
REMARK SMILES IDX 55 86 56 87 58 88 60 89 57 90
REMARK H PARENT 7 19 77 52 51 63
REMARK Flexibility Score: inf
ROOT
ATOM      1  C   UNL     1      -5.131  10.429  -9.265  1.00  0.00     0.126 C 
ATOM      2  C   UNL     1      -6.360  11.283  -9.565  1.00  0.00     0.025 C 
ENDROOT
BRANCH   1   3
ATOM      3  C   UNL     1      -5.154   9.835  -7.865  1.00  0.00    -0.031 A 
ATOM      4  C   UNL     1      -5.199   8.673  -5.263  1.00  0.00     0.018 A 
ATOM      5  C   UNL     1      -5.295  10.063  -5.443  1.00  0.00     0.012 A 
ATOM      6  C   UNL     1      -5.069   7.885  -6.412  1.00  0.00     0.131 A 
ATOM      7  C   UNL     1      -5.277  10.635  -6.721  1.00  0.00     0.005 A 
ATOM      8  C   UNL     1      -5.050   8.447  -7.690  1.00  0.00     0.044 A 
ATOM      9  F   UNL     1      -4.988   6.548  -6.313  1.00  0.00    -0.206 F 
BRANCH   4  10
ATOM     10  C   UNL     1      -5.261   8.085  -3.915  1.00  0.00    -0.012 A 
ATOM     11  C   UNL     1      -4.355   6.669  -2.164  1.00  0.00     0.133 A 
ATOM     12  C   UNL     1      -5.425   6.971  -1.326  1.00  0.00     0.047 A 
ATOM     13  C   UNL     1      -4.272   7.201  -3.453  1.00  0.00     0.056 A 
ATOM     14  C   UNL     1      -6.414   7.842  -1.770  1.00  0.00     0.004 A 
ATOM     15  C   UNL     1      -6.330   8.393  -3.051  1.00  0.00     0.009 A 
BRANCH  11  16
ATOM     16  O   UNL     1      -3.430   5.723  -1.695  1.00  0.00    -0.410 OA
BRANCH  16  17
ATOM     17  C   UNL     1      -2.098   6.103  -1.640  1.00  0.00     0.412 C 
ATOM     18  N   UNL     1      -1.283   5.130  -1.125  1.00  0.00    -0.321 N 
ATOM     19  H   UNL     1      -0.321   5.334  -1.096  1.00  0.00     0.167 HD
ATOM     20  O   UNL     1      -1.638   7.186  -1.982  1.00  0.00    -0.224 OA
BRANCH  18  21
ATOM     21  C   UNL     1      -1.686   3.833  -0.620  1.00  0.00     0.119 C 
BRANCH  21  22
ATOM     22  C   UNL     1      -1.067   2.685  -1.415  1.00  0.00     0.021 C 
BRANCH  22  23
ATOM     23  C   UNL     1       0.463   2.599  -1.344  1.00  0.00     0.002 C 
BRANCH  23  24
ATOM     24  C   UNL     1       1.055   2.441   0.061  1.00  0.00    -0.000 C 
BRANCH  24  25
ATOM     25  C   UNL     1       0.577   1.217   0.846  1.00  0.00    -0.003 C 
ATOM     26  C   UNL     1       0.948  -0.104   0.190  1.00  0.00     0.004 C 
ENDBRANCH  24  25
ENDBRANCH  23  24
ENDBRANCH  22  23
ENDBRANCH  21  22
ENDBRANCH  18  21
ENDBRANCH  16  17
ENDBRANCH  11  16
ENDBRANCH   4  10
ENDBRANCH   1   3
BRANCH   1  27
ATOM     27  C   UNL     1      -3.864  11.189  -9.642  1.00  0.00     0.313 C 
ATOM     28  O   UNL     1      -3.478  11.274 -10.805  1.00  0.00    -0.252 OA
BRANCH  27  29
ATOM     29  O   UNL     1      -3.245  11.776  -8.586  1.00  0.00    -0.462 OA
BRANCH  29  30
ATOM     30  C   UNL     1      -2.001  12.453  -8.848  1.00  0.00     0.274 C 
BRANCH  30  31
ATOM     31  C   UNL     1      -0.807  11.594  -8.431  1.00  0.00     0.275 C 
BRANCH  31  32
ATOM     32  O   UNL     1      -0.664  10.452  -9.296  1.00  0.00    -0.458 OA
BRANCH  32  33
ATOM     33  C   UNL     1      -1.192   9.301  -8.822  1.00  0.00     0.338 C 
ATOM     34  O   UNL     1      -1.724   9.111  -7.743  1.00  0.00    -0.246 OA
BRANCH  33  35
ATOM     35  C   UNL     1      -1.143   8.280  -9.876  1.00  0.00     0.060 A 
ATOM     36  C   UNL     1      -2.337   7.924 -10.506  1.00  0.00     0.016 A 
ATOM     37  C   UNL     1       0.049   7.628 -10.187  1.00  0.00     0.016 A 
ATOM     38  C   UNL     1      -2.351   6.903 -11.449  1.00  0.00     0.010 A 
ATOM     39  C   UNL     1       0.038   6.611 -11.146  1.00  0.00     0.010 A 
ATOM     40  C   UNL     1      -1.163   6.237 -11.775  1.00  0.00    -0.014 A 
BRANCH  40  41
ATOM     41  C   UNL     1      -1.187   5.131 -12.758  1.00  0.00     0.031 A 
ATOM     42  C   UNL     1      -1.038   3.712 -12.294  1.00  0.00     0.074 A 
ATOM     43  C   UNL     1      -1.354   5.404 -14.065  1.00  0.00     0.049 A 
ATOM     44  N   UNL     1      -0.939   2.617 -13.002  1.00  0.00    -0.248 NA
ATOM     45  C   UNL     1      -0.993   3.499 -10.839  1.00  0.00     0.031 C 
ATOM     46  C   UNL     1      -1.562   6.738 -14.628  1.00  0.00     0.029 A 
ATOM     47  N   UNL     1      -1.374   4.571 -15.154  1.00  0.00    -0.354 N 
ATOM     48  C   UNL     1      -0.791   1.587 -12.084  1.00  0.00     0.074 A 
ATOM     49  C   UNL     1      -0.807   2.188 -10.767  1.00  0.00     0.031 C 
ATOM     50  C   UNL     1      -1.698   6.632 -15.960  1.00  0.00     0.029 A 
ATOM     51  C   UNL     1      -1.533   5.233 -16.346  1.00  0.00     0.049 A 
ATOM     52  H   UNL     1      -1.283   3.593 -15.088  1.00  0.00     0.167 HD
ATOM     53  C   UNL     1      -0.656   0.260 -12.321  1.00  0.00     0.037 A 
ATOM     54  C   UNL     1      -1.516   4.767 -17.608  1.00  0.00     0.037 A 
ATOM     55  C   UNL     1      -0.667  -0.334 -13.632  1.00  0.00     0.049 A 
ATOM     56  C   UNL     1      -1.285   3.303 -17.847  1.00  0.00     0.074 A 
ATOM     57  C   UNL     1      -0.584  -1.673 -13.974  1.00  0.00     0.029 A 
ATOM     58  N   UNL     1      -0.762   0.377 -14.819  1.00  0.00    -0.354 N 
ATOM     59  N   UNL     1      -1.146   2.335 -16.974  1.00  0.00    -0.248 NA
ATOM     60  C   UNL     1      -1.187   2.869 -19.248  1.00  0.00     0.031 C 
ATOM     61  C   UNL     1      -0.585  -1.767 -15.371  1.00  0.00     0.029 A 
ATOM     62  C   UNL     1      -0.705  -0.491 -15.897  1.00  0.00     0.049 A 
ATOM     63  H   UNL     1      -0.857   1.355 -14.886  1.00  0.00     0.167 HD
ATOM     64  C   UNL     1      -0.955   1.178 -17.716  1.00  0.00     0.074 A 
ATOM     65  C   UNL     1      -1.011   1.562 -19.112  1.00  0.00     0.031 C 
ATOM     66  C   UNL     1      -0.750  -0.089 -17.279  1.00  0.00     0.037 A 
BRANCH  53  67
ATOM     67  C   UNL     1      -0.444  -0.632 -11.135  1.00  0.00     0.057 A 
ATOM     68  C   UNL     1      -1.481  -0.954 -10.252  1.00  0.00     0.134 A 
ATOM     69  C   UNL     1       0.816  -1.190 -10.886  1.00  0.00     0.134 A 
ATOM     70  F   UNL     1      -2.708  -0.440 -10.427  1.00  0.00    -0.206 F 
ATOM     71  C   UNL     1      -1.266  -1.781  -9.147  1.00  0.00     0.040 A 
ATOM     72  C   UNL     1       1.038  -2.035  -9.799  1.00  0.00     0.040 A 
ATOM     73  F   UNL     1       1.851  -0.924 -11.697  1.00  0.00    -0.206 F 
ATOM     74  C   UNL     1      -0.004  -2.328  -8.921  1.00  0.00     0.006 A 
ENDBRANCH  53  67
BRANCH  54  75
ATOM     75  C   UNL     1      -1.698   5.704 -18.743  1.00  0.00     0.057 A 
ATOM     76  C   UNL     1      -2.871   5.692 -19.505  1.00  0.00     0.134 A 
ATOM     77  C   UNL     1      -0.711   6.634 -19.088  1.00  0.00     0.134 A 
ATOM     78  F   UNL     1      -3.842   4.806 -19.236  1.00  0.00    -0.206 F 
ATOM     79  C   UNL     1      -3.056   6.571 -20.573  1.00  0.00     0.040 A 
ATOM     80  C   UNL     1      -0.891   7.533 -20.140  1.00  0.00     0.040 A 
ATOM     81  F   UNL     1       0.437   6.692 -18.397  1.00  0.00    -0.206 F 
ATOM     82  C   UNL     1      -2.066   7.501 -20.888  1.00  0.00     0.006 A 
ENDBRANCH  54  75
BRANCH  66  83
ATOM     83  C   UNL     1      -0.580  -1.149 -18.325  1.00  0.00     0.057 A 
ATOM     84  C   UNL     1       0.612  -1.278 -19.050  1.00  0.00     0.134 A 
ATOM     85  C   UNL     1      -1.602  -2.069 -18.587  1.00  0.00     0.134 A 
ATOM     86  F   UNL     1       1.622  -0.417 -18.856  1.00  0.00    -0.206 F 
ATOM     87  C   UNL     1       0.774  -2.277 -20.010  1.00  0.00     0.040 A 
ATOM     88  C   UNL     1      -1.444  -3.085 -19.530  1.00  0.00     0.040 A 
ATOM     89  F   UNL     1      -2.766  -2.002 -17.922  1.00  0.00    -0.206 F 
ATOM     90  C   UNL     1      -0.254  -3.188 -20.247  1.00  0.00     0.006 A 
ENDBRANCH  66  83
ENDBRANCH  40  41
ENDBRANCH  33  35
ENDBRANCH  32  33
ENDBRANCH  31  32
ENDBRANCH  30  31
ENDBRANCH  29  30
ENDBRANCH  27  29
ENDBRANCH   1  27
TORSDOF 20
