REMARK SMILES CCC(CC)(NC(=O)NC[C@H](C)[NH+]1CCCCC1)C(=O)OCCOC(=O)c1ccc(-c2c3nc(c(-c4c(F)cccc4F)c4ccc([nH]4)c(-c4c(F)cccc4F)c4nc(c(-c5c(F)cccc5F)c5ccc2[nH]5)C=C4)C=C3)cc1
REMARK SMILES IDX 22 1 21 2 19 3 20 4 3 5 2 6 1 7 4 8 5 9 6 10 7 11 8 13 9 14
REMARK SMILES IDX 10 16 11 17 12 18 13 19 14 20 18 21 15 23 17 24 16 25 23 26
REMARK SMILES IDX 24 27 25 28 26 29 27 30 28 31 80 32 29 33 79 34 30 35 31 36
REMARK SMILES IDX 32 37 73 38 33 39 78 40 72 41 74 42 34 43 77 44 71 45 70 46
REMARK SMILES IDX 35 48 61 49 44 50 60 51 45 52 48 53 59 54 75 55 46 56 47 57
REMARK SMILES IDX 58 59 76 60 49 61 36 62 37 63 42 64 38 65 39 66 41 67 43 68
REMARK SMILES IDX 40 69 62 70 63 71 68 72 64 73 65 74 67 75 69 76 66 77 50 78
REMARK SMILES IDX 51 79 56 80 52 81 53 82 55 83 57 84 54 85
REMARK H PARENT 6 12 9 15 13 22 74 47 48 58
REMARK Flexibility Score: inf
ROOT
ATOM      1  C   UNL     1       6.566   1.729   3.410  1.00  0.00     0.274 C 
ENDROOT
BRANCH   1   2
ATOM      2  O   UNL     1       6.531   0.405   3.987  1.00  0.00    -0.460 OA
BRANCH   2   3
ATOM      3  C   UNL     1       6.477  -0.654   3.127  1.00  0.00     0.332 C 
ATOM      4  O   UNL     1       6.662  -0.548   1.920  1.00  0.00    -0.249 OA
BRANCH   3   5
ATOM      5  C   UNL     1       6.152  -2.007   3.872  1.00  0.00     0.139 C 
BRANCH   5   6
ATOM      6  C   UNL     1       7.506  -2.795   3.982  1.00  0.00     0.037 C 
ATOM      7  C   UNL     1       8.268  -3.027   2.680  1.00  0.00     0.007 C 
ENDBRANCH   5   6
BRANCH   5   8
ATOM      8  C   UNL     1       5.122  -2.844   3.058  1.00  0.00     0.037 C 
ATOM      9  C   UNL     1       5.027  -4.319   3.451  1.00  0.00     0.007 C 
ENDBRANCH   5   8
BRANCH   5  10
ATOM     10  N   UNL     1       5.652  -1.826   5.281  1.00  0.00    -0.322 N 
ATOM     11  C   UNL     1       4.509  -1.436   5.877  1.00  0.00     0.315 C 
ATOM     12  H   UNL     1       6.345  -2.053   5.943  1.00  0.00     0.166 HD
ATOM     13  O   UNL     1       4.334  -1.777   7.050  1.00  0.00    -0.249 OA
ATOM     14  N   UNL     1       3.541  -0.711   5.282  1.00  0.00    -0.332 N 
ATOM     15  H   UNL     1       2.626  -0.837   5.623  1.00  0.00     0.165 HD
BRANCH  14  16
ATOM     16  C   UNL     1       3.701   0.226   4.206  1.00  0.00     0.182 C 
BRANCH  16  17
ATOM     17  C   UNL     1       2.525   0.683   3.330  1.00  0.00     0.200 C 
ATOM     18  C   UNL     1       1.666  -0.522   2.937  1.00  0.00     0.077 C 
BRANCH  17  19
ATOM     19  N   UNL     1       3.191   1.408   2.211  1.00  0.00    -0.331 N 
ATOM     20  C   UNL     1       3.249   0.731   0.916  1.00  0.00     0.262 C 
ATOM     21  C   UNL     1       2.930   2.843   2.156  1.00  0.00     0.262 C 
ATOM     22  H   UNL     1       4.168   1.352   2.498  1.00  0.00     0.348 HD
ATOM     23  C   UNL     1       4.150   1.443  -0.097  1.00  0.00     0.062 C 
ATOM     24  C   UNL     1       3.845   3.567   1.157  1.00  0.00     0.062 C 
ATOM     25  C   UNL     1       3.796   2.917  -0.218  1.00  0.00     0.012 C 
ENDBRANCH  17  19
ENDBRANCH  16  17
ENDBRANCH  14  16
ENDBRANCH   5  10
ENDBRANCH   3   5
ENDBRANCH   2   3
ENDBRANCH   1   2
BRANCH   1  26
ATOM     26  C   UNL     1       6.410   2.782   4.525  1.00  0.00     0.275 C 
BRANCH  26  27
ATOM     27  O   UNL     1       7.657   2.936   5.217  1.00  0.00    -0.458 OA
BRANCH  27  28
ATOM     28  C   UNL     1       7.953   1.886   6.024  1.00  0.00     0.338 C 
ATOM     29  O   UNL     1       7.194   1.207   6.683  1.00  0.00    -0.246 OA
BRANCH  28  30
ATOM     30  C   UNL     1       9.294   1.472   5.597  1.00  0.00     0.060 A 
ATOM     31  C   UNL     1       9.397   0.220   4.984  1.00  0.00     0.016 A 
ATOM     32  C   UNL     1      10.380   2.330   5.662  1.00  0.00     0.016 A 
ATOM     33  C   UNL     1      10.583  -0.209   4.422  1.00  0.00     0.010 A 
ATOM     34  C   UNL     1      11.585   1.901   5.124  1.00  0.00     0.010 A 
ATOM     35  C   UNL     1      11.688   0.625   4.527  1.00  0.00    -0.014 A 
BRANCH  35  36
ATOM     36  C   UNL     1      13.032   0.107   4.244  1.00  0.00     0.031 A 
ATOM     37  C   UNL     1      13.899  -0.139   5.433  1.00  0.00     0.074 A 
ATOM     38  C   UNL     1      13.464  -0.039   2.985  1.00  0.00     0.049 A 
ATOM     39  N   UNL     1      15.196  -0.159   5.523  1.00  0.00    -0.248 NA
ATOM     40  C   UNL     1      13.190  -0.322   6.712  1.00  0.00     0.031 C 
ATOM     41  C   UNL     1      12.639   0.076   1.784  1.00  0.00     0.029 A 
ATOM     42  N   UNL     1      14.731  -0.254   2.516  1.00  0.00    -0.354 N 
ATOM     43  C   UNL     1      15.462  -0.269   6.881  1.00  0.00     0.074 A 
ATOM     44  C   UNL     1      14.195  -0.315   7.572  1.00  0.00     0.031 C 
ATOM     45  C   UNL     1      13.435  -0.010   0.705  1.00  0.00     0.029 A 
ATOM     46  C   UNL     1      14.821  -0.098   1.155  1.00  0.00     0.049 A 
ATOM     47  H   UNL     1      15.493  -0.495   3.090  1.00  0.00     0.167 HD
ATOM     48  C   UNL     1      16.674  -0.294   7.478  1.00  0.00     0.037 A 
ATOM     49  C   UNL     1      15.913   0.051   0.384  1.00  0.00     0.037 A 
ATOM     50  C   UNL     1      17.898  -0.256   6.723  1.00  0.00     0.049 A 
ATOM     51  C   UNL     1      17.257   0.049   1.060  1.00  0.00     0.074 A 
ATOM     52  C   UNL     1      19.200  -0.303   7.177  1.00  0.00     0.029 A 
ATOM     53  N   UNL     1      17.953  -0.159   5.336  1.00  0.00    -0.354 N 
ATOM     54  N   UNL     1      17.535  -0.018   2.343  1.00  0.00    -0.248 NA
ATOM     55  C   UNL     1      18.435   0.151   0.193  1.00  0.00     0.031 C 
ATOM     56  C   UNL     1      20.043  -0.180   6.067  1.00  0.00     0.029 A 
ATOM     57  C   UNL     1      19.268  -0.125   4.915  1.00  0.00     0.049 A 
ATOM     58  H   UNL     1      17.169  -0.120   4.742  1.00  0.00     0.167 HD
ATOM     59  C   UNL     1      18.919   0.004   2.439  1.00  0.00     0.074 A 
ATOM     60  C   UNL     1      19.421   0.091   1.079  1.00  0.00     0.031 C 
ATOM     61  C   UNL     1      19.709  -0.050   3.542  1.00  0.00     0.037 A 
BRANCH  48  62
ATOM     62  C   UNL     1      16.704  -0.284   8.978  1.00  0.00     0.057 A 
ATOM     63  C   UNL     1      16.210  -1.343   9.753  1.00  0.00     0.134 A 
ATOM     64  C   UNL     1      17.185   0.839   9.665  1.00  0.00     0.134 A 
ATOM     65  F   UNL     1      15.710  -2.441   9.164  1.00  0.00    -0.206 F 
ATOM     66  C   UNL     1      16.149  -1.267  11.146  1.00  0.00     0.040 A 
ATOM     67  C   UNL     1      17.163   0.913  11.059  1.00  0.00     0.040 A 
ATOM     68  F   UNL     1      17.668   1.895   8.993  1.00  0.00    -0.206 F 
ATOM     69  C   UNL     1      16.630  -0.137  11.804  1.00  0.00     0.006 A 
ENDBRANCH  48  62
BRANCH  49  70
ATOM     70  C   UNL     1      15.754   0.259  -1.076  1.00  0.00     0.057 A 
ATOM     71  C   UNL     1      16.092  -0.746  -1.988  1.00  0.00     0.134 A 
ATOM     72  C   UNL     1      15.191   1.433  -1.593  1.00  0.00     0.134 A 
ATOM     73  F   UNL     1      16.646  -1.889  -1.557  1.00  0.00    -0.206 F 
ATOM     74  C   UNL     1      15.873  -0.594  -3.359  1.00  0.00     0.040 A 
ATOM     75  C   UNL     1      14.944   1.589  -2.959  1.00  0.00     0.040 A 
ATOM     76  F   UNL     1      14.832   2.432  -0.772  1.00  0.00    -0.206 F 
ATOM     77  C   UNL     1      15.287   0.572  -3.846  1.00  0.00     0.006 A 
ENDBRANCH  49  70
BRANCH  61  78
ATOM     78  C   UNL     1      21.190  -0.077   3.315  1.00  0.00     0.057 A 
ATOM     79  C   UNL     1      21.904   1.064   2.938  1.00  0.00     0.134 A 
ATOM     80  C   UNL     1      21.915  -1.250   3.567  1.00  0.00     0.134 A 
ATOM     81  F   UNL     1      21.263   2.213   2.672  1.00  0.00    -0.206 F 
ATOM     82  C   UNL     1      23.293   1.038   2.808  1.00  0.00     0.040 A 
ATOM     83  C   UNL     1      23.304  -1.280   3.469  1.00  0.00     0.040 A 
ATOM     84  F   UNL     1      21.284  -2.373   3.943  1.00  0.00    -0.206 F 
ATOM     85  C   UNL     1      23.997  -0.134   3.086  1.00  0.00     0.006 A 
ENDBRANCH  61  78
ENDBRANCH  35  36
ENDBRANCH  28  30
ENDBRANCH  27  28
ENDBRANCH  26  27
ENDBRANCH   1  26
TORSDOF 17
