REMARK SMILES [NH3+][C@H](CC(=O)OCCOC(=O)c1ccc(-c2c3nc(c(-c4c(F)cccc4F)c4ccc([nH]4)c(-c4c(F)cccc4F)c4nc(c(-c5c(F)cccc5F)c5ccc2[nH]5)C=C4)C=C3)cc1)c1ccccc1Br
REMARK SMILES IDX 7 1 6 2 4 3 5 4 3 5 2 6 1 7 66 11 67 12 71 13 68 14 70 15
REMARK SMILES IDX 72 16 69 17 8 18 9 19 10 20 11 21 12 22 13 23 65 24 14 25
REMARK SMILES IDX 64 26 15 27 16 28 17 29 58 30 18 31 63 32 57 33 59 34 19 35
REMARK SMILES IDX 62 36 56 37 55 38 20 40 46 41 29 42 45 43 30 44 33 45 44 46
REMARK SMILES IDX 60 47 31 48 32 49 43 51 61 52 34 53 21 54 22 55 27 56 23 57
REMARK SMILES IDX 24 58 26 59 28 60 25 61 47 62 48 63 53 64 49 65 50 66 52 67
REMARK SMILES IDX 54 68 51 69 35 70 36 71 41 72 37 73 38 74 40 75 42 76 39 77
REMARK H PARENT 1 8 1 9 1 10 59 39 33 50
REMARK Flexibility Score: inf
ROOT
ATOM      1  C   UNL     1       3.441   1.353  -2.924  1.00  0.00     0.274 C 
ENDROOT
BRANCH   1   2
ATOM      2  O   UNL     1       2.106   0.999  -2.511  1.00  0.00    -0.462 OA
BRANCH   2   3
ATOM      3  C   UNL     1       1.997   0.199  -1.417  1.00  0.00     0.312 C 
ATOM      4  O   UNL     1       2.940  -0.295  -0.813  1.00  0.00    -0.252 OA
BRANCH   3   5
ATOM      5  C   UNL     1       0.551  -0.033  -1.042  1.00  0.00     0.192 C 
BRANCH   5   6
ATOM      6  C   UNL     1      -0.181   1.205  -0.498  1.00  0.00     0.224 C 
BRANCH   6   7
ATOM      7  N   UNL     1      -0.076   2.322  -1.465  1.00  0.00    -0.351 N 
ATOM      8  H   UNL     1      -0.564   3.138  -1.096  1.00  0.00     0.345 HD
ATOM      9  H   UNL     1      -0.498   2.046  -2.351  1.00  0.00     0.345 HD
ATOM     10  H   UNL     1       0.907   2.552  -1.614  1.00  0.00     0.345 HD
ENDBRANCH   6   7
BRANCH   6  11
ATOM     11  C   UNL     1      -1.650   1.095  -0.053  1.00  0.00     0.024 A 
ATOM     12  C   UNL     1      -2.292   2.339   0.214  1.00  0.00     0.011 A 
ATOM     13  C   UNL     1      -2.430  -0.056   0.161  1.00  0.00     0.027 A 
ATOM     14  C   UNL     1      -3.634   2.443   0.582  1.00  0.00     0.001 A 
ATOM     15  C   UNL     1      -3.785   0.056   0.538  1.00  0.00     0.016 A 
ATOM     16  Br  UNL     1      -1.839  -1.857   0.026  1.00  0.00    -0.050 Br
ATOM     17  C   UNL     1      -4.388   1.295   0.732  1.00  0.00     0.001 A 
ENDBRANCH   6  11
ENDBRANCH   5   6
ENDBRANCH   3   5
ENDBRANCH   2   3
ENDBRANCH   1   2
BRANCH   1  18
ATOM     18  C   UNL     1       3.889   2.671  -2.286  1.00  0.00     0.275 C 
BRANCH  18  19
ATOM     19  O   UNL     1       4.248   2.486  -0.903  1.00  0.00    -0.458 OA
BRANCH  19  20
ATOM     20  C   UNL     1       3.326   2.872   0.005  1.00  0.00     0.338 C 
ATOM     21  O   UNL     1       2.242   3.391  -0.213  1.00  0.00    -0.246 OA
BRANCH  20  22
ATOM     22  C   UNL     1       3.773   2.485   1.349  1.00  0.00     0.060 A 
ATOM     23  C   UNL     1       3.161   1.399   1.982  1.00  0.00     0.016 A 
ATOM     24  C   UNL     1       4.750   3.234   2.007  1.00  0.00     0.016 A 
ATOM     25  C   UNL     1       3.531   1.050   3.279  1.00  0.00     0.010 A 
ATOM     26  C   UNL     1       5.126   2.877   3.304  1.00  0.00     0.010 A 
ATOM     27  C   UNL     1       4.517   1.786   3.949  1.00  0.00    -0.014 A 
BRANCH  27  28
ATOM     28  C   UNL     1       4.914   1.424   5.330  1.00  0.00     0.031 A 
ATOM     29  C   UNL     1       4.495   2.287   6.483  1.00  0.00     0.074 A 
ATOM     30  C   UNL     1       5.676   0.336   5.541  1.00  0.00     0.049 A 
ATOM     31  N   UNL     1       4.850   2.216   7.741  1.00  0.00    -0.248 NA
ATOM     32  C   UNL     1       3.557   3.378   6.179  1.00  0.00     0.031 C 
ATOM     33  C   UNL     1       6.122  -0.596   4.505  1.00  0.00     0.029 A 
ATOM     34  N   UNL     1       6.224  -0.158   6.698  1.00  0.00    -0.354 N 
ATOM     35  C   UNL     1       4.200   3.266   8.376  1.00  0.00     0.074 A 
ATOM     36  C   UNL     1       3.437   3.965   7.362  1.00  0.00     0.031 C 
ATOM     37  C   UNL     1       6.885  -1.545   5.072  1.00  0.00     0.029 A 
ATOM     38  C   UNL     1       7.016  -1.262   6.499  1.00  0.00     0.049 A 
ATOM     39  H   UNL     1       6.064   0.239   7.584  1.00  0.00     0.167 HD
ATOM     40  C   UNL     1       4.238   3.613   9.684  1.00  0.00     0.037 A 
ATOM     41  C   UNL     1       7.786  -1.948   7.363  1.00  0.00     0.037 A 
ATOM     42  C   UNL     1       4.986   2.906  10.691  1.00  0.00     0.049 A 
ATOM     43  C   UNL     1       7.845  -1.519   8.802  1.00  0.00     0.074 A 
ATOM     44  C   UNL     1       5.068   3.168  12.049  1.00  0.00     0.029 A 
ATOM     45  N   UNL     1       5.782   1.796  10.450  1.00  0.00    -0.354 N 
ATOM     46  N   UNL     1       7.229  -0.524   9.392  1.00  0.00    -0.248 NA
ATOM     47  C   UNL     1       8.711  -2.304   9.693  1.00  0.00     0.031 C 
ATOM     48  C   UNL     1       5.941   2.236  12.622  1.00  0.00     0.029 A 
ATOM     49  C   UNL     1       6.373   1.372  11.629  1.00  0.00     0.049 A 
ATOM     50  H   UNL     1       5.908   1.373   9.570  1.00  0.00     0.167 HD
ATOM     51  C   UNL     1       7.617  -0.573  10.724  1.00  0.00     0.074 A 
ATOM     52  C   UNL     1       8.514  -1.702  10.858  1.00  0.00     0.031 C 
ATOM     53  C   UNL     1       7.262   0.245  11.744  1.00  0.00     0.037 A 
BRANCH  40  54
ATOM     54  C   UNL     1       3.468   4.831  10.096  1.00  0.00     0.057 A 
ATOM     55  C   UNL     1       2.071   4.824  10.197  1.00  0.00     0.134 A 
ATOM     56  C   UNL     1       4.136   6.018  10.423  1.00  0.00     0.134 A 
ATOM     57  F   UNL     1       1.372   3.723   9.884  1.00  0.00    -0.206 F 
ATOM     58  C   UNL     1       1.364   5.962  10.591  1.00  0.00     0.040 A 
ATOM     59  C   UNL     1       3.441   7.155  10.838  1.00  0.00     0.040 A 
ATOM     60  F   UNL     1       5.473   6.089  10.351  1.00  0.00    -0.206 F 
ATOM     61  C   UNL     1       2.050   7.131  10.918  1.00  0.00     0.006 A 
ENDBRANCH  40  54
BRANCH  41  62
ATOM     62  C   UNL     1       8.582  -3.102   6.881  1.00  0.00     0.057 A 
ATOM     63  C   UNL     1       8.229  -4.413   7.217  1.00  0.00     0.134 A 
ATOM     64  C   UNL     1       9.705  -2.922   6.065  1.00  0.00     0.134 A 
ATOM     65  F   UNL     1       7.176  -4.646   8.014  1.00  0.00    -0.206 F 
ATOM     66  C   UNL     1       8.969  -5.506   6.764  1.00  0.00     0.040 A 
ATOM     67  C   UNL     1      10.442  -4.006   5.587  1.00  0.00     0.040 A 
ATOM     68  F   UNL     1      10.092  -1.688   5.708  1.00  0.00    -0.206 F 
ATOM     69  C   UNL     1      10.075  -5.303   5.940  1.00  0.00     0.006 A 
ENDBRANCH  41  62
BRANCH  53  70
ATOM     70  C   UNL     1       7.825  -0.069  13.097  1.00  0.00     0.057 A 
ATOM     71  C   UNL     1       9.154   0.222  13.427  1.00  0.00     0.134 A 
ATOM     72  C   UNL     1       7.018  -0.638  14.090  1.00  0.00     0.134 A 
ATOM     73  F   UNL     1       9.980   0.755  12.515  1.00  0.00    -0.206 F 
ATOM     74  C   UNL     1       9.666  -0.059  14.695  1.00  0.00     0.040 A 
ATOM     75  C   UNL     1       7.513  -0.905  15.367  1.00  0.00     0.040 A 
ATOM     76  F   UNL     1       5.734  -0.935  13.837  1.00  0.00    -0.206 F 
ATOM     77  C   UNL     1       8.843  -0.619  15.671  1.00  0.00     0.006 A 
ENDBRANCH  53  70
ENDBRANCH  27  28
ENDBRANCH  20  22
ENDBRANCH  19  20
ENDBRANCH  18  19
ENDBRANCH   1  18
TORSDOF 14
