REMARK SMILES CN1CCN(C(=O)N2CCC[C@H]2CC(=O)OCCOC(=O)c2ccc(-c3c4nc(c(-c5c(F)cccc5F)c5ccc([nH]5)c(-c5c(F)cccc5F)c5nc(c(-c6c(F)cccc6F)c6ccc3[nH]6)C=C5)C=C4)cc2)C(C)(C)C1=O
REMARK SMILES IDX 17 1 16 2 14 3 15 4 13 5 12 6 8 7 9 8 10 9 11 10 6 11 7 12
REMARK SMILES IDX 5 13 1 14 2 15 3 16 79 17 4 18 76 19 80 20 77 21 78 22 18 23
REMARK SMILES IDX 19 24 20 25 21 26 22 27 23 28 75 29 24 30 74 31 25 32 26 33
REMARK SMILES IDX 27 34 68 35 28 36 73 37 67 38 69 39 29 40 72 41 66 42 65 43
REMARK SMILES IDX 30 45 56 46 39 47 55 48 40 49 43 50 54 51 70 52 41 53 42 54
REMARK SMILES IDX 53 56 71 57 44 58 31 59 32 60 37 61 33 62 34 63 36 64 38 65
REMARK SMILES IDX 35 66 57 67 58 68 63 69 59 70 60 71 62 72 64 73 61 74 45 75
REMARK SMILES IDX 46 76 51 77 47 78 48 79 50 80 52 81 49 82
REMARK H PARENT 69 44 43 55
REMARK Flexibility Score: inf
ROOT
ATOM      1  C   UNL     1      -0.296   7.705   2.780  1.00  0.00     0.274 C 
ENDROOT
BRANCH   1   2
ATOM      2  O   UNL     1      -1.415   7.131   2.086  1.00  0.00    -0.462 OA
BRANCH   2   3
ATOM      3  C   UNL     1      -2.216   7.996   1.430  1.00  0.00     0.308 C 
ATOM      4  O   UNL     1      -2.075   9.215   1.425  1.00  0.00    -0.252 OA
BRANCH   3   5
ATOM      5  C   UNL     1      -3.401   7.333   0.790  1.00  0.00     0.147 C 
BRANCH   5   6
ATOM      6  C   UNL     1      -3.179   6.105  -0.127  1.00  0.00     0.098 C 
ATOM      7  N   UNL     1      -2.913   4.858   0.589  1.00  0.00    -0.321 N 
ATOM      8  C   UNL     1      -4.118   4.407   1.235  1.00  0.00     0.122 C 
ATOM      9  C   UNL     1      -5.205   4.786   0.229  1.00  0.00     0.024 C 
ATOM     10  C   UNL     1      -4.552   5.786  -0.747  1.00  0.00     0.027 C 
BRANCH   7  11
ATOM     11  C   UNL     1      -1.696   4.297   0.869  1.00  0.00     0.321 C 
ATOM     12  O   UNL     1      -1.344   4.087   2.030  1.00  0.00    -0.248 OA
BRANCH  11  13
ATOM     13  N   UNL     1      -0.917   3.908  -0.223  1.00  0.00    -0.309 N 
ATOM     14  C   UNL     1       1.041   0.139   0.438  1.00  0.00     0.146 C 
ATOM     15  N   UNL     1       0.437   1.407   0.073  1.00  0.00    -0.342 N 
ATOM     16  C   UNL     1       0.971   2.612   0.704  1.00  0.00     0.140 C 
ATOM     17  C   UNL     1      -0.835   1.404  -0.507  1.00  0.00     0.247 C 
ATOM     18  C   UNL     1       0.520   3.916   0.039  1.00  0.00     0.144 C 
ATOM     19  C   UNL     1      -1.331   2.766  -1.108  1.00  0.00     0.118 C 
ATOM     20  O   UNL     1      -1.428   0.345  -0.738  1.00  0.00    -0.272 OA
ATOM     21  C   UNL     1      -0.653   2.866  -2.498  1.00  0.00     0.045 C 
ATOM     22  C   UNL     1      -2.836   2.648  -1.378  1.00  0.00     0.045 C 
ENDBRANCH  11  13
ENDBRANCH   7  11
ENDBRANCH   5   6
ENDBRANCH   3   5
ENDBRANCH   2   3
ENDBRANCH   1   2
BRANCH   1  23
ATOM     23  C   UNL     1       0.957   7.715   1.904  1.00  0.00     0.275 C 
BRANCH  23  24
ATOM     24  O   UNL     1       0.861   8.674   0.834  1.00  0.00    -0.458 OA
BRANCH  24  25
ATOM     25  C   UNL     1       0.381   8.201  -0.339  1.00  0.00     0.338 C 
ATOM     26  O   UNL     1       0.068   7.058  -0.615  1.00  0.00    -0.246 OA
BRANCH  25  27
ATOM     27  C   UNL     1       0.195   9.319  -1.271  1.00  0.00     0.060 A 
ATOM     28  C   UNL     1      -1.104   9.703  -1.622  1.00  0.00     0.016 A 
ATOM     29  C   UNL     1       1.305   9.940  -1.842  1.00  0.00     0.016 A 
ATOM     30  C   UNL     1      -1.297  10.732  -2.538  1.00  0.00     0.010 A 
ATOM     31  C   UNL     1       1.109  10.972  -2.758  1.00  0.00     0.010 A 
ATOM     32  C   UNL     1      -0.191  11.373  -3.111  1.00  0.00    -0.014 A 
BRANCH  32  33
ATOM     33  C   UNL     1      -0.385  12.463  -4.091  1.00  0.00     0.031 A 
ATOM     34  C   UNL     1      -0.120  12.218  -5.545  1.00  0.00     0.074 A 
ATOM     35  C   UNL     1      -0.770  13.678  -3.660  1.00  0.00     0.049 A 
ATOM     36  N   UNL     1      -0.127  13.064  -6.541  1.00  0.00    -0.248 NA
ATOM     37  C   UNL     1       0.203  10.835  -5.926  1.00  0.00     0.031 C 
ATOM     38  C   UNL     1      -1.079  14.021  -2.272  1.00  0.00     0.029 A 
ATOM     39  N   UNL     1      -0.952  14.850  -4.346  1.00  0.00    -0.354 N 
ATOM     40  C   UNL     1       0.209  12.324  -7.666  1.00  0.00     0.074 A 
ATOM     41  C   UNL     1       0.433  10.963  -7.225  1.00  0.00     0.031 C 
ATOM     42  C   UNL     1      -1.412  15.320  -2.207  1.00  0.00     0.029 A 
ATOM     43  C   UNL     1      -1.296  15.906  -3.539  1.00  0.00     0.049 A 
ATOM     44  H   UNL     1      -0.847  14.927  -5.321  1.00  0.00     0.167 HD
ATOM     45  C   UNL     1       0.317  12.745  -8.949  1.00  0.00     0.037 A 
ATOM     46  C   UNL     1      -1.470  17.206  -3.839  1.00  0.00     0.037 A 
ATOM     47  C   UNL     1       0.091  14.101  -9.376  1.00  0.00     0.049 A 
ATOM     48  C   UNL     1      -1.290  17.660  -5.260  1.00  0.00     0.074 A 
ATOM     49  C   UNL     1       0.153  14.628 -10.654  1.00  0.00     0.029 A 
ATOM     50  N   UNL     1      -0.237  15.150  -8.527  1.00  0.00    -0.354 N 
ATOM     51  N   UNL     1      -0.984  16.951  -6.321  1.00  0.00    -0.248 NA
ATOM     52  C   UNL     1      -1.474  19.093  -5.525  1.00  0.00     0.031 C 
ATOM     53  C   UNL     1      -0.094  16.003 -10.573  1.00  0.00     0.029 A 
ATOM     54  C   UNL     1      -0.357  16.325  -9.251  1.00  0.00     0.049 A 
ATOM     55  H   UNL     1      -0.365  15.070  -7.554  1.00  0.00     0.167 HD
ATOM     56  C   UNL     1      -0.960  17.846  -7.382  1.00  0.00     0.074 A 
ATOM     57  C   UNL     1      -1.293  19.147  -6.838  1.00  0.00     0.031 C 
ATOM     58  C   UNL     1      -0.688  17.611  -8.690  1.00  0.00     0.037 A 
BRANCH  45  59
ATOM     59  C   UNL     1       0.731  11.728  -9.972  1.00  0.00     0.057 A 
ATOM     60  C   UNL     1      -0.127  10.701 -10.388  1.00  0.00     0.134 A 
ATOM     61  C   UNL     1       2.004  11.780 -10.554  1.00  0.00     0.134 A 
ATOM     62  F   UNL     1      -1.354  10.585  -9.859  1.00  0.00    -0.206 F 
ATOM     63  C   UNL     1       0.277   9.746 -11.324  1.00  0.00     0.040 A 
ATOM     64  C   UNL     1       2.410  10.847 -11.509  1.00  0.00     0.040 A 
ATOM     65  F   UNL     1       2.874  12.739 -10.204  1.00  0.00    -0.206 F 
ATOM     66  C   UNL     1       1.548   9.821 -11.890  1.00  0.00     0.006 A 
ENDBRANCH  45  59
BRANCH  46  67
ATOM     67  C   UNL     1      -1.834  18.166  -2.769  1.00  0.00     0.057 A 
ATOM     68  C   UNL     1      -3.115  18.725  -2.708  1.00  0.00     0.134 A 
ATOM     69  C   UNL     1      -0.921  18.531  -1.772  1.00  0.00     0.134 A 
ATOM     70  F   UNL     1      -4.026  18.428  -3.647  1.00  0.00    -0.206 F 
ATOM     71  C   UNL     1      -3.474  19.619  -1.698  1.00  0.00     0.040 A 
ATOM     72  C   UNL     1      -1.274  19.406  -0.744  1.00  0.00     0.040 A 
ATOM     73  F   UNL     1       0.322  18.026  -1.774  1.00  0.00    -0.206 F 
ATOM     74  C   UNL     1      -2.554  19.955  -0.707  1.00  0.00     0.006 A 
ENDBRANCH  46  67
BRANCH  58  75
ATOM     75  C   UNL     1      -0.770  18.783  -9.623  1.00  0.00     0.057 A 
ATOM     76  C   UNL     1       0.211  19.781  -9.643  1.00  0.00     0.134 A 
ATOM     77  C   UNL     1      -1.829  18.895 -10.533  1.00  0.00     0.134 A 
ATOM     78  F   UNL     1       1.242  19.739  -8.785  1.00  0.00    -0.206 F 
ATOM     79  C   UNL     1       0.132  20.862 -10.523  1.00  0.00     0.040 A 
ATOM     80  C   UNL     1      -1.906  19.957 -11.434  1.00  0.00     0.040 A 
ATOM     81  F   UNL     1      -2.797  17.968 -10.569  1.00  0.00    -0.206 F 
ATOM     82  C   UNL     1      -0.926  20.948 -11.426  1.00  0.00     0.006 A 
ENDBRANCH  58  75
ENDBRANCH  32  33
ENDBRANCH  25  27
ENDBRANCH  24  25
ENDBRANCH  23  24
ENDBRANCH   1  23
TORSDOF 14
