REMARK SMILES O=C(CCc1cccnc1)Nc1cccc(F)c1C(=O)OCCOC(=O)c1ccc(-c2c3nc(c(-c4c(F)cccc4F)c4ccc([nH]4)c(-c4c(F)cccc4F)c4nc(c(-c5c(F)cccc5F)c5ccc2[nH]5)C=C4)C=C3)cc1
REMARK SMILES IDX 22 1 21 2 19 3 20 4 18 5 12 6 13 7 14 8 16 9 15 10 17 11
REMARK SMILES IDX 11 12 1 13 2 14 3 16 4 17 5 18 6 19 10 20 7 21 9 22 8 23
REMARK SMILES IDX 23 24 24 25 25 26 26 27 27 28 28 29 80 30 29 31 79 32 30 33
REMARK SMILES IDX 31 34 32 35 73 36 33 37 78 38 72 39 74 40 34 41 77 42 71 43
REMARK SMILES IDX 70 44 35 46 61 47 44 48 60 49 45 50 48 51 59 52 75 53 46 54
REMARK SMILES IDX 47 55 58 57 76 58 49 59 36 60 37 61 42 62 38 63 39 64 41 65
REMARK SMILES IDX 43 66 40 67 62 68 63 69 68 70 64 71 65 72 67 73 69 74 66 75
REMARK SMILES IDX 50 76 51 77 56 78 52 79 53 80 55 81 57 82 54 83
REMARK H PARENT 11 15 74 45 48 56
REMARK Flexibility Score: inf
ROOT
ATOM      1  C   UNL     1       5.227   3.473  -3.981  1.00  0.00     0.275 C 
ENDROOT
BRANCH   1   2
ATOM      2  O   UNL     1       4.049   3.667  -3.191  1.00  0.00    -0.458 OA
BRANCH   2   3
ATOM      3  C   UNL     1       3.014   2.822  -3.409  1.00  0.00     0.343 C 
ATOM      4  O   UNL     1       2.965   1.886  -4.174  1.00  0.00    -0.246 OA
BRANCH   3   5
ATOM      5  C   UNL     1       1.956   3.216  -2.476  1.00  0.00     0.119 A 
ATOM      6  C   UNL     1       1.463   2.358  -1.487  1.00  0.00     0.058 A 
ATOM      7  C   UNL     1       0.462   2.830  -0.625  1.00  0.00     0.027 A 
ATOM      8  C   UNL     1      -0.022   4.140  -0.749  1.00  0.00     0.005 A 
ATOM      9  C   UNL     1       1.415   4.491  -2.639  1.00  0.00     0.139 A 
ATOM     10  C   UNL     1       0.445   4.966  -1.768  1.00  0.00     0.040 A 
ATOM     11  F   UNL     1       1.832   5.287  -3.635  1.00  0.00    -0.206 F 
BRANCH   6  12
ATOM     12  N   UNL     1       2.069   1.118  -1.197  1.00  0.00    -0.325 N 
ATOM     13  O   UNL     1       0.297  -0.266  -1.747  1.00  0.00    -0.275 OA
ATOM     14  C   UNL     1       1.405  -0.094  -1.252  1.00  0.00     0.224 C 
ATOM     15  H   UNL     1       3.019   1.115  -0.941  1.00  0.00     0.169 HD
BRANCH  14  16
ATOM     16  C   UNL     1       2.171  -1.221  -0.588  1.00  0.00     0.105 C 
BRANCH  16  17
ATOM     17  C   UNL     1       3.039  -2.107  -1.490  1.00  0.00     0.047 C 
BRANCH  17  18
ATOM     18  C   UNL     1       4.428  -1.585  -1.764  1.00  0.00    -0.029 A 
ATOM     19  C   UNL     1       4.618  -0.507  -2.619  1.00  0.00     0.007 A 
ATOM     20  C   UNL     1       5.580  -2.171  -1.238  1.00  0.00     0.114 A 
ATOM     21  C   UNL     1       5.901  -0.044  -2.878  1.00  0.00     0.020 A 
ATOM     22  N   UNL     1       6.841  -1.719  -1.447  1.00  0.00    -0.264 NA
ATOM     23  C   UNL     1       6.973  -0.660  -2.265  1.00  0.00     0.111 A 
ENDBRANCH  17  18
ENDBRANCH  16  17
ENDBRANCH  14  16
ENDBRANCH   6  12
ENDBRANCH   3   5
ENDBRANCH   2   3
ENDBRANCH   1   2
BRANCH   1  24
ATOM     24  C   UNL     1       6.466   3.700  -3.105  1.00  0.00     0.275 C 
BRANCH  24  25
ATOM     25  O   UNL     1       6.476   2.821  -1.952  1.00  0.00    -0.458 OA
BRANCH  25  26
ATOM     26  C   UNL     1       5.892   3.318  -0.831  1.00  0.00     0.338 C 
ATOM     27  O   UNL     1       5.461   4.451  -0.684  1.00  0.00    -0.246 OA
BRANCH  26  28
ATOM     28  C   UNL     1       5.660   2.249   0.177  1.00  0.00     0.060 A 
ATOM     29  C   UNL     1       4.423   2.250   0.829  1.00  0.00     0.016 A 
ATOM     30  C   UNL     1       6.607   1.280   0.522  1.00  0.00     0.016 A 
ATOM     31  C   UNL     1       4.116   1.272   1.782  1.00  0.00     0.010 A 
ATOM     32  C   UNL     1       6.306   0.304   1.499  1.00  0.00     0.010 A 
ATOM     33  C   UNL     1       5.056   0.292   2.141  1.00  0.00    -0.014 A 
BRANCH  33  34
ATOM     34  C   UNL     1       4.744  -0.562   3.331  1.00  0.00     0.031 A 
ATOM     35  C   UNL     1       5.083  -0.033   4.689  1.00  0.00     0.074 A 
ATOM     36  C   UNL     1       4.055  -1.718   3.256  1.00  0.00     0.049 A 
ATOM     37  N   UNL     1       4.741  -0.496   5.863  1.00  0.00    -0.248 NA
ATOM     38  C   UNL     1       5.939   1.159   4.724  1.00  0.00     0.031 C 
ATOM     39  C   UNL     1       3.735  -2.400   2.021  1.00  0.00     0.029 A 
ATOM     40  N   UNL     1       3.462  -2.505   4.219  1.00  0.00    -0.354 N 
ATOM     41  C   UNL     1       5.362   0.334   6.781  1.00  0.00     0.074 A 
ATOM     42  C   UNL     1       6.101   1.325   6.027  1.00  0.00     0.031 C 
ATOM     43  C   UNL     1       2.892  -3.415   2.263  1.00  0.00     0.029 A 
ATOM     44  C   UNL     1       2.683  -3.521   3.704  1.00  0.00     0.049 A 
ATOM     45  H   UNL     1       3.582  -2.356   5.185  1.00  0.00     0.167 HD
ATOM     46  C   UNL     1       5.336   0.264   8.131  1.00  0.00     0.037 A 
ATOM     47  C   UNL     1       1.901  -4.440   4.312  1.00  0.00     0.037 A 
ATOM     48  C   UNL     1       4.633  -0.738   8.887  1.00  0.00     0.049 A 
ATOM     49  C   UNL     1       1.861  -4.481   5.817  1.00  0.00     0.074 A 
ATOM     50  C   UNL     1       4.571  -0.886  10.261  1.00  0.00     0.029 A 
ATOM     51  N   UNL     1       3.886  -1.771   8.340  1.00  0.00    -0.354 N 
ATOM     52  N   UNL     1       2.441  -3.679   6.677  1.00  0.00    -0.248 NA
ATOM     53  C   UNL     1       1.097  -5.573   6.441  1.00  0.00     0.031 C 
ATOM     54  C   UNL     1       3.836  -2.041  10.544  1.00  0.00     0.029 A 
ATOM     55  C   UNL     1       3.374  -2.571   9.351  1.00  0.00     0.049 A 
ATOM     56  H   UNL     1       3.740  -1.915   7.377  1.00  0.00     0.167 HD
ATOM     57  C   UNL     1       2.123  -4.173   7.936  1.00  0.00     0.074 A 
ATOM     58  C   UNL     1       1.267  -5.322   7.732  1.00  0.00     0.031 C 
ATOM     59  C   UNL     1       2.523  -3.718   9.149  1.00  0.00     0.037 A 
BRANCH  46  60
ATOM     60  C   UNL     1       6.164   1.272   8.867  1.00  0.00     0.057 A 
ATOM     61  C   UNL     1       7.337   0.878   9.521  1.00  0.00     0.134 A 
ATOM     62  C   UNL     1       5.820   2.630   8.908  1.00  0.00     0.134 A 
ATOM     63  F   UNL     1       7.723  -0.407   9.513  1.00  0.00    -0.206 F 
ATOM     64  C   UNL     1       8.140   1.799  10.192  1.00  0.00     0.040 A 
ATOM     65  C   UNL     1       6.633   3.565   9.549  1.00  0.00     0.040 A 
ATOM     66  F   UNL     1       4.723   3.074   8.275  1.00  0.00    -0.206 F 
ATOM     67  C   UNL     1       7.793   3.148  10.198  1.00  0.00     0.006 A 
ENDBRANCH  46  60
BRANCH  47  68
ATOM     68  C   UNL     1       1.108  -5.418   3.511  1.00  0.00     0.057 A 
ATOM     69  C   UNL     1       1.727  -6.389   2.713  1.00  0.00     0.134 A 
ATOM     70  C   UNL     1      -0.294  -5.415   3.531  1.00  0.00     0.134 A 
ATOM     71  F   UNL     1       3.064  -6.462   2.654  1.00  0.00    -0.206 F 
ATOM     72  C   UNL     1       0.990  -7.291   1.942  1.00  0.00     0.040 A 
ATOM     73  C   UNL     1      -1.045  -6.333   2.791  1.00  0.00     0.040 A 
ATOM     74  F   UNL     1      -0.957  -4.539   4.302  1.00  0.00    -0.206 F 
ATOM     75  C   UNL     1      -0.402  -7.268   1.983  1.00  0.00     0.006 A 
ENDBRANCH  47  68
BRANCH  59  76
ATOM     76  C   UNL     1       2.027  -4.441  10.370  1.00  0.00     0.057 A 
ATOM     77  C   UNL     1       1.139  -3.813  11.255  1.00  0.00     0.134 A 
ATOM     78  C   UNL     1       2.483  -5.720  10.716  1.00  0.00     0.134 A 
ATOM     79  F   UNL     1       0.671  -2.584  10.991  1.00  0.00    -0.206 F 
ATOM     80  C   UNL     1       0.738  -4.422  12.444  1.00  0.00     0.040 A 
ATOM     81  C   UNL     1       2.065  -6.351  11.890  1.00  0.00     0.040 A 
ATOM     82  F   UNL     1       3.328  -6.383   9.912  1.00  0.00    -0.206 F 
ATOM     83  C   UNL     1       1.198  -5.697  12.763  1.00  0.00     0.006 A 
ENDBRANCH  59  76
ENDBRANCH  33  34
ENDBRANCH  26  28
ENDBRANCH  25  26
ENDBRANCH  24  25
ENDBRANCH   1  24
TORSDOF 15
