REMARK SMILES O=C(OCCOC(=O)[C@H](Cc1ccccc1Cl)S[C@H]1CC(=O)N(c2ccc(Cl)cc2)C1=O)c1ccc(-c2c3nc(c(-c4c(F)cccc4F)c4ccc([nH]4)c(-c4c(F)cccc4F)c4nc(c(-c5c(F)cccc5F)c5ccc2[nH]5)C=C4)C=C3)cc1
REMARK SMILES IDX 5 1 4 2 3 3 2 4 1 5 33 6 34 7 86 8 35 9 85 10 36 11 37 12
REMARK SMILES IDX 38 13 79 14 39 15 84 16 78 17 80 18 40 19 83 20 77 21 76 22
REMARK SMILES IDX 41 24 67 25 50 26 66 27 51 28 54 29 65 30 81 31 52 32 53 33
REMARK SMILES IDX 64 35 82 36 55 37 42 38 43 39 48 40 44 41 45 42 47 43 49 44
REMARK SMILES IDX 46 45 68 46 69 47 74 48 70 49 71 50 73 51 75 52 72 53 56 54
REMARK SMILES IDX 57 55 62 56 58 57 59 58 61 59 63 60 60 61 6 62 7 63 8 64
REMARK SMILES IDX 9 65 18 66 19 67 20 68 31 69 21 70 23 71 32 72 22 73 24 74
REMARK SMILES IDX 25 75 30 76 26 77 29 78 27 79 28 80 10 81 11 82 12 83 16 84
REMARK SMILES IDX 13 85 15 86 17 87 14 88
REMARK H PARENT 80 23 54 34
REMARK Flexibility Score: inf
ROOT
ATOM      1  C   UNL     1       9.233   2.294   5.076  1.00  0.00     0.274 C 
ENDROOT
BRANCH   1   2
ATOM      2  C   UNL     1       9.184   2.704   3.577  1.00  0.00     0.275 C 
BRANCH   2   3
ATOM      3  O   UNL     1       8.624   1.737   2.648  1.00  0.00    -0.458 OA
BRANCH   3   4
ATOM      4  C   UNL     1       7.454   1.184   3.000  1.00  0.00     0.338 C 
ATOM      5  O   UNL     1       6.643   1.709   3.755  1.00  0.00    -0.246 OA
BRANCH   4   6
ATOM      6  C   UNL     1       7.404  -0.294   2.651  1.00  0.00     0.060 A 
ATOM      7  C   UNL     1       7.992  -1.066   1.684  1.00  0.00     0.016 A 
ATOM      8  C   UNL     1       6.654  -1.048   3.513  1.00  0.00     0.016 A 
ATOM      9  C   UNL     1       7.655  -2.489   1.562  1.00  0.00     0.010 A 
ATOM     10  C   UNL     1       6.356  -2.437   3.464  1.00  0.00     0.010 A 
ATOM     11  C   UNL     1       6.701  -3.168   2.369  1.00  0.00    -0.014 A 
BRANCH  11  12
ATOM     12  C   UNL     1       6.213  -4.593   2.231  1.00  0.00     0.031 A 
ATOM     13  C   UNL     1       4.900  -5.144   1.678  1.00  0.00     0.074 A 
ATOM     14  C   UNL     1       6.941  -5.574   2.769  1.00  0.00     0.049 A 
ATOM     15  N   UNL     1       4.717  -6.063   0.756  1.00  0.00    -0.248 NA
ATOM     16  C   UNL     1       3.615  -4.729   2.246  1.00  0.00     0.031 C 
ATOM     17  C   UNL     1       7.969  -5.398   3.760  1.00  0.00     0.029 A 
ATOM     18  N   UNL     1       6.954  -6.909   2.492  1.00  0.00    -0.354 N 
ATOM     19  C   UNL     1       3.347  -6.050   0.462  1.00  0.00     0.074 A 
ATOM     20  C   UNL     1       2.700  -5.214   1.416  1.00  0.00     0.031 C 
ATOM     21  C   UNL     1       8.671  -6.531   3.875  1.00  0.00     0.029 A 
ATOM     22  C   UNL     1       8.076  -7.519   2.987  1.00  0.00     0.049 A 
ATOM     23  H   UNL     1       6.243  -7.377   1.998  1.00  0.00     0.167 HD
ATOM     24  C   UNL     1       2.731  -6.621  -0.596  1.00  0.00     0.037 A 
ATOM     25  C   UNL     1       8.585  -8.723   2.693  1.00  0.00     0.037 A 
ATOM     26  C   UNL     1       3.278  -7.805  -1.166  1.00  0.00     0.049 A 
ATOM     27  C   UNL     1       7.879  -9.541   1.651  1.00  0.00     0.074 A 
ATOM     28  C   UNL     1       2.776  -8.634  -2.142  1.00  0.00     0.029 A 
ATOM     29  N   UNL     1       4.410  -8.406  -0.641  1.00  0.00    -0.354 N 
ATOM     30  N   UNL     1       6.832  -9.235   0.917  1.00  0.00    -0.248 NA
ATOM     31  C   UNL     1       8.427 -10.875   1.397  1.00  0.00     0.031 C 
ATOM     32  C   UNL     1       3.556  -9.800  -2.125  1.00  0.00     0.029 A 
ATOM     33  C   UNL     1       4.568  -9.654  -1.182  1.00  0.00     0.049 A 
ATOM     34  H   UNL     1       5.012  -7.997   0.022  1.00  0.00     0.167 HD
ATOM     35  C   UNL     1       6.585 -10.346   0.122  1.00  0.00     0.074 A 
ATOM     36  C   UNL     1       7.623 -11.310   0.439  1.00  0.00     0.031 C 
ATOM     37  C   UNL     1       5.597 -10.573  -0.782  1.00  0.00     0.037 A 
BRANCH  24  38
ATOM     38  C   UNL     1       1.486  -5.990  -1.151  1.00  0.00     0.057 A 
ATOM     39  C   UNL     1       1.603  -4.954  -2.096  1.00  0.00     0.134 A 
ATOM     40  C   UNL     1       0.190  -6.396  -0.829  1.00  0.00     0.134 A 
ATOM     41  F   UNL     1       2.806  -4.571  -2.545  1.00  0.00    -0.206 F 
ATOM     42  C   UNL     1       0.493  -4.303  -2.640  1.00  0.00     0.040 A 
ATOM     43  C   UNL     1      -0.934  -5.777  -1.397  1.00  0.00     0.040 A 
ATOM     44  F   UNL     1      -0.012  -7.399   0.036  1.00  0.00    -0.206 F 
ATOM     45  C   UNL     1      -0.785  -4.718  -2.293  1.00  0.00     0.006 A 
ENDBRANCH  24  38
BRANCH  25  46
ATOM     46  C   UNL     1       9.833  -9.161   3.364  1.00  0.00     0.057 A 
ATOM     47  C   UNL     1      11.026  -9.341   2.658  1.00  0.00     0.134 A 
ATOM     48  C   UNL     1       9.872  -9.346   4.753  1.00  0.00     0.134 A 
ATOM     49  F   UNL     1      11.061  -9.165   1.329  1.00  0.00    -0.206 F 
ATOM     50  C   UNL     1      12.206  -9.713   3.305  1.00  0.00     0.040 A 
ATOM     51  C   UNL     1      11.050  -9.682   5.416  1.00  0.00     0.040 A 
ATOM     52  F   UNL     1       8.769  -9.153   5.492  1.00  0.00    -0.206 F 
ATOM     53  C   UNL     1      12.221  -9.877   4.689  1.00  0.00     0.006 A 
ENDBRANCH  25  46
BRANCH  37  54
ATOM     54  C   UNL     1       5.573 -11.916  -1.424  1.00  0.00     0.057 A 
ATOM     55  C   UNL     1       5.189 -13.055  -0.708  1.00  0.00     0.134 A 
ATOM     56  C   UNL     1       5.876 -12.055  -2.782  1.00  0.00     0.134 A 
ATOM     57  F   UNL     1       4.888 -12.971   0.597  1.00  0.00    -0.206 F 
ATOM     58  C   UNL     1       5.140 -14.303  -1.320  1.00  0.00     0.040 A 
ATOM     59  C   UNL     1       5.798 -13.292  -3.411  1.00  0.00     0.040 A 
ATOM     60  F   UNL     1       6.225 -10.988  -3.516  1.00  0.00    -0.206 F 
ATOM     61  C   UNL     1       5.439 -14.422  -2.677  1.00  0.00     0.006 A 
ENDBRANCH  37  54
ENDBRANCH  11  12
ENDBRANCH   4   6
ENDBRANCH   3   4
ENDBRANCH   2   3
ENDBRANCH   1   2
BRANCH   1  62
ATOM     62  O   UNL     1       8.886   0.913   5.240  1.00  0.00    -0.461 OA
BRANCH  62  63
ATOM     63  C   UNL     1       8.001   0.570   6.210  1.00  0.00     0.319 C 
ATOM     64  O   UNL     1       7.577   1.301   7.069  1.00  0.00    -0.251 OA
BRANCH  63  65
ATOM     65  C   UNL     1       7.658  -0.909   6.034  1.00  0.00     0.161 C 
BRANCH  65  66
ATOM     66  S   UNL     1       5.501  -1.139   6.318  1.00  0.00    -0.132 SA
BRANCH  66  67
ATOM     67  C   UNL     1       4.082  -0.428   4.873  1.00  0.00     0.147 C 
ATOM     68  C   UNL     1       3.816   0.905   4.198  1.00  0.00     0.125 C 
ATOM     69  C   UNL     1       3.781  -1.351   3.671  1.00  0.00     0.247 C 
ATOM     70  C   UNL     1       4.069   0.666   2.719  1.00  0.00     0.235 C 
ATOM     71  N   UNL     1       3.988  -0.677   2.452  1.00  0.00    -0.250 N 
ATOM     72  O   UNL     1       3.369  -2.473   3.897  1.00  0.00    -0.273 OA
ATOM     73  O   UNL     1       4.200   1.566   1.900  1.00  0.00    -0.274 OA
BRANCH  71  74
ATOM     74  C   UNL     1       4.296  -1.210   1.104  1.00  0.00     0.052 A 
ATOM     75  C   UNL     1       5.343  -0.652   0.331  1.00  0.00     0.028 A 
ATOM     76  C   UNL     1       3.743  -2.338   0.517  1.00  0.00     0.028 A 
ATOM     77  C   UNL     1       6.036  -1.369  -0.688  1.00  0.00     0.022 A 
ATOM     78  C   UNL     1       4.409  -3.045  -0.533  1.00  0.00     0.022 A 
ATOM     79  C   UNL     1       5.620  -2.629  -1.040  1.00  0.00     0.041 A 
ATOM     80  Cl  UNL     1       6.614  -3.680  -1.974  1.00  0.00    -0.084 Cl
ENDBRANCH  71  74
ENDBRANCH  66  67
ENDBRANCH  65  66
BRANCH  65  81
ATOM     81  C   UNL     1       8.999  -1.863   5.497  1.00  0.00     0.063 C 
BRANCH  81  82
ATOM     82  C   UNL     1       9.872  -2.110   4.192  1.00  0.00    -0.028 A 
ATOM     83  C   UNL     1      10.287  -3.440   3.939  1.00  0.00     0.005 A 
ATOM     84  C   UNL     1      10.543  -1.238   3.315  1.00  0.00     0.044 A 
ATOM     85  C   UNL     1      10.889  -3.886   2.734  1.00  0.00     0.000 A 
ATOM     86  C   UNL     1      11.071  -1.651   2.051  1.00  0.00     0.021 A 
ATOM     87  Cl  UNL     1      11.243   0.242   3.828  1.00  0.00    -0.084 Cl
ATOM     88  C   UNL     1      11.183  -2.989   1.729  1.00  0.00     0.002 A 
ENDBRANCH  81  82
ENDBRANCH  65  81
ENDBRANCH  63  65
ENDBRANCH  62  63
ENDBRANCH   1  62
TORSDOF 16
