REMARK SMILES O=C(OCCOC(=O)[C@H](c1c[nH]c2cc(F)ccc12)[NH+]1CC[NH+](CC(=O)N2CCOCC2)CC1)c1ccc(-c2c3nc(c(-c4c(F)cccc4F)c4ccc([nH]4)c(-c4c(F)cccc4F)c4nc(c(-c5c(F)cccc5F)c5ccc2[nH]5)C=C4)C=C3)cc1
REMARK SMILES IDX 5 1 4 2 3 3 2 4 1 5 35 6 36 7 88 8 37 9 87 10 38 11 39 12
REMARK SMILES IDX 40 13 81 14 41 15 86 16 80 17 82 18 42 19 85 20 79 21 78 22
REMARK SMILES IDX 43 24 69 25 52 26 68 27 53 28 56 29 67 30 83 31 54 32 55 33
REMARK SMILES IDX 66 35 84 36 57 37 44 38 45 39 50 40 46 41 47 42 49 43 51 44
REMARK SMILES IDX 48 45 70 46 71 47 76 48 72 49 73 50 75 51 77 52 74 53 58 54
REMARK SMILES IDX 59 55 64 56 60 57 61 58 63 59 65 60 62 61 6 62 7 63 8 64
REMARK SMILES IDX 9 65 20 66 21 67 34 68 22 70 33 71 23 72 24 74 25 75 26 76
REMARK SMILES IDX 27 77 28 78 32 79 29 80 31 81 30 82 10 83 11 84 19 85 12 86
REMARK SMILES IDX 13 87 18 88 14 90 17 91 15 92 16 93
REMARK H PARENT 82 23 56 34 20 69 23 73 12 89
REMARK Flexibility Score: inf
ROOT
ATOM      1  C   UNL     1       3.905  -0.569   5.035  1.00  0.00     0.274 C 
ENDROOT
BRANCH   1   2
ATOM      2  C   UNL     1       4.263  -2.039   4.808  1.00  0.00     0.275 C 
BRANCH   2   3
ATOM      3  O   UNL     1       4.991  -2.295   3.600  1.00  0.00    -0.458 OA
BRANCH   3   4
ATOM      4  C   UNL     1       4.547  -2.392   2.330  1.00  0.00     0.338 C 
ATOM      5  O   UNL     1       5.377  -2.583   1.439  1.00  0.00    -0.246 OA
BRANCH   4   6
ATOM      6  C   UNL     1       3.119  -2.179   1.917  1.00  0.00     0.060 A 
ATOM      7  C   UNL     1       1.959  -2.263   2.698  1.00  0.00     0.016 A 
ATOM      8  C   UNL     1       2.951  -1.810   0.584  1.00  0.00     0.016 A 
ATOM      9  C   UNL     1       0.696  -1.886   2.197  1.00  0.00     0.010 A 
ATOM     10  C   UNL     1       1.709  -1.404   0.103  1.00  0.00     0.010 A 
ATOM     11  C   UNL     1       0.554  -1.422   0.892  1.00  0.00    -0.014 A 
BRANCH  11  12
ATOM     12  C   UNL     1      -0.769  -1.067   0.292  1.00  0.00     0.031 A 
ATOM     13  C   UNL     1      -1.156  -1.700  -1.027  1.00  0.00     0.074 A 
ATOM     14  C   UNL     1      -1.585  -0.130   0.825  1.00  0.00     0.049 A 
ATOM     15  N   UNL     1      -2.167  -1.435  -1.816  1.00  0.00    -0.248 NA
ATOM     16  C   UNL     1      -0.221  -2.693  -1.582  1.00  0.00     0.031 C 
ATOM     17  C   UNL     1      -1.312   0.687   2.011  1.00  0.00     0.029 A 
ATOM     18  N   UNL     1      -2.826   0.306   0.416  1.00  0.00    -0.354 N 
ATOM     19  C   UNL     1      -1.926  -2.177  -2.966  1.00  0.00     0.074 A 
ATOM     20  C   UNL     1      -0.601  -2.731  -2.846  1.00  0.00     0.031 C 
ATOM     21  C   UNL     1      -2.367   1.488   2.254  1.00  0.00     0.029 A 
ATOM     22  C   UNL     1      -3.396   1.245   1.246  1.00  0.00     0.049 A 
ATOM     23  H   UNL     1      -3.267  -0.025  -0.399  1.00  0.00     0.167 HD
ATOM     24  C   UNL     1      -2.767  -2.500  -3.976  1.00  0.00     0.037 A 
ATOM     25  C   UNL     1      -4.621   1.809   1.211  1.00  0.00     0.037 A 
ATOM     26  C   UNL     1      -4.138  -2.090  -4.017  1.00  0.00     0.049 A 
ATOM     27  C   UNL     1      -5.592   1.382   0.134  1.00  0.00     0.074 A 
ATOM     28  C   UNL     1      -5.128  -2.461  -4.906  1.00  0.00     0.029 A 
ATOM     29  N   UNL     1      -4.718  -1.237  -3.092  1.00  0.00    -0.354 N 
ATOM     30  N   UNL     1      -5.407   0.557  -0.869  1.00  0.00    -0.248 NA
ATOM     31  C   UNL     1      -6.954   1.937   0.203  1.00  0.00     0.031 C 
ATOM     32  C   UNL     1      -6.311  -1.819  -4.523  1.00  0.00     0.029 A 
ATOM     33  C   UNL     1      -6.058  -1.075  -3.380  1.00  0.00     0.049 A 
ATOM     34  H   UNL     1      -4.245  -0.811  -2.341  1.00  0.00     0.167 HD
ATOM     35  C   UNL     1      -6.635   0.455  -1.514  1.00  0.00     0.074 A 
ATOM     36  C   UNL     1      -7.560   1.298  -0.788  1.00  0.00     0.031 C 
ATOM     37  C   UNL     1      -6.970  -0.270  -2.610  1.00  0.00     0.037 A 
BRANCH  24  38
ATOM     38  C   UNL     1      -2.230  -3.418  -5.038  1.00  0.00     0.057 A 
ATOM     39  C   UNL     1      -1.857  -4.740  -4.744  1.00  0.00     0.134 A 
ATOM     40  C   UNL     1      -2.020  -2.965  -6.343  1.00  0.00     0.134 A 
ATOM     41  F   UNL     1      -2.022  -5.235  -3.507  1.00  0.00    -0.206 F 
ATOM     42  C   UNL     1      -1.220  -5.548  -5.685  1.00  0.00     0.040 A 
ATOM     43  C   UNL     1      -1.422  -3.781  -7.307  1.00  0.00     0.040 A 
ATOM     44  F   UNL     1      -2.372  -1.721  -6.701  1.00  0.00    -0.206 F 
ATOM     45  C   UNL     1      -1.000  -5.067  -6.973  1.00  0.00     0.006 A 
ENDBRANCH  24  38
BRANCH  25  46
ATOM     46  C   UNL     1      -5.062   2.762   2.268  1.00  0.00     0.057 A 
ATOM     47  C   UNL     1      -6.030   2.389   3.212  1.00  0.00     0.134 A 
ATOM     48  C   UNL     1      -4.590   4.078   2.325  1.00  0.00     0.134 A 
ATOM     49  F   UNL     1      -6.536   1.147   3.201  1.00  0.00    -0.206 F 
ATOM     50  C   UNL     1      -6.544   3.297   4.141  1.00  0.00     0.040 A 
ATOM     51  C   UNL     1      -5.080   4.992   3.264  1.00  0.00     0.040 A 
ATOM     52  F   UNL     1      -3.654   4.500   1.463  1.00  0.00    -0.206 F 
ATOM     53  C   UNL     1      -6.070   4.605   4.167  1.00  0.00     0.006 A 
ENDBRANCH  25  46
BRANCH  37  54
ATOM     54  C   UNL     1      -8.401  -0.250  -3.054  1.00  0.00     0.057 A 
ATOM     55  C   UNL     1      -8.963   0.863  -3.689  1.00  0.00     0.134 A 
ATOM     56  C   UNL     1      -9.196  -1.397  -2.927  1.00  0.00     0.134 A 
ATOM     57  F   UNL     1      -8.255   1.994  -3.831  1.00  0.00    -0.206 F 
ATOM     58  C   UNL     1     -10.270   0.838  -4.175  1.00  0.00     0.040 A 
ATOM     59  C   UNL     1     -10.494  -1.444  -3.434  1.00  0.00     0.040 A 
ATOM     60  F   UNL     1      -8.710  -2.501  -2.338  1.00  0.00    -0.206 F 
ATOM     61  C   UNL     1     -11.035  -0.322  -4.059  1.00  0.00     0.006 A 
ENDBRANCH  37  54
ENDBRANCH  11  12
ENDBRANCH   4   6
ENDBRANCH   3   4
ENDBRANCH   2   3
ENDBRANCH   1   2
BRANCH   1  62
ATOM     62  O   UNL     1       3.241   0.065   3.924  1.00  0.00    -0.457 OA
BRANCH  62  63
ATOM     63  C   UNL     1       4.020   0.835   3.090  1.00  0.00     0.370 C 
ATOM     64  O   UNL     1       5.238   0.952   3.229  1.00  0.00    -0.245 OA
BRANCH  63  65
ATOM     65  C   UNL     1       3.136   1.571   2.035  1.00  0.00     0.328 C 
BRANCH  65  66
ATOM     66  N   UNL     1       3.125   3.009   2.366  1.00  0.00    -0.310 N 
ATOM     67  C   UNL     1       4.346   3.737   1.982  1.00  0.00     0.325 C 
ATOM     68  C   UNL     1       1.859   3.685   2.088  1.00  0.00     0.325 C 
ATOM     69  H   UNL     1       3.169   3.035   3.385  1.00  0.00     0.349 HD
ATOM     70  C   UNL     1       4.209   4.677   0.765  1.00  0.00     0.325 C 
ATOM     71  C   UNL     1       1.827   4.843   1.066  1.00  0.00     0.325 C 
ATOM     72  N   UNL     1       3.063   5.582   0.846  1.00  0.00    -0.318 N 
ATOM     73  H   UNL     1       2.960   6.006  -0.076  1.00  0.00     0.348 HD
BRANCH  72  74
ATOM     74  C   UNL     1       3.260   6.813   1.622  1.00  0.00     0.364 C 
BRANCH  74  75
ATOM     75  C   UNL     1       4.119   6.708   2.889  1.00  0.00     0.277 C 
ATOM     76  O   UNL     1       5.346   6.841   2.800  1.00  0.00    -0.268 OA
ATOM     77  N   UNL     1       3.516   6.495   4.115  1.00  0.00    -0.333 N 
ATOM     78  C   UNL     1       2.121   6.146   4.360  1.00  0.00     0.148 C 
ATOM     79  C   UNL     1       4.336   6.451   5.327  1.00  0.00     0.148 C 
ATOM     80  C   UNL     1       1.526   6.946   5.518  1.00  0.00     0.181 C 
ATOM     81  C   UNL     1       3.683   7.301   6.419  1.00  0.00     0.181 C 
ATOM     82  O   UNL     1       2.344   6.849   6.692  1.00  0.00    -0.378 OA
ENDBRANCH  74  75
ENDBRANCH  72  74
ENDBRANCH  65  66
BRANCH  65  83
ATOM     83  C   UNL     1       3.526   1.361   0.583  1.00  0.00     0.046 A 
ATOM     84  C   UNL     1       4.776   1.016   0.091  1.00  0.00     0.094 A 
ATOM     85  C   UNL     1       2.661   1.465  -0.573  1.00  0.00     0.009 A 
ATOM     86  N   UNL     1       4.708   0.917  -1.270  1.00  0.00    -0.361 N 
ATOM     87  C   UNL     1       3.422   1.135  -1.698  1.00  0.00     0.049 A 
ATOM     88  C   UNL     1       1.283   1.728  -0.766  1.00  0.00     0.014 A 
ATOM     89  H   UNL     1       5.472   0.719  -1.859  1.00  0.00     0.166 HD
ATOM     90  C   UNL     1       2.871   1.036  -2.983  1.00  0.00     0.065 A 
ATOM     91  C   UNL     1       0.713   1.619  -2.039  1.00  0.00     0.040 A 
ATOM     92  C   UNL     1       1.504   1.272  -3.120  1.00  0.00     0.125 A 
ATOM     93  F   UNL     1       0.939   1.132  -4.327  1.00  0.00    -0.207 F 
ENDBRANCH  65  83
ENDBRANCH  63  65
ENDBRANCH  62  63
ENDBRANCH   1  62
TORSDOF 15
