REMARK SMILES C[C@@H](C(=O)OCCOC(=O)c1ccc(-c2c3nc(c(-c4c(F)cccc4F)c4ccc([nH]4)c(-c4c(F)cccc4F)c4nc(c(-c5c(F)cccc5F)c5ccc2[nH]5)C=C4)C=C3)cc1)c1ccc(Cc2ccoc2)cc1F
REMARK SMILES IDX 6 1 5 2 3 3 4 4 2 5 1 6 65 7 66 8 76 9 67 10 75 11 77 12
REMARK SMILES IDX 68 13 69 14 70 15 71 16 74 17 72 18 73 19 7 20 8 21 9 22
REMARK SMILES IDX 10 23 11 24 12 25 64 26 13 27 63 28 14 29 15 30 16 31 57 32
REMARK SMILES IDX 17 33 62 34 56 35 58 36 18 37 61 38 55 39 54 40 19 42 45 43
REMARK SMILES IDX 28 44 44 45 29 46 32 47 43 48 59 49 30 50 31 51 42 53 60 54
REMARK SMILES IDX 33 55 20 56 21 57 26 58 22 59 23 60 25 61 27 62 24 63 46 64
REMARK SMILES IDX 47 65 52 66 48 67 49 68 51 69 53 70 50 71 34 72 35 73 40 74
REMARK SMILES IDX 36 75 37 76 39 77 41 78 38 79
REMARK H PARENT 58 41 32 52
REMARK Flexibility Score: inf
ROOT
ATOM      1  C   UNL     1       2.558   3.837  -0.595  1.00  0.00     0.274 C 
ENDROOT
BRANCH   1   2
ATOM      2  O   UNL     1       2.143   2.583  -0.012  1.00  0.00    -0.462 OA
BRANCH   2   3
ATOM      3  C   UNL     1       0.923   2.581   0.600  1.00  0.00     0.313 C 
ATOM      4  O   UNL     1       0.213   3.579   0.643  1.00  0.00    -0.252 OA
BRANCH   3   5
ATOM      5  C   UNL     1       0.611   1.230   1.304  1.00  0.00     0.129 C 
ATOM      6  C   UNL     1       1.204   0.073   0.482  1.00  0.00     0.025 C 
BRANCH   5   7
ATOM      7  C   UNL     1      -0.883   1.067   1.652  1.00  0.00     0.002 A 
ATOM      8  C   UNL     1      -1.581   2.135   2.239  1.00  0.00     0.008 A 
ATOM      9  C   UNL     1      -1.641  -0.081   1.389  1.00  0.00     0.127 A 
ATOM     10  C   UNL     1      -2.979   2.130   2.360  1.00  0.00     0.004 A 
ATOM     11  C   UNL     1      -3.034  -0.112   1.558  1.00  0.00     0.043 A 
ATOM     12  F   UNL     1      -1.073  -1.189   0.895  1.00  0.00    -0.207 F 
ATOM     13  C   UNL     1      -3.742   1.018   1.996  1.00  0.00    -0.041 A 
BRANCH  13  14
ATOM     14  C   UNL     1      -5.250   1.048   1.825  1.00  0.00     0.074 C 
BRANCH  14  15
ATOM     15  C   UNL     1      -5.944   1.622   3.014  1.00  0.00    -0.005 A 
ATOM     16  C   UNL     1      -5.968   2.969   3.483  1.00  0.00     0.046 A 
ATOM     17  C   UNL     1      -6.866   0.964   3.807  1.00  0.00     0.198 A 
ATOM     18  C   UNL     1      -6.845   3.013   4.538  1.00  0.00     0.195 A 
ATOM     19  O   UNL     1      -7.398   1.794   4.739  1.00  0.00    -0.472 OA
ENDBRANCH  14  15
ENDBRANCH  13  14
ENDBRANCH   5   7
ENDBRANCH   3   5
ENDBRANCH   2   3
ENDBRANCH   1   2
BRANCH   1  20
ATOM     20  C   UNL     1       2.188   3.963  -2.078  1.00  0.00     0.275 C 
BRANCH  20  21
ATOM     21  O   UNL     1       0.765   4.078  -2.276  1.00  0.00    -0.458 OA
BRANCH  21  22
ATOM     22  C   UNL     1       0.134   2.921  -2.573  1.00  0.00     0.338 C 
ATOM     23  O   UNL     1       0.657   1.829  -2.762  1.00  0.00    -0.246 OA
BRANCH  22  24
ATOM     24  C   UNL     1      -1.327   3.085  -2.456  1.00  0.00     0.060 A 
ATOM     25  C   UNL     1      -1.994   2.169  -1.643  1.00  0.00     0.016 A 
ATOM     26  C   UNL     1      -2.048   4.064  -3.145  1.00  0.00     0.016 A 
ATOM     27  C   UNL     1      -3.372   2.246  -1.482  1.00  0.00     0.010 A 
ATOM     28  C   UNL     1      -3.445   4.124  -3.002  1.00  0.00     0.010 A 
ATOM     29  C   UNL     1      -4.113   3.218  -2.161  1.00  0.00    -0.014 A 
BRANCH  29  30
ATOM     30  C   UNL     1      -5.589   3.199  -2.019  1.00  0.00     0.031 A 
ATOM     31  C   UNL     1      -6.402   2.279  -2.882  1.00  0.00     0.074 A 
ATOM     32  C   UNL     1      -6.191   3.908  -1.046  1.00  0.00     0.049 A 
ATOM     33  N   UNL     1      -7.694   2.074  -2.886  1.00  0.00    -0.248 NA
ATOM     34  C   UNL     1      -5.657   1.469  -3.857  1.00  0.00     0.031 C 
ATOM     35  C   UNL     1      -5.505   4.759  -0.076  1.00  0.00     0.029 A 
ATOM     36  N   UNL     1      -7.516   3.995  -0.693  1.00  0.00    -0.354 N 
ATOM     37  C   UNL     1      -7.922   1.127  -3.875  1.00  0.00     0.074 A 
ATOM     38  C   UNL     1      -6.632   0.784  -4.437  1.00  0.00     0.031 C 
ATOM     39  C   UNL     1      -6.413   5.268   0.774  1.00  0.00     0.029 A 
ATOM     40  C   UNL     1      -7.746   4.800   0.397  1.00  0.00     0.049 A 
ATOM     41  H   UNL     1      -8.233   3.525  -1.176  1.00  0.00     0.167 HD
ATOM     42  C   UNL     1      -9.100   0.607  -4.293  1.00  0.00     0.037 A 
ATOM     43  C   UNL     1      -8.901   5.123   1.014  1.00  0.00     0.037 A 
ATOM     44  C   UNL     1     -10.387   0.960  -3.755  1.00  0.00     0.049 A 
ATOM     45  C   UNL     1     -10.203   4.589   0.474  1.00  0.00     0.074 A 
ATOM     46  C   UNL     1     -11.638   0.520  -4.155  1.00  0.00     0.029 A 
ATOM     47  N   UNL     1     -10.591   1.843  -2.707  1.00  0.00    -0.354 N 
ATOM     48  N   UNL     1     -10.411   3.721  -0.486  1.00  0.00    -0.248 NA
ATOM     49  C   UNL     1     -11.437   5.104   1.090  1.00  0.00     0.031 C 
ATOM     50  C   UNL     1     -12.601   1.173  -3.378  1.00  0.00     0.029 A 
ATOM     51  C   UNL     1     -11.947   1.982  -2.464  1.00  0.00     0.049 A 
ATOM     52  H   UNL     1      -9.877   2.303  -2.209  1.00  0.00     0.167 HD
ATOM     53  C   UNL     1     -11.791   3.581  -0.581  1.00  0.00     0.074 A 
ATOM     54  C   UNL     1     -12.372   4.428   0.438  1.00  0.00     0.031 C 
ATOM     55  C   UNL     1     -12.514   2.827  -1.445  1.00  0.00     0.037 A 
BRANCH  42  56
ATOM     56  C   UNL     1      -9.052  -0.347  -5.446  1.00  0.00     0.057 A 
ATOM     57  C   UNL     1      -8.627  -1.672  -5.298  1.00  0.00     0.134 A 
ATOM     58  C   UNL     1      -9.453   0.069  -6.722  1.00  0.00     0.134 A 
ATOM     59  F   UNL     1      -8.212  -2.124  -4.105  1.00  0.00    -0.206 F 
ATOM     60  C   UNL     1      -8.587  -2.547  -6.385  1.00  0.00     0.040 A 
ATOM     61  C   UNL     1      -9.437  -0.801  -7.811  1.00  0.00     0.040 A 
ATOM     62  F   UNL     1      -9.870   1.328  -6.927  1.00  0.00    -0.206 F 
ATOM     63  C   UNL     1      -8.998  -2.113  -7.645  1.00  0.00     0.006 A 
ENDBRANCH  42  56
BRANCH  43  64
ATOM     64  C   UNL     1      -8.905   6.019   2.201  1.00  0.00     0.057 A 
ATOM     65  C   UNL     1      -9.336   5.558   3.451  1.00  0.00     0.134 A 
ATOM     66  C   UNL     1      -8.541   7.367   2.107  1.00  0.00     0.134 A 
ATOM     67  F   UNL     1      -9.739   4.288   3.600  1.00  0.00    -0.206 F 
ATOM     68  C   UNL     1      -9.414   6.404   4.560  1.00  0.00     0.040 A 
ATOM     69  C   UNL     1      -8.591   8.219   3.212  1.00  0.00     0.040 A 
ATOM     70  F   UNL     1      -8.135   7.880   0.936  1.00  0.00    -0.206 F 
ATOM     71  C   UNL     1      -9.036   7.739   4.442  1.00  0.00     0.006 A 
ENDBRANCH  43  64
BRANCH  55  72
ATOM     72  C   UNL     1     -14.010   2.876  -1.324  1.00  0.00     0.057 A 
ATOM     73  C   UNL     1     -14.745   3.997  -1.731  1.00  0.00     0.134 A 
ATOM     74  C   UNL     1     -14.727   1.774  -0.842  1.00  0.00     0.134 A 
ATOM     75  F   UNL     1     -14.118   5.090  -2.192  1.00  0.00    -0.206 F 
ATOM     76  C   UNL     1     -16.138   4.027  -1.646  1.00  0.00     0.040 A 
ATOM     77  C   UNL     1     -16.122   1.783  -0.774  1.00  0.00     0.040 A 
ATOM     78  F   UNL     1     -14.086   0.665  -0.444  1.00  0.00    -0.206 F 
ATOM     79  C   UNL     1     -16.831   2.914  -1.174  1.00  0.00     0.006 A 
ENDBRANCH  55  72
ENDBRANCH  29  30
ENDBRANCH  22  24
ENDBRANCH  21  22
ENDBRANCH  20  21
ENDBRANCH   1  20
TORSDOF 14
