REMARK SMILES CCc1cc(S(F)(F)(F)(F)F)cc2c1O[C@@H](C(F)(F)F)C(C(=O)OCCOC(=O)c1ccc(-c3c4nc(c(-c5c(F)cccc5F)c5ccc([nH]5)c(-c5c(F)cccc5F)c5nc(c(-c6c(F)cccc6F)c6ccc3[nH]6)C=C5)C=C4)cc1)=C2
REMARK SMILES IDX 26 1 25 2 24 3 22 4 23 5 21 6 3 7 4 8 14 9 5 10 13 11 15 12
REMARK SMILES IDX 12 13 84 14 16 15 2 16 1 17 6 18 7 19 8 20 9 21 10 22 11 23
REMARK SMILES IDX 17 24 18 25 19 26 20 27 27 28 28 29 29 30 30 31 31 32 83 33
REMARK SMILES IDX 32 34 82 35 33 36 34 37 35 38 76 39 36 40 81 41 75 42 77 43
REMARK SMILES IDX 37 44 80 45 74 46 73 47 38 49 64 50 47 51 63 52 48 53 51 54
REMARK SMILES IDX 62 55 78 56 49 57 50 58 61 60 79 61 52 62 39 63 40 64 45 65
REMARK SMILES IDX 41 66 42 67 44 68 46 69 43 70 65 71 66 72 71 73 67 74 68 75
REMARK SMILES IDX 70 76 72 77 69 78 53 79 54 80 59 81 55 82 56 83 58 84 60 85
REMARK SMILES IDX 57 86
REMARK H PARENT 77 48 51 59
REMARK Flexibility Score: inf
ROOT
ATOM      1  C   UNL     1       8.206  -4.088   3.647  1.00  0.00     0.275 C 
ENDROOT
BRANCH   1   2
ATOM      2  C   UNL     1       6.884  -4.450   4.304  1.00  0.00     0.275 C 
BRANCH   2   3
ATOM      3  O   UNL     1       5.834  -4.319   3.356  1.00  0.00    -0.459 OA
BRANCH   3   4
ATOM      4  C   UNL     1       5.582  -3.063   2.744  1.00  0.00     0.338 C 
ATOM      5  O   UNL     1       6.295  -2.055   3.045  1.00  0.00    -0.246 OA
BRANCH   4   6
ATOM      6  C   UNL     1       4.458  -2.924   1.730  1.00  0.00     0.087 C 
ATOM      7  C   UNL     1       1.091  -2.347  -0.674  1.00  0.00    -0.004 A 
ATOM      8  C   UNL     1       0.410  -3.439  -1.181  1.00  0.00     0.032 A 
ATOM      9  C   UNL     1       2.163  -2.566   0.157  1.00  0.00     0.131 A 
ATOM     10  C   UNL     1       0.788  -4.716  -0.860  1.00  0.00     0.108 A 
ATOM     11  C   UNL     1       2.585  -3.841   0.488  1.00  0.00     0.019 A 
ATOM     12  O   UNL     1       2.758  -1.474   0.741  1.00  0.00    -0.475 OA
ATOM     13  C   UNL     1       1.875  -4.916  -0.035  1.00  0.00     0.036 A 
ATOM     14  C   UNL     1       3.704  -3.967   1.406  1.00  0.00     0.027 C 
ATOM     15  C   UNL     1       4.173  -1.584   1.064  1.00  0.00     0.316 C 
BRANCH   7  16
ATOM     16  C   UNL     1       0.585  -0.957  -1.024  1.00  0.00     0.036 C 
ATOM     17  C   UNL     1       1.091   0.041   0.005  1.00  0.00     0.009 C 
ENDBRANCH   7  16
BRANCH  10  18
ATOM     18  S   UNL     1      -0.132  -6.131  -1.514  1.00  0.00     0.310 S 
ATOM     19  F   UNL     1      -1.128  -6.231  -0.284  1.00  0.00    -0.094 F 
ATOM     20  F   UNL     1       0.869  -7.025  -0.690  1.00  0.00    -0.094 F 
ATOM     21  F   UNL     1      -0.824  -7.394  -2.099  1.00  0.00    -0.094 F 
ATOM     22  F   UNL     1      -1.214  -5.222  -2.221  1.00  0.00    -0.094 F 
ATOM     23  F   UNL     1       0.488  -4.843  -0.840  1.00  0.00    -0.094 F 
ENDBRANCH  10  18
BRANCH  15  24
ATOM     24  C   UNL     1       4.552  -0.464   2.020  1.00  0.00     0.430 C 
ATOM     25  F   UNL     1       5.845  -0.554   2.318  1.00  0.00    -0.167 F 
ATOM     26  F   UNL     1       4.310   0.710   1.445  1.00  0.00    -0.167 F 
ATOM     27  F   UNL     1       3.832  -0.570   3.133  1.00  0.00    -0.167 F 
ENDBRANCH  15  24
ENDBRANCH   4   6
ENDBRANCH   3   4
ENDBRANCH   2   3
ENDBRANCH   1   2
BRANCH   1  28
ATOM     28  O   UNL     1       8.153  -2.748   3.182  1.00  0.00    -0.458 OA
BRANCH  28  29
ATOM     29  C   UNL     1       7.178  -2.369   2.221  1.00  0.00     0.338 C 
ATOM     30  O   UNL     1       6.354  -3.229   1.778  1.00  0.00    -0.246 OA
BRANCH  29  31
ATOM     31  C   UNL     1       7.121  -0.934   1.722  1.00  0.00     0.060 A 
ATOM     32  C   UNL     1       5.881  -0.323   1.640  1.00  0.00     0.016 A 
ATOM     33  C   UNL     1       8.231  -0.289   1.383  1.00  0.00     0.016 A 
ATOM     34  C   UNL     1       5.886   0.888   0.908  1.00  0.00     0.010 A 
ATOM     35  C   UNL     1       8.167   0.952   0.795  1.00  0.00     0.010 A 
ATOM     36  C   UNL     1       6.969   1.590   0.629  1.00  0.00    -0.014 A 
BRANCH  36  37
ATOM     37  C   UNL     1       6.889   3.030   0.148  1.00  0.00     0.031 A 
ATOM     38  C   UNL     1       7.425   3.347  -1.102  1.00  0.00     0.074 A 
ATOM     39  C   UNL     1       6.332   3.959   1.010  1.00  0.00     0.049 A 
ATOM     40  N   UNL     1       7.468   4.544  -1.688  1.00  0.00    -0.248 NA
ATOM     41  C   UNL     1       8.047   2.367  -2.004  1.00  0.00     0.031 C 
ATOM     42  C   UNL     1       5.782   3.646   2.268  1.00  0.00     0.029 A 
ATOM     43  N   UNL     1       6.209   5.318   0.822  1.00  0.00    -0.354 N 
ATOM     44  C   UNL     1       8.041   4.448  -2.890  1.00  0.00     0.074 A 
ATOM     45  C   UNL     1       8.427   3.047  -3.108  1.00  0.00     0.031 C 
ATOM     46  C   UNL     1       5.344   4.800   2.836  1.00  0.00     0.029 A 
ATOM     47  C   UNL     1       5.612   5.854   1.942  1.00  0.00     0.049 A 
ATOM     48  H   UNL     1       6.497   5.819   0.026  1.00  0.00     0.167 HD
ATOM     49  C   UNL     1       8.253   5.473  -3.813  1.00  0.00     0.037 A 
ATOM     50  C   UNL     1       5.313   7.184   2.189  1.00  0.00     0.037 A 
ATOM     51  C   UNL     1       7.914   6.797  -3.584  1.00  0.00     0.049 A 
ATOM     52  C   UNL     1       5.579   8.219   1.289  1.00  0.00     0.074 A 
ATOM     53  C   UNL     1       8.115   7.841  -4.507  1.00  0.00     0.029 A 
ATOM     54  N   UNL     1       7.340   7.337  -2.454  1.00  0.00    -0.354 N 
ATOM     55  N   UNL     1       6.115   8.117   0.072  1.00  0.00    -0.248 NA
ATOM     56  C   UNL     1       5.296   9.636   1.554  1.00  0.00     0.031 C 
ATOM     57  C   UNL     1       7.677   8.996  -3.939  1.00  0.00     0.029 A 
ATOM     58  C   UNL     1       7.196   8.692  -2.651  1.00  0.00     0.049 A 
ATOM     59  H   UNL     1       7.078   6.840  -1.646  1.00  0.00     0.167 HD
ATOM     60  C   UNL     1       6.196   9.321  -0.497  1.00  0.00     0.074 A 
ATOM     61  C   UNL     1       5.677  10.317   0.451  1.00  0.00     0.031 C 
ATOM     62  C   UNL     1       6.678   9.630  -1.770  1.00  0.00     0.037 A 
BRANCH  49  63
ATOM     63  C   UNL     1       8.893   5.117  -5.145  1.00  0.00     0.057 A 
ATOM     64  C   UNL     1       8.221   4.251  -5.992  1.00  0.00     0.134 A 
ATOM     65  C   UNL     1      10.045   5.674  -5.503  1.00  0.00     0.134 A 
ATOM     66  F   UNL     1       6.962   3.872  -5.792  1.00  0.00    -0.206 F 
ATOM     67  C   UNL     1       8.995   3.807  -7.090  1.00  0.00     0.040 A 
ATOM     68  C   UNL     1      10.679   5.289  -6.659  1.00  0.00     0.040 A 
ATOM     69  F   UNL     1      10.588   6.614  -4.734  1.00  0.00    -0.206 F 
ATOM     70  C   UNL     1      10.100   4.393  -7.514  1.00  0.00     0.006 A 
ENDBRANCH  49  63
BRANCH  50  71
ATOM     71  C   UNL     1       4.658   7.537   3.514  1.00  0.00     0.057 A 
ATOM     72  C   UNL     1       3.440   8.198   3.506  1.00  0.00     0.134 A 
ATOM     73  C   UNL     1       5.284   7.261   4.652  1.00  0.00     0.134 A 
ATOM     74  F   UNL     1       2.663   8.272   2.430  1.00  0.00    -0.206 F 
ATOM     75  C   UNL     1       3.099   8.786   4.747  1.00  0.00     0.040 A 
ATOM     76  C   UNL     1       4.817   7.756   5.846  1.00  0.00     0.040 A 
ATOM     77  F   UNL     1       6.372   6.496   4.637  1.00  0.00    -0.206 F 
ATOM     78  C   UNL     1       3.651   8.468   5.904  1.00  0.00     0.006 A 
ENDBRANCH  50  71
BRANCH  62  79
ATOM     79  C   UNL     1       6.634  11.081  -2.218  1.00  0.00     0.057 A 
ATOM     80  C   UNL     1       7.333  12.020  -1.478  1.00  0.00     0.134 A 
ATOM     81  C   UNL     1       5.941  11.431  -3.296  1.00  0.00     0.134 A 
ATOM     82  F   UNL     1       8.233  11.692  -0.555  1.00  0.00    -0.206 F 
ATOM     83  C   UNL     1       7.003  13.360  -1.791  1.00  0.00     0.040 A 
ATOM     84  C   UNL     1       5.773  12.756  -3.620  1.00  0.00     0.040 A 
ATOM     85  F   UNL     1       5.407  10.491  -4.070  1.00  0.00    -0.206 F 
ATOM     86  C   UNL     1       6.387  13.740  -2.896  1.00  0.00     0.006 A 
ENDBRANCH  62  79
ENDBRANCH  36  37
ENDBRANCH  29  31
ENDBRANCH  28  29
ENDBRANCH   1  28
TORSDOF 14
