REMARK SMILES CN(C)c1cccc(C(=O)CCCC(=O)OCCOC(=O)c2ccc(-c3c4nc(c(-c5c(F)cccc5F)c5ccc([nH]5)c(-c5c(F)cccc5F)c5nc(c(-c6c(F)cccc6F)c6ccc3[nH]6)C=C5)C=C4)cc2)c1
REMARK SMILES IDX 16 1 14 2 15 3 13 4 12 5 11 6 9 7 10 8 8 9 4 10 5 11 76 12
REMARK SMILES IDX 6 13 7 14 2 15 1 16 3 17 17 18 18 19 19 20 20 21 21 22 22 23
REMARK SMILES IDX 23 24 75 25 24 26 74 27 25 28 26 29 27 30 68 31 28 32 73 33
REMARK SMILES IDX 67 34 69 35 29 36 72 37 66 38 65 39 30 41 56 42 39 43 55 44
REMARK SMILES IDX 40 45 43 46 54 47 70 48 41 49 42 50 53 52 71 53 44 54 31 55
REMARK SMILES IDX 32 56 37 57 33 58 34 59 36 60 38 61 35 62 57 63 58 64 63 65
REMARK SMILES IDX 59 66 60 67 62 68 64 69 61 70 45 71 46 72 51 73 47 74 48 75
REMARK SMILES IDX 50 76 52 77 49 78
REMARK H PARENT 69 40 43 51
REMARK Flexibility Score: inf
ROOT
ATOM      1  O   UNL     1       4.334   1.155  -0.688  1.00  0.00    -0.462 OA
ENDROOT
BRANCH   1   2
ATOM      2  C   UNL     1       3.497   0.901   0.347  1.00  0.00     0.305 C 
ATOM      3  O   UNL     1       2.661   0.005   0.354  1.00  0.00    -0.252 OA
BRANCH   2   4
ATOM      4  C   UNL     1       3.643   1.869   1.507  1.00  0.00     0.123 C 
BRANCH   4   5
ATOM      5  C   UNL     1       4.736   2.928   1.407  1.00  0.00     0.020 C 
BRANCH   5   6
ATOM      6  C   UNL     1       4.601   3.949   0.274  1.00  0.00     0.081 C 
BRANCH   6   7
ATOM      7  C   UNL     1       3.529   5.002   0.495  1.00  0.00     0.162 C 
ATOM      8  O   UNL     1       3.824   6.083   1.006  1.00  0.00    -0.294 OA
BRANCH   7   9
ATOM      9  C   UNL     1       2.102   4.737   0.125  1.00  0.00     0.020 A 
ATOM     10  C   UNL     1       0.326   3.270  -0.710  1.00  0.00     0.037 A 
ATOM     11  C   UNL     1      -0.616   4.230  -0.335  1.00  0.00     0.026 A 
ATOM     12  C   UNL     1       1.682   3.567  -0.516  1.00  0.00     0.037 A 
ATOM     13  C   UNL     1      -0.213   5.440   0.237  1.00  0.00     0.003 A 
ATOM     14  C   UNL     1       1.139   5.686   0.479  1.00  0.00     0.012 A 
BRANCH  10  15
ATOM     15  N   UNL     1      -0.026   2.033  -1.223  1.00  0.00    -0.378 N 
ATOM     16  C   UNL     1      -0.108   0.907  -0.299  1.00  0.00     0.143 C 
ATOM     17  C   UNL     1      -0.800   1.965  -2.448  1.00  0.00     0.143 C 
ENDBRANCH  10  15
ENDBRANCH   7   9
ENDBRANCH   6   7
ENDBRANCH   5   6
ENDBRANCH   4   5
ENDBRANCH   2   4
ENDBRANCH   1   2
BRANCH   1  18
ATOM     18  C   UNL     1       4.095   0.427  -1.910  1.00  0.00     0.274 C 
BRANCH  18  19
ATOM     19  C   UNL     1       5.018  -0.784  -2.059  1.00  0.00     0.275 C 
BRANCH  19  20
ATOM     20  O   UNL     1       4.674  -1.820  -1.123  1.00  0.00    -0.458 OA
BRANCH  20  21
ATOM     21  C   UNL     1       5.278  -1.712   0.080  1.00  0.00     0.338 C 
ATOM     22  O   UNL     1       6.165  -0.926   0.395  1.00  0.00    -0.246 OA
BRANCH  21  23
ATOM     23  C   UNL     1       4.569  -2.538   1.066  1.00  0.00     0.060 A 
ATOM     24  C   UNL     1       4.107  -1.888   2.214  1.00  0.00     0.016 A 
ATOM     25  C   UNL     1       4.405  -3.915   0.913  1.00  0.00     0.016 A 
ATOM     26  C   UNL     1       3.472  -2.595   3.218  1.00  0.00     0.010 A 
ATOM     27  C   UNL     1       3.811  -4.643   1.949  1.00  0.00     0.010 A 
ATOM     28  C   UNL     1       3.369  -3.983   3.111  1.00  0.00    -0.014 A 
BRANCH  28  29
ATOM     29  C   UNL     1       3.029  -4.724   4.340  1.00  0.00     0.031 A 
ATOM     30  C   UNL     1       4.161  -5.227   5.188  1.00  0.00     0.074 A 
ATOM     31  C   UNL     1       1.756  -4.811   4.758  1.00  0.00     0.049 A 
ATOM     32  N   UNL     1       4.127  -5.908   6.302  1.00  0.00    -0.248 NA
ATOM     33  C   UNL     1       5.520  -4.902   4.720  1.00  0.00     0.031 C 
ATOM     34  C   UNL     1       0.598  -4.245   4.066  1.00  0.00     0.029 A 
ATOM     35  N   UNL     1       1.230  -5.390   5.881  1.00  0.00    -0.354 N 
ATOM     36  C   UNL     1       5.455  -6.111   6.654  1.00  0.00     0.074 A 
ATOM     37  C   UNL     1       6.271  -5.492   5.635  1.00  0.00     0.031 C 
ATOM     38  C   UNL     1      -0.508  -4.509   4.782  1.00  0.00     0.029 A 
ATOM     39  C   UNL     1      -0.137  -5.295   5.957  1.00  0.00     0.049 A 
ATOM     40  H   UNL     1       1.779  -5.832   6.569  1.00  0.00     0.167 HD
ATOM     41  C   UNL     1       5.946  -6.760   7.735  1.00  0.00     0.037 A 
ATOM     42  C   UNL     1      -0.986  -5.811   6.865  1.00  0.00     0.037 A 
ATOM     43  C   UNL     1       5.119  -7.362   8.745  1.00  0.00     0.049 A 
ATOM     44  C   UNL     1      -0.418  -6.600   8.015  1.00  0.00     0.074 A 
ATOM     45  C   UNL     1       5.501  -8.080   9.862  1.00  0.00     0.029 A 
ATOM     46  N   UNL     1       3.732  -7.306   8.755  1.00  0.00    -0.354 N 
ATOM     47  N   UNL     1       0.836  -6.845   8.314  1.00  0.00    -0.248 NA
ATOM     48  C   UNL     1      -1.384  -7.190   8.951  1.00  0.00     0.031 C 
ATOM     49  C   UNL     1       4.342  -8.491  10.530  1.00  0.00     0.029 A 
ATOM     50  C   UNL     1       3.241  -7.988   9.854  1.00  0.00     0.049 A 
ATOM     51  H   UNL     1       3.180  -6.848   8.081  1.00  0.00     0.167 HD
ATOM     52  C   UNL     1       0.812  -7.597   9.480  1.00  0.00     0.074 A 
ATOM     53  C   UNL     1      -0.582  -7.750   9.845  1.00  0.00     0.031 C 
ATOM     54  C   UNL     1       1.845  -8.120  10.188  1.00  0.00     0.037 A 
BRANCH  41  55
ATOM     55  C   UNL     1       7.436  -6.893   7.832  1.00  0.00     0.057 A 
ATOM     56  C   UNL     1       8.266  -5.806   8.137  1.00  0.00     0.134 A 
ATOM     57  C   UNL     1       8.052  -8.128   7.592  1.00  0.00     0.134 A 
ATOM     58  F   UNL     1       7.742  -4.590   8.349  1.00  0.00    -0.206 F 
ATOM     59  C   UNL     1       9.656  -5.938   8.177  1.00  0.00     0.040 A 
ATOM     60  C   UNL     1       9.438  -8.278   7.653  1.00  0.00     0.040 A 
ATOM     61  F   UNL     1       7.316  -9.208   7.287  1.00  0.00    -0.206 F 
ATOM     62  C   UNL     1      10.245  -7.179   7.939  1.00  0.00     0.006 A 
ENDBRANCH  41  55
BRANCH  42  63
ATOM     63  C   UNL     1      -2.451  -5.635   6.706  1.00  0.00     0.057 A 
ATOM     64  C   UNL     1      -3.199  -4.873   7.610  1.00  0.00     0.134 A 
ATOM     65  C   UNL     1      -3.145  -6.250   5.656  1.00  0.00     0.134 A 
ATOM     66  F   UNL     1      -2.597  -4.279   8.651  1.00  0.00    -0.206 F 
ATOM     67  C   UNL     1      -4.584  -4.742   7.487  1.00  0.00     0.040 A 
ATOM     68  C   UNL     1      -4.525  -6.106   5.505  1.00  0.00     0.040 A 
ATOM     69  F   UNL     1      -2.489  -6.997   4.755  1.00  0.00    -0.206 F 
ATOM     70  C   UNL     1      -5.250  -5.356   6.428  1.00  0.00     0.006 A 
ENDBRANCH  42  63
BRANCH  54  71
ATOM     71  C   UNL     1       1.496  -8.872  11.438  1.00  0.00     0.057 A 
ATOM     72  C   UNL     1       0.902 -10.140  11.395  1.00  0.00     0.134 A 
ATOM     73  C   UNL     1       1.778  -8.328  12.697  1.00  0.00     0.134 A 
ATOM     74  F   UNL     1       0.597 -10.709  10.219  1.00  0.00    -0.206 F 
ATOM     75  C   UNL     1       0.572 -10.827  12.564  1.00  0.00     0.040 A 
ATOM     76  C   UNL     1       1.478  -9.018  13.871  1.00  0.00     0.040 A 
ATOM     77  F   UNL     1       2.357  -7.123  12.805  1.00  0.00    -0.206 F 
ATOM     78  C   UNL     1       0.864 -10.267  13.806  1.00  0.00     0.006 A 
ENDBRANCH  54  71
ENDBRANCH  28  29
ENDBRANCH  21  23
ENDBRANCH  20  21
ENDBRANCH  19  20
ENDBRANCH  18  19
ENDBRANCH   1  18
TORSDOF 16
