REMARK SMILES O=C(OCCOC(=O)[C@H]1CCCN1C(=O)CN1C(=O)[C@@H]2[C@H](C1=O)[C@H]1C=C[C@@H]2C1)c1ccc(-c2c3nc(c(-c4c(F)cccc4F)c4ccc([nH]4)c(-c4c(F)cccc4F)c4nc(c(-c5c(F)cccc5F)c5ccc2[nH]5)C=C4)C=C3)cc1
REMARK SMILES IDX 5 1 4 2 3 3 2 4 1 5 29 6 30 7 82 8 31 9 81 10 32 11 33 12
REMARK SMILES IDX 34 13 75 14 35 15 80 16 74 17 76 18 36 19 79 20 73 21 72 22
REMARK SMILES IDX 37 24 63 25 46 26 62 27 47 28 50 29 61 30 77 31 48 32 49 33
REMARK SMILES IDX 60 35 78 36 51 37 38 38 39 39 44 40 40 41 41 42 43 43 45 44
REMARK SMILES IDX 42 45 64 46 65 47 70 48 66 49 67 50 69 51 71 52 68 53 52 54
REMARK SMILES IDX 53 55 58 56 54 57 55 58 57 59 59 60 56 61 6 62 7 63 8 64
REMARK SMILES IDX 9 65 10 66 13 67 11 68 12 69 14 70 15 71 16 72 17 73 18 74
REMARK SMILES IDX 22 75 20 76 19 77 21 78 23 79 27 80 24 81 26 82 28 83 25 84
REMARK H PARENT 76 23 50 34
REMARK Flexibility Score: inf
ROOT
ATOM      1  C   UNL     1       4.274  -0.387  -4.741  1.00  0.00     0.274 C 
ENDROOT
BRANCH   1   2
ATOM      2  C   UNL     1       4.393   1.147  -4.707  1.00  0.00     0.275 C 
BRANCH   2   3
ATOM      3  O   UNL     1       4.030   1.820  -3.499  1.00  0.00    -0.458 OA
BRANCH   3   4
ATOM      4  C   UNL     1       2.788   2.279  -3.233  1.00  0.00     0.338 C 
ATOM      5  O   UNL     1       2.588   3.256  -2.522  1.00  0.00    -0.246 OA
BRANCH   4   6
ATOM      6  C   UNL     1       1.663   1.392  -3.583  1.00  0.00     0.060 A 
ATOM      7  C   UNL     1       1.332   1.033  -4.894  1.00  0.00     0.016 A 
ATOM      8  C   UNL     1       0.888   0.934  -2.515  1.00  0.00     0.016 A 
ATOM      9  C   UNL     1       0.283   0.146  -5.136  1.00  0.00     0.010 A 
ATOM     10  C   UNL     1      -0.165   0.057  -2.752  1.00  0.00     0.010 A 
ATOM     11  C   UNL     1      -0.474  -0.336  -4.066  1.00  0.00    -0.014 A 
BRANCH  11  12
ATOM     12  C   UNL     1      -1.776  -0.986  -4.299  1.00  0.00     0.031 A 
ATOM     13  C   UNL     1      -2.974  -0.090  -4.221  1.00  0.00     0.074 A 
ATOM     14  C   UNL     1      -1.909  -2.307  -4.510  1.00  0.00     0.049 A 
ATOM     15  N   UNL     1      -4.232  -0.387  -4.380  1.00  0.00    -0.248 NA
ATOM     16  C   UNL     1      -2.712   1.341  -3.970  1.00  0.00     0.031 C 
ATOM     17  C   UNL     1      -0.826  -3.266  -4.697  1.00  0.00     0.029 A 
ATOM     18  N   UNL     1      -3.037  -3.085  -4.525  1.00  0.00    -0.354 N 
ATOM     19  C   UNL     1      -4.892   0.830  -4.357  1.00  0.00     0.074 A 
ATOM     20  C   UNL     1      -3.929   1.851  -4.026  1.00  0.00     0.031 C 
ATOM     21  C   UNL     1      -1.320  -4.515  -4.620  1.00  0.00     0.029 A 
ATOM     22  C   UNL     1      -2.766  -4.432  -4.466  1.00  0.00     0.049 A 
ATOM     23  H   UNL     1      -3.948  -2.717  -4.574  1.00  0.00     0.167 HD
ATOM     24  C   UNL     1      -6.179   1.080  -4.677  1.00  0.00     0.037 A 
ATOM     25  C   UNL     1      -3.607  -5.470  -4.304  1.00  0.00     0.037 A 
ATOM     26  C   UNL     1      -7.136   0.046  -4.929  1.00  0.00     0.049 A 
ATOM     27  C   UNL     1      -5.081  -5.192  -4.387  1.00  0.00     0.074 A 
ATOM     28  C   UNL     1      -8.469   0.152  -5.264  1.00  0.00     0.029 A 
ATOM     29  N   UNL     1      -6.846  -1.309  -4.824  1.00  0.00    -0.354 N 
ATOM     30  N   UNL     1      -5.690  -4.037  -4.517  1.00  0.00    -0.248 NA
ATOM     31  C   UNL     1      -5.979  -6.353  -4.387  1.00  0.00     0.031 C 
ATOM     32  C   UNL     1      -9.000  -1.144  -5.313  1.00  0.00     0.029 A 
ATOM     33  C   UNL     1      -7.987  -2.054  -5.042  1.00  0.00     0.049 A 
ATOM     34  H   UNL     1      -5.958  -1.683  -4.624  1.00  0.00     0.167 HD
ATOM     35  C   UNL     1      -7.031  -4.333  -4.707  1.00  0.00     0.074 A 
ATOM     36  C   UNL     1      -7.151  -5.777  -4.626  1.00  0.00     0.031 C 
ATOM     37  C   UNL     1      -8.061  -3.492  -4.970  1.00  0.00     0.037 A 
BRANCH  24  38
ATOM     38  C   UNL     1      -6.546   2.525  -4.777  1.00  0.00     0.057 A 
ATOM     39  C   UNL     1      -6.078   3.309  -5.845  1.00  0.00     0.134 A 
ATOM     40  C   UNL     1      -7.234   3.171  -3.748  1.00  0.00     0.134 A 
ATOM     41  F   UNL     1      -5.371   2.750  -6.840  1.00  0.00    -0.206 F 
ATOM     42  C   UNL     1      -6.250   4.693  -5.863  1.00  0.00     0.040 A 
ATOM     43  C   UNL     1      -7.426   4.554  -3.765  1.00  0.00     0.040 A 
ATOM     44  F   UNL     1      -7.678   2.480  -2.688  1.00  0.00    -0.206 F 
ATOM     45  C   UNL     1      -6.923   5.319  -4.817  1.00  0.00     0.006 A 
ENDBRANCH  24  38
BRANCH  25  46
ATOM     46  C   UNL     1      -3.083  -6.845  -4.117  1.00  0.00     0.057 A 
ATOM     47  C   UNL     1      -3.098  -7.784  -5.152  1.00  0.00     0.134 A 
ATOM     48  C   UNL     1      -2.563  -7.255  -2.882  1.00  0.00     0.134 A 
ATOM     49  F   UNL     1      -3.594  -7.453  -6.353  1.00  0.00    -0.206 F 
ATOM     50  C   UNL     1      -2.631  -9.087  -4.966  1.00  0.00     0.040 A 
ATOM     51  C   UNL     1      -2.082  -8.553  -2.684  1.00  0.00     0.040 A 
ATOM     52  F   UNL     1      -2.520  -6.402  -1.848  1.00  0.00    -0.206 F 
ATOM     53  C   UNL     1      -2.120  -9.475  -3.728  1.00  0.00     0.006 A 
ENDBRANCH  25  46
BRANCH  37  54
ATOM     54  C   UNL     1      -9.389  -4.117  -5.253  1.00  0.00     0.057 A 
ATOM     55  C   UNL     1     -10.194  -4.631  -4.232  1.00  0.00     0.134 A 
ATOM     56  C   UNL     1      -9.890  -4.141  -6.560  1.00  0.00     0.134 A 
ATOM     57  F   UNL     1      -9.756  -4.649  -2.964  1.00  0.00    -0.206 F 
ATOM     58  C   UNL     1     -11.457  -5.155  -4.504  1.00  0.00     0.040 A 
ATOM     59  C   UNL     1     -11.159  -4.641  -6.841  1.00  0.00     0.040 A 
ATOM     60  F   UNL     1      -9.162  -3.657  -7.578  1.00  0.00    -0.206 F 
ATOM     61  C   UNL     1     -11.946  -5.152  -5.810  1.00  0.00     0.006 A 
ENDBRANCH  37  54
ENDBRANCH  11  12
ENDBRANCH   4   6
ENDBRANCH   3   4
ENDBRANCH   2   3
ENDBRANCH   1   2
BRANCH   1  62
ATOM     62  O   UNL     1       3.574  -1.098  -3.701  1.00  0.00    -0.461 OA
BRANCH  62  63
ATOM     63  C   UNL     1       4.152  -1.125  -2.468  1.00  0.00     0.328 C 
ATOM     64  O   UNL     1       5.070  -0.380  -2.157  1.00  0.00    -0.250 OA
BRANCH  63  65
ATOM     65  C   UNL     1       3.582  -2.211  -1.506  1.00  0.00     0.195 C 
ATOM     66  C   UNL     1       2.080  -2.093  -1.305  1.00  0.00     0.039 C 
ATOM     67  N   UNL     1       3.665  -3.625  -1.918  1.00  0.00    -0.327 N 
ATOM     68  C   UNL     1       1.509  -2.875  -2.481  1.00  0.00     0.024 C 
ATOM     69  C   UNL     1       2.551  -3.936  -2.802  1.00  0.00     0.120 C 
BRANCH  67  70
ATOM     70  C   UNL     1       4.083  -4.622  -1.034  1.00  0.00     0.243 C 
ATOM     71  O   UNL     1       3.421  -5.648  -0.860  1.00  0.00    -0.273 OA
BRANCH  70  72
ATOM     72  C   UNL     1       5.333  -4.373  -0.190  1.00  0.00     0.228 C 
BRANCH  72  73
ATOM     73  N   UNL     1       6.416  -3.991  -1.070  1.00  0.00    -0.273 N 
ATOM     74  C   UNL     1       7.040  -4.889  -1.889  1.00  0.00     0.234 C 
ATOM     75  C   UNL     1       6.950  -2.740  -1.134  1.00  0.00     0.234 C 
ATOM     76  C   UNL     1       8.059  -4.164  -2.719  1.00  0.00     0.099 C 
ATOM     77  O   UNL     1       6.795  -6.081  -1.982  1.00  0.00    -0.274 OA
ATOM     78  C   UNL     1       7.948  -2.688  -2.259  1.00  0.00     0.099 C 
ATOM     79  O   UNL     1       6.683  -1.815  -0.382  1.00  0.00    -0.274 OA
ATOM     80  C   UNL     1       7.649  -4.109  -4.206  1.00  0.00     0.025 C 
ATOM     81  C   UNL     1       7.454  -1.981  -3.539  1.00  0.00     0.025 C 
ATOM     82  C   UNL     1       8.700  -3.309  -4.943  1.00  0.00    -0.027 C 
ATOM     83  C   UNL     1       6.554  -3.039  -4.196  1.00  0.00     0.017 C 
ATOM     84  C   UNL     1       8.581  -2.032  -4.546  1.00  0.00    -0.027 C 
ENDBRANCH  72  73
ENDBRANCH  70  72
ENDBRANCH  67  70
ENDBRANCH  63  65
ENDBRANCH  62  63
ENDBRANCH   1  62
TORSDOF 14
