REMARK SMILES C[C@@H](C(=O)OCCOC(=O)c1ccc(-c2c3nc(c(-c4c(F)cccc4F)c4ccc([nH]4)c(-c4c(F)cccc4F)c4nc(c(-c5c(F)cccc5F)c5ccc2[nH]5)C=C4)C=C3)cc1)c1cc(/C=C/S(C)(=O)=O)cc(C(=O)c2ccccc2)c1
REMARK SMILES IDX 6 1 5 2 3 3 4 4 2 5 1 6 65 7 66 8 84 9 67 10 75 11 74 12
REMARK SMILES IDX 68 13 69 14 70 15 71 16 72 17 73 18 76 19 77 20 78 21 79 22
REMARK SMILES IDX 83 23 80 24 82 25 81 26 7 27 8 28 9 29 10 30 11 31 12 32
REMARK SMILES IDX 64 33 13 34 63 35 14 36 15 37 16 38 57 39 17 40 62 41 56 42
REMARK SMILES IDX 58 43 18 44 61 45 55 46 54 47 19 49 45 50 28 51 44 52 29 53
REMARK SMILES IDX 32 54 43 55 59 56 30 57 31 58 42 60 60 61 33 62 20 63 21 64
REMARK SMILES IDX 26 65 22 66 23 67 25 68 27 69 24 70 46 71 47 72 52 73 48 74
REMARK SMILES IDX 49 75 51 76 53 77 50 78 34 79 35 80 40 81 36 82 37 83 39 84
REMARK SMILES IDX 41 85 38 86
REMARK H PARENT 58 48 32 59
REMARK Flexibility Score: inf
ROOT
ATOM      1  C   UNL     1       2.501   3.487  -1.639  1.00  0.00     0.274 C 
ENDROOT
BRANCH   1   2
ATOM      2  O   UNL     1       2.102   2.401  -0.777  1.00  0.00    -0.462 OA
BRANCH   2   3
ATOM      3  C   UNL     1       1.027   2.623   0.029  1.00  0.00     0.313 C 
ATOM      4  O   UNL     1       0.414   3.686   0.053  1.00  0.00    -0.252 OA
BRANCH   3   5
ATOM      5  C   UNL     1       0.728   1.426   0.966  1.00  0.00     0.126 C 
ATOM      6  C   UNL     1       1.358   0.129   0.435  1.00  0.00     0.025 C 
BRANCH   5   7
ATOM      7  C   UNL     1      -0.772   1.297   1.294  1.00  0.00    -0.033 A 
ATOM      8  C   UNL     1      -1.466   2.406   1.817  1.00  0.00     0.012 A 
ATOM      9  C   UNL     1      -1.517   0.136   1.033  1.00  0.00     0.016 A 
ATOM     10  C   UNL     1      -2.865   2.417   1.950  1.00  0.00    -0.024 A 
ATOM     11  C   UNL     1      -2.900   0.086   1.281  1.00  0.00     0.023 A 
ATOM     12  C   UNL     1      -3.572   1.233   1.721  1.00  0.00     0.020 A 
BRANCH  10  13
ATOM     13  C   UNL     1      -3.602   3.654   2.261  1.00  0.00     0.020 C 
ATOM     14  C   UNL     1      -3.224   4.849   1.775  1.00  0.00     0.106 C 
BRANCH  14  15
ATOM     15  S   UNL     1      -4.157   6.277   2.087  1.00  0.00     0.168 S 
ATOM     16  C   UNL     1      -3.198   7.077   3.346  1.00  0.00     0.163 C 
ATOM     17  O   UNL     1      -4.093   7.126   0.912  1.00  0.00    -0.225 OA
ATOM     18  O   UNL     1      -5.439   5.939   2.675  1.00  0.00    -0.225 OA
ENDBRANCH  14  15
ENDBRANCH  10  13
BRANCH  11  19
ATOM     19  C   UNL     1      -3.696  -1.133   0.960  1.00  0.00     0.193 C 
ATOM     20  O   UNL     1      -4.878  -1.018   0.654  1.00  0.00    -0.289 OA
BRANCH  19  21
ATOM     21  C   UNL     1      -3.076  -2.481   0.957  1.00  0.00     0.022 A 
ATOM     22  C   UNL     1      -3.423  -3.377  -0.060  1.00  0.00     0.012 A 
ATOM     23  C   UNL     1      -2.160  -2.864   1.945  1.00  0.00     0.012 A 
ATOM     24  C   UNL     1      -2.815  -4.632  -0.118  1.00  0.00     0.001 A 
ATOM     25  C   UNL     1      -1.552  -4.119   1.880  1.00  0.00     0.001 A 
ATOM     26  C   UNL     1      -1.874  -4.997   0.844  1.00  0.00     0.000 A 
ENDBRANCH  19  21
ENDBRANCH  11  19
ENDBRANCH   5   7
ENDBRANCH   3   5
ENDBRANCH   2   3
ENDBRANCH   1   2
BRANCH   1  27
ATOM     27  C   UNL     1       2.063   3.246  -3.084  1.00  0.00     0.275 C 
BRANCH  27  28
ATOM     28  O   UNL     1       0.632   3.328  -3.211  1.00  0.00    -0.458 OA
BRANCH  28  29
ATOM     29  C   UNL     1      -0.010   2.148  -3.357  1.00  0.00     0.338 C 
ATOM     30  O   UNL     1       0.485   1.033  -3.422  1.00  0.00    -0.246 OA
BRANCH  29  31
ATOM     31  C   UNL     1      -1.459   2.368  -3.268  1.00  0.00     0.060 A 
ATOM     32  C   UNL     1      -2.057   2.140  -2.033  1.00  0.00     0.016 A 
ATOM     33  C   UNL     1      -2.239   2.678  -4.382  1.00  0.00     0.016 A 
ATOM     34  C   UNL     1      -3.438   2.196  -1.900  1.00  0.00     0.010 A 
ATOM     35  C   UNL     1      -3.634   2.756  -4.243  1.00  0.00     0.010 A 
ATOM     36  C   UNL     1      -4.243   2.499  -3.002  1.00  0.00    -0.014 A 
BRANCH  36  37
ATOM     37  C   UNL     1      -5.717   2.465  -2.829  1.00  0.00     0.031 A 
ATOM     38  C   UNL     1      -6.510   1.317  -3.383  1.00  0.00     0.074 A 
ATOM     39  C   UNL     1      -6.334   3.401  -2.085  1.00  0.00     0.049 A 
ATOM     40  N   UNL     1      -7.806   1.138  -3.398  1.00  0.00    -0.248 NA
ATOM     41  C   UNL     1      -5.743   0.226  -4.002  1.00  0.00     0.031 C 
ATOM     42  C   UNL     1      -5.669   4.516  -1.412  1.00  0.00     0.029 A 
ATOM     43  N   UNL     1      -7.656   3.545  -1.745  1.00  0.00    -0.354 N 
ATOM     44  C   UNL     1      -8.014  -0.063  -4.062  1.00  0.00     0.074 A 
ATOM     45  C   UNL     1      -6.710  -0.575  -4.427  1.00  0.00     0.031 C 
ATOM     46  C   UNL     1      -6.582   5.204  -0.707  1.00  0.00     0.029 A 
ATOM     47  C   UNL     1      -7.899   4.616  -0.920  1.00  0.00     0.049 A 
ATOM     48  H   UNL     1      -8.364   2.938  -2.063  1.00  0.00     0.167 HD
ATOM     49  C   UNL     1      -9.187  -0.674  -4.351  1.00  0.00     0.037 A 
ATOM     50  C   UNL     1      -9.054   5.084  -0.410  1.00  0.00     0.037 A 
ATOM     51  C   UNL     1     -10.482  -0.183  -3.955  1.00  0.00     0.049 A 
ATOM     52  C   UNL     1     -10.346   4.412  -0.781  1.00  0.00     0.074 A 
ATOM     53  C   UNL     1     -11.729  -0.711  -4.239  1.00  0.00     0.029 A 
ATOM     54  N   UNL     1     -10.693   0.941  -3.171  1.00  0.00    -0.354 N 
ATOM     55  N   UNL     1     -10.541   3.330  -1.493  1.00  0.00    -0.248 NA
ATOM     56  C   UNL     1     -11.583   5.050  -0.306  1.00  0.00     0.031 C 
ATOM     57  C   UNL     1     -12.698   0.113  -3.655  1.00  0.00     0.029 A 
ATOM     58  C   UNL     1     -12.051   1.133  -2.977  1.00  0.00     0.049 A 
ATOM     59  H   UNL     1      -9.982   1.517  -2.807  1.00  0.00     0.167 HD
ATOM     60  C   UNL     1     -11.917   3.157  -1.554  1.00  0.00     0.074 A 
ATOM     61  C   UNL     1     -12.509   4.229  -0.780  1.00  0.00     0.031 C 
ATOM     62  C   UNL     1     -12.626   2.205  -2.207  1.00  0.00     0.037 A 
BRANCH  49  63
ATOM     63  C   UNL     1      -9.124  -1.909  -5.196  1.00  0.00     0.057 A 
ATOM     64  C   UNL     1      -8.723  -3.147  -4.684  1.00  0.00     0.134 A 
ATOM     65  C   UNL     1      -9.488  -1.852  -6.548  1.00  0.00     0.134 A 
ATOM     66  F   UNL     1      -8.342  -3.264  -3.403  1.00  0.00    -0.206 F 
ATOM     67  C   UNL     1      -8.670  -4.285  -5.492  1.00  0.00     0.040 A 
ATOM     68  C   UNL     1      -9.459  -2.986  -7.360  1.00  0.00     0.040 A 
ATOM     69  F   UNL     1      -9.883  -0.694  -7.099  1.00  0.00    -0.206 F 
ATOM     70  C   UNL     1      -9.044  -4.207  -6.833  1.00  0.00     0.006 A 
ENDBRANCH  49  63
BRANCH  50  71
ATOM     71  C   UNL     1      -9.052   6.273   0.479  1.00  0.00     0.057 A 
ATOM     72  C   UNL     1      -9.399   6.164   1.831  1.00  0.00     0.134 A 
ATOM     73  C   UNL     1      -8.730   7.548  -0.002  1.00  0.00     0.134 A 
ATOM     74  F   UNL     1      -9.757   4.977   2.343  1.00  0.00    -0.206 F 
ATOM     75  C   UNL     1      -9.435   7.280   2.669  1.00  0.00     0.040 A 
ATOM     76  C   UNL     1      -8.736   8.668   0.830  1.00  0.00     0.040 A 
ATOM     77  F   UNL     1      -8.406   7.723  -1.292  1.00  0.00    -0.206 F 
ATOM     78  C   UNL     1      -9.096   8.537   2.170  1.00  0.00     0.006 A 
ENDBRANCH  50  71
BRANCH  62  79
ATOM     79  C   UNL     1     -14.120   2.281  -2.111  1.00  0.00     0.057 A 
ATOM     80  C   UNL     1     -14.851   3.240  -2.824  1.00  0.00     0.134 A 
ATOM     81  C   UNL     1     -14.837   1.369  -1.328  1.00  0.00     0.134 A 
ATOM     82  F   UNL     1     -14.221   4.150  -3.583  1.00  0.00    -0.206 F 
ATOM     83  C   UNL     1     -16.243   3.300  -2.748  1.00  0.00     0.040 A 
ATOM     84  C   UNL     1     -16.230   1.406  -1.260  1.00  0.00     0.040 A 
ATOM     85  F   UNL     1     -14.196   0.422  -0.626  1.00  0.00    -0.206 F 
ATOM     86  C   UNL     1     -16.937   2.376  -1.967  1.00  0.00     0.006 A 
ENDBRANCH  62  79
ENDBRANCH  36  37
ENDBRANCH  29  31
ENDBRANCH  28  29
ENDBRANCH  27  28
ENDBRANCH   1  27
TORSDOF 16
