REMARK SMILES Cc1ccsc1/C=C/C(=O)NC[C@H](CC(C)C)C(=O)OCCOC(=O)c1ccc(-c2c3nc(c(-c4c(F)cccc4F)c4ccc([nH]4)c(-c4c(F)cccc4F)c4nc(c(-c5c(F)cccc5F)c5ccc2[nH]5)C=C4)C=C3)cc1
REMARK SMILES IDX 21 1 20 2 18 3 19 4 13 5 12 6 11 7 9 8 10 9 8 11 7 12 6 13
REMARK SMILES IDX 1 14 2 15 3 16 4 17 5 18 14 19 15 20 16 21 17 22 22 23 23 24
REMARK SMILES IDX 24 25 25 26 26 27 27 28 79 29 28 30 78 31 29 32 30 33 31 34
REMARK SMILES IDX 72 35 32 36 77 37 71 38 73 39 33 40 76 41 70 42 69 43 34 45
REMARK SMILES IDX 60 46 43 47 59 48 44 49 47 50 58 51 74 52 45 53 46 54 57 56
REMARK SMILES IDX 75 57 48 58 35 59 36 60 41 61 37 62 38 63 40 64 42 65 39 66
REMARK SMILES IDX 61 67 62 68 67 69 63 70 64 71 66 72 68 73 65 74 49 75 50 76
REMARK SMILES IDX 55 77 51 78 52 79 54 80 56 81 53 82
REMARK H PARENT 11 10 73 44 47 55
REMARK Flexibility Score: inf
ROOT
ATOM      1  C   UNL     1       6.192  -2.552   0.421  1.00  0.00     0.274 C 
ENDROOT
BRANCH   1   2
ATOM      2  O   UNL     1       5.066  -3.426   0.208  1.00  0.00    -0.462 OA
BRANCH   2   3
ATOM      3  C   UNL     1       4.631  -4.130   1.278  1.00  0.00     0.310 C 
ATOM      4  O   UNL     1       5.168  -4.131   2.380  1.00  0.00    -0.252 OA
BRANCH   3   5
ATOM      5  C   UNL     1       3.391  -4.959   0.996  1.00  0.00     0.118 C 
BRANCH   5   6
ATOM      6  C   UNL     1       3.745  -6.441   0.986  1.00  0.00     0.131 C 
BRANCH   6   7
ATOM      7  N   UNL     1       4.057  -6.982   2.299  1.00  0.00    -0.352 N 
ATOM      8  C   UNL     1       4.028  -8.269   2.740  1.00  0.00     0.244 C 
ATOM      9  O   UNL     1       4.319  -8.515   3.909  1.00  0.00    -0.270 OA
ATOM     10  H   UNL     1       4.331  -6.316   2.970  1.00  0.00     0.163 HD
BRANCH   8  11
ATOM     11  C   UNL     1       3.578  -9.380   1.865  1.00  0.00     0.072 C 
ATOM     12  C   UNL     1       3.842  -9.507   0.555  1.00  0.00     0.025 C 
BRANCH  12  13
ATOM     13  C   UNL     1       3.385 -10.615  -0.219  1.00  0.00     0.030 A 
ATOM     14  C   UNL     1       2.315  -9.370  -2.193  1.00  0.00     0.046 C 
ATOM     15  C   UNL     1       2.743 -10.597  -1.455  1.00  0.00    -0.033 A 
ATOM     16  C   UNL     1       2.537 -11.921  -1.964  1.00  0.00     0.016 A 
ATOM     17  C   UNL     1       3.006 -12.893  -1.116  1.00  0.00     0.066 A 
ATOM     18  S   UNL     1       3.691 -12.232   0.296  1.00  0.00    -0.144 S 
ENDBRANCH  12  13
ENDBRANCH   8  11
ENDBRANCH   6   7
ENDBRANCH   5   6
BRANCH   5  19
ATOM     19  C   UNL     1       2.510  -4.503  -0.188  1.00  0.00     0.020 C 
BRANCH  19  20
ATOM     20  C   UNL     1       3.029  -4.543  -1.645  1.00  0.00    -0.017 C 
ATOM     21  C   UNL     1       3.731  -5.834  -2.046  1.00  0.00     0.007 C 
ATOM     22  C   UNL     1       1.851  -4.297  -2.597  1.00  0.00     0.007 C 
ENDBRANCH  19  20
ENDBRANCH   5  19
ENDBRANCH   3   5
ENDBRANCH   2   3
ENDBRANCH   1   2
BRANCH   1  23
ATOM     23  C   UNL     1       5.732  -1.099   0.537  1.00  0.00     0.275 C 
BRANCH  23  24
ATOM     24  O   UNL     1       4.926  -0.910   1.715  1.00  0.00    -0.458 OA
BRANCH  24  25
ATOM     25  C   UNL     1       3.595  -0.828   1.502  1.00  0.00     0.338 C 
ATOM     26  O   UNL     1       3.004  -0.856   0.431  1.00  0.00    -0.246 OA
BRANCH  25  27
ATOM     27  C   UNL     1       2.895  -0.807   2.791  1.00  0.00     0.060 A 
ATOM     28  C   UNL     1       2.422  -2.015   3.305  1.00  0.00     0.016 A 
ATOM     29  C   UNL     1       2.606   0.396   3.433  1.00  0.00     0.016 A 
ATOM     30  C   UNL     1       1.633  -2.031   4.448  1.00  0.00     0.010 A 
ATOM     31  C   UNL     1       1.838   0.377   4.603  1.00  0.00     0.010 A 
ATOM     32  C   UNL     1       1.332  -0.835   5.109  1.00  0.00    -0.014 A 
BRANCH  32  33
ATOM     33  C   UNL     1       0.441  -0.853   6.294  1.00  0.00     0.031 A 
ATOM     34  C   UNL     1      -0.934  -0.254   6.204  1.00  0.00     0.074 A 
ATOM     35  C   UNL     1       0.848  -1.436   7.437  1.00  0.00     0.049 A 
ATOM     36  N   UNL     1      -1.809  -0.043   7.154  1.00  0.00    -0.248 NA
ATOM     37  C   UNL     1      -1.383   0.164   4.867  1.00  0.00     0.031 C 
ATOM     38  C   UNL     1       2.129  -2.116   7.632  1.00  0.00     0.029 A 
ATOM     39  N   UNL     1       0.220  -1.554   8.651  1.00  0.00    -0.354 N 
ATOM     40  C   UNL     1      -2.896   0.563   6.537  1.00  0.00     0.074 A 
ATOM     41  C   UNL     1      -2.570   0.690   5.133  1.00  0.00     0.031 C 
ATOM     42  C   UNL     1       2.186  -2.592   8.886  1.00  0.00     0.029 A 
ATOM     43  C   UNL     1       0.977  -2.196   9.600  1.00  0.00     0.049 A 
ATOM     44  H   UNL     1      -0.686  -1.210   8.826  1.00  0.00     0.167 HD
ATOM     45  C   UNL     1      -4.059   0.976   7.096  1.00  0.00     0.037 A 
ATOM     46  C   UNL     1       0.738  -2.409  10.907  1.00  0.00     0.037 A 
ATOM     47  C   UNL     1      -4.390   0.821   8.487  1.00  0.00     0.049 A 
ATOM     48  C   UNL     1      -0.535  -1.890  11.514  1.00  0.00     0.074 A 
ATOM     49  C   UNL     1      -5.534   1.225   9.154  1.00  0.00     0.029 A 
ATOM     50  N   UNL     1      -3.581   0.196   9.424  1.00  0.00    -0.354 N 
ATOM     51  N   UNL     1      -1.528  -1.258  10.937  1.00  0.00    -0.248 NA
ATOM     52  C   UNL     1      -0.712  -2.098  12.959  1.00  0.00     0.031 C 
ATOM     53  C   UNL     1      -5.406   0.865  10.501  1.00  0.00     0.029 A 
ATOM     54  C   UNL     1      -4.197   0.209  10.664  1.00  0.00     0.049 A 
ATOM     55  H   UNL     1      -2.699  -0.198   9.235  1.00  0.00     0.167 HD
ATOM     56  C   UNL     1      -2.452  -1.006  11.942  1.00  0.00     0.074 A 
ATOM     57  C   UNL     1      -1.909  -1.567  13.162  1.00  0.00     0.031 C 
ATOM     58  C   UNL     1      -3.642  -0.363  11.863  1.00  0.00     0.037 A 
BRANCH  45  59
ATOM     59  C   UNL     1      -5.045   1.665   6.202  1.00  0.00     0.057 A 
ATOM     60  C   UNL     1      -5.829   0.960   5.281  1.00  0.00     0.134 A 
ATOM     61  C   UNL     1      -5.231   3.051   6.286  1.00  0.00     0.134 A 
ATOM     62  F   UNL     1      -5.685  -0.366   5.140  1.00  0.00    -0.206 F 
ATOM     63  C   UNL     1      -6.754   1.612   4.464  1.00  0.00     0.040 A 
ATOM     64  C   UNL     1      -6.167   3.711   5.489  1.00  0.00     0.040 A 
ATOM     65  F   UNL     1      -4.512   3.784   7.150  1.00  0.00    -0.206 F 
ATOM     66  C   UNL     1      -6.929   2.991   4.571  1.00  0.00     0.006 A 
ENDBRANCH  45  59
BRANCH  46  67
ATOM     67  C   UNL     1       1.742  -3.114  11.742  1.00  0.00     0.057 A 
ATOM     68  C   UNL     1       1.492  -4.396  12.244  1.00  0.00     0.134 A 
ATOM     69  C   UNL     1       2.966  -2.519  12.067  1.00  0.00     0.134 A 
ATOM     70  F   UNL     1       0.326  -5.006  11.988  1.00  0.00    -0.206 F 
ATOM     71  C   UNL     1       2.421  -5.058  13.049  1.00  0.00     0.040 A 
ATOM     72  C   UNL     1       3.914  -3.178  12.851  1.00  0.00     0.040 A 
ATOM     73  F   UNL     1       3.263  -1.290  11.618  1.00  0.00    -0.206 F 
ATOM     74  C   UNL     1       3.639  -4.450  13.349  1.00  0.00     0.006 A 
ENDBRANCH  46  67
BRANCH  58  75
ATOM     75  C   UNL     1      -4.444  -0.262  13.124  1.00  0.00     0.057 A 
ATOM     76  C   UNL     1      -4.110   0.644  14.137  1.00  0.00     0.134 A 
ATOM     77  C   UNL     1      -5.577  -1.063  13.314  1.00  0.00     0.134 A 
ATOM     78  F   UNL     1      -3.028   1.428  14.018  1.00  0.00    -0.206 F 
ATOM     79  C   UNL     1      -4.866   0.738  15.306  1.00  0.00     0.040 A 
ATOM     80  C   UNL     1      -6.351  -0.965  14.470  1.00  0.00     0.040 A 
ATOM     81  F   UNL     1      -5.951  -1.947  12.377  1.00  0.00    -0.206 F 
ATOM     82  C   UNL     1      -5.993  -0.065  15.472  1.00  0.00     0.006 A 
ENDBRANCH  58  75
ENDBRANCH  32  33
ENDBRANCH  25  27
ENDBRANCH  24  25
ENDBRANCH  23  24
ENDBRANCH   1  23
TORSDOF 17
