REMARK SMILES CC(C)(C)c1ccc(NC(=O)CCC(=O)OCCOC(=O)c2ccc(-c3c4nc(c(-c5c(F)cccc5F)c5ccc([nH]5)c(-c5c(F)cccc5F)c5nc(c(-c6c(F)cccc6F)c6ccc3[nH]6)C=C5)C=C4)cc2)cc1
REMARK SMILES IDX 17 1 16 2 14 3 15 4 13 5 12 6 10 7 9 8 11 10 8 11 5 12 6 13
REMARK SMILES IDX 77 14 7 15 76 16 2 17 1 18 3 19 4 20 18 21 19 22 20 23 21 24
REMARK SMILES IDX 22 25 23 26 75 27 24 28 74 29 25 30 26 31 27 32 68 33 28 34
REMARK SMILES IDX 73 35 67 36 69 37 29 38 72 39 66 40 65 41 30 43 56 44 39 45
REMARK SMILES IDX 55 46 40 47 43 48 54 49 70 50 41 51 42 52 53 54 71 55 44 56
REMARK SMILES IDX 31 57 32 58 37 59 33 60 34 61 36 62 38 63 35 64 57 65 58 66
REMARK SMILES IDX 63 67 59 68 60 69 62 70 64 71 61 72 45 73 46 74 51 75 47 76
REMARK SMILES IDX 48 77 50 78 52 79 49 80
REMARK H PARENT 9 9 69 42 43 53
REMARK Flexibility Score: inf
ROOT
ATOM      1  C   UNL     1       3.936   3.502  -1.713  1.00  0.00     0.274 C 
ENDROOT
BRANCH   1   2
ATOM      2  O   UNL     1       3.783   3.873  -3.099  1.00  0.00    -0.462 OA
BRANCH   2   3
ATOM      3  C   UNL     1       4.774   3.477  -3.940  1.00  0.00     0.306 C 
ATOM      4  O   UNL     1       5.795   2.896  -3.587  1.00  0.00    -0.252 OA
BRANCH   3   5
ATOM      5  C   UNL     1       4.527   3.896  -5.372  1.00  0.00     0.132 C 
BRANCH   5   6
ATOM      6  C   UNL     1       3.153   3.552  -5.952  1.00  0.00     0.112 C 
BRANCH   6   7
ATOM      7  C   UNL     1       2.128   4.609  -5.617  1.00  0.00     0.224 C 
ATOM      8  N   UNL     1       1.020   4.399  -4.856  1.00  0.00    -0.326 N 
ATOM      9  H   UNL     1       0.514   5.227  -4.692  1.00  0.00     0.169 HD
ATOM     10  O   UNL     1       2.330   5.772  -5.993  1.00  0.00    -0.275 OA
BRANCH   8  11
ATOM     11  C   UNL     1       0.429   3.278  -4.248  1.00  0.00     0.041 A 
ATOM     12  C   UNL     1      -0.537   1.128  -2.632  1.00  0.00    -0.042 A 
ATOM     13  C   UNL     1       0.031   0.901  -3.895  1.00  0.00     0.006 A 
ATOM     14  C   UNL     1      -0.758   2.470  -2.281  1.00  0.00     0.006 A 
ATOM     15  C   UNL     1       0.494   1.967  -4.700  1.00  0.00     0.026 A 
ATOM     16  C   UNL     1      -0.289   3.524  -3.076  1.00  0.00     0.026 A 
BRANCH  12  17
ATOM     17  C   UNL     1      -0.881   0.009  -1.631  1.00  0.00    -0.013 C 
ATOM     18  C   UNL     1      -0.224   0.316  -0.260  1.00  0.00     0.016 C 
ATOM     19  C   UNL     1      -0.379  -1.395  -2.028  1.00  0.00     0.016 C 
ATOM     20  C   UNL     1      -2.406  -0.085  -1.457  1.00  0.00     0.016 C 
ENDBRANCH  12  17
ENDBRANCH   8  11
ENDBRANCH   6   7
ENDBRANCH   5   6
ENDBRANCH   3   5
ENDBRANCH   2   3
ENDBRANCH   1   2
BRANCH   1  21
ATOM     21  C   UNL     1       3.221   2.190  -1.368  1.00  0.00     0.275 C 
BRANCH  21  22
ATOM     22  O   UNL     1       3.918   1.011  -1.819  1.00  0.00    -0.458 OA
BRANCH  22  23
ATOM     23  C   UNL     1       3.671   0.693  -3.102  1.00  0.00     0.338 C 
ATOM     24  O   UNL     1       3.017   1.325  -3.913  1.00  0.00    -0.246 OA
BRANCH  23  25
ATOM     25  C   UNL     1       4.221  -0.582  -3.505  1.00  0.00     0.060 A 
ATOM     26  C   UNL     1       5.471  -0.634  -4.113  1.00  0.00     0.016 A 
ATOM     27  C   UNL     1       3.381  -1.693  -3.455  1.00  0.00     0.016 A 
ATOM     28  C   UNL     1       5.916  -1.854  -4.605  1.00  0.00     0.010 A 
ATOM     29  C   UNL     1       3.839  -2.919  -3.901  1.00  0.00     0.010 A 
ATOM     30  C   UNL     1       5.123  -3.007  -4.446  1.00  0.00    -0.014 A 
BRANCH  30  31
ATOM     31  C   UNL     1       5.725  -4.340  -4.622  1.00  0.00     0.031 A 
ATOM     32  C   UNL     1       5.300  -5.265  -5.713  1.00  0.00     0.074 A 
ATOM     33  C   UNL     1       6.604  -4.717  -3.676  1.00  0.00     0.049 A 
ATOM     34  N   UNL     1       5.750  -6.461  -5.987  1.00  0.00    -0.248 NA
ATOM     35  C   UNL     1       4.208  -4.813  -6.589  1.00  0.00     0.031 C 
ATOM     36  C   UNL     1       6.974  -3.911  -2.505  1.00  0.00     0.029 A 
ATOM     37  N   UNL     1       7.345  -5.856  -3.541  1.00  0.00    -0.354 N 
ATOM     38  C   UNL     1       4.991  -6.915  -7.056  1.00  0.00     0.074 A 
ATOM     39  C   UNL     1       4.031  -5.876  -7.365  1.00  0.00     0.031 C 
ATOM     40  C   UNL     1       7.913  -4.557  -1.804  1.00  0.00     0.029 A 
ATOM     41  C   UNL     1       8.187  -5.829  -2.458  1.00  0.00     0.049 A 
ATOM     42  H   UNL     1       7.281  -6.620  -4.158  1.00  0.00     0.167 HD
ATOM     43  C   UNL     1       5.103  -8.094  -7.712  1.00  0.00     0.037 A 
ATOM     44  C   UNL     1       9.097  -6.727  -2.050  1.00  0.00     0.037 A 
ATOM     45  C   UNL     1       6.081  -9.100  -7.384  1.00  0.00     0.049 A 
ATOM     46  C   UNL     1       9.280  -7.965  -2.867  1.00  0.00     0.074 A 
ATOM     47  C   UNL     1       6.330 -10.306  -8.015  1.00  0.00     0.029 A 
ATOM     48  N   UNL     1       6.975  -9.011  -6.325  1.00  0.00    -0.354 N 
ATOM     49  N   UNL     1       8.618  -8.349  -3.931  1.00  0.00    -0.248 NA
ATOM     50  C   UNL     1      10.337  -8.887  -2.441  1.00  0.00     0.031 C 
ATOM     51  C   UNL     1       7.362 -10.955  -7.326  1.00  0.00     0.029 A 
ATOM     52  C   UNL     1       7.774 -10.141  -6.282  1.00  0.00     0.049 A 
ATOM     53  H   UNL     1       7.033  -8.255  -5.697  1.00  0.00     0.167 HD
ATOM     54  C   UNL     1       9.176  -9.559  -4.307  1.00  0.00     0.074 A 
ATOM     55  C   UNL     1      10.252  -9.829  -3.370  1.00  0.00     0.031 C 
ATOM     56  C   UNL     1       8.827 -10.379  -5.328  1.00  0.00     0.037 A 
BRANCH  43  57
ATOM     57  C   UNL     1       4.153  -8.354  -8.843  1.00  0.00     0.057 A 
ATOM     58  C   UNL     1       4.269  -7.688 -10.070  1.00  0.00     0.134 A 
ATOM     59  C   UNL     1       3.135  -9.308  -8.722  1.00  0.00     0.134 A 
ATOM     60  F   UNL     1       5.216  -6.754 -10.249  1.00  0.00    -0.206 F 
ATOM     61  C   UNL     1       3.398  -7.949 -11.130  1.00  0.00     0.040 A 
ATOM     62  C   UNL     1       2.269  -9.592  -9.781  1.00  0.00     0.040 A 
ATOM     63  F   UNL     1       2.968  -9.985  -7.576  1.00  0.00    -0.206 F 
ATOM     64  C   UNL     1       2.397  -8.908 -10.988  1.00  0.00     0.006 A 
ENDBRANCH  43  57
BRANCH  44  65
ATOM     65  C   UNL     1       9.931  -6.426  -0.864  1.00  0.00     0.057 A 
ATOM     66  C   UNL     1      11.264  -6.030  -1.010  1.00  0.00     0.134 A 
ATOM     67  C   UNL     1       9.395  -6.439   0.429  1.00  0.00     0.134 A 
ATOM     68  F   UNL     1      11.829  -5.997  -2.226  1.00  0.00    -0.206 F 
ATOM     69  C   UNL     1      12.041  -5.665   0.090  1.00  0.00     0.040 A 
ATOM     70  C   UNL     1      10.154  -6.057   1.535  1.00  0.00     0.040 A 
ATOM     71  F   UNL     1       8.114  -6.782   0.627  1.00  0.00    -0.206 F 
ATOM     72  C   UNL     1      11.483  -5.671   1.367  1.00  0.00     0.006 A 
ENDBRANCH  44  65
BRANCH  56  73
ATOM     73  C   UNL     1       9.621 -11.639  -5.462  1.00  0.00     0.057 A 
ATOM     74  C   UNL     1       9.407 -12.727  -4.608  1.00  0.00     0.134 A 
ATOM     75  C   UNL     1      10.598 -11.765  -6.455  1.00  0.00     0.134 A 
ATOM     76  F   UNL     1       8.495 -12.653  -3.627  1.00  0.00    -0.206 F 
ATOM     77  C   UNL     1      10.156 -13.897  -4.725  1.00  0.00     0.040 A 
ATOM     78  C   UNL     1      11.341 -12.937  -6.593  1.00  0.00     0.040 A 
ATOM     79  F   UNL     1      10.845 -10.755  -7.301  1.00  0.00    -0.206 F 
ATOM     80  C   UNL     1      11.124 -14.005  -5.723  1.00  0.00     0.006 A 
ENDBRANCH  56  73
ENDBRANCH  30  31
ENDBRANCH  23  25
ENDBRANCH  22  23
ENDBRANCH  21  22
ENDBRANCH   1  21
TORSDOF 15
