REMARK SMILES O=C(CCN1C(=O)/C(=C/c2c3ccccc3cc3ccccc23)SC1=S)OCCOC(=O)c1ccc(-c2c3nc(c(-c4c(F)cccc4F)c4ccc([nH]4)c(-c4c(F)cccc4F)c4nc(c(-c5c(F)cccc5F)c5ccc2[nH]5)C=C4)C=C3)cc1
REMARK SMILES IDX 28 1 27 2 2 3 1 4 3 5 4 6 5 7 6 8 25 9 7 10 8 11 24 12 26 13
REMARK SMILES IDX 9 14 10 15 11 16 23 17 12 18 16 19 18 20 22 21 13 22 15 23
REMARK SMILES IDX 17 24 19 25 21 26 14 27 20 28 29 29 30 30 31 31 32 32 33 33
REMARK SMILES IDX 34 34 86 35 35 36 85 37 36 38 37 39 38 40 79 41 39 42 84 43
REMARK SMILES IDX 78 44 80 45 40 46 83 47 77 48 76 49 41 51 67 52 50 53 66 54
REMARK SMILES IDX 51 55 54 56 65 57 81 58 52 59 53 60 64 62 82 63 55 64 42 65
REMARK SMILES IDX 43 66 48 67 44 68 45 69 47 70 49 71 46 72 68 73 69 74 74 75
REMARK SMILES IDX 70 76 71 77 73 78 75 79 72 80 56 81 57 82 62 83 58 84 59 85
REMARK SMILES IDX 61 86 63 87 60 88
REMARK H PARENT 80 50 54 61
REMARK Flexibility Score: inf
ROOT
ATOM      1  C   UNL     1       4.438  -1.171  -0.679  1.00  0.00     0.274 C 
ENDROOT
BRANCH   1   2
ATOM      2  O   UNL     1       3.109  -1.032  -0.128  1.00  0.00    -0.462 OA
BRANCH   2   3
ATOM      3  C   UNL     1       2.580   0.083   0.424  1.00  0.00     0.307 C 
ATOM      4  O   UNL     1       1.395   0.115   0.750  1.00  0.00    -0.252 OA
BRANCH   3   5
ATOM      5  C   UNL     1       3.458   1.278   0.678  1.00  0.00     0.144 C 
BRANCH   5   6
ATOM      6  C   UNL     1       3.891   1.354   2.140  1.00  0.00     0.139 C 
BRANCH   6   7
ATOM      7  N   UNL     1       4.913   0.359   2.471  1.00  0.00    -0.292 N 
ATOM      8  C   UNL     1       6.213   0.588   2.045  1.00  0.00     0.266 C 
ATOM      9  C   UNL     1       4.678  -0.828   3.135  1.00  0.00     0.148 C 
ATOM     10  O   UNL     1       6.607   1.575   1.440  1.00  0.00    -0.268 OA
ATOM     11  C   UNL     1       7.058  -0.597   2.326  1.00  0.00     0.081 C 
ATOM     12  S   UNL     1       6.143  -1.796   3.146  1.00  0.00    -0.054 SA
ATOM     13  S   UNL     1       3.266  -1.363   3.837  1.00  0.00    -0.052 S 
ATOM     14  C   UNL     1       8.323  -0.686   1.893  1.00  0.00     0.030 C 
BRANCH  14  15
ATOM     15  C   UNL     1       9.128  -1.922   2.011  1.00  0.00    -0.009 A 
ATOM     16  C   UNL     1       9.145  -2.829   0.906  1.00  0.00    -0.010 A 
ATOM     17  C   UNL     1       9.776  -2.232   3.242  1.00  0.00    -0.010 A 
ATOM     18  C   UNL     1       8.541  -2.566  -0.352  1.00  0.00     0.009 A 
ATOM     19  C   UNL     1       9.789  -4.074   1.069  1.00  0.00    -0.017 A 
ATOM     20  C   UNL     1      10.411  -3.487   3.369  1.00  0.00    -0.017 A 
ATOM     21  C   UNL     1       9.812  -1.364   4.362  1.00  0.00     0.009 A 
ATOM     22  C   UNL     1       8.561  -3.498  -1.391  1.00  0.00     0.001 A 
ATOM     23  C   UNL     1       9.799  -5.005   0.016  1.00  0.00     0.009 A 
ATOM     24  C   UNL     1      10.406  -4.383   2.289  1.00  0.00     0.017 A 
ATOM     25  C   UNL     1      11.030  -3.843   4.579  1.00  0.00     0.009 A 
ATOM     26  C   UNL     1      10.429  -1.730   5.559  1.00  0.00     0.001 A 
ATOM     27  C   UNL     1       9.186  -4.722  -1.204  1.00  0.00     0.001 A 
ATOM     28  C   UNL     1      11.036  -2.973   5.669  1.00  0.00     0.001 A 
ENDBRANCH  14  15
ENDBRANCH   6   7
ENDBRANCH   5   6
ENDBRANCH   3   5
ENDBRANCH   2   3
ENDBRANCH   1   2
BRANCH   1  29
ATOM     29  C   UNL     1       4.463  -0.910  -2.184  1.00  0.00     0.275 C 
BRANCH  29  30
ATOM     30  O   UNL     1       4.053   0.440  -2.451  1.00  0.00    -0.458 OA
BRANCH  30  31
ATOM     31  C   UNL     1       2.750   0.581  -2.809  1.00  0.00     0.338 C 
ATOM     32  O   UNL     1       1.955  -0.306  -3.044  1.00  0.00    -0.246 OA
BRANCH  31  33
ATOM     33  C   UNL     1       2.379   2.007  -2.701  1.00  0.00     0.060 A 
ATOM     34  C   UNL     1       1.139   2.321  -2.132  1.00  0.00     0.016 A 
ATOM     35  C   UNL     1       3.229   3.022  -3.151  1.00  0.00     0.016 A 
ATOM     36  C   UNL     1       0.730   3.651  -2.043  1.00  0.00     0.010 A 
ATOM     37  C   UNL     1       2.816   4.353  -3.065  1.00  0.00     0.010 A 
ATOM     38  C   UNL     1       1.554   4.671  -2.537  1.00  0.00    -0.014 A 
BRANCH  38  39
ATOM     39  C   UNL     1       1.043   6.058  -2.632  1.00  0.00     0.031 A 
ATOM     40  C   UNL     1       0.494   6.538  -3.946  1.00  0.00     0.074 A 
ATOM     41  C   UNL     1       1.075   6.879  -1.569  1.00  0.00     0.049 A 
ATOM     42  N   UNL     1       0.033   7.717  -4.272  1.00  0.00    -0.248 NA
ATOM     43  C   UNL     1       0.468   5.556  -5.043  1.00  0.00     0.031 C 
ATOM     44  C   UNL     1       1.567   6.524  -0.239  1.00  0.00     0.029 A 
ATOM     45  N   UNL     1       0.694   8.192  -1.448  1.00  0.00    -0.354 N 
ATOM     46  C   UNL     1      -0.342   7.620  -5.605  1.00  0.00     0.074 A 
ATOM     47  C   UNL     1      -0.021   6.277  -6.040  1.00  0.00     0.031 C 
ATOM     48  C   UNL     1       1.471   7.601   0.562  1.00  0.00     0.029 A 
ATOM     49  C   UNL     1       0.933   8.723  -0.205  1.00  0.00     0.049 A 
ATOM     50  H   UNL     1       0.286   8.704  -2.184  1.00  0.00     0.167 HD
ATOM     51  C   UNL     1      -0.913   8.560  -6.393  1.00  0.00     0.037 A 
ATOM     52  C   UNL     1       0.754   9.977   0.252  1.00  0.00     0.037 A 
ATOM     53  C   UNL     1      -1.228   9.896  -5.962  1.00  0.00     0.049 A 
ATOM     54  C   UNL     1       0.177  11.024  -0.666  1.00  0.00     0.074 A 
ATOM     55  C   UNL     1      -1.831  10.914  -6.680  1.00  0.00     0.029 A 
ATOM     56  N   UNL     1      -0.956  10.401  -4.700  1.00  0.00    -0.354 N 
ATOM     57  N   UNL     1      -0.218  10.908  -1.911  1.00  0.00    -0.248 NA
ATOM     58  C   UNL     1       0.017  12.377  -0.111  1.00  0.00     0.031 C 
ATOM     59  C   UNL     1      -1.882  12.050  -5.867  1.00  0.00     0.029 A 
ATOM     60  C   UNL     1      -1.355  11.725  -4.627  1.00  0.00     0.049 A 
ATOM     61  H   UNL     1      -0.541   9.894  -3.965  1.00  0.00     0.167 HD
ATOM     62  C   UNL     1      -0.702  12.159  -2.276  1.00  0.00     0.074 A 
ATOM     63  C   UNL     1      -0.560  13.016  -1.119  1.00  0.00     0.031 C 
ATOM     64  C   UNL     1      -1.218  12.561  -3.463  1.00  0.00     0.037 A 
BRANCH  51  65
ATOM     65  C   UNL     1      -1.221   8.181  -7.810  1.00  0.00     0.057 A 
ATOM     66  C   UNL     1      -2.277   7.317  -8.129  1.00  0.00     0.134 A 
ATOM     67  C   UNL     1      -0.480   8.717  -8.871  1.00  0.00     0.134 A 
ATOM     68  F   UNL     1      -3.015   6.758  -7.158  1.00  0.00    -0.206 F 
ATOM     69  C   UNL     1      -2.575   6.988  -9.452  1.00  0.00     0.040 A 
ATOM     70  C   UNL     1      -0.783   8.413 -10.199  1.00  0.00     0.040 A 
ATOM     71  F   UNL     1       0.543   9.552  -8.633  1.00  0.00    -0.206 F 
ATOM     72  C   UNL     1      -1.831   7.543 -10.492  1.00  0.00     0.006 A 
ENDBRANCH  51  65
BRANCH  52  73
ATOM     73  C   UNL     1       1.131  10.328   1.645  1.00  0.00     0.057 A 
ATOM     74  C   UNL     1       0.161  10.652   2.600  1.00  0.00     0.134 A 
ATOM     75  C   UNL     1       2.473  10.392   2.041  1.00  0.00     0.134 A 
ATOM     76  F   UNL     1      -1.140  10.634   2.273  1.00  0.00    -0.206 F 
ATOM     77  C   UNL     1       0.510  11.050   3.891  1.00  0.00     0.040 A 
ATOM     78  C   UNL     1       2.835  10.764   3.337  1.00  0.00     0.040 A 
ATOM     79  F   UNL     1       3.451  10.093   1.174  1.00  0.00    -0.206 F 
ATOM     80  C   UNL     1       1.852  11.104   4.263  1.00  0.00     0.006 A 
ENDBRANCH  52  73
BRANCH  64  81
ATOM     81  C   UNL     1      -1.704  13.978  -3.559  1.00  0.00     0.057 A 
ATOM     82  C   UNL     1      -0.819  15.062  -3.616  1.00  0.00     0.134 A 
ATOM     83  C   UNL     1      -3.075  14.256  -3.644  1.00  0.00     0.134 A 
ATOM     84  F   UNL     1       0.505  14.864  -3.528  1.00  0.00    -0.206 F 
ATOM     85  C   UNL     1      -1.281  16.374  -3.731  1.00  0.00     0.040 A 
ATOM     86  C   UNL     1      -3.547  15.561  -3.786  1.00  0.00     0.040 A 
ATOM     87  F   UNL     1      -3.975  13.262  -3.606  1.00  0.00    -0.206 F 
ATOM     88  C   UNL     1      -2.649  16.625  -3.825  1.00  0.00     0.006 A 
ENDBRANCH  64  81
ENDBRANCH  38  39
ENDBRANCH  31  33
ENDBRANCH  30  31
ENDBRANCH  29  30
ENDBRANCH   1  29
TORSDOF 14
