REMARK SMILES Cc1ccc(Cl)c(Nc2ccccc2C(=O)NCC(=O)OCCOC(=O)c2ccc(-c3c4nc(c(-c5c(F)cccc5F)c5ccc([nH]5)c(-c5c(F)cccc5F)c5nc(c(-c6c(F)cccc6F)c6ccc3[nH]6)C=C5)C=C4)cc2)c1Cl
REMARK SMILES IDX 22 1 21 2 19 3 20 4 18 5 17 6 15 7 16 8 14 10 9 11 10 12
REMARK SMILES IDX 11 13 13 14 12 15 8 16 7 18 1 19 2 20 3 21 81 22 4 23 82 24
REMARK SMILES IDX 5 25 6 26 23 27 24 28 25 29 26 30 27 31 28 32 80 33 29 34
REMARK SMILES IDX 79 35 30 36 31 37 32 38 73 39 33 40 78 41 72 42 74 43 34 44
REMARK SMILES IDX 77 45 71 46 70 47 35 49 61 50 44 51 60 52 45 53 48 54 59 55
REMARK SMILES IDX 75 56 46 57 47 58 58 60 76 61 49 62 36 63 37 64 42 65 38 66
REMARK SMILES IDX 39 67 41 68 43 69 40 70 62 71 63 72 68 73 64 74 65 75 67 76
REMARK SMILES IDX 69 77 66 78 50 79 51 80 56 81 52 82 53 83 55 84 57 85 54 86
REMARK H PARENT 17 9 8 17 74 48 48 59
REMARK Flexibility Score: inf
ROOT
ATOM      1  C   UNL     1      -3.917  -2.437   3.327  1.00  0.00     0.274 C 
ENDROOT
BRANCH   1   2
ATOM      2  O   UNL     1      -2.527  -2.248   3.003  1.00  0.00    -0.461 OA
BRANCH   2   3
ATOM      3  C   UNL     1      -2.318  -1.933   1.702  1.00  0.00     0.325 C 
ATOM      4  O   UNL     1      -3.200  -1.864   0.849  1.00  0.00    -0.250 OA
BRANCH   3   5
ATOM      5  C   UNL     1      -0.905  -1.498   1.385  1.00  0.00     0.239 C 
BRANCH   5   6
ATOM      6  N   UNL     1       0.245  -1.771   2.212  1.00  0.00    -0.341 N 
ATOM      7  C   UNL     1       1.454  -2.327   1.857  1.00  0.00     0.253 C 
ATOM      8  O   UNL     1       2.411  -2.119   2.607  1.00  0.00    -0.269 OA
ATOM      9  H   UNL     1       0.153  -1.526   3.161  1.00  0.00     0.164 HD
BRANCH   7  10
ATOM     10  C   UNL     1       1.614  -3.319   0.747  1.00  0.00     0.063 A 
ATOM     11  C   UNL     1       1.218  -3.225  -0.605  1.00  0.00     0.051 A 
ATOM     12  C   UNL     1       1.369  -4.375  -1.419  1.00  0.00     0.027 A 
ATOM     13  C   UNL     1       1.971  -5.544  -0.954  1.00  0.00     0.002 A 
ATOM     14  C   UNL     1       2.255  -4.503   1.188  1.00  0.00     0.016 A 
ATOM     15  C   UNL     1       2.444  -5.598   0.346  1.00  0.00     0.001 A 
BRANCH  11  16
ATOM     16  N   UNL     1       0.784  -2.075  -1.300  1.00  0.00    -0.352 N 
ATOM     17  H   UNL     1       0.150  -2.280  -2.024  1.00  0.00     0.167 HD
BRANCH  16  18
ATOM     18  C   UNL     1       1.063  -0.693  -1.182  1.00  0.00     0.077 A 
ATOM     19  C   UNL     1       3.685   1.806   0.102  1.00  0.00     0.046 C 
ATOM     20  C   UNL     1       2.408   1.222  -0.438  1.00  0.00    -0.030 A 
ATOM     21  C   UNL     1       1.338   2.084  -0.710  1.00  0.00     0.006 A 
ATOM     22  C   UNL     1       2.278  -0.159  -0.707  1.00  0.00     0.069 A 
ATOM     23  C   UNL     1       0.168   1.590  -1.269  1.00  0.00     0.023 A 
ATOM     24  Cl  UNL     1       3.702  -1.154  -0.609  1.00  0.00    -0.082 Cl
ATOM     25  C   UNL     1       0.030   0.223  -1.494  1.00  0.00     0.066 A 
ATOM     26  Cl  UNL     1      -1.478  -0.328  -2.156  1.00  0.00    -0.082 Cl
ENDBRANCH  16  18
ENDBRANCH  11  16
ENDBRANCH   7  10
ENDBRANCH   5   6
ENDBRANCH   3   5
ENDBRANCH   2   3
ENDBRANCH   1   2
BRANCH   1  27
ATOM     27  C   UNL     1      -4.540  -1.136   3.838  1.00  0.00     0.275 C 
BRANCH  27  28
ATOM     28  O   UNL     1      -4.432  -0.070   2.869  1.00  0.00    -0.458 OA
BRANCH  28  29
ATOM     29  C   UNL     1      -3.631   0.961   3.218  1.00  0.00     0.338 C 
ATOM     30  O   UNL     1      -2.972   1.065   4.246  1.00  0.00    -0.246 OA
BRANCH  29  31
ATOM     31  C   UNL     1      -3.650   2.030   2.201  1.00  0.00     0.060 A 
ATOM     32  C   UNL     1      -3.293   1.777   0.879  1.00  0.00     0.016 A 
ATOM     33  C   UNL     1      -3.894   3.343   2.611  1.00  0.00     0.016 A 
ATOM     34  C   UNL     1      -3.097   2.850  -0.003  1.00  0.00     0.010 A 
ATOM     35  C   UNL     1      -3.770   4.402   1.701  1.00  0.00     0.010 A 
ATOM     36  C   UNL     1      -3.315   4.184   0.389  1.00  0.00    -0.014 A 
BRANCH  36  37
ATOM     37  C   UNL     1      -3.010   5.349  -0.514  1.00  0.00     0.031 A 
ATOM     38  C   UNL     1      -2.166   6.506  -0.015  1.00  0.00     0.074 A 
ATOM     39  C   UNL     1      -3.454   5.416  -1.787  1.00  0.00     0.049 A 
ATOM     40  N   UNL     1      -2.030   7.713  -0.509  1.00  0.00    -0.248 NA
ATOM     41  C   UNL     1      -1.387   6.277   1.211  1.00  0.00     0.031 C 
ATOM     42  C   UNL     1      -4.228   4.389  -2.480  1.00  0.00     0.029 A 
ATOM     43  N   UNL     1      -3.306   6.408  -2.733  1.00  0.00    -0.354 N 
ATOM     44  C   UNL     1      -1.241   8.414   0.398  1.00  0.00     0.074 A 
ATOM     45  C   UNL     1      -0.901   7.486   1.456  1.00  0.00     0.031 C 
ATOM     46  C   UNL     1      -4.435   4.772  -3.749  1.00  0.00     0.029 A 
ATOM     47  C   UNL     1      -3.916   6.124  -3.932  1.00  0.00     0.049 A 
ATOM     48  H   UNL     1      -2.811   7.242  -2.566  1.00  0.00     0.167 HD
ATOM     49  C   UNL     1      -0.847   9.711   0.363  1.00  0.00     0.037 A 
ATOM     50  C   UNL     1      -4.101   6.872  -5.038  1.00  0.00     0.037 A 
ATOM     51  C   UNL     1      -1.077  10.615  -0.736  1.00  0.00     0.049 A 
ATOM     52  C   UNL     1      -3.645   8.302  -5.073  1.00  0.00     0.074 A 
ATOM     53  C   UNL     1      -0.682  11.938  -0.863  1.00  0.00     0.029 A 
ATOM     54  N   UNL     1      -1.728  10.283  -1.911  1.00  0.00    -0.354 N 
ATOM     55  N   UNL     1      -3.020   8.991  -4.152  1.00  0.00    -0.248 NA
ATOM     56  C   UNL     1      -3.958   9.070  -6.289  1.00  0.00     0.031 C 
ATOM     57  C   UNL     1      -1.113  12.412  -2.107  1.00  0.00     0.029 A 
ATOM     58  C   UNL     1      -1.747  11.373  -2.768  1.00  0.00     0.049 A 
ATOM     59  H   UNL     1      -2.120   9.402  -2.110  1.00  0.00     0.167 HD
ATOM     60  C   UNL     1      -2.878  10.273  -4.668  1.00  0.00     0.074 A 
ATOM     61  C   UNL     1      -3.453  10.260  -5.996  1.00  0.00     0.031 C 
ATOM     62  C   UNL     1      -2.330  11.366  -4.083  1.00  0.00     0.037 A 
BRANCH  49  63
ATOM     63  C   UNL     1      -0.156  10.262   1.578  1.00  0.00     0.057 A 
ATOM     64  C   UNL     1       1.173   9.960   1.893  1.00  0.00     0.134 A 
ATOM     65  C   UNL     1      -0.833  11.158   2.419  1.00  0.00     0.134 A 
ATOM     66  F   UNL     1       1.873   9.102   1.136  1.00  0.00    -0.206 F 
ATOM     67  C   UNL     1       1.798  10.512   3.014  1.00  0.00     0.040 A 
ATOM     68  C   UNL     1      -0.211  11.735   3.526  1.00  0.00     0.040 A 
ATOM     69  F   UNL     1      -2.106  11.499   2.166  1.00  0.00    -0.206 F 
ATOM     70  C   UNL     1       1.108  11.408   3.829  1.00  0.00     0.006 A 
ENDBRANCH  49  63
BRANCH  50  71
ATOM     71  C   UNL     1      -4.828   6.289  -6.194  1.00  0.00     0.057 A 
ATOM     72  C   UNL     1      -4.158   5.956  -7.376  1.00  0.00     0.134 A 
ATOM     73  C   UNL     1      -6.202   6.024  -6.130  1.00  0.00     0.134 A 
ATOM     74  F   UNL     1      -2.850   6.218  -7.507  1.00  0.00    -0.206 F 
ATOM     75  C   UNL     1      -4.827   5.369  -8.451  1.00  0.00     0.040 A 
ATOM     76  C   UNL     1      -6.877   5.413  -7.185  1.00  0.00     0.040 A 
ATOM     77  F   UNL     1      -6.898   6.326  -5.024  1.00  0.00    -0.206 F 
ATOM     78  C   UNL     1      -6.189   5.083  -8.351  1.00  0.00     0.006 A 
ENDBRANCH  50  71
BRANCH  62  79
ATOM     79  C   UNL     1      -2.321  12.638  -4.875  1.00  0.00     0.057 A 
ATOM     80  C   UNL     1      -3.479  13.408  -5.039  1.00  0.00     0.134 A 
ATOM     81  C   UNL     1      -1.140  13.111  -5.461  1.00  0.00     0.134 A 
ATOM     82  F   UNL     1      -4.644  13.002  -4.513  1.00  0.00    -0.206 F 
ATOM     83  C   UNL     1      -3.467  14.596  -5.773  1.00  0.00     0.040 A 
ATOM     84  C   UNL     1      -1.112  14.306  -6.183  1.00  0.00     0.040 A 
ATOM     85  F   UNL     1       0.005  12.423  -5.337  1.00  0.00    -0.206 F 
ATOM     86  C   UNL     1      -2.280  15.050  -6.344  1.00  0.00     0.006 A 
ENDBRANCH  62  79
ENDBRANCH  36  37
ENDBRANCH  29  31
ENDBRANCH  28  29
ENDBRANCH  27  28
ENDBRANCH   1  27
TORSDOF 15
