REMARK SMILES NS(=O)(=O)c1ccc(NS(=O)(=O)c2cccc(C(=O)OCCOC(=O)c3ccc(-c4c5nc(c(-c6c(F)cccc6F)c6ccc([nH]6)c(-c6c(F)cccc6F)c6nc(c(-c7c(F)cccc7F)c7ccc4[nH]7)C=C6)C=C5)cc3)c2)cc1
REMARK SMILES IDX 20 1 18 2 19 3 17 4 13 5 14 6 80 7 15 8 16 9 10 10 11 11
REMARK SMILES IDX 12 12 9 13 8 15 5 16 6 17 82 18 7 19 81 20 2 21 3 22 4 23
REMARK SMILES IDX 1 24 21 27 22 28 23 29 24 30 25 31 26 32 27 33 79 34 28 35
REMARK SMILES IDX 78 36 29 37 30 38 31 39 72 40 32 41 77 42 71 43 73 44 33 45
REMARK SMILES IDX 76 46 70 47 69 48 34 50 60 51 43 52 59 53 44 54 47 55 58 56
REMARK SMILES IDX 74 57 45 58 46 59 57 61 75 62 48 63 35 64 36 65 41 66 37 67
REMARK SMILES IDX 38 68 40 69 42 70 39 71 61 72 62 73 67 74 63 75 64 76 66 77
REMARK SMILES IDX 68 78 65 79 49 80 50 81 55 82 51 83 52 84 54 85 56 86 53 87
REMARK H PARENT 9 14 1 25 1 26 73 49 47 60
REMARK Flexibility Score: inf
ROOT
ATOM      1  O   UNL     1      -3.189 -10.077   2.052  1.00  0.00    -0.458 OA
ENDROOT
BRANCH   1   2
ATOM      2  C   UNL     1      -3.620  -9.049   1.283  1.00  0.00     0.338 C 
ATOM      3  O   UNL     1      -4.778  -8.857   0.940  1.00  0.00    -0.246 OA
BRANCH   2   4
ATOM      4  C   UNL     1      -2.528  -8.113   0.887  1.00  0.00     0.061 A 
ATOM      5  C   UNL     1      -0.222  -7.488   0.489  1.00  0.00     0.088 A 
ATOM      6  C   UNL     1      -0.645  -6.326  -0.168  1.00  0.00     0.022 A 
ATOM      7  C   UNL     1      -1.161  -8.398   1.012  1.00  0.00     0.038 A 
ATOM      8  C   UNL     1      -1.995  -6.004  -0.214  1.00  0.00     0.002 A 
ATOM      9  C   UNL     1      -2.929  -6.900   0.297  1.00  0.00     0.016 A 
BRANCH   5  10
ATOM     10  S   UNL     1       1.512  -7.882   0.480  1.00  0.00     0.261 S 
ATOM     11  O   UNL     1       1.967  -7.741  -0.888  1.00  0.00    -0.201 OA
ATOM     12  O   UNL     1       1.685  -9.141   1.176  1.00  0.00    -0.201 OA
BRANCH  10  13
ATOM     13  N   UNL     1       2.376  -6.727   1.392  1.00  0.00    -0.280 N 
ATOM     14  H   UNL     1       3.147  -7.014   1.932  1.00  0.00     0.180 HD
BRANCH  13  15
ATOM     15  C   UNL     1       1.995  -5.346   1.384  1.00  0.00     0.049 A 
ATOM     16  C   UNL     1       1.231  -2.658   1.437  1.00  0.00     0.082 A 
ATOM     17  C   UNL     1       0.521  -3.600   2.187  1.00  0.00     0.024 A 
ATOM     18  C   UNL     1       2.326  -3.051   0.662  1.00  0.00     0.024 A 
ATOM     19  C   UNL     1       0.921  -4.937   2.177  1.00  0.00     0.028 A 
ATOM     20  C   UNL     1       2.701  -4.402   0.628  1.00  0.00     0.028 A 
BRANCH  16  21
ATOM     21  S   UNL     1       0.683  -0.976   1.485  1.00  0.00     0.238 S 
ATOM     22  O   UNL     1       1.371  -0.306   2.559  1.00  0.00    -0.207 OA
ATOM     23  O   UNL     1      -0.755  -0.968   1.339  1.00  0.00    -0.207 OA
BRANCH  21  24
ATOM     24  N   UNL     1       1.265  -0.295   0.062  1.00  0.00    -0.225 NA
ATOM     25  H   UNL     1       0.988   0.685   0.015  1.00  0.00     0.137 HD
ATOM     26  H   UNL     1       0.879  -0.796  -0.738  1.00  0.00     0.137 HD
ENDBRANCH  21  24
ENDBRANCH  16  21
ENDBRANCH  13  15
ENDBRANCH  10  13
ENDBRANCH   5  10
ENDBRANCH   2   4
ENDBRANCH   1   2
BRANCH   1  27
ATOM     27  C   UNL     1      -4.213 -11.026   2.422  1.00  0.00     0.275 C 
BRANCH  27  28
ATOM     28  C   UNL     1      -4.754 -10.783   3.833  1.00  0.00     0.275 C 
BRANCH  28  29
ATOM     29  O   UNL     1      -5.401  -9.501   3.938  1.00  0.00    -0.458 OA
BRANCH  29  30
ATOM     30  C   UNL     1      -4.681  -8.547   4.571  1.00  0.00     0.338 C 
ATOM     31  O   UNL     1      -3.581  -8.659   5.084  1.00  0.00    -0.246 OA
BRANCH  30  32
ATOM     32  C   UNL     1      -5.380  -7.256   4.499  1.00  0.00     0.060 A 
ATOM     33  C   UNL     1      -5.113  -6.428   3.411  1.00  0.00     0.016 A 
ATOM     34  C   UNL     1      -6.147  -6.792   5.566  1.00  0.00     0.016 A 
ATOM     35  C   UNL     1      -5.569  -5.114   3.402  1.00  0.00     0.010 A 
ATOM     36  C   UNL     1      -6.654  -5.485   5.529  1.00  0.00     0.010 A 
ATOM     37  C   UNL     1      -6.347  -4.622   4.459  1.00  0.00    -0.014 A 
BRANCH  37  38
ATOM     38  C   UNL     1      -6.785  -3.197   4.461  1.00  0.00     0.031 A 
ATOM     39  C   UNL     1      -6.332  -2.264   5.554  1.00  0.00     0.074 A 
ATOM     40  C   UNL     1      -7.561  -2.721   3.468  1.00  0.00     0.049 A 
ATOM     41  N   UNL     1      -6.715  -1.037   5.809  1.00  0.00    -0.248 NA
ATOM     42  C   UNL     1      -5.322  -2.782   6.489  1.00  0.00     0.031 C 
ATOM     43  C   UNL     1      -8.035  -3.494   2.319  1.00  0.00     0.029 A 
ATOM     44  N   UNL     1      -8.082  -1.467   3.260  1.00  0.00    -0.354 N 
ATOM     45  C   UNL     1      -6.036  -0.657   6.960  1.00  0.00     0.074 A 
ATOM     46  C   UNL     1      -5.220  -1.785   7.358  1.00  0.00     0.031 C 
ATOM     47  C   UNL     1      -8.746  -2.692   1.512  1.00  0.00     0.029 A 
ATOM     48  C   UNL     1      -8.850  -1.372   2.124  1.00  0.00     0.049 A 
ATOM     49  H   UNL     1      -7.921  -0.709   3.867  1.00  0.00     0.167 HD
ATOM     50  C   UNL     1      -6.087   0.523   7.624  1.00  0.00     0.037 A 
ATOM     51  C   UNL     1      -9.590  -0.353   1.647  1.00  0.00     0.037 A 
ATOM     52  C   UNL     1      -6.856   1.665   7.197  1.00  0.00     0.049 A 
ATOM     53  C   UNL     1      -9.660   0.934   2.418  1.00  0.00     0.074 A 
ATOM     54  C   UNL     1      -6.955   2.910   7.794  1.00  0.00     0.029 A 
ATOM     55  N   UNL     1      -7.645   1.706   6.058  1.00  0.00    -0.354 N 
ATOM     56  N   UNL     1      -9.053   1.263   3.532  1.00  0.00    -0.248 NA
ATOM     57  C   UNL     1     -10.534   1.984   1.876  1.00  0.00     0.031 C 
ATOM     58  C   UNL     1      -7.835   3.692   7.037  1.00  0.00     0.029 A 
ATOM     59  C   UNL     1      -8.247   2.949   5.944  1.00  0.00     0.049 A 
ATOM     60  H   UNL     1      -7.761   0.962   5.424  1.00  0.00     0.167 HD
ATOM     61  C   UNL     1      -9.459   2.560   3.817  1.00  0.00     0.074 A 
ATOM     62  C   UNL     1     -10.349   2.965   2.749  1.00  0.00     0.031 C 
ATOM     63  C   UNL     1      -9.128   3.342   4.873  1.00  0.00     0.037 A 
BRANCH  50  64
ATOM     64  C   UNL     1      -5.316   0.632   8.909  1.00  0.00     0.057 A 
ATOM     65  C   UNL     1      -3.919   0.716   8.940  1.00  0.00     0.134 A 
ATOM     66  C   UNL     1      -5.993   0.690  10.135  1.00  0.00     0.134 A 
ATOM     67  F   UNL     1      -3.210   0.655   7.803  1.00  0.00    -0.206 F 
ATOM     68  C   UNL     1      -3.221   0.827  10.144  1.00  0.00     0.040 A 
ATOM     69  C   UNL     1      -5.308   0.828  11.344  1.00  0.00     0.040 A 
ATOM     70  F   UNL     1      -7.332   0.624  10.179  1.00  0.00    -0.206 F 
ATOM     71  C   UNL     1      -3.916   0.890  11.351  1.00  0.00     0.006 A 
ENDBRANCH  50  64
BRANCH  51  72
ATOM     72  C   UNL     1     -10.363  -0.528   0.390  1.00  0.00     0.057 A 
ATOM     73  C   UNL     1     -10.021   0.167  -0.775  1.00  0.00     0.134 A 
ATOM     74  C   UNL     1     -11.460  -1.397   0.325  1.00  0.00     0.134 A 
ATOM     75  F   UNL     1      -8.997   1.033  -0.768  1.00  0.00    -0.206 F 
ATOM     76  C   UNL     1     -10.744   0.009  -1.958  1.00  0.00     0.040 A 
ATOM     77  C   UNL     1     -12.174  -1.586  -0.859  1.00  0.00     0.040 A 
ATOM     78  F   UNL     1     -11.840  -2.091   1.407  1.00  0.00    -0.206 F 
ATOM     79  C   UNL     1     -11.819  -0.877  -2.004  1.00  0.00     0.006 A 
ENDBRANCH  51  72
BRANCH  63  80
ATOM     80  C   UNL     1      -9.705   4.726   4.907  1.00  0.00     0.057 A 
ATOM     81  C   UNL     1     -11.053   4.958   5.207  1.00  0.00     0.134 A 
ATOM     82  C   UNL     1      -8.895   5.842   4.662  1.00  0.00     0.134 A 
ATOM     83  F   UNL     1     -11.885   3.931   5.437  1.00  0.00    -0.206 F 
ATOM     84  C   UNL     1     -11.580   6.250   5.242  1.00  0.00     0.040 A 
ATOM     85  C   UNL     1      -9.404   7.140   4.718  1.00  0.00     0.040 A 
ATOM     86  F   UNL     1      -7.593   5.689   4.374  1.00  0.00    -0.206 F 
ATOM     87  C   UNL     1     -10.752   7.346   5.003  1.00  0.00     0.006 A 
ENDBRANCH  63  80
ENDBRANCH  37  38
ENDBRANCH  30  32
ENDBRANCH  29  30
ENDBRANCH  28  29
ENDBRANCH  27  28
ENDBRANCH   1  27
TORSDOF 16
