REMARK SMILES NS(=O)(=O)c1ccc(/N=N/c2ccc(O)c(C(=O)OCCOC(=O)c3ccc(-c4c5nc(c(-c6c(F)cccc6F)c6ccc([nH]6)c(-c6c(F)cccc6F)c6nc(c(-c7c(F)cccc7F)c7ccc4[nH]7)C=C6)C=C5)cc3)c2)cc1
REMARK SMILES IDX 20 1 19 2 17 3 18 4 16 5 11 6 12 7 79 8 13 9 14 10 10 11
REMARK SMILES IDX 9 12 8 13 5 14 6 15 81 16 7 17 80 18 2 19 3 20 4 21 1 22
REMARK SMILES IDX 15 25 21 27 22 28 23 29 24 30 25 31 26 32 78 33 27 34 77 35
REMARK SMILES IDX 28 36 29 37 30 38 71 39 31 40 76 41 70 42 72 43 32 44 75 45
REMARK SMILES IDX 69 46 68 47 33 49 59 50 42 51 58 52 43 53 46 54 57 55 73 56
REMARK SMILES IDX 44 57 45 58 56 60 74 61 47 62 34 63 35 64 40 65 36 66 37 67
REMARK SMILES IDX 39 68 41 69 38 70 60 71 61 72 66 73 62 74 63 75 65 76 67 77
REMARK SMILES IDX 64 78 48 79 49 80 54 81 50 82 51 83 53 84 55 85 52 86
REMARK H PARENT 1 23 1 24 15 26 72 48 46 59
REMARK Flexibility Score: inf
ROOT
ATOM      1  C   UNL     1       7.177  -0.345  10.224  1.00  0.00     0.275 C 
ENDROOT
BRANCH   1   2
ATOM      2  O   UNL     1       6.034   0.405   9.772  1.00  0.00    -0.458 OA
BRANCH   2   3
ATOM      3  C   UNL     1       5.146   0.779  10.722  1.00  0.00     0.342 C 
ATOM      4  O   UNL     1       5.197   0.509  11.914  1.00  0.00    -0.246 OA
BRANCH   3   5
ATOM      5  C   UNL     1       4.102   1.677  10.173  1.00  0.00     0.104 A 
ATOM      6  C   UNL     1       2.941   2.696   8.294  1.00  0.00     0.087 A 
ATOM      7  C   UNL     1       2.229   3.509   9.184  1.00  0.00     0.034 A 
ATOM      8  C   UNL     1       3.896   1.801   8.793  1.00  0.00     0.049 A 
ATOM      9  C   UNL     1       2.415   3.383  10.560  1.00  0.00     0.049 A 
ATOM     10  C   UNL     1       3.327   2.452  11.051  1.00  0.00     0.130 A 
BRANCH   6  11
ATOM     11  N   UNL     1       2.698   2.789   6.913  1.00  0.00    -0.151 NA
ATOM     12  N   UNL     1       2.030   1.796   6.550  1.00  0.00    -0.151 NA
BRANCH  12  13
ATOM     13  C   UNL     1       1.722   1.801   5.176  1.00  0.00     0.086 A 
ATOM     14  C   UNL     1       0.986   1.651   2.471  1.00  0.00     0.082 A 
ATOM     15  C   UNL     1       1.169   0.477   3.203  1.00  0.00     0.024 A 
ATOM     16  C   UNL     1       1.174   2.898   3.070  1.00  0.00     0.024 A 
ATOM     17  C   UNL     1       1.535   0.560   4.550  1.00  0.00     0.031 A 
ATOM     18  C   UNL     1       1.532   2.969   4.420  1.00  0.00     0.031 A 
BRANCH  14  19
ATOM     19  S   UNL     1       0.527   1.577   0.766  1.00  0.00     0.238 S 
ATOM     20  O   UNL     1       1.150   2.681   0.068  1.00  0.00    -0.207 OA
ATOM     21  O   UNL     1      -0.883   1.294   0.684  1.00  0.00    -0.207 OA
BRANCH  19  22
ATOM     22  N   UNL     1       1.316   0.205   0.198  1.00  0.00    -0.225 NA
ATOM     23  H   UNL     1       1.107   0.078  -0.793  1.00  0.00     0.137 HD
ATOM     24  H   UNL     1       0.997  -0.612   0.719  1.00  0.00     0.137 HD
ENDBRANCH  19  22
ENDBRANCH  14  19
ENDBRANCH  12  13
ENDBRANCH   6  11
BRANCH  10  25
ATOM     25  O   UNL     1       3.434   2.381  12.415  1.00  0.00    -0.507 OA
ATOM     26  H   UNL     1       2.892   2.921  12.956  1.00  0.00     0.293 HD
ENDBRANCH  10  25
ENDBRANCH   3   5
ENDBRANCH   2   3
ENDBRANCH   1   2
BRANCH   1  27
ATOM     27  C   UNL     1       8.422   0.541  10.331  1.00  0.00     0.275 C 
BRANCH  27  28
ATOM     28  O   UNL     1       8.276   1.528  11.371  1.00  0.00    -0.458 OA
BRANCH  28  29
ATOM     29  C   UNL     1       7.867   2.748  10.946  1.00  0.00     0.338 C 
ATOM     30  O   UNL     1       7.690   3.099   9.791  1.00  0.00    -0.246 OA
BRANCH  29  31
ATOM     31  C   UNL     1       7.473   3.582  12.099  1.00  0.00     0.060 A 
ATOM     32  C   UNL     1       6.228   4.209  12.024  1.00  0.00     0.016 A 
ATOM     33  C   UNL     1       8.295   3.784  13.211  1.00  0.00     0.016 A 
ATOM     34  C   UNL     1       5.778   5.011  13.067  1.00  0.00     0.010 A 
ATOM     35  C   UNL     1       7.856   4.622  14.249  1.00  0.00     0.010 A 
ATOM     36  C   UNL     1       6.595   5.241  14.180  1.00  0.00    -0.014 A 
BRANCH  36  37
ATOM     37  C   UNL     1       6.131   6.207  15.206  1.00  0.00     0.031 A 
ATOM     38  C   UNL     1       6.594   7.635  15.142  1.00  0.00     0.074 A 
ATOM     39  C   UNL     1       5.230   5.834  16.132  1.00  0.00     0.049 A 
ATOM     40  N   UNL     1       6.246   8.653  15.889  1.00  0.00    -0.248 NA
ATOM     41  C   UNL     1       7.571   7.962  14.093  1.00  0.00     0.031 C 
ATOM     42  C   UNL     1       4.670   4.491  16.273  1.00  0.00     0.029 A 
ATOM     43  N   UNL     1       4.618   6.560  17.124  1.00  0.00    -0.354 N 
ATOM     44  C   UNL     1       6.957   9.741  15.400  1.00  0.00     0.074 A 
ATOM     45  C   UNL     1       7.776   9.254  14.309  1.00  0.00     0.031 C 
ATOM     46  C   UNL     1       3.800   4.487  17.299  1.00  0.00     0.029 A 
ATOM     47  C   UNL     1       3.755   5.820  17.895  1.00  0.00     0.049 A 
ATOM     48  H   UNL     1       4.782   7.520  17.268  1.00  0.00     0.167 HD
ATOM     49  C   UNL     1       6.925  11.029  15.816  1.00  0.00     0.037 A 
ATOM     50  C   UNL     1       3.021   6.177  18.967  1.00  0.00     0.037 A 
ATOM     51  C   UNL     1       6.110  11.517  16.899  1.00  0.00     0.049 A 
ATOM     52  C   UNL     1       3.043   7.607  19.439  1.00  0.00     0.074 A 
ATOM     53  C   UNL     1       5.997  12.812  17.375  1.00  0.00     0.029 A 
ATOM     54  N   UNL     1       5.278  10.731  17.681  1.00  0.00    -0.354 N 
ATOM     55  N   UNL     1       3.688   8.636  18.943  1.00  0.00    -0.248 NA
ATOM     56  C   UNL     1       2.221   7.928  20.616  1.00  0.00     0.031 C 
ATOM     57  C   UNL     1       5.137  12.801  18.479  1.00  0.00     0.029 A 
ATOM     58  C   UNL     1       4.670  11.509  18.655  1.00  0.00     0.049 A 
ATOM     59  H   UNL     1       5.139   9.764  17.563  1.00  0.00     0.167 HD
ATOM     60  C   UNL     1       3.328   9.726  19.727  1.00  0.00     0.074 A 
ATOM     61  C   UNL     1       2.391   9.238  20.716  1.00  0.00     0.031 C 
ATOM     62  C   UNL     1       3.738  11.015  19.636  1.00  0.00     0.037 A 
BRANCH  49  63
ATOM     63  C   UNL     1       7.823  12.005  15.116  1.00  0.00     0.057 A 
ATOM     64  C   UNL     1       7.556  12.462  13.820  1.00  0.00     0.134 A 
ATOM     65  C   UNL     1       8.944  12.531  15.771  1.00  0.00     0.134 A 
ATOM     66  F   UNL     1       6.506  11.988  13.134  1.00  0.00    -0.206 F 
ATOM     67  C   UNL     1       8.382  13.398  13.193  1.00  0.00     0.040 A 
ATOM     68  C   UNL     1       9.763  13.484  15.164  1.00  0.00     0.040 A 
ATOM     69  F   UNL     1       9.253  12.137  17.015  1.00  0.00    -0.206 F 
ATOM     70  C   UNL     1       9.485  13.917  13.869  1.00  0.00     0.006 A 
ENDBRANCH  49  63
BRANCH  50  71
ATOM     71  C   UNL     1       2.212   5.163  19.691  1.00  0.00     0.057 A 
ATOM     72  C   UNL     1       0.814   5.214  19.708  1.00  0.00     0.134 A 
ATOM     73  C   UNL     1       2.829   4.149  20.436  1.00  0.00     0.134 A 
ATOM     74  F   UNL     1       0.165   6.178  19.038  1.00  0.00    -0.206 F 
ATOM     75  C   UNL     1       0.058   4.314  20.463  1.00  0.00     0.040 A 
ATOM     76  C   UNL     1       2.085   3.225  21.171  1.00  0.00     0.040 A 
ATOM     77  F   UNL     1       4.165   4.046  20.463  1.00  0.00    -0.206 F 
ATOM     78  C   UNL     1       0.695   3.314  21.195  1.00  0.00     0.006 A 
ENDBRANCH  50  71
BRANCH  62  79
ATOM     79  C   UNL     1       3.146  11.993  20.613  1.00  0.00     0.057 A 
ATOM     80  C   UNL     1       3.461  11.963  21.978  1.00  0.00     0.134 A 
ATOM     81  C   UNL     1       2.253  12.982  20.180  1.00  0.00     0.134 A 
ATOM     82  F   UNL     1       4.300  11.036  22.462  1.00  0.00    -0.206 F 
ATOM     83  C   UNL     1       2.878  12.854  22.882  1.00  0.00     0.040 A 
ATOM     84  C   UNL     1       1.689  13.898  21.069  1.00  0.00     0.040 A 
ATOM     85  F   UNL     1       1.917  13.078  18.884  1.00  0.00    -0.206 F 
ATOM     86  C   UNL     1       1.992  13.828  22.427  1.00  0.00     0.006 A 
ENDBRANCH  62  79
ENDBRANCH  36  37
ENDBRANCH  29  31
ENDBRANCH  28  29
ENDBRANCH  27  28
ENDBRANCH   1  27
TORSDOF 16
