REMARK SMILES Cc1ccccc1C(=O)Nc1cc(C(=O)OCCOC(=O)c2ccc(-c3c4nc(c(-c5c(F)cccc5F)c5ccc([nH]5)c(-c5c(F)cccc5F)c5nc(c(-c6c(F)cccc6F)c6ccc3[nH]6)C=C5)C=C4)cc2)ccc1N1CC[NH+](CC(=O)Nc2ccc(F)cc2)CC1
REMARK SMILES IDX 17 1 16 2 14 3 15 4 13 5 11 6 12 7 78 8 77 9 76 10 10 11
REMARK SMILES IDX 8 12 9 13 7 15 1 16 2 17 3 18 4 19 6 20 5 21 79 22 80 23
REMARK SMILES IDX 95 24 81 25 94 26 82 27 83 29 84 30 85 31 86 32 87 34 88 35
REMARK SMILES IDX 93 36 89 37 92 38 90 39 91 40 18 41 19 42 20 43 21 44 22 45
REMARK SMILES IDX 23 46 75 47 24 48 74 49 25 50 26 51 27 52 68 53 28 54 73 55
REMARK SMILES IDX 67 56 69 57 29 58 72 59 66 60 65 61 30 63 56 64 39 65 55 66
REMARK SMILES IDX 40 67 43 68 54 69 70 70 41 71 42 72 53 74 71 75 44 76 31 77
REMARK SMILES IDX 32 78 37 79 33 80 34 81 36 82 38 83 35 84 57 85 58 86 63 87
REMARK SMILES IDX 59 88 60 89 62 90 64 91 61 92 45 93 46 94 51 95 47 96 48 97
REMARK SMILES IDX 50 98 52 99 49 100
REMARK H PARENT 10 14 82 28 86 33 69 62 43 73
REMARK Flexibility Score: inf
ROOT
ATOM      1  C   UNL     1       1.743  -3.354  -4.409  1.00  0.00     0.275 C 
ENDROOT
BRANCH   1   2
ATOM      2  O   UNL     1       1.598  -2.724  -3.155  1.00  0.00    -0.458 OA
BRANCH   2   3
ATOM      3  C   UNL     1       2.343  -1.634  -3.109  1.00  0.00     0.338 C 
ATOM      4  O   UNL     1       2.571  -0.882  -4.051  1.00  0.00    -0.246 OA
BRANCH   3   5
ATOM      5  C   UNL     1       2.977  -1.431  -1.743  1.00  0.00     0.062 A 
ATOM      6  C   UNL     1       3.283   1.397  -0.794  1.00  0.00     0.065 A 
ATOM      7  C   UNL     1       2.481   0.272  -1.706  1.00  0.00     0.044 A 
ATOM      8  C   UNL     1       4.779   1.036   0.125  1.00  0.00     0.061 A 
ATOM      9  C   UNL     1       5.459  -0.619   0.258  1.00  0.00     0.029 A 
ATOM     10  C   UNL     1       4.606  -1.989  -0.636  1.00  0.00     0.018 A 
BRANCH   6  11
ATOM     11  N   UNL     1       2.526   2.631  -0.624  1.00  0.00    -0.320 N 
ATOM     12  C   UNL     1       1.114   2.944  -0.688  1.00  0.00     0.255 C 
ATOM     13  O   UNL     1       0.788   4.129  -0.563  1.00  0.00    -0.269 OA
ATOM     14  H   UNL     1       3.092   3.412  -0.425  1.00  0.00     0.170 HD
BRANCH  12  15
ATOM     15  C   UNL     1      -0.047   1.938  -0.751  1.00  0.00     0.043 A 
ATOM     16  C   UNL     1       0.974   0.699   1.037  1.00  0.00     0.045 C 
ATOM     17  C   UNL     1       0.082   0.733  -0.122  1.00  0.00    -0.038 A 
ATOM     18  C   UNL     1      -0.579  -0.376  -0.641  1.00  0.00     0.004 A 
ATOM     19  C   UNL     1      -1.835  -0.208  -1.170  1.00  0.00     0.000 A 
ATOM     20  C   UNL     1      -1.363   2.168  -1.161  1.00  0.00     0.014 A 
ATOM     21  C   UNL     1      -2.286   1.095  -1.287  1.00  0.00     0.001 A 
ENDBRANCH  12  15
ENDBRANCH   6  11
BRANCH   8  22
ATOM     22  N   UNL     1       5.313   2.143   0.825  1.00  0.00    -0.359 N 
ATOM     23  C   UNL     1       6.715   2.515   1.168  1.00  0.00     0.178 C 
ATOM     24  C   UNL     1       4.385   2.663   1.817  1.00  0.00     0.178 C 
ATOM     25  C   UNL     1       6.816   4.056   1.566  1.00  0.00     0.284 C 
ATOM     26  C   UNL     1       4.504   4.218   1.867  1.00  0.00     0.284 C 
ATOM     27  N   UNL     1       5.766   4.644   2.410  1.00  0.00    -0.324 N 
ATOM     28  H   UNL     1       6.011   5.632   2.345  1.00  0.00     0.348 HD
BRANCH  27  29
ATOM     29  C   UNL     1       5.738   4.590   3.890  1.00  0.00     0.364 C 
BRANCH  29  30
ATOM     30  C   UNL     1       5.260   3.304   4.600  1.00  0.00     0.279 C 
ATOM     31  O   UNL     1       6.144   2.546   5.043  1.00  0.00    -0.268 OA
ATOM     32  N   UNL     1       3.976   2.893   4.897  1.00  0.00    -0.321 N 
ATOM     33  H   UNL     1       4.040   2.171   5.564  1.00  0.00     0.170 HD
BRANCH  32  34
ATOM     34  C   UNL     1       2.586   3.103   4.614  1.00  0.00     0.041 A 
ATOM     35  C   UNL     1       1.684   2.497   5.504  1.00  0.00     0.029 A 
ATOM     36  C   UNL     1       1.960   3.708   3.520  1.00  0.00     0.029 A 
ATOM     37  C   UNL     1       0.284   2.608   5.352  1.00  0.00     0.041 A 
ATOM     38  C   UNL     1       0.577   3.866   3.362  1.00  0.00     0.041 A 
ATOM     39  C   UNL     1      -0.258   3.328   4.300  1.00  0.00     0.123 A 
ATOM     40  F   UNL     1      -1.581   3.451   4.154  1.00  0.00    -0.207 F 
ENDBRANCH  32  34
ENDBRANCH  29  30
ENDBRANCH  27  29
ENDBRANCH   8  22
ENDBRANCH   3   5
ENDBRANCH   2   3
ENDBRANCH   1   2
BRANCH   1  41
ATOM     41  C   UNL     1       3.065  -3.132  -5.263  1.00  0.00     0.275 C 
BRANCH  41  42
ATOM     42  O   UNL     1       4.479  -3.117  -4.762  1.00  0.00    -0.458 OA
BRANCH  42  43
ATOM     43  C   UNL     1       5.263  -2.141  -4.130  1.00  0.00     0.338 C 
ATOM     44  O   UNL     1       6.431  -1.939  -4.429  1.00  0.00    -0.246 OA
BRANCH  43  45
ATOM     45  C   UNL     1       4.828  -1.897  -2.737  1.00  0.00     0.060 A 
ATOM     46  C   UNL     1       4.552  -0.441  -1.641  1.00  0.00     0.016 A 
ATOM     47  C   UNL     1       4.087  -3.402  -2.319  1.00  0.00     0.016 A 
ATOM     48  C   UNL     1       3.359  -0.800  -0.014  1.00  0.00     0.010 A 
ATOM     49  C   UNL     1       3.007  -3.561  -1.080  1.00  0.00     0.010 A 
ATOM     50  C   UNL     1       2.580  -2.450   0.157  1.00  0.00    -0.014 A 
BRANCH  50  51
ATOM     51  C   UNL     1       1.418  -3.284   0.926  1.00  0.00     0.031 A 
ATOM     52  C   UNL     1       0.114  -2.710   1.463  1.00  0.00     0.074 A 
ATOM     53  C   UNL     1       1.390  -4.667   0.730  1.00  0.00     0.049 A 
ATOM     54  N   UNL     1      -1.063  -2.903   0.923  1.00  0.00    -0.248 NA
ATOM     55  C   UNL     1       0.041  -1.794   2.615  1.00  0.00     0.031 C 
ATOM     56  C   UNL     1       0.305  -5.668   0.763  1.00  0.00     0.029 A 
ATOM     57  N   UNL     1       2.471  -5.531   0.409  1.00  0.00    -0.354 N 
ATOM     58  C   UNL     1      -2.015  -2.120   1.600  1.00  0.00     0.074 A 
ATOM     59  C   UNL     1      -1.208  -1.303   2.503  1.00  0.00     0.031 C 
ATOM     60  C   UNL     1       0.818  -6.919   0.881  1.00  0.00     0.029 A 
ATOM     61  C   UNL     1       2.260  -6.804   0.947  1.00  0.00     0.049 A 
ATOM     62  H   UNL     1       3.259  -5.270  -0.120  1.00  0.00     0.167 HD
ATOM     63  C   UNL     1      -3.131  -2.691   2.148  1.00  0.00     0.037 A 
ATOM     64  C   UNL     1       3.128  -7.191   1.921  1.00  0.00     0.037 A 
ATOM     65  C   UNL     1      -2.827  -4.027   2.585  1.00  0.00     0.049 A 
ATOM     66  C   UNL     1       2.400  -6.923   3.212  1.00  0.00     0.074 A 
ATOM     67  C   UNL     1      -2.966  -5.276   2.026  1.00  0.00     0.029 A 
ATOM     68  N   UNL     1      -1.955  -4.153   3.652  1.00  0.00    -0.354 N 
ATOM     69  N   UNL     1       1.395  -6.088   3.312  1.00  0.00    -0.248 NA
ATOM     70  C   UNL     1       2.609  -7.707   4.417  1.00  0.00     0.031 C 
ATOM     71  C   UNL     1      -2.069  -6.140   2.729  1.00  0.00     0.029 A 
ATOM     72  C   UNL     1      -1.405  -5.414   3.715  1.00  0.00     0.049 A 
ATOM     73  H   UNL     1      -1.752  -3.429   4.288  1.00  0.00     0.167 HD
ATOM     74  C   UNL     1       0.722  -6.335   4.461  1.00  0.00     0.074 A 
ATOM     75  C   UNL     1       1.539  -7.332   5.137  1.00  0.00     0.031 C 
ATOM     76  C   UNL     1      -0.466  -5.748   4.787  1.00  0.00     0.037 A 
BRANCH  63  77
ATOM     77  C   UNL     1      -4.495  -2.030   2.157  1.00  0.00     0.057 A 
ATOM     78  C   UNL     1      -5.644  -2.774   2.492  1.00  0.00     0.134 A 
ATOM     79  C   UNL     1      -4.755  -0.701   1.764  1.00  0.00     0.134 A 
ATOM     80  F   UNL     1      -5.546  -4.037   2.930  1.00  0.00    -0.206 F 
ATOM     81  C   UNL     1      -6.950  -2.269   2.376  1.00  0.00     0.040 A 
ATOM     82  C   UNL     1      -6.061  -0.179   1.651  1.00  0.00     0.040 A 
ATOM     83  F   UNL     1      -3.753   0.143   1.477  1.00  0.00    -0.206 F 
ATOM     84  C   UNL     1      -7.167  -0.971   1.937  1.00  0.00     0.006 A 
ENDBRANCH  63  77
BRANCH  64  85
ATOM     85  C   UNL     1       4.520  -6.777   1.510  1.00  0.00     0.057 A 
ATOM     86  C   UNL     1       5.009  -7.330   0.295  1.00  0.00     0.134 A 
ATOM     87  C   UNL     1       5.019  -5.524   1.874  1.00  0.00     0.134 A 
ATOM     88  F   UNL     1       4.577  -8.533  -0.118  1.00  0.00    -0.206 F 
ATOM     89  C   UNL     1       5.760  -6.579  -0.616  1.00  0.00     0.040 A 
ATOM     90  C   UNL     1       5.811  -4.785   0.986  1.00  0.00     0.040 A 
ATOM     91  F   UNL     1       4.584  -4.911   2.983  1.00  0.00    -0.206 F 
ATOM     92  C   UNL     1       6.135  -5.287  -0.281  1.00  0.00     0.006 A 
ENDBRANCH  64  85
BRANCH  76  93
ATOM     93  C   UNL     1      -0.844  -5.540   6.228  1.00  0.00     0.057 A 
ATOM     94  C   UNL     1       0.093  -5.597   7.272  1.00  0.00     0.134 A 
ATOM     95  C   UNL     1      -2.138  -5.140   6.616  1.00  0.00     0.134 A 
ATOM     96  F   UNL     1       1.410  -5.700   7.044  1.00  0.00    -0.206 F 
ATOM     97  C   UNL     1      -0.268  -5.488   8.611  1.00  0.00     0.040 A 
ATOM     98  C   UNL     1      -2.483  -4.907   7.945  1.00  0.00     0.040 A 
ATOM     99  F   UNL     1      -3.118  -4.912   5.732  1.00  0.00    -0.206 F 
ATOM    100  C   UNL     1      -1.563  -5.140   8.953  1.00  0.00     0.006 A 
ENDBRANCH  76  93
ENDBRANCH  50  51
ENDBRANCH  43  45
ENDBRANCH  42  43
ENDBRANCH  41  42
ENDBRANCH   1  41
TORSDOF 17
