REMARK SMILES COc1ccc(OC)c(NC(=O)[C@@H]2[C@@H](C(=O)OCCOC(=O)c3ccc(-c4c5nc(c(-c6c(F)cccc6F)c6ccc([nH]6)c(-c6c(F)cccc6F)c6nc(c(-c7c(F)cccc7F)c7ccc4[nH]7)C=C6)C=C5)cc3)[C@H]3C=C[C@@H]2C3)c1
REMARK SMILES IDX 18 1 17 2 15 3 16 4 14 5 13 6 80 7 77 8 79 9 81 10 78 11
REMARK SMILES IDX 11 12 10 13 12 15 9 16 3 17 4 18 82 19 5 20 6 21 2 22 1 23
REMARK SMILES IDX 7 24 8 25 19 26 20 27 21 28 22 29 23 30 24 31 76 32 25 33
REMARK SMILES IDX 75 34 26 35 27 36 28 37 69 38 29 39 74 40 68 41 70 42 30 43
REMARK SMILES IDX 73 44 67 45 66 46 31 48 57 49 40 50 56 51 41 52 44 53 55 54
REMARK SMILES IDX 71 55 42 56 43 57 54 59 72 60 45 61 32 62 33 63 38 64 34 65
REMARK SMILES IDX 35 66 37 67 39 68 36 69 58 70 59 71 64 72 60 73 61 74 63 75
REMARK SMILES IDX 65 76 62 77 46 78 47 79 52 80 48 81 49 82 51 83 53 84 50 85
REMARK H PARENT 10 14 70 47 44 58
REMARK Flexibility Score: inf
ROOT
ATOM      1  C   UNL     1       0.702   8.668   3.023  1.00  0.00     0.274 C 
ENDROOT
BRANCH   1   2
ATOM      2  O   UNL     1       1.912   8.348   3.737  1.00  0.00    -0.462 OA
BRANCH   2   3
ATOM      3  C   UNL     1       2.366   7.083   3.555  1.00  0.00     0.310 C 
ATOM      4  O   UNL     1       1.823   6.256   2.831  1.00  0.00    -0.252 OA
BRANCH   3   5
ATOM      5  C   UNL     1       3.688   6.806   4.231  1.00  0.00     0.119 C 
ATOM      6  C   UNL     1       3.668   5.383   4.867  1.00  0.00     0.100 C 
ATOM      7  C   UNL     1       4.310   5.638   6.256  1.00  0.00     0.025 C 
ATOM      8  C   UNL     1       4.096   7.704   5.420  1.00  0.00     0.027 C 
ATOM      9  C   UNL     1       3.253   6.343   7.078  1.00  0.00    -0.027 C 
ATOM     10  C   UNL     1       5.226   6.843   6.000  1.00  0.00     0.017 C 
ATOM     11  C   UNL     1       3.112   7.574   6.563  1.00  0.00    -0.027 C 
BRANCH   6  12
ATOM     12  C   UNL     1       4.441   4.351   4.073  1.00  0.00     0.229 C 
ATOM     13  N   UNL     1       3.866   3.415   3.268  1.00  0.00    -0.323 N 
ATOM     14  H   UNL     1       4.538   2.881   2.785  1.00  0.00     0.170 HD
ATOM     15  O   UNL     1       5.679   4.381   4.066  1.00  0.00    -0.274 OA
BRANCH  13  16
ATOM     16  C   UNL     1       2.547   3.018   2.952  1.00  0.00     0.087 A 
ATOM     17  C   UNL     1       1.149   2.062   1.195  1.00  0.00     0.121 A 
ATOM     18  C   UNL     1      -0.003   2.405   1.888  1.00  0.00     0.050 A 
ATOM     19  C   UNL     1       2.409   2.388   1.701  1.00  0.00     0.076 A 
ATOM     20  C   UNL     1       0.119   2.940   3.165  1.00  0.00     0.052 A 
ATOM     21  C   UNL     1       1.386   3.167   3.725  1.00  0.00     0.142 A 
BRANCH  17  22
ATOM     22  O   UNL     1       1.030   1.452  -0.023  1.00  0.00    -0.497 OA
ATOM     23  C   UNL     1       1.143   0.035   0.137  1.00  0.00     0.278 C 
ENDBRANCH  17  22
BRANCH  21  24
ATOM     24  O   UNL     1       1.348   3.465   5.061  1.00  0.00    -0.495 OA
ATOM     25  C   UNL     1       1.980   2.458   5.849  1.00  0.00     0.278 C 
ENDBRANCH  21  24
ENDBRANCH  13  16
ENDBRANCH   6  12
ENDBRANCH   3   5
ENDBRANCH   2   3
ENDBRANCH   1   2
BRANCH   1  26
ATOM     26  C   UNL     1       0.984   9.340   1.674  1.00  0.00     0.275 C 
BRANCH  26  27
ATOM     27  O   UNL     1       1.614   8.456   0.727  1.00  0.00    -0.458 OA
BRANCH  27  28
ATOM     28  C   UNL     1       2.964   8.436   0.772  1.00  0.00     0.338 C 
ATOM     29  O   UNL     1       3.690   9.104   1.502  1.00  0.00    -0.246 OA
BRANCH  28  30
ATOM     30  C   UNL     1       3.495   7.389  -0.111  1.00  0.00     0.060 A 
ATOM     31  C   UNL     1       4.231   6.353   0.470  1.00  0.00     0.016 A 
ATOM     32  C   UNL     1       3.378   7.479  -1.498  1.00  0.00     0.016 A 
ATOM     33  C   UNL     1       4.879   5.416  -0.323  1.00  0.00     0.010 A 
ATOM     34  C   UNL     1       4.023   6.530  -2.299  1.00  0.00     0.010 A 
ATOM     35  C   UNL     1       4.789   5.507  -1.714  1.00  0.00    -0.014 A 
BRANCH  35  36
ATOM     36  C   UNL     1       5.554   4.553  -2.545  1.00  0.00     0.031 A 
ATOM     37  C   UNL     1       6.815   5.001  -3.219  1.00  0.00     0.074 A 
ATOM     38  C   UNL     1       5.139   3.280  -2.650  1.00  0.00     0.049 A 
ATOM     39  N   UNL     1       7.574   4.352  -4.063  1.00  0.00    -0.248 NA
ATOM     40  C   UNL     1       7.284   6.359  -2.902  1.00  0.00     0.031 C 
ATOM     41  C   UNL     1       3.959   2.723  -1.990  1.00  0.00     0.029 A 
ATOM     42  N   UNL     1       5.663   2.225  -3.352  1.00  0.00    -0.354 N 
ATOM     43  C   UNL     1       8.594   5.230  -4.402  1.00  0.00     0.074 A 
ATOM     44  C   UNL     1       8.356   6.459  -3.674  1.00  0.00     0.031 C 
ATOM     45  C   UNL     1       3.853   1.425  -2.315  1.00  0.00     0.029 A 
ATOM     46  C   UNL     1       4.921   1.076  -3.245  1.00  0.00     0.049 A 
ATOM     47  H   UNL     1       6.491   2.287  -3.882  1.00  0.00     0.167 HD
ATOM     48  C   UNL     1       9.630   5.027  -5.249  1.00  0.00     0.037 A 
ATOM     49  C   UNL     1       5.066  -0.113  -3.859  1.00  0.00     0.037 A 
ATOM     50  C   UNL     1       9.865   3.796  -5.957  1.00  0.00     0.049 A 
ATOM     51  C   UNL     1       6.188  -0.293  -4.841  1.00  0.00     0.074 A 
ATOM     52  C   UNL     1      10.882   3.490  -6.845  1.00  0.00     0.029 A 
ATOM     53  N   UNL     1       9.071   2.664  -5.852  1.00  0.00    -0.354 N 
ATOM     54  N   UNL     1       7.127   0.554  -5.187  1.00  0.00    -0.248 NA
ATOM     55  C   UNL     1       6.260  -1.587  -5.534  1.00  0.00     0.031 C 
ATOM     56  C   UNL     1      10.683   2.182  -7.302  1.00  0.00     0.029 A 
ATOM     57  C   UNL     1       9.564   1.662  -6.671  1.00  0.00     0.049 A 
ATOM     58  H   UNL     1       8.274   2.584  -5.280  1.00  0.00     0.167 HD
ATOM     59  C   UNL     1       7.904  -0.103  -6.130  1.00  0.00     0.074 A 
ATOM     60  C   UNL     1       7.340  -1.429  -6.287  1.00  0.00     0.031 C 
ATOM     61  C   UNL     1       8.985   0.350  -6.810  1.00  0.00     0.037 A 
BRANCH  48  62
ATOM     62  C   UNL     1      10.560   6.177  -5.484  1.00  0.00     0.057 A 
ATOM     63  C   UNL     1      11.505   6.575  -4.531  1.00  0.00     0.134 A 
ATOM     64  C   UNL     1      10.519   6.887  -6.691  1.00  0.00     0.134 A 
ATOM     65  F   UNL     1      11.582   5.946  -3.348  1.00  0.00    -0.206 F 
ATOM     66  C   UNL     1      12.364   7.651  -4.762  1.00  0.00     0.040 A 
ATOM     67  C   UNL     1      11.386   7.951  -6.942  1.00  0.00     0.040 A 
ATOM     68  F   UNL     1       9.637   6.556  -7.646  1.00  0.00    -0.206 F 
ATOM     69  C   UNL     1      12.309   8.339  -5.973  1.00  0.00     0.006 A 
ENDBRANCH  48  62
BRANCH  49  70
ATOM     70  C   UNL     1       4.102  -1.207  -3.592  1.00  0.00     0.057 A 
ATOM     71  C   UNL     1       4.484  -2.352  -2.885  1.00  0.00     0.134 A 
ATOM     72  C   UNL     1       2.776  -1.136  -4.038  1.00  0.00     0.134 A 
ATOM     73  F   UNL     1       5.746  -2.487  -2.451  1.00  0.00    -0.206 F 
ATOM     74  C   UNL     1       3.586  -3.392  -2.638  1.00  0.00     0.040 A 
ATOM     75  C   UNL     1       1.861  -2.157  -3.776  1.00  0.00     0.040 A 
ATOM     76  F   UNL     1       2.348  -0.065  -4.722  1.00  0.00    -0.206 F 
ATOM     77  C   UNL     1       2.268  -3.292  -3.079  1.00  0.00     0.006 A 
ENDBRANCH  49  70
BRANCH  61  78
ATOM     78  C   UNL     1       9.634  -0.602  -7.767  1.00  0.00     0.057 A 
ATOM     79  C   UNL     1       9.062  -0.897  -9.011  1.00  0.00     0.134 A 
ATOM     80  C   UNL     1      10.860  -1.203  -7.456  1.00  0.00     0.134 A 
ATOM     81  F   UNL     1       7.881  -0.364  -9.360  1.00  0.00    -0.206 F 
ATOM     82  C   UNL     1       9.680  -1.771  -9.906  1.00  0.00     0.040 A 
ATOM     83  C   UNL     1      11.497  -2.062  -8.351  1.00  0.00     0.040 A 
ATOM     84  F   UNL     1      11.460  -0.956  -6.282  1.00  0.00    -0.206 F 
ATOM     85  C   UNL     1      10.904  -2.351  -9.579  1.00  0.00     0.006 A 
ENDBRANCH  61  78
ENDBRANCH  35  36
ENDBRANCH  28  30
ENDBRANCH  27  28
ENDBRANCH  26  27
ENDBRANCH   1  26
TORSDOF 15
