REMARK SMILES C[C@H]([C@@H](C)C(=O)OCCOC(=O)c1ccc(-c2c3nc(c(-c4c(F)cccc4F)c4ccc([nH]4)c(-c4c(F)cccc4F)c4nc(c(-c5c(F)cccc5F)c5ccc2[nH]5)C=C4)C=C3)cc1)[S@@](=O)c1ccc2ccccc2c1
REMARK SMILES IDX 8 1 7 2 5 3 6 4 3 5 4 6 2 7 1 8 67 9 68 10 69 11 70 12 78 13
REMARK SMILES IDX 71 14 77 15 72 16 76 17 73 18 75 19 74 20 9 21 10 22 11 23
REMARK SMILES IDX 12 24 13 25 14 26 66 27 15 28 65 29 16 30 17 31 18 32 59 33
REMARK SMILES IDX 19 34 64 35 58 36 60 37 20 38 63 39 57 40 56 41 21 43 47 44
REMARK SMILES IDX 30 45 46 46 31 47 34 48 45 49 61 50 32 51 33 52 44 54 62 55
REMARK SMILES IDX 35 56 22 57 23 58 28 59 24 60 25 61 27 62 29 63 26 64 48 65
REMARK SMILES IDX 49 66 54 67 50 68 51 69 53 70 55 71 52 72 36 73 37 74 42 75
REMARK SMILES IDX 38 76 39 77 41 78 43 79 40 80
REMARK H PARENT 60 42 34 53
REMARK Flexibility Score: inf
ROOT
ATOM      1  C   UNL     1       2.857  -0.735  -3.082  1.00  0.00     0.274 C 
ENDROOT
BRANCH   1   2
ATOM      2  O   UNL     1       2.219  -1.172  -1.863  1.00  0.00    -0.462 OA
BRANCH   2   3
ATOM      3  C   UNL     1       2.209  -0.291  -0.835  1.00  0.00     0.309 C 
ATOM      4  O   UNL     1       2.782   0.795  -0.862  1.00  0.00    -0.252 OA
BRANCH   3   5
ATOM      5  C   UNL     1       1.363  -0.723   0.362  1.00  0.00     0.112 C 
ATOM      6  C   UNL     1       2.231  -0.571   1.618  1.00  0.00     0.021 C 
BRANCH   5   7
ATOM      7  C   UNL     1       0.634  -2.085   0.234  1.00  0.00     0.095 C 
ATOM      8  C   UNL     1       0.971  -3.126   1.302  1.00  0.00     0.023 C 
BRANCH   7   9
ATOM      9  S   UNL     1      -1.208  -1.892   0.038  1.00  0.00     0.057 S 
ATOM     10  O   UNL     1      -1.833  -3.228   0.318  1.00  0.00    -0.254 OA
BRANCH   9  11
ATOM     11  C   UNL     1      -1.652  -0.858   1.450  1.00  0.00     0.040 A 
ATOM     12  C   UNL     1      -2.057   0.460   1.218  1.00  0.00     0.018 A 
ATOM     13  C   UNL     1      -1.689  -1.360   2.753  1.00  0.00     0.026 A 
ATOM     14  C   UNL     1      -2.447   1.283   2.279  1.00  0.00     0.010 A 
ATOM     15  C   UNL     1      -2.070  -0.544   3.833  1.00  0.00    -0.017 A 
ATOM     16  C   UNL     1      -2.454   0.795   3.593  1.00  0.00    -0.018 A 
ATOM     17  C   UNL     1      -2.089  -1.036   5.149  1.00  0.00     0.009 A 
ATOM     18  C   UNL     1      -2.850   1.603   4.673  1.00  0.00     0.009 A 
ATOM     19  C   UNL     1      -2.480  -0.220   6.211  1.00  0.00     0.001 A 
ATOM     20  C   UNL     1      -2.863   1.097   5.973  1.00  0.00     0.001 A 
ENDBRANCH   9  11
ENDBRANCH   7   9
ENDBRANCH   5   7
ENDBRANCH   3   5
ENDBRANCH   2   3
ENDBRANCH   1   2
BRANCH   1  21
ATOM     21  C   UNL     1       1.833  -0.215  -4.098  1.00  0.00     0.275 C 
BRANCH  21  22
ATOM     22  O   UNL     1       1.304   1.076  -3.734  1.00  0.00    -0.458 OA
BRANCH  22  23
ATOM     23  C   UNL     1       0.230   1.045  -2.915  1.00  0.00     0.338 C 
ATOM     24  O   UNL     1      -0.333   0.056  -2.469  1.00  0.00    -0.246 OA
BRANCH  23  25
ATOM     25  C   UNL     1      -0.134   2.403  -2.488  1.00  0.00     0.060 A 
ATOM     26  C   UNL     1      -0.154   2.667  -1.117  1.00  0.00     0.016 A 
ATOM     27  C   UNL     1      -0.559   3.368  -3.400  1.00  0.00     0.016 A 
ATOM     28  C   UNL     1      -0.641   3.876  -0.641  1.00  0.00     0.010 A 
ATOM     29  C   UNL     1      -1.023   4.599  -2.923  1.00  0.00     0.010 A 
ATOM     30  C   UNL     1      -1.085   4.851  -1.541  1.00  0.00    -0.014 A 
BRANCH  30  31
ATOM     31  C   UNL     1      -1.635   6.121  -1.015  1.00  0.00     0.031 A 
ATOM     32  C   UNL     1      -3.110   6.388  -1.081  1.00  0.00     0.074 A 
ATOM     33  C   UNL     1      -0.806   7.012  -0.442  1.00  0.00     0.049 A 
ATOM     34  N   UNL     1      -3.771   7.458  -0.721  1.00  0.00    -0.248 NA
ATOM     35  C   UNL     1      -3.953   5.310  -1.620  1.00  0.00     0.031 C 
ATOM     36  C   UNL     1       0.638   6.838  -0.278  1.00  0.00     0.029 A 
ATOM     37  N   UNL     1      -1.062   8.239   0.113  1.00  0.00    -0.354 N 
ATOM     38  C   UNL     1      -5.103   7.195  -1.011  1.00  0.00     0.074 A 
ATOM     39  C   UNL     1      -5.156   5.867  -1.585  1.00  0.00     0.031 C 
ATOM     40  C   UNL     1       1.140   7.917   0.344  1.00  0.00     0.029 A 
ATOM     41  C   UNL     1       0.063   8.874   0.579  1.00  0.00     0.049 A 
ATOM     42  H   UNL     1      -1.964   8.628   0.173  1.00  0.00     0.167 HD
ATOM     43  C   UNL     1      -6.181   7.990  -0.813  1.00  0.00     0.037 A 
ATOM     44  C   UNL     1       0.212  10.100   1.112  1.00  0.00     0.037 A 
ATOM     45  C   UNL     1      -6.125   9.301  -0.223  1.00  0.00     0.049 A 
ATOM     46  C   UNL     1      -0.994  10.982   1.271  1.00  0.00     0.074 A 
ATOM     47  C   UNL     1      -7.165  10.176   0.037  1.00  0.00     0.029 A 
ATOM     48  N   UNL     1      -4.962   9.927   0.201  1.00  0.00    -0.354 N 
ATOM     49  N   UNL     1      -2.248  10.725   0.988  1.00  0.00    -0.248 NA
ATOM     50  C   UNL     1      -0.762  12.327   1.814  1.00  0.00     0.031 C 
ATOM     51  C   UNL     1      -6.627  11.346   0.586  1.00  0.00     0.029 A 
ATOM     52  C   UNL     1      -5.256  11.184   0.702  1.00  0.00     0.049 A 
ATOM     53  H   UNL     1      -4.060   9.535   0.152  1.00  0.00     0.167 HD
ATOM     54  C   UNL     1      -2.957  11.866   1.335  1.00  0.00     0.074 A 
ATOM     55  C   UNL     1      -1.995  12.813   1.861  1.00  0.00     0.031 C 
ATOM     56  C   UNL     1      -4.285  12.110   1.225  1.00  0.00     0.037 A 
BRANCH  43  57
ATOM     57  C   UNL     1      -7.512   7.473  -1.266  1.00  0.00     0.057 A 
ATOM     58  C   UNL     1      -8.202   6.481  -0.558  1.00  0.00     0.134 A 
ATOM     59  C   UNL     1      -8.128   8.001  -2.408  1.00  0.00     0.134 A 
ATOM     60  F   UNL     1      -7.659   5.924   0.535  1.00  0.00    -0.206 F 
ATOM     61  C   UNL     1      -9.451   6.021  -0.979  1.00  0.00     0.040 A 
ATOM     62  C   UNL     1      -9.385   7.564  -2.827  1.00  0.00     0.040 A 
ATOM     63  F   UNL     1      -7.520   8.956  -3.129  1.00  0.00    -0.206 F 
ATOM     64  C   UNL     1     -10.049   6.568  -2.114  1.00  0.00     0.006 A 
ENDBRANCH  43  57
BRANCH  44  65
ATOM     65  C   UNL     1       1.558  10.574   1.513  1.00  0.00     0.057 A 
ATOM     66  C   UNL     1       1.897  10.733   2.861  1.00  0.00     0.134 A 
ATOM     67  C   UNL     1       2.535  10.882   0.559  1.00  0.00     0.134 A 
ATOM     68  F   UNL     1       0.995  10.474   3.818  1.00  0.00    -0.206 F 
ATOM     69  C   UNL     1       3.157  11.192   3.247  1.00  0.00     0.040 A 
ATOM     70  C   UNL     1       3.807  11.320   0.930  1.00  0.00     0.040 A 
ATOM     71  F   UNL     1       2.271  10.748  -0.749  1.00  0.00    -0.206 F 
ATOM     72  C   UNL     1       4.118  11.481   2.279  1.00  0.00     0.006 A 
ENDBRANCH  44  65
BRANCH  56  73
ATOM     73  C   UNL     1      -4.775  13.441   1.709  1.00  0.00     0.057 A 
ATOM     74  C   UNL     1      -4.566  14.613   0.973  1.00  0.00     0.134 A 
ATOM     75  C   UNL     1      -5.488  13.545   2.909  1.00  0.00     0.134 A 
ATOM     76  F   UNL     1      -3.876  14.579  -0.177  1.00  0.00    -0.206 F 
ATOM     77  C   UNL     1      -5.034  15.848   1.424  1.00  0.00     0.040 A 
ATOM     78  C   UNL     1      -5.980  14.770   3.360  1.00  0.00     0.040 A 
ATOM     79  F   UNL     1      -5.726  12.457   3.657  1.00  0.00    -0.206 F 
ATOM     80  C   UNL     1      -5.749  15.927   2.618  1.00  0.00     0.006 A 
ENDBRANCH  56  73
ENDBRANCH  30  31
ENDBRANCH  23  25
ENDBRANCH  22  23
ENDBRANCH  21  22
ENDBRANCH   1  21
TORSDOF 14
