REMARK SMILES O=C(CCC(=O)N1c2ccccc2NC2=C(C(=O)C[C@H](c3ccco3)C2)[C@H]1c1cccs1)OCCOC(=O)c1ccc(-c2c3nc(c(-c4c(F)cccc4F)c4ccc([nH]4)c(-c4c(F)cccc4F)c4nc(c(-c5c(F)cccc5F)c5ccc2[nH]5)C=C4)C=C3)cc1
REMARK SMILES IDX 1 1 2 2 3 3 4 4 5 5 6 6 7 7 8 8 9 9 13 10 10 11 12 12 11 13
REMARK SMILES IDX 14 14 15 16 16 17 26 18 17 19 20 21 18 22 19 23 21 24 22 25
REMARK SMILES IDX 25 26 23 27 24 28 27 29 28 31 29 32 32 33 30 34 31 35 33 36
REMARK SMILES IDX 34 37 35 38 36 39 37 40 38 41 39 42 40 43 92 44 41 45 91 46
REMARK SMILES IDX 42 47 43 48 44 49 85 50 45 51 90 52 84 53 86 54 46 55 89 56
REMARK SMILES IDX 83 57 82 58 47 60 73 61 56 62 72 63 57 64 60 65 71 66 87 67
REMARK SMILES IDX 58 68 59 69 70 71 88 72 61 73 48 74 49 75 54 76 50 77 51 78
REMARK SMILES IDX 53 79 55 80 52 81 74 82 75 83 80 84 76 85 77 86 79 87 81 88
REMARK SMILES IDX 78 89 62 90 63 91 68 92 64 93 65 94 67 95 69 96 66 97
REMARK H PARENT 14 15 86 59 60 70
REMARK Flexibility Score: 90.00
ROOT
ATOM      1  O   UNL     1       1.468  -0.344   1.006  1.00  0.00    -0.252 OA
ATOM      2  C   UNL     1       2.693  -0.253   1.038  1.00  0.00     0.306 C 
ENDROOT
BRANCH   2   3
ATOM      3  C   UNL     1       3.536  -1.446   1.342  1.00  0.00     0.132 C 
BRANCH   3   4
ATOM      4  C   UNL     1       3.642  -2.279   0.088  1.00  0.00     0.112 C 
BRANCH   4   5
ATOM      5  C   UNL     1       4.696  -1.759  -0.869  1.00  0.00     0.228 C 
ATOM      6  O   UNL     1       5.884  -1.980  -0.608  1.00  0.00    -0.274 OA
BRANCH   5   7
ATOM      7  N   UNL     1       4.315  -1.133  -2.046  1.00  0.00    -0.298 N 
BRANCH   7   8
ATOM      8  C   UNL     1       3.167  -0.309  -2.190  1.00  0.00     0.068 A 
ATOM      9  C   UNL     1       3.316   1.085  -2.171  1.00  0.00     0.028 A 
ATOM     10  C   UNL     1       1.917  -0.868  -2.451  1.00  0.00     0.062 A 
ATOM     11  C   UNL     1       2.205   1.919  -2.298  1.00  0.00     0.002 A 
ATOM     12  C   UNL     1       0.800  -0.023  -2.542  1.00  0.00     0.028 A 
ATOM     13  C   UNL     1       0.941   1.363  -2.454  1.00  0.00     0.002 A 
BRANCH  10  14
ATOM     14  N   UNL     1       1.774  -2.225  -2.779  1.00  0.00    -0.357 N 
ATOM     15  H   UNL     1       1.036  -2.722  -2.357  1.00  0.00     0.166 HD
BRANCH  14  16
ATOM     16  C   UNL     1       2.598  -2.917  -3.655  1.00  0.00     0.025 C 
ATOM     17  C   UNL     1       3.919  -2.705  -3.908  1.00  0.00     0.043 CG0
ATOM     18  C   UNL     1       1.799  -3.910  -4.495  1.00  0.00     0.066 C 
ATOM     19  C   UNL     1       4.609  -3.601  -4.902  1.00  0.00     0.163 C 
ATOM     20  G   UNL     1       4.885  -1.700  -3.274  1.00  0.00     0.000 G0
ATOM     21  C   UNL     1       2.363  -4.045  -5.912  1.00  0.00     0.069 C 
ATOM     22  O   UNL     1       5.837  -3.630  -4.976  1.00  0.00    -0.294 OA
ATOM     23  C   UNL     1       3.792  -4.541  -5.758  1.00  0.00     0.093 C 
BRANCH  21  24
ATOM     24  C   UNL     1       2.298  -2.767  -6.711  1.00  0.00     0.107 A 
ATOM     25  C   UNL     1       2.954  -2.326  -7.844  1.00  0.00     0.046 A 
ATOM     26  O   UNL     1       1.478  -1.777  -6.248  1.00  0.00    -0.469 OA
ATOM     27  C   UNL     1       2.553  -0.984  -8.048  1.00  0.00     0.042 A 
ATOM     28  C   UNL     1       1.653  -0.697  -7.050  1.00  0.00     0.195 A 
ENDBRANCH  21  24
ENDBRANCH  14  16
ENDBRANCH  10  14
ENDBRANCH   7   8
BRANCH   7  29
ATOM     29  C   UNL     1       4.885  -1.700  -3.274  1.00  0.00     0.167 CG0
ATOM     30  G   UNL     1       3.919  -2.705  -3.908  1.00  0.00     0.000 G0
BRANCH  29  31
ATOM     31  C   UNL     1       5.386  -0.569  -4.163  1.00  0.00     0.032 A 
ATOM     32  C   UNL     1       4.682   0.236  -5.042  1.00  0.00     0.018 A 
ATOM     33  S   UNL     1       7.042  -0.109  -4.105  1.00  0.00    -0.146 S 
ATOM     34  C   UNL     1       5.492   1.245  -5.636  1.00  0.00     0.012 A 
ATOM     35  C   UNL     1       6.800   1.164  -5.220  1.00  0.00     0.065 A 
ENDBRANCH  29  31
ENDBRANCH   7  29
ENDBRANCH   5   7
ENDBRANCH   4   5
ENDBRANCH   3   4
ENDBRANCH   2   3
BRANCH   2  36
ATOM     36  O   UNL     1       3.313   0.892   0.707  1.00  0.00    -0.462 OA
BRANCH  36  37
ATOM     37  C   UNL     1       4.716   1.211   0.875  1.00  0.00     0.274 C 
BRANCH  37  38
ATOM     38  C   UNL     1       4.797   2.727   1.079  1.00  0.00     0.275 C 
BRANCH  38  39
ATOM     39  O   UNL     1       4.283   3.021   2.390  1.00  0.00    -0.458 OA
BRANCH  39  40
ATOM     40  C   UNL     1       2.927   2.967   2.476  1.00  0.00     0.338 C 
ATOM     41  O   UNL     1       2.141   3.472   1.693  1.00  0.00    -0.246 OA
BRANCH  40  42
ATOM     42  C   UNL     1       2.564   2.009   3.558  1.00  0.00     0.060 A 
ATOM     43  C   UNL     1       3.503   1.616   4.520  1.00  0.00     0.016 A 
ATOM     44  C   UNL     1       1.288   1.427   3.555  1.00  0.00     0.016 A 
ATOM     45  C   UNL     1       3.152   0.693   5.500  1.00  0.00     0.010 A 
ATOM     46  C   UNL     1       0.928   0.508   4.546  1.00  0.00     0.010 A 
ATOM     47  C   UNL     1       1.847   0.176   5.549  1.00  0.00    -0.014 A 
BRANCH  47  48
ATOM     48  C   UNL     1       1.410  -0.445   6.819  1.00  0.00     0.031 A 
ATOM     49  C   UNL     1       1.414  -1.919   7.046  1.00  0.00     0.074 A 
ATOM     50  C   UNL     1       1.109   0.408   7.816  1.00  0.00     0.049 A 
ATOM     51  N   UNL     1       1.307  -2.568   8.177  1.00  0.00    -0.248 NA
ATOM     52  C   UNL     1       1.553  -2.776   5.863  1.00  0.00     0.031 C 
ATOM     53  C   UNL     1       1.057   1.868   7.679  1.00  0.00     0.029 A 
ATOM     54  N   UNL     1       0.836   0.187   9.138  1.00  0.00    -0.354 N 
ATOM     55  C   UNL     1       1.403  -3.913   7.854  1.00  0.00     0.074 A 
ATOM     56  C   UNL     1       1.524  -3.986   6.410  1.00  0.00     0.031 C 
ATOM     57  C   UNL     1       0.817   2.413   8.878  1.00  0.00     0.029 A 
ATOM     58  C   UNL     1       0.685   1.344   9.860  1.00  0.00     0.049 A 
ATOM     59  H   UNL     1       0.757  -0.712   9.531  1.00  0.00     0.167 HD
ATOM     60  C   UNL     1       1.405  -4.978   8.693  1.00  0.00     0.037 A 
ATOM     61  C   UNL     1       0.485   1.527  11.175  1.00  0.00     0.037 A 
ATOM     62  C   UNL     1       1.232  -4.884  10.124  1.00  0.00     0.049 A 
ATOM     63  C   UNL     1       0.460   0.327  12.072  1.00  0.00     0.074 A 
ATOM     64  C   UNL     1       1.222  -5.900  11.065  1.00  0.00     0.029 A 
ATOM     65  N   UNL     1       1.017  -3.700  10.819  1.00  0.00    -0.354 N 
ATOM     66  N   UNL     1       0.636  -0.936  11.767  1.00  0.00    -0.248 NA
ATOM     67  C   UNL     1       0.223   0.580  13.497  1.00  0.00     0.031 C 
ATOM     68  C   UNL     1       0.959  -5.336  12.321  1.00  0.00     0.029 A 
ATOM     69  C   UNL     1       0.849  -3.963  12.171  1.00  0.00     0.049 A 
ATOM     70  H   UNL     1       0.989  -2.805  10.411  1.00  0.00     0.167 HD
ATOM     71  C   UNL     1       0.540  -1.630  12.963  1.00  0.00     0.074 A 
ATOM     72  C   UNL     1       0.328  -0.640  14.002  1.00  0.00     0.031 C 
ATOM     73  C   UNL     1       0.613  -2.965  13.184  1.00  0.00     0.037 A 
BRANCH  60  74
ATOM     74  C   UNL     1       1.600  -6.336   8.083  1.00  0.00     0.057 A 
ATOM     75  C   UNL     1       0.557  -7.270   8.044  1.00  0.00     0.134 A 
ATOM     76  C   UNL     1       2.841  -6.735   7.569  1.00  0.00     0.134 A 
ATOM     77  F   UNL     1      -0.655  -6.959   8.527  1.00  0.00    -0.206 F 
ATOM     78  C   UNL     1       0.742  -8.550   7.516  1.00  0.00     0.040 A 
ATOM     79  C   UNL     1       3.033  -8.004   7.019  1.00  0.00     0.040 A 
ATOM     80  F   UNL     1       3.882  -5.887   7.570  1.00  0.00    -0.206 F 
ATOM     81  C   UNL     1       1.982  -8.918   6.996  1.00  0.00     0.006 A 
ENDBRANCH  60  74
BRANCH  61  82
ATOM     82  C   UNL     1       0.323   2.898  11.715  1.00  0.00     0.057 A 
ATOM     83  C   UNL     1      -0.815   3.659  11.421  1.00  0.00     0.134 A 
ATOM     84  C   UNL     1       1.298   3.479  12.532  1.00  0.00     0.134 A 
ATOM     85  F   UNL     1      -1.777   3.162  10.630  1.00  0.00    -0.206 F 
ATOM     86  C   UNL     1      -0.977   4.951  11.919  1.00  0.00     0.040 A 
ATOM     87  C   UNL     1       1.136   4.760  13.060  1.00  0.00     0.040 A 
ATOM     88  F   UNL     1       2.405   2.795  12.854  1.00  0.00    -0.206 F 
ATOM     89  C   UNL     1      -0.003   5.501  12.750  1.00  0.00     0.006 A 
ENDBRANCH  61  82
BRANCH  73  90
ATOM     90  C   UNL     1       0.453  -3.409  14.609  1.00  0.00     0.057 A 
ATOM     91  C   UNL     1       1.549  -3.882  15.340  1.00  0.00     0.134 A 
ATOM     92  C   UNL     1      -0.782  -3.335  15.267  1.00  0.00     0.134 A 
ATOM     93  F   UNL     1       2.759  -3.981  14.769  1.00  0.00    -0.206 F 
ATOM     94  C   UNL     1       1.425  -4.254  16.680  1.00  0.00     0.040 A 
ATOM     95  C   UNL     1      -0.913  -3.677  16.614  1.00  0.00     0.040 A 
ATOM     96  F   UNL     1      -1.866  -2.870  14.628  1.00  0.00    -0.206 F 
ATOM     97  C   UNL     1       0.194  -4.140  17.323  1.00  0.00     0.006 A 
ENDBRANCH  73  90
ENDBRANCH  47  48
ENDBRANCH  40  42
ENDBRANCH  39  40
ENDBRANCH  38  39
ENDBRANCH  37  38
ENDBRANCH  36  37
ENDBRANCH   2  36
TORSDOF 16
