REMARK SMILES C[C@@H]1CN(S(=O)(=O)c2ccc(Cl)c(C(=O)OCCOC(=O)c3ccc(-c4c5nc(c(-c6c(F)cccc6F)c6ccc([nH]6)c(-c6c(F)cccc6F)c6nc(c(-c7c(F)cccc7F)c7ccc4[nH]7)C=C6)C=C5)cc3)c2Cl)C[C@H]1C
REMARK SMILES IDX 17 1 16 2 14 3 15 4 13 5 8 6 9 7 76 8 10 9 77 10 11 11 12 12
REMARK SMILES IDX 5 13 6 14 7 15 4 16 1 17 2 18 3 19 79 20 78 21 80 22 18 23
REMARK SMILES IDX 19 24 20 25 21 26 22 27 23 28 75 29 24 30 74 31 25 32 26 33
REMARK SMILES IDX 27 34 68 35 28 36 73 37 67 38 69 39 29 40 72 41 66 42 65 43
REMARK SMILES IDX 30 45 56 46 39 47 55 48 40 49 43 50 54 51 70 52 41 53 42 54
REMARK SMILES IDX 53 56 71 57 44 58 31 59 32 60 37 61 33 62 34 63 36 64 38 65
REMARK SMILES IDX 35 66 57 67 58 68 63 69 59 70 60 71 62 72 64 73 61 74 45 75
REMARK SMILES IDX 46 76 51 77 47 78 48 79 50 80 52 81 49 82
REMARK H PARENT 69 44 43 55
REMARK Flexibility Score: inf
ROOT
ATOM      1  C   UNL     1      -3.731  -5.272   8.872  1.00  0.00     0.275 C 
ENDROOT
BRANCH   1   2
ATOM      2  O   UNL     1      -3.419  -4.396   7.768  1.00  0.00    -0.458 OA
BRANCH   2   3
ATOM      3  C   UNL     1      -2.127  -4.318   7.349  1.00  0.00     0.341 C 
ATOM      4  O   UNL     1      -1.196  -4.981   7.763  1.00  0.00    -0.246 OA
BRANCH   3   5
ATOM      5  C   UNL     1      -2.071  -3.350   6.217  1.00  0.00     0.098 A 
ATOM      6  C   UNL     1      -1.825  -2.933   3.834  1.00  0.00     0.102 A 
ATOM      7  C   UNL     1      -2.489  -1.709   3.991  1.00  0.00     0.025 A 
ATOM      8  C   UNL     1      -1.531  -3.718   4.961  1.00  0.00     0.077 A 
ATOM      9  C   UNL     1      -2.847  -1.260   5.259  1.00  0.00     0.023 A 
ATOM     10  Cl  UNL     1      -0.370  -5.003   4.852  1.00  0.00    -0.082 Cl
ATOM     11  C   UNL     1      -2.667  -2.087   6.367  1.00  0.00     0.057 A 
ATOM     12  Cl  UNL     1      -3.135  -1.438   7.903  1.00  0.00    -0.083 Cl
BRANCH   6  13
ATOM     13  S   UNL     1      -1.662  -3.549   2.162  1.00  0.00     0.244 S 
ATOM     14  O   UNL     1      -2.592  -2.795   1.340  1.00  0.00    -0.207 OA
ATOM     15  O   UNL     1      -1.742  -4.989   2.185  1.00  0.00    -0.207 OA
BRANCH  13  16
ATOM     16  N   UNL     1      -0.097  -3.099   1.673  1.00  0.00    -0.197 NA
ATOM     17  C   UNL     1       1.158  -0.070  -0.148  1.00  0.00     0.009 C 
ATOM     18  C   UNL     1       0.394  -1.360   0.096  1.00  0.00     0.005 C 
ATOM     19  C   UNL     1       0.176  -1.638   1.580  1.00  0.00     0.106 C 
ATOM     20  C   UNL     1       1.122  -2.626  -0.352  1.00  0.00     0.005 C 
ATOM     21  C   UNL     1       0.312  -3.714   0.360  1.00  0.00     0.106 C 
ATOM     22  C   UNL     1       1.174  -2.801  -1.862  1.00  0.00     0.009 C 
ENDBRANCH  13  16
ENDBRANCH   6  13
ENDBRANCH   3   5
ENDBRANCH   2   3
ENDBRANCH   1   2
BRANCH   1  23
ATOM     23  C   UNL     1      -5.029  -6.033   8.583  1.00  0.00     0.275 C 
BRANCH  23  24
ATOM     24  O   UNL     1      -4.832  -6.919   7.467  1.00  0.00    -0.458 OA
BRANCH  24  25
ATOM     25  C   UNL     1      -5.229  -6.432   6.269  1.00  0.00     0.338 C 
ATOM     26  O   UNL     1      -5.835  -5.400   6.039  1.00  0.00    -0.246 OA
BRANCH  25  27
ATOM     27  C   UNL     1      -4.630  -7.259   5.217  1.00  0.00     0.060 A 
ATOM     28  C   UNL     1      -3.350  -6.914   4.807  1.00  0.00     0.016 A 
ATOM     29  C   UNL     1      -5.322  -8.284   4.580  1.00  0.00     0.016 A 
ATOM     30  C   UNL     1      -2.764  -7.553   3.722  1.00  0.00     0.010 A 
ATOM     31  C   UNL     1      -4.699  -8.978   3.532  1.00  0.00     0.010 A 
ATOM     32  C   UNL     1      -3.415  -8.613   3.084  1.00  0.00    -0.014 A 
BRANCH  32  33
ATOM     33  C   UNL     1      -2.743  -9.324   1.961  1.00  0.00     0.031 A 
ATOM     34  C   UNL     1      -3.378  -9.365   0.599  1.00  0.00     0.074 A 
ATOM     35  C   UNL     1      -1.548  -9.921   2.154  1.00  0.00     0.049 A 
ATOM     36  N   UNL     1      -3.067 -10.101  -0.439  1.00  0.00    -0.248 NA
ATOM     37  C   UNL     1      -4.519  -8.465   0.375  1.00  0.00     0.031 C 
ATOM     38  C   UNL     1      -0.770  -9.884   3.394  1.00  0.00     0.029 A 
ATOM     39  N   UNL     1      -0.777 -10.681   1.306  1.00  0.00    -0.354 N 
ATOM     40  C   UNL     1      -3.999  -9.787  -1.421  1.00  0.00     0.074 A 
ATOM     41  C   UNL     1      -4.891  -8.799  -0.853  1.00  0.00     0.031 C 
ATOM     42  C   UNL     1       0.369 -10.570   3.223  1.00  0.00     0.029 A 
ATOM     43  C   UNL     1       0.355 -11.184   1.902  1.00  0.00     0.049 A 
ATOM     44  H   UNL     1      -1.013 -10.848   0.365  1.00  0.00     0.167 HD
ATOM     45  C   UNL     1      -4.097 -10.285  -2.677  1.00  0.00     0.037 A 
ATOM     46  C   UNL     1       1.250 -12.091   1.466  1.00  0.00     0.037 A 
ATOM     47  C   UNL     1      -3.175 -11.237  -3.244  1.00  0.00     0.049 A 
ATOM     48  C   UNL     1       1.057 -12.710   0.111  1.00  0.00     0.074 A 
ATOM     49  C   UNL     1      -3.181 -11.793  -4.513  1.00  0.00     0.029 A 
ATOM     50  N   UNL     1      -2.081 -11.772  -2.580  1.00  0.00    -0.354 N 
ATOM     51  N   UNL     1       0.148 -12.447  -0.796  1.00  0.00    -0.248 NA
ATOM     52  C   UNL     1       1.998 -13.772  -0.272  1.00  0.00     0.031 C 
ATOM     53  C   UNL     1      -2.126 -12.706  -4.595  1.00  0.00     0.029 A 
ATOM     54  C   UNL     1      -1.428 -12.679  -3.399  1.00  0.00     0.049 A 
ATOM     55  H   UNL     1      -1.809 -11.540  -1.663  1.00  0.00     0.167 HD
ATOM     56  C   UNL     1       0.412 -13.300  -1.858  1.00  0.00     0.074 A 
ATOM     57  C   UNL     1       1.583 -14.071  -1.495  1.00  0.00     0.031 C 
ATOM     58  C   UNL     1      -0.262 -13.438  -3.025  1.00  0.00     0.037 A 
BRANCH  45  59
ATOM     59  C   UNL     1      -5.264  -9.848  -3.516  1.00  0.00     0.057 A 
ATOM     60  C   UNL     1      -5.364  -8.559  -4.053  1.00  0.00     0.134 A 
ATOM     61  C   UNL     1      -6.283 -10.758  -3.833  1.00  0.00     0.134 A 
ATOM     62  F   UNL     1      -4.427  -7.637  -3.785  1.00  0.00    -0.206 F 
ATOM     63  C   UNL     1      -6.444  -8.184  -4.855  1.00  0.00     0.040 A 
ATOM     64  C   UNL     1      -7.353 -10.404  -4.657  1.00  0.00     0.040 A 
ATOM     65  F   UNL     1      -6.247 -12.014  -3.362  1.00  0.00    -0.206 F 
ATOM     66  C   UNL     1      -7.439  -9.110  -5.165  1.00  0.00     0.006 A 
ENDBRANCH  45  59
BRANCH  46  67
ATOM     67  C   UNL     1       2.360 -12.529   2.353  1.00  0.00     0.057 A 
ATOM     68  C   UNL     1       3.695 -12.268   2.030  1.00  0.00     0.134 A 
ATOM     69  C   UNL     1       2.111 -13.235   3.539  1.00  0.00     0.134 A 
ATOM     70  F   UNL     1       4.002 -11.622   0.895  1.00  0.00    -0.206 F 
ATOM     71  C   UNL     1       4.743 -12.700   2.846  1.00  0.00     0.040 A 
ATOM     72  C   UNL     1       3.146 -13.642   4.381  1.00  0.00     0.040 A 
ATOM     73  F   UNL     1       0.854 -13.524   3.906  1.00  0.00    -0.206 F 
ATOM     74  C   UNL     1       4.469 -13.382   4.030  1.00  0.00     0.006 A 
ENDBRANCH  46  67
BRANCH  58  75
ATOM     75  C   UNL     1       0.262 -14.447  -4.005  1.00  0.00     0.057 A 
ATOM     76  C   UNL     1       0.120 -15.823  -3.788  1.00  0.00     0.134 A 
ATOM     77  C   UNL     1       0.867 -14.038  -5.199  1.00  0.00     0.134 A 
ATOM     78  F   UNL     1      -0.435 -16.281  -2.656  1.00  0.00    -0.206 F 
ATOM     79  C   UNL     1       0.575 -16.758  -4.720  1.00  0.00     0.040 A 
ATOM     80  C   UNL     1       1.301 -14.961  -6.151  1.00  0.00     0.040 A 
ATOM     81  F   UNL     1       1.028 -12.734  -5.470  1.00  0.00    -0.206 F 
ATOM     82  C   UNL     1       1.159 -16.326  -5.910  1.00  0.00     0.006 A 
ENDBRANCH  58  75
ENDBRANCH  32  33
ENDBRANCH  25  27
ENDBRANCH  24  25
ENDBRANCH  23  24
ENDBRANCH   1  23
TORSDOF 13
