REMARK SMILES COc1ccc(-c2cccc(/C=C\C(=O)OCCOC(=O)c3ccc(-c4c5nc(c(-c6c(F)cccc6F)c6ccc([nH]6)c(-c6c(F)cccc6F)c6nc(c(-c7c(F)cccc7F)c7ccc4[nH]7)C=C6)C=C5)cc3)c2)c(Cl)c1OC
REMARK SMILES IDX 17 1 16 2 14 3 15 4 13 5 12 6 11 7 7 8 8 9 76 10 9 11 10 12
REMARK SMILES IDX 6 13 3 14 4 15 79 16 5 17 77 18 78 19 2 20 1 21 80 22 81 23
REMARK SMILES IDX 18 24 19 25 20 26 21 27 22 28 23 29 75 30 24 31 74 32 25 33
REMARK SMILES IDX 26 34 27 35 68 36 28 37 73 38 67 39 69 40 29 41 72 42 66 43
REMARK SMILES IDX 65 44 30 46 56 47 39 48 55 49 40 50 43 51 54 52 70 53 41 54
REMARK SMILES IDX 42 55 53 57 71 58 44 59 31 60 32 61 37 62 33 63 34 64 36 65
REMARK SMILES IDX 38 66 35 67 57 68 58 69 63 70 59 71 60 72 62 73 64 74 61 75
REMARK SMILES IDX 45 76 46 77 51 78 47 79 48 80 50 81 52 82 49 83
REMARK H PARENT 69 45 43 56
REMARK Flexibility Score: inf
ROOT
ATOM      1  C   UNL     1       4.482  10.511   4.588  1.00  0.00     0.275 C 
ENDROOT
BRANCH   1   2
ATOM      2  O   UNL     1       3.625   9.370   4.761  1.00  0.00    -0.459 OA
BRANCH   2   3
ATOM      3  C   UNL     1       3.204   9.069   6.000  1.00  0.00     0.330 C 
ATOM      4  O   UNL     1       3.670   9.514   7.040  1.00  0.00    -0.247 OA
BRANCH   3   5
ATOM      5  C   UNL     1       1.972   8.242   6.005  1.00  0.00     0.094 C 
ATOM      6  C   UNL     1       1.269   7.623   5.042  1.00  0.00     0.015 C 
BRANCH   6   7
ATOM      7  C   UNL     1       1.582   7.447   3.620  1.00  0.00    -0.025 A 
ATOM      8  C   UNL     1       1.748   5.922   1.729  1.00  0.00    -0.016 A 
ATOM      9  C   UNL     1       2.348   6.935   0.971  1.00  0.00     0.009 A 
ATOM     10  C   UNL     1       1.416   6.174   3.069  1.00  0.00     0.017 A 
ATOM     11  C   UNL     1       2.448   8.220   1.488  1.00  0.00     0.001 A 
ATOM     12  C   UNL     1       1.989   8.481   2.777  1.00  0.00     0.008 A 
BRANCH   8  13
ATOM     13  C   UNL     1       1.363   4.657   1.094  1.00  0.00     0.004 A 
ATOM     14  C   UNL     1       0.714   2.259  -0.171  1.00  0.00     0.162 A 
ATOM     15  C   UNL     1       2.030   2.499   0.236  1.00  0.00     0.051 A 
ATOM     16  C   UNL     1      -0.311   3.215   0.016  1.00  0.00     0.180 A 
ATOM     17  C   UNL     1       2.349   3.687   0.878  1.00  0.00     0.014 A 
ATOM     18  C   UNL     1       0.026   4.424   0.651  1.00  0.00     0.094 A 
ATOM     19  Cl  UNL     1      -1.118   5.722   0.888  1.00  0.00    -0.079 Cl
BRANCH  14  20
ATOM     20  O   UNL     1       0.398   1.101  -0.849  1.00  0.00    -0.493 OA
ATOM     21  C   UNL     1       0.820  -0.077  -0.167  1.00  0.00     0.278 C 
ENDBRANCH  14  20
BRANCH  16  22
ATOM     22  O   UNL     1      -1.518   2.797  -0.481  1.00  0.00    -0.491 OA
ATOM     23  C   UNL     1      -2.712   3.528  -0.277  1.00  0.00     0.278 C 
ENDBRANCH  16  22
ENDBRANCH   8  13
ENDBRANCH   6   7
ENDBRANCH   3   5
ENDBRANCH   2   3
ENDBRANCH   1   2
BRANCH   1  24
ATOM     24  C   UNL     1       3.655  11.758   4.244  1.00  0.00     0.275 C 
BRANCH  24  25
ATOM     25  O   UNL     1       2.999  12.277   5.415  1.00  0.00    -0.458 OA
BRANCH  25  26
ATOM     26  C   UNL     1       1.715  11.893   5.604  1.00  0.00     0.338 C 
ATOM     27  O   UNL     1       1.019  11.230   4.853  1.00  0.00    -0.246 OA
BRANCH  26  28
ATOM     28  C   UNL     1       1.311  12.270   6.968  1.00  0.00     0.060 A 
ATOM     29  C   UNL     1       0.798  11.275   7.806  1.00  0.00     0.016 A 
ATOM     30  C   UNL     1       1.439  13.583   7.423  1.00  0.00     0.016 A 
ATOM     31  C   UNL     1       0.442  11.579   9.116  1.00  0.00     0.010 A 
ATOM     32  C   UNL     1       1.073  13.892   8.734  1.00  0.00     0.010 A 
ATOM     33  C   UNL     1       0.576  12.891   9.587  1.00  0.00    -0.014 A 
BRANCH  33  34
ATOM     34  C   UNL     1       0.141  13.223  10.961  1.00  0.00     0.031 A 
ATOM     35  C   UNL     1      -1.147  13.962  11.168  1.00  0.00     0.074 A 
ATOM     36  C   UNL     1       0.891  12.844  12.011  1.00  0.00     0.049 A 
ATOM     37  N   UNL     1      -1.683  14.398  12.278  1.00  0.00    -0.248 NA
ATOM     38  C   UNL     1      -1.936  14.252   9.960  1.00  0.00     0.031 C 
ATOM     39  C   UNL     1       2.139  12.085  11.928  1.00  0.00     0.029 A 
ATOM     40  N   UNL     1       0.713  13.051  13.355  1.00  0.00    -0.354 N 
ATOM     41  C   UNL     1      -2.866  15.021  11.905  1.00  0.00     0.074 A 
ATOM     42  C   UNL     1      -2.954  14.935  10.463  1.00  0.00     0.031 C 
ATOM     43  C   UNL     1       2.615  11.889  13.168  1.00  0.00     0.029 A 
ATOM     44  C   UNL     1       1.730  12.546  14.127  1.00  0.00     0.049 A 
ATOM     45  H   UNL     1      -0.069  13.516  13.731  1.00  0.00     0.167 HD
ATOM     46  C   UNL     1      -3.796  15.604  12.697  1.00  0.00     0.037 A 
ATOM     47  C   UNL     1       1.934  12.628  15.456  1.00  0.00     0.037 A 
ATOM     48  C   UNL     1      -3.694  15.687  14.131  1.00  0.00     0.049 A 
ATOM     49  C   UNL     1       0.925  13.353  16.305  1.00  0.00     0.074 A 
ATOM     50  C   UNL     1      -4.584  16.250  15.028  1.00  0.00     0.029 A 
ATOM     51  N   UNL     1      -2.631  15.196  14.876  1.00  0.00    -0.354 N 
ATOM     52  N   UNL     1      -0.199  13.927  15.947  1.00  0.00    -0.248 NA
ATOM     53  C   UNL     1       1.212  13.441  17.743  1.00  0.00     0.031 C 
ATOM     54  C   UNL     1      -4.033  16.151  16.310  1.00  0.00     0.029 A 
ATOM     55  C   UNL     1      -2.829  15.469  16.220  1.00  0.00     0.049 A 
ATOM     56  H   UNL     1      -1.851  14.725  14.505  1.00  0.00     0.167 HD
ATOM     57  C   UNL     1      -0.768  14.416  17.116  1.00  0.00     0.074 A 
ATOM     58  C   UNL     1       0.130  14.059  18.196  1.00  0.00     0.031 C 
ATOM     59  C   UNL     1      -1.928  15.097  17.282  1.00  0.00     0.037 A 
BRANCH  46  60
ATOM     60  C   UNL     1      -4.984  16.227  12.024  1.00  0.00     0.057 A 
ATOM     61  C   UNL     1      -5.976  15.456  11.403  1.00  0.00     0.134 A 
ATOM     62  C   UNL     1      -5.148  17.618  12.012  1.00  0.00     0.134 A 
ATOM     63  F   UNL     1      -5.874  14.118  11.364  1.00  0.00    -0.206 F 
ATOM     64  C   UNL     1      -7.073  16.047  10.771  1.00  0.00     0.040 A 
ATOM     65  C   UNL     1      -6.255  18.219  11.409  1.00  0.00     0.040 A 
ATOM     66  F   UNL     1      -4.239  18.416  12.591  1.00  0.00    -0.206 F 
ATOM     67  C   UNL     1      -7.217  17.433  10.779  1.00  0.00     0.006 A 
ENDBRANCH  46  60
BRANCH  47  68
ATOM     68  C   UNL     1       3.147  12.024  16.064  1.00  0.00     0.057 A 
ATOM     69  C   UNL     1       3.057  10.929  16.931  1.00  0.00     0.134 A 
ATOM     70  C   UNL     1       4.425  12.539  15.811  1.00  0.00     0.134 A 
ATOM     71  F   UNL     1       1.860  10.404  17.232  1.00  0.00    -0.206 F 
ATOM     72  C   UNL     1       4.188  10.380  17.538  1.00  0.00     0.040 A 
ATOM     73  C   UNL     1       5.567  11.983  16.388  1.00  0.00     0.040 A 
ATOM     74  F   UNL     1       4.582  13.588  14.989  1.00  0.00    -0.206 F 
ATOM     75  C   UNL     1       5.449  10.905  17.262  1.00  0.00     0.006 A 
ENDBRANCH  47  68
BRANCH  59  76
ATOM     76  C   UNL     1      -2.316  15.461  18.687  1.00  0.00     0.057 A 
ATOM     77  C   UNL     1      -1.640  16.448  19.414  1.00  0.00     0.134 A 
ATOM     78  C   UNL     1      -3.411  14.840  19.304  1.00  0.00     0.134 A 
ATOM     79  F   UNL     1      -0.576  17.073  18.887  1.00  0.00    -0.206 F 
ATOM     80  C   UNL     1      -2.022  16.787  20.714  1.00  0.00     0.040 A 
ATOM     81  C   UNL     1      -3.821  15.192  20.590  1.00  0.00     0.040 A 
ATOM     82  F   UNL     1      -4.109  13.893  18.660  1.00  0.00    -0.206 F 
ATOM     83  C   UNL     1      -3.120  16.163  21.302  1.00  0.00     0.006 A 
ENDBRANCH  59  76
ENDBRANCH  33  34
ENDBRANCH  26  28
ENDBRANCH  25  26
ENDBRANCH  24  25
ENDBRANCH   1  24
TORSDOF 15
