REMARK SMILES O=C(OCCOC(=O)c1cc(S(=O)(=O)Cc2cccc(O)c2)ccc1F)c1ccc(-c2c3nc(c(-c4c(F)cccc4F)c4ccc([nH]4)c(-c4c(F)cccc4F)c4nc(c(-c5c(F)cccc5F)c5ccc2[nH]5)C=C4)C=C3)cc1
REMARK SMILES IDX 5 1 4 2 3 3 2 4 1 5 27 6 28 7 80 8 29 9 79 10 30 11 31 12
REMARK SMILES IDX 32 13 73 14 33 15 78 16 72 17 74 18 34 19 77 20 71 21 70 22
REMARK SMILES IDX 35 24 61 25 44 26 60 27 45 28 48 29 59 30 75 31 46 32 47 33
REMARK SMILES IDX 58 35 76 36 49 37 36 38 37 39 42 40 38 41 39 42 41 43 43 44
REMARK SMILES IDX 40 45 62 46 63 47 68 48 64 49 65 50 67 51 69 52 66 53 50 54
REMARK SMILES IDX 51 55 56 56 52 57 53 58 55 59 57 60 54 61 6 62 7 63 8 64
REMARK SMILES IDX 9 65 10 66 25 67 11 68 24 69 26 70 23 71 12 72 13 73 14 74
REMARK SMILES IDX 15 75 16 76 17 77 22 78 18 79 20 80 19 81 21 82
REMARK H PARENT 74 23 48 34 21 83
REMARK Flexibility Score: inf
ROOT
ATOM      1  C   UNL     1       3.728   2.130   0.012  1.00  0.00     0.275 C 
ENDROOT
BRANCH   1   2
ATOM      2  C   UNL     1       3.991   1.125  -1.113  1.00  0.00     0.275 C 
BRANCH   2   3
ATOM      3  O   UNL     1       3.011   0.081  -1.239  1.00  0.00    -0.458 OA
BRANCH   3   4
ATOM      4  C   UNL     1       2.879  -1.090  -0.575  1.00  0.00     0.338 C 
ATOM      5  O   UNL     1       1.996  -1.869  -0.931  1.00  0.00    -0.246 OA
BRANCH   4   6
ATOM      6  C   UNL     1       3.666  -1.453   0.648  1.00  0.00     0.060 A 
ATOM      7  C   UNL     1       4.928  -0.970   0.995  1.00  0.00     0.016 A 
ATOM      8  C   UNL     1       3.056  -2.362   1.530  1.00  0.00     0.016 A 
ATOM      9  C   UNL     1       5.519  -1.305   2.215  1.00  0.00     0.010 A 
ATOM     10  C   UNL     1       3.630  -2.684   2.764  1.00  0.00     0.010 A 
ATOM     11  C   UNL     1       4.872  -2.155   3.112  1.00  0.00    -0.014 A 
BRANCH  11  12
ATOM     12  C   UNL     1       5.591  -2.599   4.325  1.00  0.00     0.031 A 
ATOM     13  C   UNL     1       6.138  -3.995   4.357  1.00  0.00     0.074 A 
ATOM     14  C   UNL     1       5.834  -1.736   5.329  1.00  0.00     0.049 A 
ATOM     15  N   UNL     1       6.881  -4.567   5.268  1.00  0.00    -0.248 NA
ATOM     16  C   UNL     1       5.829  -4.856   3.202  1.00  0.00     0.031 C 
ATOM     17  C   UNL     1       5.367  -0.351   5.379  1.00  0.00     0.029 A 
ATOM     18  N   UNL     1       6.541  -1.888   6.495  1.00  0.00    -0.354 N 
ATOM     19  C   UNL     1       7.176  -5.826   4.760  1.00  0.00     0.074 A 
ATOM     20  C   UNL     1       6.455  -5.977   3.520  1.00  0.00     0.031 C 
ATOM     21  C   UNL     1       5.772   0.213   6.529  1.00  0.00     0.029 A 
ATOM     22  C   UNL     1       6.531  -0.769   7.295  1.00  0.00     0.049 A 
ATOM     23  H   UNL     1       7.011  -2.719   6.736  1.00  0.00     0.167 HD
ATOM     24  C   UNL     1       8.022  -6.754   5.259  1.00  0.00     0.037 A 
ATOM     25  C   UNL     1       7.083  -0.565   8.506  1.00  0.00     0.037 A 
ATOM     26  C   UNL     1       8.733  -6.598   6.495  1.00  0.00     0.049 A 
ATOM     27  C   UNL     1       7.902  -1.674   9.110  1.00  0.00     0.074 A 
ATOM     28  C   UNL     1       9.586  -7.490   7.117  1.00  0.00     0.029 A 
ATOM     29  N   UNL     1       8.674  -5.467   7.294  1.00  0.00    -0.354 N 
ATOM     30  N   UNL     1       8.183  -2.856   8.613  1.00  0.00    -0.248 NA
ATOM     31  C   UNL     1       8.500  -1.419  10.428  1.00  0.00     0.031 C 
ATOM     32  C   UNL     1      10.000  -6.918   8.323  1.00  0.00     0.029 A 
ATOM     33  C   UNL     1       9.446  -5.651   8.425  1.00  0.00     0.049 A 
ATOM     34  H   UNL     1       8.159  -4.654   7.087  1.00  0.00     0.167 HD
ATOM     35  C   UNL     1       9.031  -3.463   9.531  1.00  0.00     0.074 A 
ATOM     36  C   UNL     1       9.213  -2.521  10.616  1.00  0.00     0.031 C 
ATOM     37  C   UNL     1       9.615  -4.685   9.480  1.00  0.00     0.037 A 
BRANCH  24  38
ATOM     38  C   UNL     1       8.225  -8.003   4.459  1.00  0.00     0.057 A 
ATOM     39  C   UNL     1       7.695  -9.225   4.889  1.00  0.00     0.134 A 
ATOM     40  C   UNL     1       8.973  -7.999   3.274  1.00  0.00     0.134 A 
ATOM     41  F   UNL     1       6.963  -9.291   6.011  1.00  0.00    -0.206 F 
ATOM     42  C   UNL     1       7.915 -10.403   4.175  1.00  0.00     0.040 A 
ATOM     43  C   UNL     1       9.181  -9.167   2.540  1.00  0.00     0.040 A 
ATOM     44  F   UNL     1       9.486  -6.854   2.798  1.00  0.00    -0.206 F 
ATOM     45  C   UNL     1       8.658 -10.376   2.996  1.00  0.00     0.006 A 
ENDBRANCH  24  38
BRANCH  25  46
ATOM     46  C   UNL     1       6.907   0.733   9.210  1.00  0.00     0.057 A 
ATOM     47  C   UNL     1       5.659   1.132   9.706  1.00  0.00     0.134 A 
ATOM     48  C   UNL     1       7.986   1.599   9.424  1.00  0.00     0.134 A 
ATOM     49  F   UNL     1       4.579   0.357   9.528  1.00  0.00    -0.206 F 
ATOM     50  C   UNL     1       5.491   2.340  10.387  1.00  0.00     0.040 A 
ATOM     51  C   UNL     1       7.838   2.799  10.124  1.00  0.00     0.040 A 
ATOM     52  F   UNL     1       9.211   1.270   8.988  1.00  0.00    -0.206 F 
ATOM     53  C   UNL     1       6.586   3.174  10.606  1.00  0.00     0.006 A 
ENDBRANCH  25  46
BRANCH  37  54
ATOM     54  C   UNL     1      10.523  -5.065  10.610  1.00  0.00     0.057 A 
ATOM     55  C   UNL     1      11.903  -5.187  10.403  1.00  0.00     0.134 A 
ATOM     56  C   UNL     1      10.023  -5.396  11.875  1.00  0.00     0.134 A 
ATOM     57  F   UNL     1      12.440  -4.898   9.208  1.00  0.00    -0.206 F 
ATOM     58  C   UNL     1      12.752  -5.641  11.410  1.00  0.00     0.040 A 
ATOM     59  C   UNL     1      10.866  -5.823  12.900  1.00  0.00     0.040 A 
ATOM     60  F   UNL     1       8.710  -5.292  12.135  1.00  0.00    -0.206 F 
ATOM     61  C   UNL     1      12.234  -5.958  12.665  1.00  0.00     0.006 A 
ENDBRANCH  37  54
ENDBRANCH  11  12
ENDBRANCH   4   6
ENDBRANCH   3   4
ENDBRANCH   2   3
ENDBRANCH   1   2
BRANCH   1  62
ATOM     62  O   UNL     1       3.336   1.530   1.257  1.00  0.00    -0.458 OA
BRANCH  62  63
ATOM     63  C   UNL     1       1.997   1.448   1.468  1.00  0.00     0.341 C 
ATOM     64  O   UNL     1       1.112   1.792   0.703  1.00  0.00    -0.246 OA
BRANCH  63  65
ATOM     65  C   UNL     1       1.727   0.788   2.755  1.00  0.00     0.097 A 
ATOM     66  C   UNL     1       0.911  -0.353   2.808  1.00  0.00     0.039 A 
ATOM     67  C   UNL     1       2.249   1.321   3.929  1.00  0.00     0.137 A 
ATOM     68  C   UNL     1       0.658  -0.975   4.043  1.00  0.00     0.068 A 
ATOM     69  C   UNL     1       1.934   0.749   5.158  1.00  0.00     0.041 A 
ATOM     70  F   UNL     1       3.044   2.399   3.907  1.00  0.00    -0.206 F 
ATOM     71  C   UNL     1       1.120  -0.385   5.218  1.00  0.00     0.023 A 
BRANCH  68  72
ATOM     72  S   UNL     1      -0.256  -2.513   4.045  1.00  0.00     0.182 S 
ATOM     73  O   UNL     1      -1.628  -2.111   3.790  1.00  0.00    -0.223 OA
ATOM     74  O   UNL     1       0.421  -3.401   3.118  1.00  0.00    -0.223 OA
BRANCH  72  75
ATOM     75  C   UNL     1      -0.234  -3.258   5.663  1.00  0.00     0.177 C 
BRANCH  75  76
ATOM     76  C   UNL     1       1.053  -3.960   6.033  1.00  0.00    -0.029 A 
ATOM     77  C   UNL     1       1.228  -5.329   5.763  1.00  0.00     0.005 A 
ATOM     78  C   UNL     1       2.054  -3.312   6.768  1.00  0.00     0.051 A 
ATOM     79  C   UNL     1       2.367  -6.014   6.213  1.00  0.00     0.004 A 
ATOM     80  C   UNL     1       3.193  -3.994   7.188  1.00  0.00     0.115 A 
ATOM     81  C   UNL     1       3.362  -5.342   6.920  1.00  0.00     0.046 A 
BRANCH  80  82
ATOM     82  O   UNL     1       4.111  -3.289   7.904  1.00  0.00    -0.508 OA
ATOM     83  H   UNL     1       4.893  -3.708   8.207  1.00  0.00     0.293 HD
ENDBRANCH  80  82
ENDBRANCH  75  76
ENDBRANCH  72  75
ENDBRANCH  68  72
ENDBRANCH  63  65
ENDBRANCH  62  63
ENDBRANCH   1  62
TORSDOF 15
