REMARK SMILES C[C@H]([NH2+][C@@H](C)[C@]12C[C@H]3C[C@H](C[C@H](C3)C1)C2)[C@@H](C)C(=O)OCCOC(=O)c1ccc(-c2c3nc(c(-c4c(F)cccc4F)c4ccc([nH]4)c(-c4c(F)cccc4F)c4nc(c(-c5c(F)cccc5F)c5ccc2[nH]5)C=C4)C=C3)cc1
REMARK SMILES IDX 21 1 20 2 18 3 19 4 16 5 17 6 2 7 1 8 3 9 4 12 5 13 6 14
REMARK SMILES IDX 7 15 14 16 15 17 8 18 12 19 10 20 9 21 13 22 11 23 22 24
REMARK SMILES IDX 23 25 24 26 25 27 26 28 27 29 79 30 28 31 78 32 29 33 30 34
REMARK SMILES IDX 31 35 72 36 32 37 77 38 71 39 73 40 33 41 76 42 70 43 69 44
REMARK SMILES IDX 34 46 60 47 43 48 59 49 44 50 47 51 58 52 74 53 45 54 46 55
REMARK SMILES IDX 57 57 75 58 48 59 35 60 36 61 41 62 37 63 38 64 40 65 42 66
REMARK SMILES IDX 39 67 61 68 62 69 67 70 63 71 64 72 66 73 68 74 65 75 49 76
REMARK SMILES IDX 50 77 55 78 51 79 52 80 54 81 56 82 53 83
REMARK H PARENT 3 10 3 11 73 45 47 56
REMARK Flexibility Score: inf
ROOT
ATOM      1  C   UNL     1      -1.091  -4.955  -2.396  1.00  0.00     0.274 C 
ENDROOT
BRANCH   1   2
ATOM      2  O   UNL     1      -0.459  -3.727  -1.982  1.00  0.00    -0.462 OA
BRANCH   2   3
ATOM      3  C   UNL     1      -1.329  -2.847  -1.440  1.00  0.00     0.314 C 
ATOM      4  O   UNL     1      -2.520  -3.085  -1.240  1.00  0.00    -0.252 OA
BRANCH   3   5
ATOM      5  C   UNL     1      -0.795  -1.458  -1.200  1.00  0.00     0.154 C 
ATOM      6  C   UNL     1      -1.192  -0.634  -2.431  1.00  0.00     0.026 C 
BRANCH   5   7
ATOM      7  C   UNL     1       0.645  -1.176  -0.750  1.00  0.00     0.193 C 
ATOM      8  C   UNL     1       1.182  -2.135   0.315  1.00  0.00     0.076 C 
BRANCH   7   9
ATOM      9  N   UNL     1       0.819   0.241  -0.351  1.00  0.00    -0.341 N 
ATOM     10  H   UNL     1       0.302   0.792  -1.037  1.00  0.00     0.346 HD
ATOM     11  H   UNL     1       1.835   0.318  -0.301  1.00  0.00     0.346 HD
BRANCH   9  12
ATOM     12  C   UNL     1       0.417   0.755   0.970  1.00  0.00     0.185 C 
ATOM     13  C   UNL     1       1.666   1.517   1.459  1.00  0.00     0.076 C 
BRANCH  12  14
ATOM     14  C   UNL     1      -0.904   1.652   1.062  1.00  0.00     0.023 C 
ATOM     15  C   UNL     1      -2.183   0.785   0.910  1.00  0.00     0.016 C 
ATOM     16  C   UNL     1      -0.983   2.769  -0.016  1.00  0.00     0.016 C 
ATOM     17  C   UNL     1      -1.004   2.354   2.456  1.00  0.00     0.016 C 
ATOM     18  C   UNL     1      -3.480   1.581   1.079  1.00  0.00    -0.010 C 
ATOM     19  C   UNL     1      -2.296   3.576   0.113  1.00  0.00    -0.010 C 
ATOM     20  C   UNL     1      -2.301   3.173   2.598  1.00  0.00    -0.010 C 
ATOM     21  C   UNL     1      -3.507   2.239   2.458  1.00  0.00     0.007 C 
ATOM     22  C   UNL     1      -3.514   2.647  -0.026  1.00  0.00     0.007 C 
ATOM     23  C   UNL     1      -2.350   4.244   1.494  1.00  0.00     0.007 C 
ENDBRANCH  12  14
ENDBRANCH   9  12
ENDBRANCH   7   9
ENDBRANCH   5   7
ENDBRANCH   3   5
ENDBRANCH   2   3
ENDBRANCH   1   2
BRANCH   1  24
ATOM     24  C   UNL     1      -1.159  -6.014  -1.291  1.00  0.00     0.275 C 
BRANCH  24  25
ATOM     25  O   UNL     1      -1.776  -5.525  -0.085  1.00  0.00    -0.458 OA
BRANCH  25  26
ATOM     26  C   UNL     1      -0.928  -5.298   0.944  1.00  0.00     0.338 C 
ATOM     27  O   UNL     1       0.277  -5.485   0.965  1.00  0.00    -0.246 OA
BRANCH  26  28
ATOM     28  C   UNL     1      -1.652  -4.773   2.112  1.00  0.00     0.060 A 
ATOM     29  C   UNL     1      -1.904  -3.404   2.217  1.00  0.00     0.016 A 
ATOM     30  C   UNL     1      -1.907  -5.621   3.191  1.00  0.00     0.016 A 
ATOM     31  C   UNL     1      -2.354  -2.867   3.425  1.00  0.00     0.010 A 
ATOM     32  C   UNL     1      -2.404  -5.088   4.385  1.00  0.00     0.010 A 
ATOM     33  C   UNL     1      -2.597  -3.703   4.524  1.00  0.00    -0.014 A 
BRANCH  33  34
ATOM     34  C   UNL     1      -2.999  -3.134   5.837  1.00  0.00     0.031 A 
ATOM     35  C   UNL     1      -2.058  -3.200   7.010  1.00  0.00     0.074 A 
ATOM     36  C   UNL     1      -4.208  -2.563   5.989  1.00  0.00     0.049 A 
ATOM     37  N   UNL     1      -2.275  -2.898   8.265  1.00  0.00    -0.248 NA
ATOM     38  C   UNL     1      -0.693  -3.674   6.732  1.00  0.00     0.031 C 
ATOM     39  C   UNL     1      -5.205  -2.394   4.931  1.00  0.00     0.029 A 
ATOM     40  N   UNL     1      -4.807  -2.027   7.103  1.00  0.00    -0.354 N 
ATOM     41  C   UNL     1      -1.089  -3.177   8.933  1.00  0.00     0.074 A 
ATOM     42  C   UNL     1      -0.156  -3.676   7.944  1.00  0.00     0.031 C 
ATOM     43  C   UNL     1      -6.289  -1.792   5.446  1.00  0.00     0.029 A 
ATOM     44  C   UNL     1      -6.085  -1.581   6.876  1.00  0.00     0.049 A 
ATOM     45  H   UNL     1      -4.362  -1.968   7.979  1.00  0.00     0.167 HD
ATOM     46  C   UNL     1      -0.802  -3.030  10.249  1.00  0.00     0.037 A 
ATOM     47  C   UNL     1      -7.002  -1.088   7.729  1.00  0.00     0.037 A 
ATOM     48  C   UNL     1      -1.714  -2.505  11.232  1.00  0.00     0.049 A 
ATOM     49  C   UNL     1      -6.674  -0.968   9.190  1.00  0.00     0.074 A 
ATOM     50  C   UNL     1      -1.506  -2.311  12.588  1.00  0.00     0.029 A 
ATOM     51  N   UNL     1      -3.004  -2.079  10.962  1.00  0.00    -0.354 N 
ATOM     52  N   UNL     1      -5.563  -1.269   9.815  1.00  0.00    -0.248 NA
ATOM     53  C   UNL     1      -7.735  -0.449  10.066  1.00  0.00     0.031 C 
ATOM     54  C   UNL     1      -2.680  -1.790  13.143  1.00  0.00     0.029 A 
ATOM     55  C   UNL     1      -3.608  -1.631  12.127  1.00  0.00     0.049 A 
ATOM     56  H   UNL     1      -3.430  -2.092  10.075  1.00  0.00     0.167 HD
ATOM     57  C   UNL     1      -5.785  -0.966  11.151  1.00  0.00     0.074 A 
ATOM     58  C   UNL     1      -7.132  -0.442  11.246  1.00  0.00     0.031 C 
ATOM     59  C   UNL     1      -4.948  -1.112  12.207  1.00  0.00     0.037 A 
BRANCH  46  60
ATOM     60  C   UNL     1       0.554  -3.469  10.712  1.00  0.00     0.057 A 
ATOM     61  C   UNL     1       1.702  -2.705  10.469  1.00  0.00     0.134 A 
ATOM     62  C   UNL     1       0.707  -4.655  11.441  1.00  0.00     0.134 A 
ATOM     63  F   UNL     1       1.623  -1.566   9.765  1.00  0.00    -0.206 F 
ATOM     64  C   UNL     1       2.957  -3.113  10.923  1.00  0.00     0.040 A 
ATOM     65  C   UNL     1       1.954  -5.064  11.916  1.00  0.00     0.040 A 
ATOM     66  F   UNL     1      -0.355  -5.430  11.711  1.00  0.00    -0.206 F 
ATOM     67  C   UNL     1       3.084  -4.293  11.654  1.00  0.00     0.006 A 
ENDBRANCH  46  60
BRANCH  47  68
ATOM     68  C   UNL     1      -8.338  -0.692   7.224  1.00  0.00     0.057 A 
ATOM     69  C   UNL     1      -8.701   0.655   7.125  1.00  0.00     0.134 A 
ATOM     70  C   UNL     1      -9.281  -1.649   6.833  1.00  0.00     0.134 A 
ATOM     71  F   UNL     1      -7.845   1.614   7.509  1.00  0.00    -0.206 F 
ATOM     72  C   UNL     1      -9.960   1.038   6.661  1.00  0.00     0.040 A 
ATOM     73  C   UNL     1     -10.536  -1.280   6.348  1.00  0.00     0.040 A 
ATOM     74  F   UNL     1      -8.991  -2.956   6.907  1.00  0.00    -0.206 F 
ATOM     75  C   UNL     1     -10.879   0.068   6.265  1.00  0.00     0.006 A 
ENDBRANCH  47  68
BRANCH  59  76
ATOM     76  C   UNL     1      -5.459  -0.676  13.546  1.00  0.00     0.057 A 
ATOM     77  C   UNL     1      -6.376  -1.449  14.269  1.00  0.00     0.134 A 
ATOM     78  C   UNL     1      -5.017   0.520  14.125  1.00  0.00     0.134 A 
ATOM     79  F   UNL     1      -6.848  -2.597  13.761  1.00  0.00    -0.206 F 
ATOM     80  C   UNL     1      -6.851  -1.036  15.515  1.00  0.00     0.040 A 
ATOM     81  C   UNL     1      -5.471   0.933  15.378  1.00  0.00     0.040 A 
ATOM     82  F   UNL     1      -4.136   1.302  13.484  1.00  0.00    -0.206 F 
ATOM     83  C   UNL     1      -6.395   0.157  16.074  1.00  0.00     0.006 A 
ENDBRANCH  59  76
ENDBRANCH  33  34
ENDBRANCH  26  28
ENDBRANCH  25  26
ENDBRANCH  24  25
ENDBRANCH   1  24
TORSDOF 15
