REMARK SMILES O=C(C[C@H]1C(=O)Nc2ccccc21)OCCOC(=O)c1ccc(-c2c3nc(c(-c4c(F)cccc4F)c4ccc([nH]4)c(-c4c(F)cccc4F)c4nc(c(-c5c(F)cccc5F)c5ccc2[nH]5)C=C4)C=C3)cc1
REMARK SMILES IDX 16 1 15 2 14 3 2 4 1 5 3 6 4 7 5 8 13 9 6 10 7 11 8 12 12 13
REMARK SMILES IDX 9 15 11 16 10 17 17 18 18 19 19 20 20 21 21 22 73 23 22 24
REMARK SMILES IDX 72 25 23 26 24 27 25 28 66 29 26 30 71 31 65 32 67 33 27 34
REMARK SMILES IDX 70 35 64 36 63 37 28 39 54 40 37 41 53 42 38 43 41 44 52 45
REMARK SMILES IDX 68 46 39 47 40 48 51 50 69 51 42 52 29 53 30 54 35 55 31 56
REMARK SMILES IDX 32 57 34 58 36 59 33 60 55 61 56 62 61 63 57 64 58 65 60 66
REMARK SMILES IDX 62 67 59 68 43 69 44 70 49 71 45 72 46 73 48 74 50 75 47 76
REMARK H PARENT 7 14 67 38 41 49
REMARK Flexibility Score: inf
ROOT
ATOM      1  C   UNL     1       6.045   0.280  -1.440  1.00  0.00     0.275 C 
ENDROOT
BRANCH   1   2
ATOM      2  C   UNL     1       4.632   0.819  -1.202  1.00  0.00     0.274 C 
BRANCH   2   3
ATOM      3  O   UNL     1       4.636   2.097  -0.530  1.00  0.00    -0.462 OA
BRANCH   3   4
ATOM      4  C   UNL     1       4.254   2.276   0.755  1.00  0.00     0.307 C 
ATOM      5  O   UNL     1       3.895   3.382   1.154  1.00  0.00    -0.252 OA
BRANCH   4   6
ATOM      6  C   UNL     1       4.333   1.116   1.706  1.00  0.00     0.141 C 
BRANCH   6   7
ATOM      7  C   UNL     1       2.956   0.570   2.047  1.00  0.00     0.122 C 
ATOM      8  C   UNL     1       2.971  -0.966   1.883  1.00  0.00     0.232 C 
ATOM      9  C   UNL     1       2.658   0.708   3.516  1.00  0.00    -0.011 A 
ATOM     10  O   UNL     1       3.155  -1.587   0.848  1.00  0.00    -0.274 OA
ATOM     11  N   UNL     1       2.795  -1.529   3.137  1.00  0.00    -0.325 N 
ATOM     12  C   UNL     1       2.610  -0.555   4.103  1.00  0.00     0.045 A 
ATOM     13  C   UNL     1       2.487   1.849   4.277  1.00  0.00     0.007 A 
ATOM     14  H   UNL     1       2.801  -2.497   3.318  1.00  0.00     0.169 HD
ATOM     15  C   UNL     1       2.414  -0.737   5.453  1.00  0.00     0.026 A 
ATOM     16  C   UNL     1       2.281   1.691   5.650  1.00  0.00     0.000 A 
ATOM     17  C   UNL     1       2.249   0.410   6.234  1.00  0.00     0.002 A 
ENDBRANCH   6   7
ENDBRANCH   4   6
ENDBRANCH   3   4
ENDBRANCH   2   3
ENDBRANCH   1   2
BRANCH   1  18
ATOM     18  O   UNL     1       6.693  -0.055  -0.198  1.00  0.00    -0.458 OA
BRANCH  18  19
ATOM     19  C   UNL     1       7.499   0.904   0.321  1.00  0.00     0.338 C 
ATOM     20  O   UNL     1       7.831   1.944  -0.222  1.00  0.00    -0.246 OA
BRANCH  19  21
ATOM     21  C   UNL     1       7.791   0.603   1.746  1.00  0.00     0.060 A 
ATOM     22  C   UNL     1       7.936   1.689   2.618  1.00  0.00     0.016 A 
ATOM     23  C   UNL     1       7.890  -0.703   2.241  1.00  0.00     0.016 A 
ATOM     24  C   UNL     1       8.215   1.475   3.969  1.00  0.00     0.010 A 
ATOM     25  C   UNL     1       8.169  -0.916   3.598  1.00  0.00     0.010 A 
ATOM     26  C   UNL     1       8.359   0.172   4.466  1.00  0.00    -0.014 A 
BRANCH  26  27
ATOM     27  C   UNL     1       8.818  -0.023   5.865  1.00  0.00     0.031 A 
ATOM     28  C   UNL     1      10.274  -0.294   6.134  1.00  0.00     0.074 A 
ATOM     29  C   UNL     1       7.963   0.099   6.897  1.00  0.00     0.049 A 
ATOM     30  N   UNL     1      10.903  -0.391   7.278  1.00  0.00    -0.248 NA
ATOM     31  C   UNL     1      11.136  -0.478   4.956  1.00  0.00     0.031 C 
ATOM     32  C   UNL     1       6.529   0.358   6.787  1.00  0.00     0.029 A 
ATOM     33  N   UNL     1       8.189   0.026   8.251  1.00  0.00    -0.354 N 
ATOM     34  C   UNL     1      12.236  -0.617   6.959  1.00  0.00     0.074 A 
ATOM     35  C   UNL     1      12.316  -0.701   5.516  1.00  0.00     0.031 C 
ATOM     36  C   UNL     1       6.002   0.422   8.023  1.00  0.00     0.029 A 
ATOM     37  C   UNL     1       7.059   0.205   9.010  1.00  0.00     0.049 A 
ATOM     38  H   UNL     1       9.079  -0.140   8.640  1.00  0.00     0.167 HD
ATOM     39  C   UNL     1      13.303  -0.720   7.787  1.00  0.00     0.037 A 
ATOM     40  C   UNL     1       6.897   0.198  10.348  1.00  0.00     0.037 A 
ATOM     41  C   UNL     1      13.236  -0.658   9.223  1.00  0.00     0.049 A 
ATOM     42  C   UNL     1       8.093   0.025  11.249  1.00  0.00     0.074 A 
ATOM     43  C   UNL     1      14.270  -0.748  10.140  1.00  0.00     0.029 A 
ATOM     44  N   UNL     1      12.069  -0.502   9.953  1.00  0.00    -0.354 N 
ATOM     45  N   UNL     1       9.356  -0.125  10.932  1.00  0.00    -0.248 NA
ATOM     46  C   UNL     1       7.838   0.039  12.698  1.00  0.00     0.031 C 
ATOM     47  C   UNL     1      13.724  -0.685  11.427  1.00  0.00     0.029 A 
ATOM     48  C   UNL     1      12.355  -0.512  11.309  1.00  0.00     0.049 A 
ATOM     49  H   UNL     1      11.170  -0.398   9.566  1.00  0.00     0.167 HD
ATOM     50  C   UNL     1      10.046  -0.196  12.138  1.00  0.00     0.074 A 
ATOM     51  C   UNL     1       9.064  -0.052  13.191  1.00  0.00     0.031 C 
ATOM     52  C   UNL     1      11.373  -0.367  12.353  1.00  0.00     0.037 A 
BRANCH  39  53
ATOM     53  C   UNL     1      14.648  -0.904   7.151  1.00  0.00     0.057 A 
ATOM     54  C   UNL     1      15.294   0.150   6.492  1.00  0.00     0.134 A 
ATOM     55  C   UNL     1      15.323  -2.127   7.234  1.00  0.00     0.134 A 
ATOM     56  F   UNL     1      14.694   1.344   6.368  1.00  0.00    -0.206 F 
ATOM     57  C   UNL     1      16.559  -0.010   5.924  1.00  0.00     0.040 A 
ATOM     58  C   UNL     1      16.598  -2.294   6.689  1.00  0.00     0.040 A 
ATOM     59  F   UNL     1      14.761  -3.175   7.855  1.00  0.00    -0.206 F 
ATOM     60  C   UNL     1      17.217  -1.234   6.029  1.00  0.00     0.006 A 
ENDBRANCH  39  53
BRANCH  40  61
ATOM     61  C   UNL     1       5.544   0.365  10.936  1.00  0.00     0.057 A 
ATOM     62  C   UNL     1       5.197   1.518  11.651  1.00  0.00     0.134 A 
ATOM     63  C   UNL     1       4.585  -0.651  10.845  1.00  0.00     0.134 A 
ATOM     64  F   UNL     1       6.083   2.514  11.795  1.00  0.00    -0.206 F 
ATOM     65  C   UNL     1       3.957   1.642  12.280  1.00  0.00     0.040 A 
ATOM     66  C   UNL     1       3.333  -0.531  11.449  1.00  0.00     0.040 A 
ATOM     67  F   UNL     1       4.856  -1.780  10.173  1.00  0.00    -0.206 F 
ATOM     68  C   UNL     1       3.021   0.615  12.179  1.00  0.00     0.006 A 
ENDBRANCH  40  61
BRANCH  52  69
ATOM     69  C   UNL     1      11.844  -0.384  13.779  1.00  0.00     0.057 A 
ATOM     70  C   UNL     1      11.573  -1.460  14.635  1.00  0.00     0.134 A 
ATOM     71  C   UNL     1      12.595   0.679  14.298  1.00  0.00     0.134 A 
ATOM     72  F   UNL     1      10.849  -2.504  14.204  1.00  0.00    -0.206 F 
ATOM     73  C   UNL     1      12.004  -1.464  15.963  1.00  0.00     0.040 A 
ATOM     74  C   UNL     1      13.055   0.674  15.616  1.00  0.00     0.040 A 
ATOM     75  F   UNL     1      12.901   1.736  13.531  1.00  0.00    -0.206 F 
ATOM     76  C   UNL     1      12.752  -0.397  16.455  1.00  0.00     0.006 A 
ENDBRANCH  52  69
ENDBRANCH  26  27
ENDBRANCH  19  21
ENDBRANCH  18  19
ENDBRANCH   1  18
TORSDOF 12
