REMARK SMILES C[C@H](C(=O)OCCOC(=O)c1ccc(-c2c3nc(c(-c4c(F)cccc4F)c4ccc([nH]4)c(-c4c(F)cccc4F)c4nc(c(-c5c(F)cccc5F)c5ccc2[nH]5)C=C4)C=C3)cc1)[C@@H](C)Sc1ccc2c(c1)OCCCO2
REMARK SMILES IDX 3 1 4 2 2 3 1 4 65 5 66 6 67 7 68 8 69 9 73 10 70 11 72 12
REMARK SMILES IDX 71 13 74 14 75 15 78 17 77 18 76 19 5 21 6 22 7 23 8 24 9 25
REMARK SMILES IDX 10 26 11 27 12 28 64 29 13 30 63 31 14 32 15 33 16 34 57 35
REMARK SMILES IDX 17 36 62 37 56 38 58 39 18 40 61 41 55 42 54 43 19 45 45 46
REMARK SMILES IDX 28 47 44 48 29 49 32 50 43 51 59 52 30 53 31 54 42 56 60 57
REMARK SMILES IDX 33 58 20 59 21 60 26 61 22 62 23 63 25 64 27 65 24 66 46 67
REMARK SMILES IDX 47 68 52 69 48 70 49 71 51 72 53 73 50 74 34 75 35 76 40 77
REMARK SMILES IDX 36 78 37 79 39 80 41 81 38 82
REMARK H PARENT 58 44 32 55
REMARK Flexibility Score: 80.00
ROOT
ATOM      1  C   UNL     1       1.160   0.162  -0.277  1.00  0.00     0.309 C 
ATOM      2  O   UNL     1       2.337   0.466  -0.442  1.00  0.00    -0.252 OA
ENDROOT
BRANCH   1   3
ATOM      3  C   UNL     1       0.532  -1.009  -1.012  1.00  0.00     0.109 C 
ATOM      4  C   UNL     1       1.166  -2.328  -0.556  1.00  0.00     0.021 C 
BRANCH   3   5
ATOM      5  C   UNL     1      -1.008  -1.107  -1.007  1.00  0.00     0.062 C 
ATOM      6  C   UNL     1      -1.827   0.177  -1.201  1.00  0.00     0.020 C 
BRANCH   5   7
ATOM      7  S   UNL     1      -1.554  -2.425  -2.207  1.00  0.00    -0.122 SA
BRANCH   7   8
ATOM      8  C   UNL     1      -1.056  -1.859  -3.832  1.00  0.00     0.011 A 
ATOM      9  C   UNL     1      -1.376  -2.714  -4.900  1.00  0.00     0.019 A 
ATOM     10  C   UNL     1      -0.549  -0.591  -4.120  1.00  0.00     0.065 A 
ATOM     11  C   UNL     1      -1.418  -2.230  -6.208  1.00  0.00     0.051 A 
ATOM     12  C   UNL     1      -0.611  -0.099  -5.411  1.00  0.00     0.162 A 
ATOM     13  C   UNL     1      -1.158  -0.883  -6.416  1.00  0.00     0.161 A 
BRANCH  12  14
ATOM     14  O   UNL     1      -0.324   1.218  -5.648  1.00  0.00    -0.490 OA
BRANCH  14  15
ATOM     15  C   UNL     1      -1.491   2.008  -5.410  1.00  0.00     0.233 CG0
ATOM     16  G   UNL     1      -2.550   1.883  -6.509  1.00  0.00     0.000 G0
ENDBRANCH  14  15
ENDBRANCH  12  14
BRANCH  13  17
ATOM     17  O   UNL     1      -1.752  -0.255  -7.486  1.00  0.00    -0.490 OA
BRANCH  17  18
ATOM     18  C   UNL     1      -2.892   0.457  -6.950  1.00  0.00     0.233 C 
BRANCH  18  19
ATOM     19  C   UNL     1      -2.550   1.883  -6.509  1.00  0.00     0.083 CG0
ATOM     20  G   UNL     1      -1.491   2.008  -5.410  1.00  0.00     0.000 G0
ENDBRANCH  18  19
ENDBRANCH  17  18
ENDBRANCH  13  17
ENDBRANCH   7   8
ENDBRANCH   5   7
ENDBRANCH   3   5
ENDBRANCH   1   3
BRANCH   1  21
ATOM     21  O   UNL     1       0.317   0.814   0.557  1.00  0.00    -0.462 OA
BRANCH  21  22
ATOM     22  C   UNL     1       0.846   1.976   1.230  1.00  0.00     0.274 C 
BRANCH  22  23
ATOM     23  C   UNL     1       0.970   1.710   2.727  1.00  0.00     0.275 C 
BRANCH  23  24
ATOM     24  O   UNL     1       1.916   0.651   2.954  1.00  0.00    -0.458 OA
BRANCH  24  25
ATOM     25  C   UNL     1       1.374  -0.554   3.224  1.00  0.00     0.338 C 
ATOM     26  O   UNL     1       0.190  -0.827   3.373  1.00  0.00    -0.246 OA
BRANCH  25  27
ATOM     27  C   UNL     1       2.423  -1.580   3.234  1.00  0.00     0.060 A 
ATOM     28  C   UNL     1       3.058  -1.893   2.038  1.00  0.00     0.016 A 
ATOM     29  C   UNL     1       2.642  -2.359   4.366  1.00  0.00     0.016 A 
ATOM     30  C   UNL     1       3.785  -3.072   1.922  1.00  0.00     0.010 A 
ATOM     31  C   UNL     1       3.502  -3.459   4.284  1.00  0.00     0.010 A 
ATOM     32  C   UNL     1       4.047  -3.860   3.049  1.00  0.00    -0.014 A 
BRANCH  32  33
ATOM     33  C   UNL     1       4.864  -5.102   2.934  1.00  0.00     0.031 A 
ATOM     34  C   UNL     1       4.327  -6.413   3.447  1.00  0.00     0.074 A 
ATOM     35  C   UNL     1       6.088  -5.069   2.369  1.00  0.00     0.049 A 
ATOM     36  N   UNL     1       4.963  -7.533   3.681  1.00  0.00    -0.248 NA
ATOM     37  C   UNL     1       2.889  -6.467   3.756  1.00  0.00     0.031 C 
ATOM     38  C   UNL     1       6.721  -3.893   1.769  1.00  0.00     0.029 A 
ATOM     39  N   UNL     1       7.022  -6.062   2.202  1.00  0.00    -0.354 N 
ATOM     40  C   UNL     1       4.026  -8.393   4.240  1.00  0.00     0.074 A 
ATOM     41  C   UNL     1       2.771  -7.673   4.293  1.00  0.00     0.031 C 
ATOM     42  C   UNL     1       7.909  -4.241   1.255  1.00  0.00     0.029 A 
ATOM     43  C   UNL     1       8.175  -5.633   1.590  1.00  0.00     0.049 A 
ATOM     44  H   UNL     1       6.879  -6.992   2.492  1.00  0.00     0.167 HD
ATOM     45  C   UNL     1       4.203  -9.663   4.678  1.00  0.00     0.037 A 
ATOM     46  C   UNL     1       9.344  -6.264   1.372  1.00  0.00     0.037 A 
ATOM     47  C   UNL     1       5.432 -10.400   4.548  1.00  0.00     0.049 A 
ATOM     48  C   UNL     1       9.523  -7.663   1.879  1.00  0.00     0.074 A 
ATOM     49  C   UNL     1       5.710 -11.697   4.947  1.00  0.00     0.029 A 
ATOM     50  N   UNL     1       6.583  -9.913   3.946  1.00  0.00    -0.354 N 
ATOM     51  N   UNL     1       8.663  -8.432   2.499  1.00  0.00    -0.248 NA
ATOM     52  C   UNL     1      10.847  -8.270   1.686  1.00  0.00     0.031 C 
ATOM     53  C   UNL     1       7.036 -11.986   4.607  1.00  0.00     0.029 A 
ATOM     54  C   UNL     1       7.574 -10.880   3.969  1.00  0.00     0.049 A 
ATOM     55  H   UNL     1       6.681  -9.012   3.561  1.00  0.00     0.167 HD
ATOM     56  C   UNL     1       9.338  -9.613   2.771  1.00  0.00     0.074 A 
ATOM     57  C   UNL     1      10.673  -9.468   2.227  1.00  0.00     0.031 C 
ATOM     58  C   UNL     1       8.895 -10.715   3.421  1.00  0.00     0.037 A 
BRANCH  45  59
ATOM     59  C   UNL     1       3.053 -10.322   5.379  1.00  0.00     0.057 A 
ATOM     60  C   UNL     1       1.934 -10.809   4.693  1.00  0.00     0.134 A 
ATOM     61  C   UNL     1       3.087 -10.503   6.769  1.00  0.00     0.134 A 
ATOM     62  F   UNL     1       1.832 -10.655   3.364  1.00  0.00    -0.206 F 
ATOM     63  C   UNL     1       0.883 -11.435   5.366  1.00  0.00     0.040 A 
ATOM     64  C   UNL     1       2.053 -11.146   7.450  1.00  0.00     0.040 A 
ATOM     65  F   UNL     1       4.133 -10.064   7.486  1.00  0.00    -0.206 F 
ATOM     66  C   UNL     1       0.944 -11.611   6.747  1.00  0.00     0.006 A 
ENDBRANCH  45  59
BRANCH  46  67
ATOM     67  C   UNL     1      10.452  -5.549   0.692  1.00  0.00     0.057 A 
ATOM     68  C   UNL     1      10.847  -5.899  -0.603  1.00  0.00     0.134 A 
ATOM     69  C   UNL     1      11.126  -4.487   1.309  1.00  0.00     0.134 A 
ATOM     70  F   UNL     1      10.255  -6.923  -1.235  1.00  0.00    -0.206 F 
ATOM     71  C   UNL     1      11.873  -5.220  -1.261  1.00  0.00     0.040 A 
ATOM     72  C   UNL     1      12.135  -3.782   0.653  1.00  0.00     0.040 A 
ATOM     73  F   UNL     1      10.791  -4.103   2.550  1.00  0.00    -0.206 F 
ATOM     74  C   UNL     1      12.513  -4.151  -0.636  1.00  0.00     0.006 A 
ENDBRANCH  46  67
BRANCH  58  75
ATOM     75  C   UNL     1       9.859 -11.852   3.556  1.00  0.00     0.057 A 
ATOM     76  C   UNL     1      10.900 -11.823   4.491  1.00  0.00     0.134 A 
ATOM     77  C   UNL     1       9.733 -12.993   2.754  1.00  0.00     0.134 A 
ATOM     78  F   UNL     1      11.081 -10.749   5.274  1.00  0.00    -0.206 F 
ATOM     79  C   UNL     1      11.797 -12.886   4.612  1.00  0.00     0.040 A 
ATOM     80  C   UNL     1      10.612 -14.069   2.879  1.00  0.00     0.040 A 
ATOM     81  F   UNL     1       8.753 -13.080   1.842  1.00  0.00    -0.206 F 
ATOM     82  C   UNL     1      11.650 -14.015   3.808  1.00  0.00     0.006 A 
ENDBRANCH  58  75
ENDBRANCH  32  33
ENDBRANCH  25  27
ENDBRANCH  24  25
ENDBRANCH  23  24
ENDBRANCH  22  23
ENDBRANCH  21  22
ENDBRANCH   1  21
TORSDOF 14
