REMARK SMILES O=C(OCCOC(=O)[C@@H](Cc1cccc(F)c1)[C@H]1CCOC2(CCC2)C1)c1ccc(-c2c3nc(c(-c4c(F)cccc4F)c4ccc([nH]4)c(-c4c(F)cccc4F)c4nc(c(-c5c(F)cccc5F)c5ccc2[nH]5)C=C4)C=C3)cc1
REMARK SMILES IDX 4 1 3 2 2 3 1 4 27 5 28 6 80 7 29 8 79 9 30 10 31 11 32 12
REMARK SMILES IDX 73 13 33 14 78 15 72 16 74 17 34 18 77 19 71 20 70 21 35 23
REMARK SMILES IDX 61 24 44 25 60 26 45 27 48 28 59 29 75 30 46 31 47 32 58 34
REMARK SMILES IDX 76 35 49 36 36 37 37 38 42 39 38 40 39 41 41 42 43 43 40 44
REMARK SMILES IDX 62 45 63 46 68 47 64 48 65 49 67 50 69 51 66 52 50 53 51 54
REMARK SMILES IDX 56 55 52 56 53 57 55 58 57 59 54 60 5 61 6 62 7 63 8 64 9 65
REMARK SMILES IDX 10 66 11 67 12 68 17 69 13 70 15 71 14 72 16 73 18 74 19 75
REMARK SMILES IDX 26 76 20 77 22 78 21 79 23 80 25 81 24 82
REMARK H PARENT 74 22 48 33
REMARK Flexibility Score: inf
ROOT
ATOM      1  C   UNL     1      -1.930   0.091  -2.244  1.00  0.00     0.275 C 
ENDROOT
BRANCH   1   2
ATOM      2  O   UNL     1      -2.372  -0.276  -3.546  1.00  0.00    -0.458 OA
BRANCH   2   3
ATOM      3  C   UNL     1      -1.717  -0.048  -4.690  1.00  0.00     0.338 C 
ATOM      4  O   UNL     1      -2.031  -0.701  -5.685  1.00  0.00    -0.246 OA
BRANCH   3   5
ATOM      5  C   UNL     1      -0.638   0.971  -4.882  1.00  0.00     0.060 A 
ATOM      6  C   UNL     1       0.625   1.739  -3.745  1.00  0.00     0.016 A 
ATOM      7  C   UNL     1      -0.491   1.264  -6.665  1.00  0.00     0.016 A 
ATOM      8  C   UNL     1       1.954   2.795  -4.473  1.00  0.00     0.010 A 
ATOM      9  C   UNL     1       0.927   2.133  -7.335  1.00  0.00     0.010 A 
ATOM     10  C   UNL     1       2.122   2.978  -6.283  1.00  0.00    -0.014 A 
BRANCH  10  11
ATOM     11  C   UNL     1       3.187   3.825  -6.941  1.00  0.00     0.031 A 
ATOM     12  C   UNL     1       2.856   5.019  -7.788  1.00  0.00     0.074 A 
ATOM     13  C   UNL     1       4.494   3.528  -6.862  1.00  0.00     0.049 A 
ATOM     14  N   UNL     1       3.406   6.205  -7.805  1.00  0.00    -0.248 NA
ATOM     15  C   UNL     1       1.768   4.869  -8.760  1.00  0.00     0.031 C 
ATOM     16  C   UNL     1       5.018   2.247  -6.449  1.00  0.00     0.029 A 
ATOM     17  N   UNL     1       5.621   4.294  -7.060  1.00  0.00    -0.354 N 
ATOM     18  C   UNL     1       2.624   6.959  -8.671  1.00  0.00     0.074 A 
ATOM     19  C   UNL     1       1.552   6.117  -9.140  1.00  0.00     0.031 C 
ATOM     20  C   UNL     1       6.317   2.377  -6.146  1.00  0.00     0.029 A 
ATOM     21  C   UNL     1       6.728   3.743  -6.438  1.00  0.00     0.049 A 
ATOM     22  H   UNL     1       5.637   5.130  -7.580  1.00  0.00     0.167 HD
ATOM     23  C   UNL     1       2.838   8.199  -9.164  1.00  0.00     0.037 A 
ATOM     24  C   UNL     1       7.894   4.321  -6.079  1.00  0.00     0.037 A 
ATOM     25  C   UNL     1       4.126   8.825  -9.112  1.00  0.00     0.049 A 
ATOM     26  C   UNL     1       8.142   5.720  -6.574  1.00  0.00     0.074 A 
ATOM     27  C   UNL     1       4.570   9.940  -9.795  1.00  0.00     0.029 A 
ATOM     28  N   UNL     1       5.221   8.285  -8.449  1.00  0.00    -0.354 N 
ATOM     29  N   UNL     1       7.302   6.547  -7.152  1.00  0.00    -0.248 NA
ATOM     30  C   UNL     1       9.512   6.235  -6.452  1.00  0.00     0.031 C 
ATOM     31  C   UNL     1       5.959  10.006  -9.636  1.00  0.00     0.029 A 
ATOM     32  C   UNL     1       6.360   8.993  -8.775  1.00  0.00     0.049 A 
ATOM     33  H   UNL     1       5.189   7.514  -7.837  1.00  0.00     0.167 HD
ATOM     34  C   UNL     1       8.055   7.647  -7.532  1.00  0.00     0.074 A 
ATOM     35  C   UNL     1       9.399   7.424  -7.032  1.00  0.00     0.031 C 
ATOM     36  C   UNL     1       7.686   8.713  -8.282  1.00  0.00     0.037 A 
BRANCH  23  37
ATOM     37  C   UNL     1       1.728   8.791  -9.981  1.00  0.00     0.057 A 
ATOM     38  C   UNL     1       1.756   8.752 -11.380  1.00  0.00     0.134 A 
ATOM     39  C   UNL     1       0.572   9.295  -9.370  1.00  0.00     0.134 A 
ATOM     40  F   UNL     1       2.816   8.244 -12.026  1.00  0.00    -0.206 F 
ATOM     41  C   UNL     1       0.670   9.186 -12.144  1.00  0.00     0.040 A 
ATOM     42  C   UNL     1      -0.523   9.726 -10.123  1.00  0.00     0.040 A 
ATOM     43  F   UNL     1       0.466   9.323  -8.032  1.00  0.00    -0.206 F 
ATOM     44  C   UNL     1      -0.477   9.668 -11.515  1.00  0.00     0.006 A 
ENDBRANCH  23  37
BRANCH  24  45
ATOM     45  C   UNL     1       8.831   3.644  -5.132  1.00  0.00     0.057 A 
ATOM     46  C   UNL     1       9.396   2.385  -5.372  1.00  0.00     0.134 A 
ATOM     47  C   UNL     1       9.107   4.226  -3.884  1.00  0.00     0.134 A 
ATOM     48  F   UNL     1       9.211   1.772  -6.550  1.00  0.00    -0.206 F 
ATOM     49  C   UNL     1      10.126   1.702  -4.393  1.00  0.00     0.040 A 
ATOM     50  C   UNL     1       9.869   3.573  -2.910  1.00  0.00     0.040 A 
ATOM     51  F   UNL     1       8.621   5.439  -3.582  1.00  0.00    -0.206 F 
ATOM     52  C   UNL     1      10.360   2.294  -3.154  1.00  0.00     0.006 A 
ENDBRANCH  24  45
BRANCH  36  53
ATOM     53  C   UNL     1       8.761   9.663  -8.707  1.00  0.00     0.057 A 
ATOM     54  C   UNL     1       8.785  10.977  -8.230  1.00  0.00     0.134 A 
ATOM     55  C   UNL     1       9.661   9.316  -9.724  1.00  0.00     0.134 A 
ATOM     56  F   UNL     1       7.932  11.370  -7.272  1.00  0.00    -0.206 F 
ATOM     57  C   UNL     1       9.649  11.926  -8.774  1.00  0.00     0.040 A 
ATOM     58  C   UNL     1      10.544  10.250 -10.259  1.00  0.00     0.040 A 
ATOM     59  F   UNL     1       9.677   8.070 -10.223  1.00  0.00    -0.206 F 
ATOM     60  C   UNL     1      10.528  11.564  -9.794  1.00  0.00     0.006 A 
ENDBRANCH  36  53
ENDBRANCH  10  11
ENDBRANCH   3   5
ENDBRANCH   2   3
ENDBRANCH   1   2
BRANCH   1  61
ATOM     61  C   UNL     1      -0.806  -0.828  -1.762  1.00  0.00     0.274 C 
BRANCH  61  62
ATOM     62  O   UNL     1       0.444  -0.493  -2.401  1.00  0.00    -0.462 OA
BRANCH  62  63
ATOM     63  C   UNL     1       0.800  -1.077  -3.585  1.00  0.00     0.309 C 
ATOM     64  O   UNL     1       0.321  -2.117  -4.008  1.00  0.00    -0.252 OA
BRANCH  63  65
ATOM     65  C   UNL     1       1.868  -0.218  -4.338  1.00  0.00     0.107 C 
BRANCH  65  66
ATOM     66  C   UNL     1       1.286   1.143  -5.507  1.00  0.00     0.051 C 
BRANCH  66  67
ATOM     67  C   UNL     1       0.072   2.917  -5.391  1.00  0.00    -0.044 A 
ATOM     68  C   UNL     1      -0.017   4.118  -6.245  1.00  0.00     0.004 A 
ATOM     69  C   UNL     1      -0.777   3.424  -4.216  1.00  0.00     0.043 A 
ATOM     70  C   UNL     1      -0.075   5.474  -5.790  1.00  0.00     0.003 A 
ATOM     71  C   UNL     1      -0.820   4.745  -3.728  1.00  0.00     0.123 A 
ATOM     72  C   UNL     1      -0.331   5.775  -4.474  1.00  0.00     0.039 A 
ATOM     73  F   UNL     1      -1.281   4.967  -2.490  1.00  0.00    -0.207 F 
ENDBRANCH  66  67
ENDBRANCH  65  66
BRANCH  65  74
ATOM     74  C   UNL     1       3.085  -0.019  -3.341  1.00  0.00     0.009 C 
ATOM     75  C   UNL     1       3.798  -1.359  -2.988  1.00  0.00     0.033 C 
ATOM     76  C   UNL     1       4.229   0.879  -3.776  1.00  0.00     0.040 C 
ATOM     77  C   UNL     1       4.938  -1.172  -1.962  1.00  0.00     0.161 C 
ATOM     78  C   UNL     1       5.093   1.188  -2.562  1.00  0.00     0.069 C 
ATOM     79  O   UNL     1       5.776  -0.038  -2.212  1.00  0.00    -0.375 OA
ATOM     80  C   UNL     1       5.979   2.450  -2.762  1.00  0.00     0.035 C 
ATOM     81  C   UNL     1       4.423   1.967  -1.386  1.00  0.00     0.035 C 
ATOM     82  C   UNL     1       5.672   2.856  -1.316  1.00  0.00     0.006 C 
ENDBRANCH  65  74
ENDBRANCH  63  65
ENDBRANCH  62  63
ENDBRANCH  61  62
ENDBRANCH   1  61
TORSDOF 14
