REMARK SMILES O=C(OCCOC(=O)c1ccc(-c2c3nc(c(-c4c(F)cccc4F)c4ccc([nH]4)c(-c4c(F)cccc4F)c4nc(c(-c5c(F)cccc5F)c5ccc2[nH]5)C=C4)C=C3)cc1)c1ccc(N[C@H]2OC[C@@H](O)[C@@H](O)[C@H]2O)cc1
REMARK SMILES IDX 4 1 3 2 2 3 1 4 63 5 64 6 78 7 65 8 77 9 66 10 67 11 68 13
REMARK SMILES IDX 69 14 75 15 70 16 73 17 71 18 76 19 74 21 72 23 5 25 6 26
REMARK SMILES IDX 7 27 8 28 9 29 10 30 62 31 11 32 61 33 12 34 13 35 14 36
REMARK SMILES IDX 55 37 15 38 60 39 54 40 56 41 16 42 59 43 53 44 52 45 17 47
REMARK SMILES IDX 43 48 26 49 42 50 27 51 30 52 41 53 57 54 28 55 29 56 40 58
REMARK SMILES IDX 58 59 31 60 18 61 19 62 24 63 20 64 21 65 23 66 25 67 22 68
REMARK SMILES IDX 44 69 45 70 50 71 46 72 47 73 49 74 51 75 48 76 32 77 33 78
REMARK SMILES IDX 38 79 34 80 35 81 37 82 39 83 36 84
REMARK H PARENT 67 12 76 20 74 22 72 24 56 46 30 57
REMARK Flexibility Score: inf
ROOT
ATOM      1  C   UNL     1       2.385  -7.770   6.316  1.00  0.00     0.275 C 
ENDROOT
BRANCH   1   2
ATOM      2  O   UNL     1       3.417  -8.759   6.503  1.00  0.00    -0.458 OA
BRANCH   2   3
ATOM      3  C   UNL     1       4.557  -9.000   5.809  1.00  0.00     0.338 C 
ATOM      4  O   UNL     1       5.145 -10.062   6.010  1.00  0.00    -0.246 OA
BRANCH   3   5
ATOM      5  C   UNL     1       5.223  -8.011   4.897  1.00  0.00     0.060 A 
ATOM      6  C   UNL     1       4.627  -6.895   4.325  1.00  0.00     0.018 A 
ATOM      7  C   UNL     1       6.592  -8.204   4.631  1.00  0.00     0.018 A 
ATOM      8  C   UNL     1       5.378  -5.957   3.609  1.00  0.00     0.026 A 
ATOM      9  C   UNL     1       7.335  -7.278   3.878  1.00  0.00     0.026 A 
ATOM     10  C   UNL     1       6.744  -6.118   3.376  1.00  0.00     0.036 A 
BRANCH  10  11
ATOM     11  N   UNL     1       7.516  -5.151   2.753  1.00  0.00    -0.358 N 
ATOM     12  H   UNL     1       8.460  -5.346   2.554  1.00  0.00     0.163 HD
BRANCH  11  13
ATOM     13  C   UNL     1       6.968  -3.858   2.385  1.00  0.00     0.244 C 
ATOM     14  O   UNL     1       6.675  -3.137   3.586  1.00  0.00    -0.353 OA
ATOM     15  C   UNL     1       7.968  -3.032   1.553  1.00  0.00     0.195 C 
ATOM     16  C   UNL     1       5.983  -1.908   3.338  1.00  0.00     0.197 C 
ATOM     17  C   UNL     1       7.258  -1.722   1.174  1.00  0.00     0.178 C 
ATOM     18  C   UNL     1       6.786  -0.970   2.430  1.00  0.00     0.171 C 
BRANCH  15  19
ATOM     19  O   UNL     1       9.151  -2.726   2.326  1.00  0.00    -0.386 OA
ATOM     20  H   UNL     1       8.899  -2.225   3.118  1.00  0.00     0.211 HD
ENDBRANCH  15  19
BRANCH  17  21
ATOM     21  O   UNL     1       8.121  -0.893   0.395  1.00  0.00    -0.387 OA
ATOM     22  H   UNL     1       8.906  -0.664   0.916  1.00  0.00     0.211 HD
ENDBRANCH  17  21
BRANCH  18  23
ATOM     23  O   UNL     1       7.916  -0.454   3.149  1.00  0.00    -0.388 OA
ATOM     24  H   UNL     1       8.486  -1.188   3.426  1.00  0.00     0.211 HD
ENDBRANCH  18  23
ENDBRANCH  11  13
ENDBRANCH  10  11
ENDBRANCH   3   5
ENDBRANCH   2   3
ENDBRANCH   1   2
BRANCH   1  25
ATOM     25  C   UNL     1       2.605  -6.474   7.106  1.00  0.00     0.275 C 
BRANCH  25  26
ATOM     26  O   UNL     1       3.963  -6.010   7.040  1.00  0.00    -0.458 OA
BRANCH  26  27
ATOM     27  C   UNL     1       4.753  -6.444   8.056  1.00  0.00     0.338 C 
ATOM     28  O   UNL     1       4.378  -7.049   9.048  1.00  0.00    -0.246 OA
BRANCH  27  29
ATOM     29  C   UNL     1       6.185  -6.196   7.763  1.00  0.00     0.060 A 
ATOM     30  C   UNL     1       7.109  -7.123   8.260  1.00  0.00     0.016 A 
ATOM     31  C   UNL     1       6.637  -5.079   7.054  1.00  0.00     0.016 A 
ATOM     32  C   UNL     1       8.479  -6.902   8.113  1.00  0.00     0.010 A 
ATOM     33  C   UNL     1       8.014  -4.865   6.893  1.00  0.00     0.010 A 
ATOM     34  C   UNL     1       8.946  -5.750   7.465  1.00  0.00    -0.014 A 
BRANCH  34  35
ATOM     35  C   UNL     1      10.393  -5.412   7.546  1.00  0.00     0.031 A 
ATOM     36  C   UNL     1      10.850  -4.380   8.544  1.00  0.00     0.074 A 
ATOM     37  C   UNL     1      11.313  -6.058   6.805  1.00  0.00     0.049 A 
ATOM     38  N   UNL     1      12.068  -4.033   8.882  1.00  0.00    -0.248 NA
ATOM     39  C   UNL     1       9.796  -3.644   9.259  1.00  0.00     0.031 C 
ATOM     40  C   UNL     1      11.029  -7.090   5.812  1.00  0.00     0.029 A 
ATOM     41  N   UNL     1      12.683  -5.945   6.791  1.00  0.00    -0.354 N 
ATOM     42  C   UNL     1      11.925  -3.051   9.854  1.00  0.00     0.074 A 
ATOM     43  C   UNL     1      10.506  -2.818  10.011  1.00  0.00     0.031 C 
ATOM     44  C   UNL     1      12.190  -7.523   5.288  1.00  0.00     0.029 A 
ATOM     45  C   UNL     1      13.300  -6.800   5.911  1.00  0.00     0.049 A 
ATOM     46  H   UNL     1      13.176  -5.310   7.359  1.00  0.00     0.167 HD
ATOM     47  C   UNL     1      12.881  -2.416  10.574  1.00  0.00     0.037 A 
ATOM     48  C   UNL     1      14.608  -6.993   5.649  1.00  0.00     0.037 A 
ATOM     49  C   UNL     1      14.296  -2.634  10.433  1.00  0.00     0.049 A 
ATOM     50  C   UNL     1      15.655  -6.232   6.423  1.00  0.00     0.074 A 
ATOM     51  C   UNL     1      15.332  -2.061  11.151  1.00  0.00     0.029 A 
ATOM     52  N   UNL     1      14.876  -3.483   9.505  1.00  0.00    -0.354 N 
ATOM     53  N   UNL     1      15.505  -5.372   7.401  1.00  0.00    -0.248 NA
ATOM     54  C   UNL     1      17.059  -6.490   6.067  1.00  0.00     0.031 C 
ATOM     55  C   UNL     1      16.541  -2.524  10.623  1.00  0.00     0.029 A 
ATOM     56  C   UNL     1      16.257  -3.427   9.612  1.00  0.00     0.049 A 
ATOM     57  H   UNL     1      14.381  -4.042   8.863  1.00  0.00     0.167 HD
ATOM     58  C   UNL     1      16.790  -5.031   7.809  1.00  0.00     0.074 A 
ATOM     59  C   UNL     1      17.708  -5.773   6.973  1.00  0.00     0.031 C 
ATOM     60  C   UNL     1      17.172  -4.185   8.798  1.00  0.00     0.037 A 
BRANCH  47  61
ATOM     61  C   UNL     1      12.418  -1.407  11.582  1.00  0.00     0.057 A 
ATOM     62  C   UNL     1      11.779  -1.791  12.769  1.00  0.00     0.134 A 
ATOM     63  C   UNL     1      12.630  -0.039  11.373  1.00  0.00     0.134 A 
ATOM     64  F   UNL     1      11.534  -3.085  13.023  1.00  0.00    -0.206 F 
ATOM     65  C   UNL     1      11.341  -0.847  13.699  1.00  0.00     0.040 A 
ATOM     66  C   UNL     1      12.221   0.912  12.308  1.00  0.00     0.040 A 
ATOM     67  F   UNL     1      13.243   0.393  10.261  1.00  0.00    -0.206 F 
ATOM     68  C   UNL     1      11.567   0.510  13.471  1.00  0.00     0.006 A 
ENDBRANCH  47  61
BRANCH  48  69
ATOM     69  C   UNL     1      15.027  -7.984   4.626  1.00  0.00     0.057 A 
ATOM     70  C   UNL     1      15.676  -9.170   4.991  1.00  0.00     0.134 A 
ATOM     71  C   UNL     1      14.845  -7.741   3.260  1.00  0.00     0.134 A 
ATOM     72  F   UNL     1      15.903  -9.444   6.285  1.00  0.00    -0.206 F 
ATOM     73  C   UNL     1      16.155 -10.066   4.034  1.00  0.00     0.040 A 
ATOM     74  C   UNL     1      15.299  -8.639   2.293  1.00  0.00     0.040 A 
ATOM     75  F   UNL     1      14.231  -6.623   2.847  1.00  0.00    -0.206 F 
ATOM     76  C   UNL     1      15.965  -9.801   2.679  1.00  0.00     0.006 A 
ENDBRANCH  48  69
BRANCH  60  77
ATOM     77  C   UNL     1      18.642  -4.059   9.083  1.00  0.00     0.057 A 
ATOM     78  C   UNL     1      19.523  -3.413   8.206  1.00  0.00     0.134 A 
ATOM     79  C   UNL     1      19.178  -4.563  10.277  1.00  0.00     0.134 A 
ATOM     80  F   UNL     1      19.080  -2.916   7.041  1.00  0.00    -0.206 F 
ATOM     81  C   UNL     1      20.885  -3.296   8.492  1.00  0.00     0.040 A 
ATOM     82  C   UNL     1      20.533  -4.428  10.587  1.00  0.00     0.040 A 
ATOM     83  F   UNL     1      18.392  -5.184  11.168  1.00  0.00    -0.206 F 
ATOM     84  C   UNL     1      21.392  -3.799   9.689  1.00  0.00     0.006 A 
ENDBRANCH  60  77
ENDBRANCH  34  35
ENDBRANCH  27  29
ENDBRANCH  26  27
ENDBRANCH  25  26
ENDBRANCH   1  25
TORSDOF 16
