REMARK SMILES C[C@H](C(=O)OCCOC(=O)c1ccc(-c2c3nc(c(-c4c(F)cccc4F)c4ccc([nH]4)c(-c4c(F)cccc4F)c4nc(c(-c5c(F)cccc5F)c5ccc2[nH]5)C=C4)C=C3)cc1)S(=O)(=O)NC[C@@H]1C[N@@H+](C)CCO1
REMARK SMILES IDX 6 1 5 2 3 3 4 4 2 5 1 6 65 7 66 8 67 9 68 10 69 12 70 13
REMARK SMILES IDX 71 14 76 15 72 16 75 17 73 18 74 19 7 21 8 22 9 23 10 24
REMARK SMILES IDX 11 25 12 26 64 27 13 28 63 29 14 30 15 31 16 32 57 33 17 34
REMARK SMILES IDX 62 35 56 36 58 37 18 38 61 39 55 40 54 41 19 43 45 44 28 45
REMARK SMILES IDX 44 46 29 47 32 48 43 49 59 50 30 51 31 52 42 54 60 55 33 56
REMARK SMILES IDX 20 57 21 58 26 59 22 60 23 61 25 62 27 63 24 64 46 65 47 66
REMARK SMILES IDX 52 67 48 68 49 69 51 70 53 71 50 72 34 73 35 74 40 75 36 76
REMARK SMILES IDX 37 77 39 78 41 79 38 80
REMARK H PARENT 68 11 72 20 58 42 32 53
REMARK Flexibility Score: inf
ROOT
ATOM      1  C   UNL     1       1.911   2.127   0.353  1.00  0.00     0.274 C 
ENDROOT
BRANCH   1   2
ATOM      2  O   UNL     1       1.236   1.191   1.224  1.00  0.00    -0.461 OA
BRANCH   2   3
ATOM      3  C   UNL     1       0.941  -0.029   0.689  1.00  0.00     0.325 C 
ATOM      4  O   UNL     1       1.298  -0.381  -0.428  1.00  0.00    -0.251 OA
BRANCH   3   5
ATOM      5  C   UNL     1       0.187  -0.921   1.622  1.00  0.00     0.230 C 
ATOM      6  C   UNL     1       0.489  -0.704   3.092  1.00  0.00     0.039 C 
BRANCH   5   7
ATOM      7  S   UNL     1      -1.547  -0.998   1.220  1.00  0.00     0.225 S 
ATOM      8  O   UNL     1      -1.711  -1.693  -0.031  1.00  0.00    -0.212 OA
ATOM      9  O   UNL     1      -2.234  -1.521   2.390  1.00  0.00    -0.212 OA
BRANCH   7  10
ATOM     10  N   UNL     1      -2.169   0.528   1.069  1.00  0.00    -0.212 NA
ATOM     11  H   UNL     1      -1.958   0.989   1.954  1.00  0.00     0.141 HD
BRANCH  10  12
ATOM     12  C   UNL     1      -1.828   1.511   0.037  1.00  0.00     0.136 C 
BRANCH  12  13
ATOM     13  C   UNL     1      -2.558   1.439  -1.320  1.00  0.00     0.188 C 
ATOM     14  C   UNL     1      -2.060   0.360  -2.297  1.00  0.00     0.295 C 
ATOM     15  O   UNL     1      -2.434   2.726  -1.998  1.00  0.00    -0.365 OA
ATOM     16  N   UNL     1      -0.628   0.563  -2.566  1.00  0.00    -0.333 N 
ATOM     17  C   UNL     1      -1.082   2.999  -2.419  1.00  0.00     0.222 C 
ATOM     18  C   UNL     1      -0.058  -0.545  -3.324  1.00  0.00     0.332 C 
ATOM     19  C   UNL     1      -0.449   1.855  -3.238  1.00  0.00     0.290 C 
ATOM     20  H   UNL     1      -0.116   0.582  -1.683  1.00  0.00     0.348 HD
ENDBRANCH  12  13
ENDBRANCH  10  12
ENDBRANCH   7  10
ENDBRANCH   5   7
ENDBRANCH   3   5
ENDBRANCH   2   3
ENDBRANCH   1   2
BRANCH   1  21
ATOM     21  C   UNL     1       3.430   2.140   0.544  1.00  0.00     0.275 C 
BRANCH  21  22
ATOM     22  O   UNL     1       4.039   0.935   0.051  1.00  0.00    -0.458 OA
BRANCH  22  23
ATOM     23  C   UNL     1       4.152  -0.051   0.968  1.00  0.00     0.338 C 
ATOM     24  O   UNL     1       3.864   0.004   2.154  1.00  0.00    -0.246 OA
BRANCH  23  25
ATOM     25  C   UNL     1       4.529  -1.306   0.309  1.00  0.00     0.060 A 
ATOM     26  C   UNL     1       3.599  -2.348   0.330  1.00  0.00     0.016 A 
ATOM     27  C   UNL     1       5.808  -1.502  -0.209  1.00  0.00     0.016 A 
ATOM     28  C   UNL     1       3.935  -3.602  -0.153  1.00  0.00     0.010 A 
ATOM     29  C   UNL     1       6.159  -2.772  -0.675  1.00  0.00     0.010 A 
ATOM     30  C   UNL     1       5.229  -3.827  -0.622  1.00  0.00    -0.014 A 
BRANCH  30  31
ATOM     31  C   UNL     1       5.646  -5.214  -0.898  1.00  0.00     0.031 A 
ATOM     32  C   UNL     1       6.424  -5.949   0.151  1.00  0.00     0.074 A 
ATOM     33  C   UNL     1       5.274  -5.819  -2.038  1.00  0.00     0.049 A 
ATOM     34  N   UNL     1       6.998  -7.120   0.088  1.00  0.00    -0.248 NA
ATOM     35  C   UNL     1       6.573  -5.270   1.449  1.00  0.00     0.031 C 
ATOM     36  C   UNL     1       4.429  -5.225  -3.073  1.00  0.00     0.029 A 
ATOM     37  N   UNL     1       5.564  -7.070  -2.512  1.00  0.00    -0.354 N 
ATOM     38  C   UNL     1       7.599  -7.308   1.325  1.00  0.00     0.074 A 
ATOM     39  C   UNL     1       7.324  -6.131   2.119  1.00  0.00     0.031 C 
ATOM     40  C   UNL     1       4.284  -6.109  -4.075  1.00  0.00     0.029 A 
ATOM     41  C   UNL     1       5.065  -7.304  -3.769  1.00  0.00     0.049 A 
ATOM     42  H   UNL     1       6.080  -7.736  -2.002  1.00  0.00     0.167 HD
ATOM     43  C   UNL     1       8.321  -8.370   1.752  1.00  0.00     0.037 A 
ATOM     44  C   UNL     1       5.258  -8.353  -4.590  1.00  0.00     0.037 A 
ATOM     45  C   UNL     1       8.575  -9.536   0.951  1.00  0.00     0.049 A 
ATOM     46  C   UNL     1       6.126  -9.488  -4.123  1.00  0.00     0.074 A 
ATOM     47  C   UNL     1       9.316 -10.660   1.267  1.00  0.00     0.029 A 
ATOM     48  N   UNL     1       8.084  -9.725  -0.333  1.00  0.00    -0.354 N 
ATOM     49  N   UNL     1       6.743  -9.638  -2.975  1.00  0.00    -0.248 NA
ATOM     50  C   UNL     1       6.335 -10.593  -5.067  1.00  0.00     0.031 C 
ATOM     51  C   UNL     1       9.299 -11.516   0.160  1.00  0.00     0.029 A 
ATOM     52  C   UNL     1       8.515 -10.942  -0.830  1.00  0.00     0.049 A 
ATOM     53  H   UNL     1       7.513  -9.087  -0.819  1.00  0.00     0.167 HD
ATOM     54  C   UNL     1       7.400 -10.859  -3.051  1.00  0.00     0.074 A 
ATOM     55  C   UNL     1       7.094 -11.414  -4.355  1.00  0.00     0.031 C 
ATOM     56  C   UNL     1       8.188 -11.467  -2.131  1.00  0.00     0.037 A 
BRANCH  43  57
ATOM     57  C   UNL     1       8.918  -8.285   3.124  1.00  0.00     0.057 A 
ATOM     58  C   UNL     1       8.142  -8.411   4.282  1.00  0.00     0.134 A 
ATOM     59  C   UNL     1      10.293  -8.070   3.286  1.00  0.00     0.134 A 
ATOM     60  F   UNL     1       6.816  -8.594   4.195  1.00  0.00    -0.206 F 
ATOM     61  C   UNL     1       8.708  -8.307   5.554  1.00  0.00     0.040 A 
ATOM     62  C   UNL     1      10.874  -7.985   4.552  1.00  0.00     0.040 A 
ATOM     63  F   UNL     1      11.092  -7.936   2.217  1.00  0.00    -0.206 F 
ATOM     64  C   UNL     1      10.080  -8.098   5.691  1.00  0.00     0.006 A 
ENDBRANCH  43  57
BRANCH  44  65
ATOM     65  C   UNL     1       4.657  -8.351  -5.946  1.00  0.00     0.057 A 
ATOM     66  C   UNL     1       3.619  -9.225  -6.283  1.00  0.00     0.134 A 
ATOM     67  C   UNL     1       5.110  -7.472  -6.939  1.00  0.00     0.134 A 
ATOM     68  F   UNL     1       3.158 -10.105  -5.382  1.00  0.00    -0.206 F 
ATOM     69  C   UNL     1       3.057  -9.232  -7.561  1.00  0.00     0.040 A 
ATOM     70  C   UNL     1       4.542  -7.452  -8.213  1.00  0.00     0.040 A 
ATOM     71  F   UNL     1       6.103  -6.609  -6.678  1.00  0.00    -0.206 F 
ATOM     72  C   UNL     1       3.514  -8.338  -8.528  1.00  0.00     0.006 A 
ENDBRANCH  44  65
BRANCH  56  73
ATOM     73  C   UNL     1       8.745 -12.808  -2.496  1.00  0.00     0.057 A 
ATOM     74  C   UNL     1       9.812 -12.942  -3.391  1.00  0.00     0.134 A 
ATOM     75  C   UNL     1       8.233 -13.973  -1.913  1.00  0.00     0.134 A 
ATOM     76  F   UNL     1      10.336 -11.862  -3.991  1.00  0.00    -0.206 F 
ATOM     77  C   UNL     1      10.341 -14.193  -3.708  1.00  0.00     0.040 A 
ATOM     78  C   UNL     1       8.768 -15.228  -2.205  1.00  0.00     0.040 A 
ATOM     79  F   UNL     1       7.216 -13.909  -1.041  1.00  0.00    -0.206 F 
ATOM     80  C   UNL     1       9.822 -15.340  -3.110  1.00  0.00     0.006 A 
ENDBRANCH  56  73
ENDBRANCH  30  31
ENDBRANCH  23  25
ENDBRANCH  22  23
ENDBRANCH  21  22
ENDBRANCH   1  21
TORSDOF 15
