REMARK SMILES O=C(OCCOC(=O)[C@@H](Cc1ccccc1)N1C(=O)/C(=C/c2ccc3ncccc3c2)SC1=S)c1ccc(-c2c3nc(c(-c4c(F)cccc4F)c4ccc([nH]4)c(-c4c(F)cccc4F)c4nc(c(-c5c(F)cccc5F)c5ccc2[nH]5)C=C4)C=C3)cc1
REMARK SMILES IDX 4 1 3 2 2 3 1 4 35 5 36 6 88 7 37 8 87 9 38 10 39 11 40 12
REMARK SMILES IDX 81 13 41 14 86 15 80 16 82 17 42 18 85 19 79 20 78 21 43 23
REMARK SMILES IDX 69 24 52 25 68 26 53 27 56 28 67 29 83 30 54 31 55 32 66 34
REMARK SMILES IDX 84 35 57 36 44 37 45 38 50 39 46 40 47 41 49 42 51 43 48 44
REMARK SMILES IDX 70 45 71 46 76 47 72 48 73 49 75 50 77 51 74 52 58 53 59 54
REMARK SMILES IDX 64 55 60 56 61 57 63 58 65 59 62 60 5 61 6 62 7 63 8 64 9 65
REMARK SMILES IDX 10 66 11 67 12 68 16 69 13 70 15 71 14 72 17 73 18 74 33 75
REMARK SMILES IDX 19 76 20 77 32 78 34 79 21 80 22 81 23 82 31 83 24 84 30 85
REMARK SMILES IDX 25 86 29 87 26 88 28 89 27 90
REMARK H PARENT 82 22 56 33
REMARK Flexibility Score: inf
ROOT
ATOM      1  C   UNL     1       4.412  -2.041   0.467  1.00  0.00     0.275 C 
ENDROOT
BRANCH   1   2
ATOM      2  O   UNL     1       3.548  -1.210   1.225  1.00  0.00    -0.458 OA
BRANCH   2   3
ATOM      3  C   UNL     1       3.107  -0.010   0.838  1.00  0.00     0.338 C 
ATOM      4  O   UNL     1       2.186   0.503   1.473  1.00  0.00    -0.246 OA
BRANCH   3   5
ATOM      5  C   UNL     1       3.636   0.784  -0.325  1.00  0.00     0.060 A 
ATOM      6  C   UNL     1       4.494   0.385  -1.939  1.00  0.00     0.016 A 
ATOM      7  C   UNL     1       3.042   2.475  -0.066  1.00  0.00     0.016 A 
ATOM      8  C   UNL     1       4.804   1.754  -3.150  1.00  0.00     0.010 A 
ATOM      9  C   UNL     1       3.203   3.712  -1.352  1.00  0.00     0.010 A 
ATOM     10  C   UNL     1       4.190   3.441  -2.821  1.00  0.00    -0.014 A 
BRANCH  10  11
ATOM     11  C   UNL     1       4.599   4.679  -3.628  1.00  0.00     0.031 A 
ATOM     12  C   UNL     1       5.220   5.933  -3.042  1.00  0.00     0.074 A 
ATOM     13  C   UNL     1       4.350   4.753  -4.943  1.00  0.00     0.049 A 
ATOM     14  N   UNL     1       6.093   6.753  -3.582  1.00  0.00    -0.248 NA
ATOM     15  C   UNL     1       4.802   6.365  -1.706  1.00  0.00     0.031 C 
ATOM     16  C   UNL     1       3.432   3.864  -5.593  1.00  0.00     0.029 A 
ATOM     17  N   UNL     1       4.763   5.579  -5.957  1.00  0.00    -0.354 N 
ATOM     18  C   UNL     1       6.415   7.678  -2.591  1.00  0.00     0.074 A 
ATOM     19  C   UNL     1       5.656   7.332  -1.419  1.00  0.00     0.031 C 
ATOM     20  C   UNL     1       3.466   4.039  -6.917  1.00  0.00     0.029 A 
ATOM     21  C   UNL     1       4.383   5.124  -7.206  1.00  0.00     0.049 A 
ATOM     22  H   UNL     1       5.275   6.407  -5.811  1.00  0.00     0.167 HD
ATOM     23  C   UNL     1       7.168   8.801  -2.654  1.00  0.00     0.037 A 
ATOM     24  C   UNL     1       4.748   5.521  -8.440  1.00  0.00     0.037 A 
ATOM     25  C   UNL     1       7.535   9.416  -3.896  1.00  0.00     0.049 A 
ATOM     26  C   UNL     1       5.614   6.743  -8.521  1.00  0.00     0.074 A 
ATOM     27  C   UNL     1       8.109  10.654  -4.113  1.00  0.00     0.029 A 
ATOM     28  N   UNL     1       7.224   8.887  -5.142  1.00  0.00    -0.354 N 
ATOM     29  N   UNL     1       6.132   7.441  -7.538  1.00  0.00    -0.248 NA
ATOM     30  C   UNL     1       5.898   7.272  -9.858  1.00  0.00     0.031 C 
ATOM     31  C   UNL     1       8.050  10.915  -5.488  1.00  0.00     0.029 A 
ATOM     32  C   UNL     1       7.530   9.801  -6.131  1.00  0.00     0.049 A 
ATOM     33  H   UNL     1       6.841   7.993  -5.297  1.00  0.00     0.167 HD
ATOM     34  C   UNL     1       6.760   8.522  -8.131  1.00  0.00     0.074 A 
ATOM     35  C   UNL     1       6.628   8.341  -9.565  1.00  0.00     0.031 C 
ATOM     36  C   UNL     1       7.351   9.591  -7.546  1.00  0.00     0.037 A 
BRANCH  23  37
ATOM     37  C   UNL     1       7.434   9.495  -1.345  1.00  0.00     0.057 A 
ATOM     38  C   UNL     1       8.311   8.942  -0.398  1.00  0.00     0.134 A 
ATOM     39  C   UNL     1       6.727  10.644  -0.969  1.00  0.00     0.134 A 
ATOM     40  F   UNL     1       8.995   7.822  -0.678  1.00  0.00    -0.206 F 
ATOM     41  C   UNL     1       8.451   9.491   0.880  1.00  0.00     0.040 A 
ATOM     42  C   UNL     1       6.868  11.208   0.302  1.00  0.00     0.040 A 
ATOM     43  F   UNL     1       5.849  11.209  -1.811  1.00  0.00    -0.206 F 
ATOM     44  C   UNL     1       7.723  10.624   1.235  1.00  0.00     0.006 A 
ENDBRANCH  23  37
BRANCH  24  45
ATOM     45  C   UNL     1       4.350   4.740  -9.649  1.00  0.00     0.057 A 
ATOM     46  C   UNL     1       5.320   4.133 -10.458  1.00  0.00     0.134 A 
ATOM     47  C   UNL     1       3.011   4.515 -10.001  1.00  0.00     0.134 A 
ATOM     48  F   UNL     1       6.624   4.305 -10.192  1.00  0.00    -0.206 F 
ATOM     49  C   UNL     1       4.978   3.342 -11.559  1.00  0.00     0.040 A 
ATOM     50  C   UNL     1       2.653   3.683 -11.065  1.00  0.00     0.040 A 
ATOM     51  F   UNL     1       2.020   5.066  -9.284  1.00  0.00    -0.206 F 
ATOM     52  C   UNL     1       3.640   3.098 -11.852  1.00  0.00     0.006 A 
ENDBRANCH  24  45
BRANCH  36  53
ATOM     53  C   UNL     1       7.851  10.661  -8.462  1.00  0.00     0.057 A 
ATOM     54  C   UNL     1       6.970  11.523  -9.127  1.00  0.00     0.134 A 
ATOM     55  C   UNL     1       9.224  10.872  -8.621  1.00  0.00     0.134 A 
ATOM     56  F   UNL     1       5.643  11.362  -9.015  1.00  0.00    -0.206 F 
ATOM     57  C   UNL     1       7.442  12.553  -9.938  1.00  0.00     0.040 A 
ATOM     58  C   UNL     1       9.707  11.915  -9.407  1.00  0.00     0.040 A 
ATOM     59  F   UNL     1      10.111  10.082  -7.998  1.00  0.00    -0.206 F 
ATOM     60  C   UNL     1       8.815  12.756 -10.071  1.00  0.00     0.006 A 
ENDBRANCH  36  53
ENDBRANCH  10  11
ENDBRANCH   3   5
ENDBRANCH   2   3
ENDBRANCH   1   2
BRANCH   1  61
ATOM     61  C   UNL     1       3.637  -2.773  -0.626  1.00  0.00     0.274 C 
BRANCH  61  62
ATOM     62  O   UNL     1       3.294  -1.884  -1.709  1.00  0.00    -0.461 OA
BRANCH  62  63
ATOM     63  C   UNL     1       2.166  -1.105  -1.658  1.00  0.00     0.329 C 
ATOM     64  O   UNL     1       1.267  -1.249  -0.844  1.00  0.00    -0.250 OA
BRANCH  63  65
ATOM     65  C   UNL     1       2.261   0.087  -2.676  1.00  0.00     0.206 C 
BRANCH  65  66
ATOM     66  C   UNL     1       3.067   1.715  -2.041  1.00  0.00     0.073 C 
BRANCH  66  67
ATOM     67  C   UNL     1       4.936   2.248  -1.107  1.00  0.00    -0.045 A 
ATOM     68  C   UNL     1       6.194   1.356  -0.866  1.00  0.00     0.004 A 
ATOM     69  C   UNL     1       5.498   3.527  -0.629  1.00  0.00     0.004 A 
ATOM     70  C   UNL     1       7.560   1.708  -0.875  1.00  0.00     0.000 A 
ATOM     71  C   UNL     1       6.882   3.914  -0.631  1.00  0.00     0.000 A 
ATOM     72  C   UNL     1       7.901   3.025  -0.891  1.00  0.00     0.000 A 
ENDBRANCH  66  67
ENDBRANCH  65  66
BRANCH  65  73
ATOM     73  N   UNL     1       2.702  -0.430  -4.043  1.00  0.00    -0.278 N 
ATOM     74  C   UNL     1       2.717   0.476  -5.061  1.00  0.00     0.267 C 
ATOM     75  C   UNL     1       2.462  -1.672  -4.622  1.00  0.00     0.149 C 
ATOM     76  O   UNL     1       1.940   1.418  -5.127  1.00  0.00    -0.268 OA
ATOM     77  C   UNL     1       3.430  -0.050  -6.243  1.00  0.00     0.081 C 
ATOM     78  S   UNL     1       3.145  -1.729  -6.271  1.00  0.00    -0.054 SA
ATOM     79  S   UNL     1       1.627  -3.011  -4.075  1.00  0.00    -0.052 S 
ATOM     80  C   UNL     1       4.138   0.711  -7.083  1.00  0.00     0.029 C 
BRANCH  80  81
ATOM     81  C   UNL     1       4.607   0.346  -8.421  1.00  0.00    -0.024 A 
ATOM     82  C   UNL     1       5.913   0.597  -8.838  1.00  0.00     0.010 A 
ATOM     83  C   UNL     1       3.683  -0.140  -9.349  1.00  0.00     0.018 A 
ATOM     84  C   UNL     1       6.299   0.281 -10.150  1.00  0.00     0.029 A 
ATOM     85  C   UNL     1       4.076  -0.464 -10.652  1.00  0.00     0.001 A 
ATOM     86  C   UNL     1       5.407  -0.267 -11.066  1.00  0.00     0.070 A 
ATOM     87  C   UNL     1       3.159  -0.996 -11.564  1.00  0.00     0.012 A 
ATOM     88  N   UNL     1       5.816  -0.584 -12.308  1.00  0.00    -0.256 NA
ATOM     89  C   UNL     1       3.585  -1.351 -12.834  1.00  0.00     0.021 A 
ATOM     90  C   UNL     1       4.912  -1.133 -13.153  1.00  0.00     0.112 A 
ENDBRANCH  80  81
ENDBRANCH  65  73
ENDBRANCH  63  65
ENDBRANCH  62  63
ENDBRANCH  61  62
ENDBRANCH   1  61
TORSDOF 15
