REMARK SMILES Cc1nn(C)c2nc(C3CC3)c(Cl)c(C(=O)OCCOC(=O)c3ccc(-c4c5nc(c(-c6c(F)cccc6F)c6ccc([nH]6)c(-c6c(F)cccc6F)c6nc(c(-c7c(F)cccc7F)c7ccc4[nH]7)C=C6)C=C5)cc3)c12
REMARK SMILES IDX 19 1 18 2 17 3 15 4 16 5 14 6 1 7 2 8 3 9 77 10 4 11 6 12
REMARK SMILES IDX 5 13 7 14 12 15 8 16 13 17 9 18 10 19 11 20 20 21 21 22
REMARK SMILES IDX 22 23 23 24 24 25 76 26 25 27 75 28 26 29 27 30 28 31 69 32
REMARK SMILES IDX 29 33 74 34 68 35 70 36 30 37 73 38 67 39 66 40 31 42 57 43
REMARK SMILES IDX 40 44 56 45 41 46 44 47 55 48 71 49 42 50 43 51 54 53 72 54
REMARK SMILES IDX 45 55 32 56 33 57 38 58 34 59 35 60 37 61 39 62 36 63 58 64
REMARK SMILES IDX 59 65 64 66 60 67 61 68 63 69 65 70 62 71 46 72 47 73 52 74
REMARK SMILES IDX 48 75 49 76 51 77 53 78 50 79
REMARK H PARENT 70 41 44 52
REMARK Flexibility Score: inf
ROOT
ATOM      1  C   UNL     1       4.247  -1.053   1.463  1.00  0.00     0.275 C 
ENDROOT
BRANCH   1   2
ATOM      2  C   UNL     1       4.669  -0.605   0.058  1.00  0.00     0.275 C 
BRANCH   2   3
ATOM      3  O   UNL     1       4.318   0.769  -0.142  1.00  0.00    -0.458 OA
BRANCH   3   4
ATOM      4  C   UNL     1       3.569   1.058  -1.226  1.00  0.00     0.340 C 
ATOM      5  O   UNL     1       3.284   0.320  -2.155  1.00  0.00    -0.246 OA
BRANCH   4   6
ATOM      6  C   UNL     1       2.953   2.369  -1.000  1.00  0.00     0.093 A 
ATOM      7  C   UNL     1       0.386   0.085  -1.136  1.00  0.00     0.069 C 
ATOM      8  C   UNL     1       0.427   1.560  -0.968  1.00  0.00     0.070 A 
ATOM      9  N   UNL     1      -0.726   2.224  -0.786  1.00  0.00    -0.176 NA
ATOM     10  C   UNL     1       1.554   2.432  -0.915  1.00  0.00     0.058 A 
ATOM     11  N   UNL     1      -0.336   3.495  -0.565  1.00  0.00    -0.250 N 
ATOM     12  C   UNL     1       1.018   3.672  -0.628  1.00  0.00     0.159 A 
ATOM     13  C   UNL     1      -1.308   4.493  -0.195  1.00  0.00     0.176 C 
ATOM     14  N   UNL     1       1.687   4.811  -0.394  1.00  0.00    -0.231 NA
ATOM     15  C   UNL     1       3.709   3.545  -0.818  1.00  0.00     0.078 A 
ATOM     16  C   UNL     1       3.050   4.746  -0.474  1.00  0.00     0.065 A 
ATOM     17  Cl  UNL     1       5.420   3.467  -1.103  1.00  0.00    -0.081 Cl
BRANCH  16  18
ATOM     18  C   UNL     1       3.688   6.097  -0.128  1.00  0.00     0.040 C 
ATOM     19  C   UNL     1       5.083   6.334   0.381  1.00  0.00     0.011 C 
ATOM     20  C   UNL     1       4.709   6.761  -1.014  1.00  0.00     0.011 C 
ENDBRANCH  16  18
ENDBRANCH   4   6
ENDBRANCH   3   4
ENDBRANCH   2   3
ENDBRANCH   1   2
BRANCH   1  21
ATOM     21  O   UNL     1       2.853  -0.804   1.760  1.00  0.00    -0.458 OA
BRANCH  21  22
ATOM     22  C   UNL     1       2.600   0.411   2.318  1.00  0.00     0.338 C 
ATOM     23  O   UNL     1       3.402   1.321   2.461  1.00  0.00    -0.246 OA
BRANCH  22  24
ATOM     24  C   UNL     1       1.184   0.560   2.723  1.00  0.00     0.060 A 
ATOM     25  C   UNL     1       0.571   1.805   2.542  1.00  0.00     0.016 A 
ATOM     26  C   UNL     1       0.485  -0.454   3.368  1.00  0.00     0.016 A 
ATOM     27  C   UNL     1      -0.754   2.025   2.941  1.00  0.00     0.010 A 
ATOM     28  C   UNL     1      -0.820  -0.209   3.820  1.00  0.00     0.010 A 
ATOM     29  C   UNL     1      -1.475   1.023   3.597  1.00  0.00    -0.014 A 
BRANCH  29  30
ATOM     30  C   UNL     1      -2.929   1.222   3.914  1.00  0.00     0.031 A 
ATOM     31  C   UNL     1      -3.720  -0.040   4.008  1.00  0.00     0.074 A 
ATOM     32  C   UNL     1      -3.463   2.308   4.529  1.00  0.00     0.049 A 
ATOM     33  N   UNL     1      -3.661  -0.775   5.079  1.00  0.00    -0.248 NA
ATOM     34  C   UNL     1      -4.367  -0.702   2.877  1.00  0.00     0.031 C 
ATOM     35  C   UNL     1      -2.692   3.225   5.375  1.00  0.00     0.029 A 
ATOM     36  N   UNL     1      -4.778   2.699   4.733  1.00  0.00    -0.354 N 
ATOM     37  C   UNL     1      -4.163  -2.017   4.760  1.00  0.00     0.074 A 
ATOM     38  C   UNL     1      -4.640  -1.913   3.397  1.00  0.00     0.031 C 
ATOM     39  C   UNL     1      -3.545   3.954   6.124  1.00  0.00     0.029 A 
ATOM     40  C   UNL     1      -4.931   3.666   5.738  1.00  0.00     0.049 A 
ATOM     41  H   UNL     1      -5.534   2.333   4.220  1.00  0.00     0.167 HD
ATOM     42  C   UNL     1      -4.101  -3.052   5.637  1.00  0.00     0.037 A 
ATOM     43  C   UNL     1      -5.952   3.720   6.646  1.00  0.00     0.037 A 
ATOM     44  C   UNL     1      -3.419  -2.774   6.870  1.00  0.00     0.049 A 
ATOM     45  C   UNL     1      -5.787   2.419   7.383  1.00  0.00     0.074 A 
ATOM     46  C   UNL     1      -2.133  -2.887   7.354  1.00  0.00     0.029 A 
ATOM     47  N   UNL     1      -4.106  -2.112   7.859  1.00  0.00    -0.354 N 
ATOM     48  N   UNL     1      -4.900   2.155   8.303  1.00  0.00    -0.248 NA
ATOM     49  C   UNL     1      -6.460   1.250   6.818  1.00  0.00     0.031 C 
ATOM     50  C   UNL     1      -2.017  -1.878   8.362  1.00  0.00     0.029 A 
ATOM     51  C   UNL     1      -3.233  -1.200   8.399  1.00  0.00     0.049 A 
ATOM     52  H   UNL     1      -5.041  -2.263   8.128  1.00  0.00     0.167 HD
ATOM     53  C   UNL     1      -4.709   0.775   8.239  1.00  0.00     0.074 A 
ATOM     54  C   UNL     1      -5.720   0.277   7.327  1.00  0.00     0.031 C 
ATOM     55  C   UNL     1      -3.634   0.135   8.780  1.00  0.00     0.037 A 
BRANCH  42  56
ATOM     56  C   UNL     1      -4.793  -4.338   5.473  1.00  0.00     0.057 A 
ATOM     57  C   UNL     1      -6.019  -4.500   6.132  1.00  0.00     0.134 A 
ATOM     58  C   UNL     1      -4.196  -5.464   4.909  1.00  0.00     0.134 A 
ATOM     59  F   UNL     1      -6.614  -3.445   6.714  1.00  0.00    -0.206 F 
ATOM     60  C   UNL     1      -6.616  -5.749   6.266  1.00  0.00     0.040 A 
ATOM     61  C   UNL     1      -4.790  -6.724   5.029  1.00  0.00     0.040 A 
ATOM     62  F   UNL     1      -3.011  -5.371   4.287  1.00  0.00    -0.206 F 
ATOM     63  C   UNL     1      -5.994  -6.870   5.722  1.00  0.00     0.006 A 
ENDBRANCH  42  56
BRANCH  43  64
ATOM     64  C   UNL     1      -7.309   4.201   6.219  1.00  0.00     0.057 A 
ATOM     65  C   UNL     1      -7.429   5.329   5.390  1.00  0.00     0.134 A 
ATOM     66  C   UNL     1      -8.527   3.641   6.646  1.00  0.00     0.134 A 
ATOM     67  F   UNL     1      -6.342   6.035   5.040  1.00  0.00    -0.206 F 
ATOM     68  C   UNL     1      -8.665   5.784   4.911  1.00  0.00     0.040 A 
ATOM     69  C   UNL     1      -9.767   4.061   6.149  1.00  0.00     0.040 A 
ATOM     70  F   UNL     1      -8.561   2.665   7.563  1.00  0.00    -0.206 F 
ATOM     71  C   UNL     1      -9.838   5.125   5.261  1.00  0.00     0.006 A 
ENDBRANCH  43  64
BRANCH  55  72
ATOM     72  C   UNL     1      -2.725   0.974   9.611  1.00  0.00     0.057 A 
ATOM     73  C   UNL     1      -3.109   1.368  10.896  1.00  0.00     0.134 A 
ATOM     74  C   UNL     1      -1.449   1.351   9.172  1.00  0.00     0.134 A 
ATOM     75  F   UNL     1      -4.317   1.037  11.378  1.00  0.00    -0.206 F 
ATOM     76  C   UNL     1      -2.244   2.082  11.728  1.00  0.00     0.040 A 
ATOM     77  C   UNL     1      -0.568   2.047  10.002  1.00  0.00     0.040 A 
ATOM     78  F   UNL     1      -1.019   1.027   7.942  1.00  0.00    -0.206 F 
ATOM     79  C   UNL     1      -0.963   2.410  11.287  1.00  0.00     0.006 A 
ENDBRANCH  55  72
ENDBRANCH  29  30
ENDBRANCH  22  24
ENDBRANCH  21  22
ENDBRANCH   1  21
TORSDOF 12
