REMARK SMILES O=C(OCCOC(=O)[C@H]1Cc2[nH]cnc2CN1C(=O)N1CCC[C@H](O)C1)c1ccc(-c2c3nc(c(-c4c(F)cccc4F)c4ccc([nH]4)c(-c4c(F)cccc4F)c4nc(c(-c5c(F)cccc5F)c5ccc2[nH]5)C=C4)C=C3)cc1
REMARK SMILES IDX 5 1 4 2 3 3 2 4 1 5 27 6 28 7 80 8 29 9 79 10 30 11 31 12
REMARK SMILES IDX 32 13 73 14 33 15 78 16 72 17 74 18 34 19 77 20 71 21 70 22
REMARK SMILES IDX 35 24 61 25 44 26 60 27 45 28 48 29 59 30 75 31 46 32 47 33
REMARK SMILES IDX 58 35 76 36 49 37 36 38 37 39 42 40 38 41 39 42 41 43 43 44
REMARK SMILES IDX 40 45 62 46 63 47 68 48 64 49 65 50 67 51 69 52 66 53 50 54
REMARK SMILES IDX 51 55 56 56 52 57 53 58 55 59 57 60 54 61 6 62 7 63 8 64
REMARK SMILES IDX 9 65 10 66 17 67 11 68 16 69 12 70 15 71 13 72 14 74 18 75
REMARK SMILES IDX 19 76 20 77 21 78 26 79 22 80 24 81 23 82 25 83
REMARK H PARENT 74 23 48 34 12 73 25 84
REMARK Flexibility Score: inf
ROOT
ATOM      1  C   UNL     1       5.152   0.685  -0.801  1.00  0.00     0.274 C 
ENDROOT
BRANCH   1   2
ATOM      2  C   UNL     1       5.285  -0.774  -0.401  1.00  0.00     0.275 C 
BRANCH   2   3
ATOM      3  O   UNL     1       4.062  -1.486  -0.664  1.00  0.00    -0.458 OA
BRANCH   3   4
ATOM      4  C   UNL     1       3.179  -1.922   0.250  1.00  0.00     0.338 C 
ATOM      5  O   UNL     1       2.369  -2.812  -0.037  1.00  0.00    -0.246 OA
BRANCH   4   6
ATOM      6  C   UNL     1       3.021  -1.282   1.566  1.00  0.00     0.060 A 
ATOM      7  C   UNL     1       3.946  -1.509   2.583  1.00  0.00     0.016 A 
ATOM      8  C   UNL     1       1.738  -0.794   1.876  1.00  0.00     0.016 A 
ATOM      9  C   UNL     1       3.521  -1.381   3.897  1.00  0.00     0.010 A 
ATOM     10  C   UNL     1       1.327  -0.619   3.175  1.00  0.00     0.010 A 
ATOM     11  C   UNL     1       2.188  -1.032   4.168  1.00  0.00    -0.014 A 
BRANCH  11  12
ATOM     12  C   UNL     1       1.695  -1.189   5.519  1.00  0.00     0.031 A 
ATOM     13  C   UNL     1       2.284  -0.246   6.481  1.00  0.00     0.074 A 
ATOM     14  C   UNL     1       0.768  -2.095   5.878  1.00  0.00     0.049 A 
ATOM     15  N   UNL     1       3.251  -0.477   7.302  1.00  0.00    -0.248 NA
ATOM     16  C   UNL     1       1.875   1.159   6.390  1.00  0.00     0.031 C 
ATOM     17  C   UNL     1      -0.145  -2.878   5.043  1.00  0.00     0.029 A 
ATOM     18  N   UNL     1       0.423  -2.462   7.141  1.00  0.00    -0.354 N 
ATOM     19  C   UNL     1       3.435   0.711   7.996  1.00  0.00     0.074 A 
ATOM     20  C   UNL     1       2.717   1.719   7.259  1.00  0.00     0.031 C 
ATOM     21  C   UNL     1      -1.069  -3.474   5.834  1.00  0.00     0.029 A 
ATOM     22  C   UNL     1      -0.721  -3.238   7.225  1.00  0.00     0.049 A 
ATOM     23  H   UNL     1       0.945  -2.197   7.932  1.00  0.00     0.167 HD
ATOM     24  C   UNL     1       3.950   0.705   9.255  1.00  0.00     0.037 A 
ATOM     25  C   UNL     1      -1.348  -3.597   8.372  1.00  0.00     0.037 A 
ATOM     26  C   UNL     1       4.608  -0.551   9.543  1.00  0.00     0.049 A 
ATOM     27  C   UNL     1      -0.366  -3.463   9.481  1.00  0.00     0.074 A 
ATOM     28  C   UNL     1       5.646  -1.262   8.968  1.00  0.00     0.029 A 
ATOM     29  N   UNL     1       3.955  -1.451  10.352  1.00  0.00    -0.354 N 
ATOM     30  N   UNL     1       0.669  -4.241   9.637  1.00  0.00    -0.248 NA
ATOM     31  C   UNL     1      -0.285  -2.180  10.167  1.00  0.00     0.031 C 
ATOM     32  C   UNL     1       5.266  -2.634   9.078  1.00  0.00     0.029 A 
ATOM     33  C   UNL     1       4.046  -2.681   9.753  1.00  0.00     0.049 A 
ATOM     34  H   UNL     1       3.505  -1.250  11.204  1.00  0.00     0.167 HD
ATOM     35  C   UNL     1       1.687  -3.401  10.069  1.00  0.00     0.074 A 
ATOM     36  C   UNL     1       1.017  -2.166  10.467  1.00  0.00     0.031 C 
ATOM     37  C   UNL     1       2.998  -3.675   9.795  1.00  0.00     0.037 A 
BRANCH  24  38
ATOM     38  C   UNL     1       3.512   1.654  10.347  1.00  0.00     0.057 A 
ATOM     39  C   UNL     1       4.151   1.582  11.598  1.00  0.00     0.134 A 
ATOM     40  C   UNL     1       2.321   2.410  10.331  1.00  0.00     0.134 A 
ATOM     41  F   UNL     1       5.300   0.905  11.748  1.00  0.00    -0.206 F 
ATOM     42  C   UNL     1       3.588   2.120  12.761  1.00  0.00     0.040 A 
ATOM     43  C   UNL     1       1.778   2.995  11.476  1.00  0.00     0.040 A 
ATOM     44  F   UNL     1       1.560   2.548   9.241  1.00  0.00    -0.206 F 
ATOM     45  C   UNL     1       2.389   2.817  12.705  1.00  0.00     0.006 A 
ENDBRANCH  24  38
BRANCH  25  46
ATOM     46  C   UNL     1      -2.801  -3.741   8.608  1.00  0.00     0.057 A 
ATOM     47  C   UNL     1      -3.293  -4.392   9.747  1.00  0.00     0.134 A 
ATOM     48  C   UNL     1      -3.740  -3.006   7.863  1.00  0.00     0.134 A 
ATOM     49  F   UNL     1      -2.467  -5.083  10.546  1.00  0.00    -0.206 F 
ATOM     50  C   UNL     1      -4.636  -4.298  10.137  1.00  0.00     0.040 A 
ATOM     51  C   UNL     1      -5.085  -2.910   8.236  1.00  0.00     0.040 A 
ATOM     52  F   UNL     1      -3.368  -2.280   6.800  1.00  0.00    -0.206 F 
ATOM     53  C   UNL     1      -5.534  -3.546   9.385  1.00  0.00     0.006 A 
ENDBRANCH  25  46
BRANCH  37  54
ATOM     54  C   UNL     1       3.328  -5.036   9.247  1.00  0.00     0.057 A 
ATOM     55  C   UNL     1       2.872  -5.509   8.007  1.00  0.00     0.134 A 
ATOM     56  C   UNL     1       4.252  -5.837   9.927  1.00  0.00     0.134 A 
ATOM     57  F   UNL     1       2.069  -4.765   7.236  1.00  0.00    -0.206 F 
ATOM     58  C   UNL     1       3.277  -6.745   7.494  1.00  0.00     0.040 A 
ATOM     59  C   UNL     1       4.691  -7.058   9.410  1.00  0.00     0.040 A 
ATOM     60  F   UNL     1       4.779  -5.422  11.090  1.00  0.00    -0.206 F 
ATOM     61  C   UNL     1       4.195  -7.521   8.194  1.00  0.00     0.006 A 
ENDBRANCH  37  54
ENDBRANCH  11  12
ENDBRANCH   4   6
ENDBRANCH   3   4
ENDBRANCH   2   3
ENDBRANCH   1   2
BRANCH   1  62
ATOM     62  O   UNL     1       4.231   1.322   0.098  1.00  0.00    -0.461 OA
BRANCH  62  63
ATOM     63  C   UNL     1       3.363   2.216  -0.439  1.00  0.00     0.329 C 
ATOM     64  O   UNL     1       3.318   2.514  -1.644  1.00  0.00    -0.250 OA
BRANCH  63  65
ATOM     65  C   UNL     1       2.540   2.880   0.650  1.00  0.00     0.203 C 
ATOM     66  C   UNL     1       2.817   4.407   0.496  1.00  0.00     0.093 C 
ATOM     67  N   UNL     1       1.082   2.627   0.884  1.00  0.00    -0.304 N 
ATOM     68  C   UNL     1       2.151   5.097   1.619  1.00  0.00     0.042 A 
ATOM     69  C   UNL     1       0.541   3.201   2.145  1.00  0.00     0.180 C 
ATOM     70  N   UNL     1       2.398   6.334   2.128  1.00  0.00    -0.348 N 
ATOM     71  C   UNL     1       1.127   4.564   2.368  1.00  0.00     0.081 A 
ATOM     72  C   UNL     1       1.543   6.492   3.188  1.00  0.00     0.197 A 
ATOM     73  H   UNL     1       3.059   6.986   1.800  1.00  0.00     0.167 HD
ATOM     74  N   UNL     1       0.773   5.436   3.364  1.00  0.00    -0.240 NA
BRANCH  67  75
ATOM     75  C   UNL     1       0.245   1.787   0.176  1.00  0.00     0.321 C 
ATOM     76  O   UNL     1      -0.811   1.358   0.644  1.00  0.00    -0.248 OA
BRANCH  75  77
ATOM     77  N   UNL     1       0.618   1.483  -1.118  1.00  0.00    -0.322 N 
ATOM     78  C   UNL     1       0.783   0.086  -1.489  1.00  0.00     0.121 C 
ATOM     79  C   UNL     1      -0.124   2.194  -2.152  1.00  0.00     0.153 C 
ATOM     80  C   UNL     1       1.688  -0.048  -2.695  1.00  0.00     0.024 C 
ATOM     81  C   UNL     1       0.609   2.168  -3.498  1.00  0.00     0.134 C 
ATOM     82  C   UNL     1       1.236   0.812  -3.871  1.00  0.00     0.035 C 
BRANCH  81  83
ATOM     83  O   UNL     1       1.616   3.180  -3.503  1.00  0.00    -0.391 OA
ATOM     84  H   UNL     1       2.275   2.985  -2.818  1.00  0.00     0.211 HD
ENDBRANCH  81  83
ENDBRANCH  75  77
ENDBRANCH  67  75
ENDBRANCH  63  65
ENDBRANCH  62  63
ENDBRANCH   1  62
TORSDOF 14
