REMARK SMILES C[C@H]1[C@@H]([NH2+]C[C@H]2CC[C@@H](C(=O)OCCOC(=O)c3ccc(-c4c5nc(c(-c6c(F)cccc6F)c6ccc([nH]6)c(-c6c(F)cccc6F)c6nc(c(-c7c(F)cccc7F)c7ccc4[nH]7)C=C6)C=C5)cc3)CC2)CCC[C@@H]1C
REMARK SMILES IDX 13 1 12 2 10 3 11 4 9 5 6 6 7 7 73 8 8 9 72 10 5 11 4 12
REMARK SMILES IDX 3 15 1 16 2 17 77 18 74 19 76 20 78 21 75 22 14 23 15 24
REMARK SMILES IDX 16 25 17 26 18 27 19 28 71 29 20 30 70 31 21 32 22 33 23 34
REMARK SMILES IDX 64 35 24 36 69 37 63 38 65 39 25 40 68 41 62 42 61 43 26 45
REMARK SMILES IDX 52 46 35 47 51 48 36 49 39 50 50 51 66 52 37 53 38 54 49 56
REMARK SMILES IDX 67 57 40 58 27 59 28 60 33 61 29 62 30 63 32 64 34 65 31 66
REMARK SMILES IDX 53 67 54 68 59 69 55 70 56 71 58 72 60 73 57 74 41 75 42 76
REMARK SMILES IDX 47 77 43 78 44 79 46 80 48 81 45 82
REMARK H PARENT 4 13 4 14 65 44 39 55
REMARK Flexibility Score: inf
ROOT
ATOM      1  C   UNL     1       5.196  -3.188  -4.535  1.00  0.00     0.274 C 
ENDROOT
BRANCH   1   2
ATOM      2  O   UNL     1       3.808  -2.905  -4.797  1.00  0.00    -0.462 OA
BRANCH   2   3
ATOM      3  C   UNL     1       3.474  -2.432  -6.025  1.00  0.00     0.309 C 
ATOM      4  O   UNL     1       4.274  -2.119  -6.898  1.00  0.00    -0.252 OA
BRANCH   3   5
ATOM      5  C   UNL     1       1.961  -2.334  -6.216  1.00  0.00     0.099 C 
ATOM      6  C   UNL     1      -0.668  -1.476  -5.096  1.00  0.00     0.044 C 
ATOM      7  C   UNL     1       0.007  -0.679  -6.233  1.00  0.00     0.010 C 
ATOM      8  C   UNL     1      -0.321  -2.956  -5.282  1.00  0.00     0.010 C 
ATOM      9  C   UNL     1       1.532  -0.864  -6.269  1.00  0.00     0.016 C 
ATOM     10  C   UNL     1       1.178  -3.184  -5.200  1.00  0.00     0.016 C 
BRANCH   6  11
ATOM     11  C   UNL     1      -0.232  -0.883  -3.737  1.00  0.00     0.264 C 
BRANCH  11  12
ATOM     12  N   UNL     1      -0.405  -1.760  -2.591  1.00  0.00    -0.343 N 
ATOM     13  H   UNL     1      -1.400  -1.789  -2.370  1.00  0.00     0.346 HD
ATOM     14  H   UNL     1      -0.007  -2.656  -2.873  1.00  0.00     0.346 HD
BRANCH  12  15
ATOM     15  C   UNL     1       0.319  -1.381  -1.359  1.00  0.00     0.185 C 
ATOM     16  C   UNL     1      -1.133   0.673  -0.856  1.00  0.00     0.014 C 
ATOM     17  C   UNL     1       0.297   0.110  -0.904  1.00  0.00     0.047 C 
ATOM     18  C   UNL     1       1.318   1.011  -1.657  1.00  0.00    -0.006 C 
ATOM     19  C   UNL     1       1.764  -1.927  -1.348  1.00  0.00     0.065 C 
ATOM     20  C   UNL     1       2.731   0.403  -1.592  1.00  0.00     0.004 C 
ATOM     21  C   UNL     1       1.368   2.444  -1.113  1.00  0.00     0.008 C 
ATOM     22  C   UNL     1       2.794  -1.049  -2.049  1.00  0.00     0.006 C 
ENDBRANCH  12  15
ENDBRANCH  11  12
ENDBRANCH   6  11
ENDBRANCH   3   5
ENDBRANCH   2   3
ENDBRANCH   1   2
BRANCH   1  23
ATOM     23  C   UNL     1       5.366  -4.689  -4.309  1.00  0.00     0.275 C 
BRANCH  23  24
ATOM     24  O   UNL     1       5.005  -5.383  -5.516  1.00  0.00    -0.458 OA
BRANCH  24  25
ATOM     25  C   UNL     1       3.934  -6.204  -5.428  1.00  0.00     0.338 C 
ATOM     26  O   UNL     1       3.310  -6.529  -4.436  1.00  0.00    -0.246 OA
BRANCH  25  27
ATOM     27  C   UNL     1       3.546  -6.596  -6.789  1.00  0.00     0.060 A 
ATOM     28  C   UNL     1       2.760  -5.715  -7.529  1.00  0.00     0.016 A 
ATOM     29  C   UNL     1       3.874  -7.848  -7.298  1.00  0.00     0.016 A 
ATOM     30  C   UNL     1       2.257  -6.083  -8.768  1.00  0.00     0.010 A 
ATOM     31  C   UNL     1       3.411  -8.204  -8.568  1.00  0.00     0.010 A 
ATOM     32  C   UNL     1       2.584  -7.331  -9.301  1.00  0.00    -0.014 A 
BRANCH  32  33
ATOM     33  C   UNL     1       2.008  -7.745 -10.600  1.00  0.00     0.031 A 
ATOM     34  C   UNL     1       0.998  -8.852 -10.639  1.00  0.00     0.074 A 
ATOM     35  C   UNL     1       2.369  -7.112 -11.732  1.00  0.00     0.049 A 
ATOM     36  N   UNL     1       0.503  -9.484 -11.670  1.00  0.00    -0.248 NA
ATOM     37  C   UNL     1       0.479  -9.310  -9.341  1.00  0.00     0.031 C 
ATOM     38  C   UNL     1       3.282  -5.971 -11.811  1.00  0.00     0.029 A 
ATOM     39  N   UNL     1       2.012  -7.347 -13.035  1.00  0.00    -0.354 N 
ATOM     40  C   UNL     1      -0.352 -10.444 -11.146  1.00  0.00     0.074 A 
ATOM     41  C   UNL     1      -0.310 -10.310  -9.705  1.00  0.00     0.031 C 
ATOM     42  C   UNL     1       3.413  -5.604 -13.096  1.00  0.00     0.029 A 
ATOM     43  C   UNL     1       2.649  -6.524 -13.931  1.00  0.00     0.049 A 
ATOM     44  H   UNL     1       1.363  -8.037 -13.302  1.00  0.00     0.167 HD
ATOM     45  C   UNL     1      -1.099 -11.355 -11.811  1.00  0.00     0.037 A 
ATOM     46  C   UNL     1       2.651  -6.542 -15.277  1.00  0.00     0.037 A 
ATOM     47  C   UNL     1      -1.153 -11.460 -13.245  1.00  0.00     0.049 A 
ATOM     48  C   UNL     1       1.856  -7.596 -15.994  1.00  0.00     0.074 A 
ATOM     49  C   UNL     1      -1.863 -12.359 -14.021  1.00  0.00     0.029 A 
ATOM     50  N   UNL     1      -0.475 -10.623 -14.120  1.00  0.00    -0.354 N 
ATOM     51  N   UNL     1       1.103  -8.544 -15.492  1.00  0.00    -0.248 NA
ATOM     52  C   UNL     1       1.925  -7.593 -17.461  1.00  0.00     0.031 C 
ATOM     53  C   UNL     1      -1.593 -12.082 -15.367  1.00  0.00     0.029 A 
ATOM     54  C   UNL     1      -0.743 -10.989 -15.428  1.00  0.00     0.049 A 
ATOM     55  H   UNL     1       0.110  -9.879 -13.850  1.00  0.00     0.167 HD
ATOM     56  C   UNL     1       0.600  -9.246 -16.579  1.00  0.00     0.074 A 
ATOM     57  C   UNL     1       1.121  -8.601 -17.768  1.00  0.00     0.031 C 
ATOM     58  C   UNL     1      -0.213 -10.329 -16.593  1.00  0.00     0.037 A 
BRANCH  45  59
ATOM     59  C   UNL     1      -1.880 -12.333 -10.987  1.00  0.00     0.057 A 
ATOM     60  C   UNL     1      -3.043 -11.964 -10.300  1.00  0.00     0.134 A 
ATOM     61  C   UNL     1      -1.461 -13.665 -10.882  1.00  0.00     0.134 A 
ATOM     62  F   UNL     1      -3.486 -10.698 -10.344  1.00  0.00    -0.206 F 
ATOM     63  C   UNL     1      -3.751 -12.881  -9.520  1.00  0.00     0.040 A 
ATOM     64  C   UNL     1      -2.171 -14.596 -10.123  1.00  0.00     0.040 A 
ATOM     65  F   UNL     1      -0.354 -14.083 -11.515  1.00  0.00    -0.206 F 
ATOM     66  C   UNL     1      -3.317 -14.203  -9.434  1.00  0.00     0.006 A 
ENDBRANCH  45  59
BRANCH  46  67
ATOM     67  C   UNL     1       3.473  -5.561 -16.026  1.00  0.00     0.057 A 
ATOM     68  C   UNL     1       2.880  -4.528 -16.759  1.00  0.00     0.134 A 
ATOM     69  C   UNL     1       4.872  -5.627 -16.018  1.00  0.00     0.134 A 
ATOM     70  F   UNL     1       1.544  -4.427 -16.823  1.00  0.00    -0.206 F 
ATOM     71  C   UNL     1       3.647  -3.599 -17.464  1.00  0.00     0.040 A 
ATOM     72  C   UNL     1       5.652  -4.691 -16.698  1.00  0.00     0.040 A 
ATOM     73  F   UNL     1       5.500  -6.594 -15.333  1.00  0.00    -0.206 F 
ATOM     74  C   UNL     1       5.039  -3.675 -17.427  1.00  0.00     0.006 A 
ENDBRANCH  46  67
BRANCH  58  75
ATOM     75  C   UNL     1      -0.605 -10.865 -17.936  1.00  0.00     0.057 A 
ATOM     76  C   UNL     1       0.283 -11.618 -18.713  1.00  0.00     0.134 A 
ATOM     77  C   UNL     1      -1.894 -10.653 -18.440  1.00  0.00     0.134 A 
ATOM     78  F   UNL     1       1.536 -11.843 -18.289  1.00  0.00    -0.206 F 
ATOM     79  C   UNL     1      -0.093 -12.130 -19.956  1.00  0.00     0.040 A 
ATOM     80  C   UNL     1      -2.288 -11.176 -19.672  1.00  0.00     0.040 A 
ATOM     81  F   UNL     1      -2.791  -9.944 -17.739  1.00  0.00    -0.206 F 
ATOM     82  C   UNL     1      -1.385 -11.913 -20.435  1.00  0.00     0.006 A 
ENDBRANCH  58  75
ENDBRANCH  32  33
ENDBRANCH  25  27
ENDBRANCH  24  25
ENDBRANCH  23  24
ENDBRANCH   1  23
TORSDOF 14
