REMARK SMILES Cc1n[nH]c(SCC[C@@H]2CCC[C@]2([NH2+]C(C)C)C(=O)OCCOC(=O)c2ccc(-c3c4nc(c(-c5c(F)cccc5F)c5ccc([nH]5)c(-c5c(F)cccc5F)c5nc(c(-c6c(F)cccc6F)c6ccc3[nH]6)C=C5)C=C4)cc2)n1
REMARK SMILES IDX 21 1 20 2 18 3 19 4 13 5 9 6 10 7 11 8 12 9 8 10 7 11 6 12
REMARK SMILES IDX 5 13 1 14 2 15 3 16 80 17 4 18 14 20 15 23 16 24 17 25 22 26
REMARK SMILES IDX 23 27 24 28 25 29 26 30 27 31 79 32 28 33 78 34 29 35 30 36
REMARK SMILES IDX 31 37 72 38 32 39 77 40 71 41 73 42 33 43 76 44 70 45 69 46
REMARK SMILES IDX 34 48 60 49 43 50 59 51 44 52 47 53 58 54 74 55 45 56 46 57
REMARK SMILES IDX 57 59 75 60 48 61 35 62 36 63 41 64 37 65 38 66 40 67 42 68
REMARK SMILES IDX 39 69 61 70 62 71 67 72 63 73 64 74 66 75 68 76 65 77 49 78
REMARK SMILES IDX 50 79 55 80 51 81 52 82 54 83 56 84 53 85
REMARK H PARENT 4 19 14 21 14 22 73 47 47 58
REMARK Flexibility Score: inf
ROOT
ATOM      1  C   UNL     1      -1.078  -1.891  -9.543  1.00  0.00     0.274 C 
ENDROOT
BRANCH   1   2
ATOM      2  O   UNL     1      -0.881  -1.478  -8.171  1.00  0.00    -0.457 OA
BRANCH   2   3
ATOM      3  C   UNL     1      -0.349  -2.395  -7.310  1.00  0.00     0.368 C 
ATOM      4  O   UNL     1      -0.020  -3.527  -7.660  1.00  0.00    -0.245 OA
BRANCH   3   5
ATOM      5  C   UNL     1      -0.404  -1.942  -5.811  1.00  0.00     0.197 C 
ATOM      6  C   UNL     1       0.248  -0.573  -5.434  1.00  0.00     0.063 C 
ATOM      7  C   UNL     1       1.723  -0.862  -5.195  1.00  0.00     0.011 C 
ATOM      8  C   UNL     1       1.677  -2.157  -4.412  1.00  0.00     0.008 C 
ATOM      9  C   UNL     1       0.453  -2.918  -4.930  1.00  0.00     0.081 C 
BRANCH   6  10
ATOM     10  C   UNL     1       0.028   0.706  -6.248  1.00  0.00     0.022 C 
BRANCH  10  11
ATOM     11  C   UNL     1      -1.065   1.614  -5.670  1.00  0.00     0.079 C 
BRANCH  11  12
ATOM     12  S   UNL     1      -0.519   2.671  -4.280  1.00  0.00    -0.087 SA
BRANCH  12  13
ATOM     13  C   UNL     1      -0.385   1.605  -2.935  1.00  0.00     0.183 A 
ATOM     14  C   UNL     1       1.050   0.087  -0.097  1.00  0.00     0.092 C 
ATOM     15  C   UNL     1       0.227   0.510  -1.250  1.00  0.00     0.148 A 
ATOM     16  N   UNL     1      -0.947  -0.062  -1.558  1.00  0.00    -0.158 NA
ATOM     17  N   UNL     1       0.606   1.536  -2.080  1.00  0.00    -0.206 NA
ATOM     18  N   UNL     1      -1.337   0.691  -2.604  1.00  0.00    -0.254 N 
ATOM     19  H   UNL     1      -2.199   0.593  -3.070  1.00  0.00     0.192 HD
ENDBRANCH  12  13
ENDBRANCH  11  12
ENDBRANCH  10  11
ENDBRANCH   6  10
BRANCH   5  20
ATOM     20  N   UNL     1      -1.835  -1.905  -5.357  1.00  0.00    -0.330 N 
ATOM     21  H   UNL     1      -2.248  -1.040  -5.705  1.00  0.00     0.347 HD
ATOM     22  H   UNL     1      -1.798  -1.978  -4.341  1.00  0.00     0.347 HD
BRANCH  20  23
ATOM     23  C   UNL     1      -2.694  -3.023  -5.798  1.00  0.00     0.176 C 
ATOM     24  C   UNL     1      -2.387  -4.353  -5.109  1.00  0.00     0.075 C 
ATOM     25  C   UNL     1      -4.141  -2.620  -5.506  1.00  0.00     0.075 C 
ENDBRANCH  20  23
ENDBRANCH   5  20
ENDBRANCH   3   5
ENDBRANCH   2   3
ENDBRANCH   1   2
BRANCH   1  26
ATOM     26  C   UNL     1       0.131  -1.643 -10.448  1.00  0.00     0.275 C 
BRANCH  26  27
ATOM     27  O   UNL     1       1.189  -2.563 -10.170  1.00  0.00    -0.458 OA
BRANCH  27  28
ATOM     28  C   UNL     1       1.980  -2.145  -9.161  1.00  0.00     0.338 C 
ATOM     29  O   UNL     1       1.882  -1.101  -8.538  1.00  0.00    -0.246 OA
BRANCH  28  30
ATOM     30  C   UNL     1       3.061  -3.095  -8.903  1.00  0.00     0.060 A 
ATOM     31  C   UNL     1       3.607  -3.070  -7.619  1.00  0.00     0.016 A 
ATOM     32  C   UNL     1       3.722  -3.689  -9.975  1.00  0.00     0.016 A 
ATOM     33  C   UNL     1       4.934  -3.372  -7.452  1.00  0.00     0.010 A 
ATOM     34  C   UNL     1       5.042  -4.043  -9.799  1.00  0.00     0.010 A 
ATOM     35  C   UNL     1       5.660  -3.754  -8.576  1.00  0.00    -0.014 A 
BRANCH  35  36
ATOM     36  C   UNL     1       7.104  -3.806  -8.436  1.00  0.00     0.031 A 
ATOM     37  C   UNL     1       7.615  -4.856  -7.519  1.00  0.00     0.074 A 
ATOM     38  C   UNL     1       7.880  -3.016  -9.204  1.00  0.00     0.049 A 
ATOM     39  N   UNL     1       8.517  -4.760  -6.597  1.00  0.00    -0.248 NA
ATOM     40  C   UNL     1       6.965  -6.176  -7.589  1.00  0.00     0.031 C 
ATOM     41  C   UNL     1       7.455  -2.128 -10.294  1.00  0.00     0.029 A 
ATOM     42  N   UNL     1       9.235  -2.972  -9.289  1.00  0.00    -0.354 N 
ATOM     43  C   UNL     1       8.674  -6.047  -6.090  1.00  0.00     0.074 A 
ATOM     44  C   UNL     1       7.614  -6.848  -6.642  1.00  0.00     0.031 C 
ATOM     45  C   UNL     1       8.513  -1.886 -11.096  1.00  0.00     0.029 A 
ATOM     46  C   UNL     1       9.690  -2.506 -10.513  1.00  0.00     0.049 A 
ATOM     47  H   UNL     1       9.833  -3.242  -8.555  1.00  0.00     0.167 HD
ATOM     48  C   UNL     1       9.792  -6.430  -5.420  1.00  0.00     0.037 A 
ATOM     49  C   UNL     1      10.907  -2.740 -11.059  1.00  0.00     0.037 A 
ATOM     50  C   UNL     1      10.491  -5.315  -4.847  1.00  0.00     0.049 A 
ATOM     51  C   UNL     1      11.811  -3.204  -9.976  1.00  0.00     0.074 A 
ATOM     52  C   UNL     1      10.150  -4.328  -3.941  1.00  0.00     0.029 A 
ATOM     53  N   UNL     1      11.653  -4.887  -5.439  1.00  0.00    -0.354 N 
ATOM     54  N   UNL     1      12.252  -2.446  -9.010  1.00  0.00    -0.248 NA
ATOM     55  C   UNL     1      11.874  -4.638  -9.717  1.00  0.00     0.031 C 
ATOM     56  C   UNL     1      10.831  -3.161  -4.392  1.00  0.00     0.029 A 
ATOM     57  C   UNL     1      11.566  -3.520  -5.520  1.00  0.00     0.049 A 
ATOM     58  H   UNL     1      12.401  -5.449  -5.744  1.00  0.00     0.167 HD
ATOM     59  C   UNL     1      12.246  -3.262  -7.887  1.00  0.00     0.074 A 
ATOM     60  C   UNL     1      12.101  -4.621  -8.401  1.00  0.00     0.031 C 
ATOM     61  C   UNL     1      12.065  -2.750  -6.634  1.00  0.00     0.037 A 
BRANCH  48  62
ATOM     62  C   UNL     1      10.409  -7.792  -5.583  1.00  0.00     0.057 A 
ATOM     63  C   UNL     1      11.424  -8.209  -4.708  1.00  0.00     0.134 A 
ATOM     64  C   UNL     1      10.240  -8.588  -6.737  1.00  0.00     0.134 A 
ATOM     65  F   UNL     1      11.699  -7.515  -3.594  1.00  0.00    -0.206 F 
ATOM     66  C   UNL     1      12.245  -9.308  -4.988  1.00  0.00     0.040 A 
ATOM     67  C   UNL     1      11.019  -9.716  -6.999  1.00  0.00     0.040 A 
ATOM     68  F   UNL     1       9.386  -8.259  -7.715  1.00  0.00    -0.206 F 
ATOM     69  C   UNL     1      12.046 -10.063  -6.138  1.00  0.00     0.006 A 
ENDBRANCH  48  62
BRANCH  49  70
ATOM     70  C   UNL     1      11.229  -2.892 -12.497  1.00  0.00     0.057 A 
ATOM     71  C   UNL     1      12.546  -2.789 -12.959  1.00  0.00     0.134 A 
ATOM     72  C   UNL     1      10.284  -3.359 -13.432  1.00  0.00     0.134 A 
ATOM     73  F   UNL     1      13.529  -2.409 -12.131  1.00  0.00    -0.206 F 
ATOM     74  C   UNL     1      12.902  -3.124 -14.273  1.00  0.00     0.040 A 
ATOM     75  C   UNL     1      10.622  -3.678 -14.750  1.00  0.00     0.040 A 
ATOM     76  F   UNL     1       9.013  -3.601 -13.079  1.00  0.00    -0.206 F 
ATOM     77  C   UNL     1      11.939  -3.570 -15.173  1.00  0.00     0.006 A 
ENDBRANCH  49  70
BRANCH  61  78
ATOM     78  C   UNL     1      12.098  -1.257  -6.465  1.00  0.00     0.057 A 
ATOM     79  C   UNL     1      11.187  -0.386  -7.083  1.00  0.00     0.134 A 
ATOM     80  C   UNL     1      12.967  -0.695  -5.524  1.00  0.00     0.134 A 
ATOM     81  F   UNL     1      10.238  -0.846  -7.907  1.00  0.00    -0.206 F 
ATOM     82  C   UNL     1      11.181   0.986  -6.822  1.00  0.00     0.040 A 
ATOM     83  C   UNL     1      12.948   0.670  -5.227  1.00  0.00     0.040 A 
ATOM     84  F   UNL     1      13.820  -1.474  -4.840  1.00  0.00    -0.206 F 
ATOM     85  C   UNL     1      12.062   1.518  -5.886  1.00  0.00     0.006 A 
ENDBRANCH  61  78
ENDBRANCH  35  36
ENDBRANCH  28  30
ENDBRANCH  27  28
ENDBRANCH  26  27
ENDBRANCH   1  26
TORSDOF 17
