REMARK SMILES O=C(CCc1ccc(S(=O)(=O)Nc2cccc(I)c2)cc1)OCCOC(=O)c1ccc(-c2c3nc(c(-c4c(F)cccc4F)c4ccc([nH]4)c(-c4c(F)cccc4F)c4nc(c(-c5c(F)cccc5F)c5ccc2[nH]5)C=C4)C=C3)cc1
REMARK SMILES IDX 22 1 2 2 1 3 3 4 4 5 5 6 6 7 21 8 7 9 20 10 8 11 9 12 10 13
REMARK SMILES IDX 11 14 12 15 13 17 14 18 19 19 15 20 17 21 16 22 18 23 23 24
REMARK SMILES IDX 24 25 25 26 26 27 27 28 28 29 29 30 81 31 30 32 80 33 31 34
REMARK SMILES IDX 32 35 33 36 74 37 34 38 79 39 73 40 75 41 35 42 78 43 72 44
REMARK SMILES IDX 71 45 36 47 62 48 45 49 61 50 46 51 49 52 60 53 76 54 47 55
REMARK SMILES IDX 48 56 59 58 77 59 50 60 37 61 38 62 43 63 39 64 40 65 42 66
REMARK SMILES IDX 44 67 41 68 63 69 64 70 69 71 65 72 66 73 68 74 70 75 67 76
REMARK SMILES IDX 51 77 52 78 57 79 53 80 54 81 56 82 58 83 55 84
REMARK H PARENT 12 16 75 46 49 57
REMARK Flexibility Score: inf
ROOT
ATOM      1  O   UNL     1       2.125   0.157  -0.744  1.00  0.00    -0.462 OA
ENDROOT
BRANCH   1   2
ATOM      2  C   UNL     1       2.213  -1.161  -0.423  1.00  0.00     0.306 C 
ATOM      3  O   UNL     1       1.457  -1.989  -0.922  1.00  0.00    -0.252 OA
BRANCH   2   4
ATOM      4  C   UNL     1       3.139  -1.518   0.720  1.00  0.00     0.127 C 
BRANCH   4   5
ATOM      5  C   UNL     1       4.199  -2.561   0.360  1.00  0.00     0.047 C 
BRANCH   5   6
ATOM      6  C   UNL     1       5.364  -1.991  -0.418  1.00  0.00    -0.047 A 
ATOM      7  C   UNL     1       5.734  -2.550  -1.649  1.00  0.00     0.005 A 
ATOM      8  C   UNL     1       6.077  -0.882   0.060  1.00  0.00     0.005 A 
ATOM      9  C   UNL     1       6.700  -1.930  -2.449  1.00  0.00     0.022 A 
ATOM     10  C   UNL     1       7.038  -0.259  -0.737  1.00  0.00     0.022 A 
ATOM     11  C   UNL     1       7.303  -0.745  -2.018  1.00  0.00     0.087 A 
BRANCH  11  12
ATOM     12  S   UNL     1       8.483   0.092  -3.060  1.00  0.00     0.261 S 
ATOM     13  O   UNL     1       9.573   0.539  -2.223  1.00  0.00    -0.201 OA
ATOM     14  O   UNL     1       8.725  -0.763  -4.205  1.00  0.00    -0.201 OA
BRANCH  12  15
ATOM     15  N   UNL     1       7.652   1.412  -3.677  1.00  0.00    -0.280 N 
ATOM     16  H   UNL     1       7.491   1.415  -4.649  1.00  0.00     0.180 HD
BRANCH  15  17
ATOM     17  C   UNL     1       7.155   2.530  -2.949  1.00  0.00     0.050 A 
ATOM     18  C   UNL     1       6.136   3.284  -3.545  1.00  0.00     0.027 A 
ATOM     19  C   UNL     1       7.659   2.943  -1.716  1.00  0.00     0.041 A 
ATOM     20  C   UNL     1       5.581   4.386  -2.886  1.00  0.00     0.003 A 
ATOM     21  C   UNL     1       7.075   4.018  -1.040  1.00  0.00     0.015 A 
ATOM     22  C   UNL     1       6.035   4.742  -1.619  1.00  0.00     0.015 A 
ATOM     23  I   UNL     1       7.722   4.498   0.878  1.00  0.00    -0.044 I 
ENDBRANCH  15  17
ENDBRANCH  12  15
ENDBRANCH  11  12
ENDBRANCH   5   6
ENDBRANCH   4   5
ENDBRANCH   2   4
ENDBRANCH   1   2
BRANCH   1  24
ATOM     24  C   UNL     1       3.307   0.843  -1.191  1.00  0.00     0.274 C 
BRANCH  24  25
ATOM     25  C   UNL     1       3.722   2.007  -0.284  1.00  0.00     0.275 C 
BRANCH  25  26
ATOM     26  O   UNL     1       3.556   1.694   1.104  1.00  0.00    -0.458 OA
BRANCH  26  27
ATOM     27  C   UNL     1       2.319   1.983   1.578  1.00  0.00     0.338 C 
ATOM     28  O   UNL     1       1.455   2.639   1.019  1.00  0.00    -0.246 OA
BRANCH  27  29
ATOM     29  C   UNL     1       2.076   1.221   2.817  1.00  0.00     0.060 A 
ATOM     30  C   UNL     1       0.846   0.564   2.931  1.00  0.00     0.016 A 
ATOM     31  C   UNL     1       3.009   1.168   3.857  1.00  0.00     0.016 A 
ATOM     32  C   UNL     1       0.513  -0.085   4.116  1.00  0.00     0.010 A 
ATOM     33  C   UNL     1       2.674   0.510   5.046  1.00  0.00     0.010 A 
ATOM     34  C   UNL     1       1.405  -0.076   5.198  1.00  0.00    -0.014 A 
BRANCH  34  35
ATOM     35  C   UNL     1       0.917  -0.523   6.526  1.00  0.00     0.031 A 
ATOM     36  C   UNL     1       0.471   0.514   7.522  1.00  0.00     0.074 A 
ATOM     37  C   UNL     1       0.791  -1.830   6.814  1.00  0.00     0.049 A 
ATOM     38  N   UNL     1      -0.093   0.354   8.692  1.00  0.00    -0.248 NA
ATOM     39  C   UNL     1       0.687   1.920   7.146  1.00  0.00     0.031 C 
ATOM     40  C   UNL     1       1.161  -2.932   5.928  1.00  0.00     0.029 A 
ATOM     41  N   UNL     1       0.296  -2.449   7.935  1.00  0.00    -0.354 N 
ATOM     42  C   UNL     1      -0.310   1.635   9.184  1.00  0.00     0.074 A 
ATOM     43  C   UNL     1       0.230   2.559   8.211  1.00  0.00     0.031 C 
ATOM     44  C   UNL     1       0.866  -4.095   6.534  1.00  0.00     0.029 A 
ATOM     45  C   UNL     1       0.301  -3.820   7.855  1.00  0.00     0.049 A 
ATOM     46  H   UNL     1      -0.032  -1.957   8.722  1.00  0.00     0.167 HD
ATOM     47  C   UNL     1      -0.921   2.012  10.332  1.00  0.00     0.037 A 
ATOM     48  C   UNL     1      -0.110  -4.745   8.744  1.00  0.00     0.037 A 
ATOM     49  C   UNL     1      -1.454   1.096  11.305  1.00  0.00     0.049 A 
ATOM     50  C   UNL     1      -0.721  -4.301  10.048  1.00  0.00     0.074 A 
ATOM     51  C   UNL     1      -2.111   1.381  12.490  1.00  0.00     0.029 A 
ATOM     52  N   UNL     1      -1.378  -0.286  11.212  1.00  0.00    -0.354 N 
ATOM     53  N   UNL     1      -0.973  -3.087  10.477  1.00  0.00    -0.248 NA
ATOM     54  C   UNL     1      -1.114  -5.361  10.988  1.00  0.00     0.031 C 
ATOM     55  C   UNL     1      -2.383   0.172  13.140  1.00  0.00     0.029 A 
ATOM     56  C   UNL     1      -1.947  -0.867  12.333  1.00  0.00     0.049 A 
ATOM     57  H   UNL     1      -0.979  -0.780  10.460  1.00  0.00     0.167 HD
ATOM     58  C   UNL     1      -1.587  -3.239  11.715  1.00  0.00     0.074 A 
ATOM     59  C   UNL     1      -1.678  -4.663  11.964  1.00  0.00     0.031 C 
ATOM     60  C   UNL     1      -2.040  -2.286  12.567  1.00  0.00     0.037 A 
BRANCH  47  61
ATOM     61  C   UNL     1      -1.022   3.485  10.605  1.00  0.00     0.057 A 
ATOM     62  C   UNL     1      -1.872   4.319   9.866  1.00  0.00     0.134 A 
ATOM     63  C   UNL     1      -0.267   4.074  11.627  1.00  0.00     0.134 A 
ATOM     64  F   UNL     1      -2.610   3.820   8.863  1.00  0.00    -0.206 F 
ATOM     65  C   UNL     1      -1.946   5.691  10.115  1.00  0.00     0.040 A 
ATOM     66  C   UNL     1      -0.353   5.439  11.903  1.00  0.00     0.040 A 
ATOM     67  F   UNL     1       0.564   3.333  12.375  1.00  0.00    -0.206 F 
ATOM     68  C   UNL     1      -1.188   6.253  11.140  1.00  0.00     0.006 A 
ENDBRANCH  47  61
BRANCH  48  69
ATOM     69  C   UNL     1       0.021  -6.191   8.432  1.00  0.00     0.057 A 
ATOM     70  C   UNL     1      -1.107  -6.992   8.219  1.00  0.00     0.134 A 
ATOM     71  C   UNL     1       1.273  -6.813   8.374  1.00  0.00     0.134 A 
ATOM     72  F   UNL     1      -2.336  -6.459   8.285  1.00  0.00    -0.206 F 
ATOM     73  C   UNL     1      -0.997  -8.364   7.982  1.00  0.00     0.040 A 
ATOM     74  C   UNL     1       1.400  -8.178   8.114  1.00  0.00     0.040 A 
ATOM     75  F   UNL     1       2.393  -6.101   8.570  1.00  0.00    -0.206 F 
ATOM     76  C   UNL     1       0.262  -8.959   7.925  1.00  0.00     0.006 A 
ENDBRANCH  48  69
BRANCH  60  77
ATOM     77  C   UNL     1      -2.712  -2.749  13.828  1.00  0.00     0.057 A 
ATOM     78  C   UNL     1      -1.999  -3.343  14.877  1.00  0.00     0.134 A 
ATOM     79  C   UNL     1      -4.090  -2.566  14.008  1.00  0.00     0.134 A 
ATOM     80  F   UNL     1      -0.679  -3.557  14.766  1.00  0.00    -0.206 F 
ATOM     81  C   UNL     1      -2.635  -3.763  16.047  1.00  0.00     0.040 A 
ATOM     82  C   UNL     1      -4.732  -2.956  15.184  1.00  0.00     0.040 A 
ATOM     83  F   UNL     1      -4.833  -1.994  13.048  1.00  0.00    -0.206 F 
ATOM     84  C   UNL     1      -4.005  -3.564  16.205  1.00  0.00     0.006 A 
ENDBRANCH  60  77
ENDBRANCH  34  35
ENDBRANCH  27  29
ENDBRANCH  26  27
ENDBRANCH  25  26
ENDBRANCH  24  25
ENDBRANCH   1  24
TORSDOF 16
