REMARK SMILES COc1cc([C@@H]2[NH2+][C@H](C(=O)OCCOC(=O)c3ccc(-c4c5nc(c(-c6c(F)cccc6F)c6ccc([nH]6)c(-c6c(F)cccc6F)c6nc(c(-c7c(F)cccc7F)c7ccc4[nH]7)C=C6)C=C5)cc3)CS2)ccc1OCc1ccc(Cl)cc1
REMARK SMILES IDX 12 1 11 2 9 3 10 4 8 5 6 6 7 7 72 8 71 11 5 12 3 13 4 14
REMARK SMILES IDX 75 15 74 16 73 17 2 18 1 19 76 20 77 21 78 22 79 23 84 24
REMARK SMILES IDX 80 25 83 26 81 27 82 28 13 29 14 30 15 31 16 32 17 33 18 34
REMARK SMILES IDX 70 35 19 36 69 37 20 38 21 39 22 40 63 41 23 42 68 43 62 44
REMARK SMILES IDX 64 45 24 46 67 47 61 48 60 49 25 51 51 52 34 53 50 54 35 55
REMARK SMILES IDX 38 56 49 57 65 58 36 59 37 60 48 62 66 63 39 64 26 65 27 66
REMARK SMILES IDX 32 67 28 68 29 69 31 70 33 71 30 72 52 73 53 74 58 75 54 76
REMARK SMILES IDX 55 77 57 78 59 79 56 80 40 81 41 82 46 83 42 84 43 85 45 86
REMARK SMILES IDX 47 87 44 88
REMARK H PARENT 7 9 7 10 64 50 38 61
REMARK Flexibility Score: inf
ROOT
ATOM      1  C   UNL     1       4.082  -3.577  -4.501  1.00  0.00     0.274 C 
ENDROOT
BRANCH   1   2
ATOM      2  O   UNL     1       2.688  -3.756  -4.807  1.00  0.00    -0.458 OA
BRANCH   2   3
ATOM      3  C   UNL     1       2.335  -4.103  -6.065  1.00  0.00     0.365 C 
ATOM      4  O   UNL     1       3.122  -4.242  -6.996  1.00  0.00    -0.245 OA
BRANCH   3   5
ATOM      5  C   UNL     1       0.823  -4.298  -6.247  1.00  0.00     0.304 C 
ATOM      6  C   UNL     1      -0.588  -3.198  -4.626  1.00  0.00     0.274 C 
ATOM      7  N   UNL     1       0.057  -4.468  -4.977  1.00  0.00    -0.319 N 
ATOM      8  S   UNL     1      -1.162  -2.517  -6.199  1.00  0.00    -0.087 SA
ATOM      9  H   UNL     1      -0.654  -5.189  -5.102  1.00  0.00     0.348 HD
ATOM     10  H   UNL     1       0.693  -4.747  -4.230  1.00  0.00     0.348 HD
ATOM     11  C   UNL     1       0.245  -3.186  -7.119  1.00  0.00     0.153 C 
BRANCH   6  12
ATOM     12  C   UNL     1       0.303  -2.308  -3.772  1.00  0.00     0.024 A 
ATOM     13  C   UNL     1       1.470  -1.974  -1.632  1.00  0.00     0.161 A 
ATOM     14  C   UNL     1       0.564  -2.687  -2.433  1.00  0.00     0.061 A 
ATOM     15  C   UNL     1       2.157  -0.886  -2.178  1.00  0.00     0.161 A 
ATOM     16  C   UNL     1       1.901  -0.494  -3.491  1.00  0.00     0.051 A 
ATOM     17  C   UNL     1       0.970  -1.179  -4.271  1.00  0.00     0.015 A 
BRANCH  13  18
ATOM     18  O   UNL     1       1.792  -2.435  -0.381  1.00  0.00    -0.493 OA
ATOM     19  C   UNL     1       0.709  -2.332   0.545  1.00  0.00     0.278 C 
ENDBRANCH  13  18
BRANCH  15  20
ATOM     20  O   UNL     1       3.149  -0.171  -1.566  1.00  0.00    -0.485 OA
BRANCH  20  21
ATOM     21  C   UNL     1       2.807   0.454  -0.329  1.00  0.00     0.265 C 
BRANCH  21  22
ATOM     22  C   UNL     1       1.796   1.583  -0.436  1.00  0.00    -0.011 A 
ATOM     23  C   UNL     1       2.210   2.917  -0.306  1.00  0.00     0.009 A 
ATOM     24  C   UNL     1       0.428   1.324  -0.617  1.00  0.00     0.009 A 
ATOM     25  C   UNL     1       1.274   3.956  -0.319  1.00  0.00     0.021 A 
ATOM     26  C   UNL     1      -0.507   2.360  -0.636  1.00  0.00     0.021 A 
ATOM     27  C   UNL     1      -0.080   3.672  -0.474  1.00  0.00     0.041 A 
ATOM     28  Cl  UNL     1      -1.235   4.947  -0.451  1.00  0.00    -0.084 Cl
ENDBRANCH  21  22
ENDBRANCH  20  21
ENDBRANCH  15  20
ENDBRANCH   6  12
ENDBRANCH   3   5
ENDBRANCH   2   3
ENDBRANCH   1   2
BRANCH   1  29
ATOM     29  C   UNL     1       4.455  -4.483  -3.329  1.00  0.00     0.275 C 
BRANCH  29  30
ATOM     30  O   UNL     1       4.418  -5.856  -3.761  1.00  0.00    -0.458 OA
BRANCH  30  31
ATOM     31  C   UNL     1       3.249  -6.500  -3.537  1.00  0.00     0.338 C 
ATOM     32  O   UNL     1       2.292  -6.131  -2.883  1.00  0.00    -0.246 OA
BRANCH  31  33
ATOM     33  C   UNL     1       3.243  -7.721  -4.355  1.00  0.00     0.060 A 
ATOM     34  C   UNL     1       2.270  -7.843  -5.352  1.00  0.00     0.016 A 
ATOM     35  C   UNL     1       4.157  -8.746  -4.115  1.00  0.00     0.016 A 
ATOM     36  C   UNL     1       2.204  -9.002  -6.119  1.00  0.00     0.010 A 
ATOM     37  C   UNL     1       4.084  -9.913  -4.877  1.00  0.00     0.010 A 
ATOM     38  C   UNL     1       3.099 -10.050  -5.872  1.00  0.00    -0.014 A 
BRANCH  38  39
ATOM     39  C   UNL     1       2.956 -11.334  -6.592  1.00  0.00     0.031 A 
ATOM     40  C   UNL     1       2.320 -12.498  -5.894  1.00  0.00     0.074 A 
ATOM     41  C   UNL     1       3.405 -11.454  -7.853  1.00  0.00     0.049 A 
ATOM     42  N   UNL     1       2.195 -13.737  -6.292  1.00  0.00    -0.248 NA
ATOM     43  C   UNL     1       1.754 -12.230  -4.562  1.00  0.00     0.031 C 
ATOM     44  C   UNL     1       4.007 -10.379  -8.640  1.00  0.00     0.029 A 
ATOM     45  N   UNL     1       3.436 -12.543  -8.686  1.00  0.00    -0.354 N 
ATOM     46  C   UNL     1       1.559 -14.403  -5.253  1.00  0.00     0.074 A 
ATOM     47  C   UNL     1       1.334 -13.433  -4.202  1.00  0.00     0.031 C 
ATOM     48  C   UNL     1       4.364 -10.866  -9.840  1.00  0.00     0.029 A 
ATOM     49  C   UNL     1       4.051 -12.293  -9.887  1.00  0.00     0.049 A 
ATOM     50  H   UNL     1       3.055 -13.418  -8.445  1.00  0.00     0.167 HD
ATOM     51  C   UNL     1       1.198 -15.706  -5.185  1.00  0.00     0.037 A 
ATOM     52  C   UNL     1       4.354 -13.130 -10.896  1.00  0.00     0.037 A 
ATOM     53  C   UNL     1       1.420 -16.660  -6.239  1.00  0.00     0.049 A 
ATOM     54  C   UNL     1       3.982 -14.582 -10.782  1.00  0.00     0.074 A 
ATOM     55  C   UNL     1       1.074 -17.999  -6.280  1.00  0.00     0.029 A 
ATOM     56  N   UNL     1       2.054 -16.372  -7.439  1.00  0.00    -0.354 N 
ATOM     57  N   UNL     1       3.376 -15.204  -9.800  1.00  0.00    -0.248 NA
ATOM     58  C   UNL     1       4.340 -15.449 -11.913  1.00  0.00     0.031 C 
ATOM     59  C   UNL     1       1.533 -18.531  -7.491  1.00  0.00     0.029 A 
ATOM     60  C   UNL     1       2.127 -17.513  -8.221  1.00  0.00     0.049 A 
ATOM     61  H   UNL     1       2.400 -15.488  -7.697  1.00  0.00     0.167 HD
ATOM     62  C   UNL     1       3.264 -16.529 -10.198  1.00  0.00     0.074 A 
ATOM     63  C   UNL     1       3.855 -16.619 -11.519  1.00  0.00     0.031 C 
ATOM     64  C   UNL     1       2.721 -17.578  -9.532  1.00  0.00     0.037 A 
BRANCH  51  65
ATOM     65  C   UNL     1       0.563 -16.173  -3.909  1.00  0.00     0.057 A 
ATOM     66  C   UNL     1      -0.745 -15.818  -3.557  1.00  0.00     0.134 A 
ATOM     67  C   UNL     1       1.274 -16.989  -3.019  1.00  0.00     0.134 A 
ATOM     68  F   UNL     1      -1.473 -15.025  -4.357  1.00  0.00    -0.206 F 
ATOM     69  C   UNL     1      -1.314 -16.234  -2.352  1.00  0.00     0.040 A 
ATOM     70  C   UNL     1       0.708 -17.430  -1.823  1.00  0.00     0.040 A 
ATOM     71  F   UNL     1       2.531 -17.366  -3.297  1.00  0.00    -0.206 F 
ATOM     72  C   UNL     1      -0.588 -17.046  -1.482  1.00  0.00     0.006 A 
ENDBRANCH  51  65
BRANCH  52  73
ATOM     73  C   UNL     1       5.065 -12.612 -12.090  1.00  0.00     0.057 A 
ATOM     74  C   UNL     1       4.410 -12.468 -13.318  1.00  0.00     0.134 A 
ATOM     75  C   UNL     1       6.410 -12.226 -12.025  1.00  0.00     0.134 A 
ATOM     76  F   UNL     1       3.128 -12.841 -13.446  1.00  0.00    -0.206 F 
ATOM     77  C   UNL     1       5.067 -11.963 -14.441  1.00  0.00     0.040 A 
ATOM     78  C   UNL     1       7.073 -11.699 -13.134  1.00  0.00     0.040 A 
ATOM     79  F   UNL     1       7.091 -12.338 -10.876  1.00  0.00    -0.206 F 
ATOM     80  C   UNL     1       6.401 -11.569 -14.348  1.00  0.00     0.006 A 
ENDBRANCH  52  73
BRANCH  64  81
ATOM     81  C   UNL     1       2.721 -18.904 -10.232  1.00  0.00     0.057 A 
ATOM     82  C   UNL     1       3.886 -19.671 -10.357  1.00  0.00     0.134 A 
ATOM     83  C   UNL     1       1.534 -19.436 -10.749  1.00  0.00     0.134 A 
ATOM     84  F   UNL     1       5.057 -19.209  -9.893  1.00  0.00    -0.206 F 
ATOM     85  C   UNL     1       3.873 -20.916 -10.987  1.00  0.00     0.040 A 
ATOM     86  C   UNL     1       1.504 -20.689 -11.363  1.00  0.00     0.040 A 
ATOM     87  F   UNL     1       0.383 -18.753 -10.655  1.00  0.00    -0.206 F 
ATOM     88  C   UNL     1       2.677 -21.431 -11.486  1.00  0.00     0.006 A 
ENDBRANCH  64  81
ENDBRANCH  38  39
ENDBRANCH  31  33
ENDBRANCH  30  31
ENDBRANCH  29  30
ENDBRANCH   1  29
TORSDOF 16
