REMARK SMILES Cc1ccc(Nc2c(Cl)cccc2Cl)c(CC(=O)OCCOC(=O)c2ccc(-c3c4nc(c(-c5c(F)cccc5F)c5ccc([nH]5)c(-c5c(F)cccc5F)c5nc(c(-c6c(F)cccc6F)c6ccc3[nH]6)C=C5)C=C4)cc2)c1
REMARK SMILES IDX 20 1 19 2 17 3 18 4 16 5 15 6 1 7 2 8 3 9 79 10 4 11 5 12
REMARK SMILES IDX 6 13 7 15 8 16 13 17 9 18 10 19 12 20 14 21 11 22 21 23
REMARK SMILES IDX 22 24 23 25 24 26 25 27 26 28 78 29 27 30 77 31 28 32 29 33
REMARK SMILES IDX 30 34 71 35 31 36 76 37 70 38 72 39 32 40 75 41 69 42 68 43
REMARK SMILES IDX 33 45 59 46 42 47 58 48 43 49 46 50 57 51 73 52 44 53 45 54
REMARK SMILES IDX 56 56 74 57 47 58 34 59 35 60 40 61 36 62 37 63 39 64 41 65
REMARK SMILES IDX 38 66 60 67 61 68 66 69 62 70 63 71 65 72 67 73 64 74 48 75
REMARK SMILES IDX 49 76 54 77 50 78 51 79 53 80 55 81 52 82
REMARK H PARENT 6 14 72 44 46 55
REMARK Flexibility Score: inf
ROOT
ATOM      1  C   UNL     1      -2.167   0.867  -3.640  1.00  0.00     0.274 C 
ENDROOT
BRANCH   1   2
ATOM      2  O   UNL     1      -1.926   0.801  -2.243  1.00  0.00    -0.462 OA
BRANCH   2   3
ATOM      3  C   UNL     1      -1.068   1.712  -1.700  1.00  0.00     0.310 C 
ATOM      4  O   UNL     1      -0.433   2.540  -2.307  1.00  0.00    -0.252 OA
BRANCH   3   5
ATOM      5  C   UNL     1      -1.038   1.498  -0.198  1.00  0.00     0.160 C 
BRANCH   5   6
ATOM      6  C   UNL     1      -0.395   0.168   0.085  1.00  0.00    -0.013 A 
ATOM      7  C   UNL     1       3.238  -0.945   0.153  1.00  0.00     0.044 C 
ATOM      8  C   UNL     1       1.742  -0.991   0.175  1.00  0.00    -0.051 A 
ATOM      9  C   UNL     1       1.057  -2.205   0.128  1.00  0.00     0.005 A 
ATOM     10  C   UNL     1       1.009   0.189   0.177  1.00  0.00     0.009 A 
ATOM     11  C   UNL     1      -0.341  -2.236   0.080  1.00  0.00     0.026 A 
ATOM     12  C   UNL     1      -1.097  -1.060   0.047  1.00  0.00     0.042 A 
BRANCH  12  13
ATOM     13  N   UNL     1      -2.497  -1.126  -0.102  1.00  0.00    -0.353 N 
ATOM     14  H   UNL     1      -2.925  -0.297  -0.417  1.00  0.00     0.167 HD
BRANCH  13  15
ATOM     15  C   UNL     1      -3.382  -2.211   0.133  1.00  0.00     0.076 A 
ATOM     16  C   UNL     1      -3.730  -2.600   1.439  1.00  0.00     0.066 A 
ATOM     17  C   UNL     1      -4.109  -2.799  -0.922  1.00  0.00     0.066 A 
ATOM     18  Cl  UNL     1      -2.929  -1.944   2.826  1.00  0.00    -0.082 Cl
ATOM     19  C   UNL     1      -4.747  -3.538   1.671  1.00  0.00     0.023 A 
ATOM     20  C   UNL     1      -5.175  -3.677  -0.687  1.00  0.00     0.023 A 
ATOM     21  Cl  UNL     1      -3.633  -2.610  -2.567  1.00  0.00    -0.082 Cl
ATOM     22  C   UNL     1      -5.489  -4.053   0.611  1.00  0.00     0.003 A 
ENDBRANCH  13  15
ENDBRANCH  12  13
ENDBRANCH   5   6
ENDBRANCH   3   5
ENDBRANCH   2   3
ENDBRANCH   1   2
BRANCH   1  23
ATOM     23  C   UNL     1      -3.604   0.403  -3.927  1.00  0.00     0.275 C 
BRANCH  23  24
ATOM     24  O   UNL     1      -4.551   0.302  -2.792  1.00  0.00    -0.458 OA
BRANCH  24  25
ATOM     25  C   UNL     1      -4.748   1.117  -1.716  1.00  0.00     0.338 C 
ATOM     26  O   UNL     1      -5.191   0.711  -0.650  1.00  0.00    -0.246 OA
BRANCH  25  27
ATOM     27  C   UNL     1      -4.338   2.518  -1.858  1.00  0.00     0.060 A 
ATOM     28  C   UNL     1      -3.848   3.276  -0.779  1.00  0.00     0.016 A 
ATOM     29  C   UNL     1      -4.297   3.010  -3.144  1.00  0.00     0.016 A 
ATOM     30  C   UNL     1      -3.197   4.479  -1.042  1.00  0.00     0.010 A 
ATOM     31  C   UNL     1      -3.389   3.981  -3.420  1.00  0.00     0.010 A 
ATOM     32  C   UNL     1      -2.948   4.797  -2.377  1.00  0.00    -0.014 A 
BRANCH  32  33
ATOM     33  C   UNL     1      -2.579   6.109  -2.875  1.00  0.00     0.031 A 
ATOM     34  C   UNL     1      -1.220   6.631  -2.763  1.00  0.00     0.074 A 
ATOM     35  C   UNL     1      -3.590   6.703  -3.551  1.00  0.00     0.049 A 
ATOM     36  N   UNL     1      -0.952   7.851  -2.453  1.00  0.00    -0.248 NA
ATOM     37  C   UNL     1      -0.029   5.812  -2.983  1.00  0.00     0.031 C 
ATOM     38  C   UNL     1      -3.626   7.864  -4.411  1.00  0.00     0.029 A 
ATOM     39  N   UNL     1      -4.933   6.298  -3.490  1.00  0.00    -0.354 N 
ATOM     40  C   UNL     1       0.365   8.050  -2.806  1.00  0.00     0.074 A 
ATOM     41  C   UNL     1       0.943   6.733  -2.938  1.00  0.00     0.031 C 
ATOM     42  C   UNL     1      -4.914   8.255  -4.539  1.00  0.00     0.029 A 
ATOM     43  C   UNL     1      -5.741   7.406  -3.683  1.00  0.00     0.049 A 
ATOM     44  H   UNL     1      -5.248   5.379  -3.335  1.00  0.00     0.167 HD
ATOM     45  C   UNL     1       0.766   9.277  -3.245  1.00  0.00     0.037 A 
ATOM     46  C   UNL     1      -6.504   7.784  -2.617  1.00  0.00     0.037 A 
ATOM     47  C   UNL     1      -0.392  10.155  -3.393  1.00  0.00     0.049 A 
ATOM     48  C   UNL     1      -5.947   9.048  -2.015  1.00  0.00     0.074 A 
ATOM     49  C   UNL     1      -1.172  10.440  -4.503  1.00  0.00     0.029 A 
ATOM     50  N   UNL     1      -1.149  10.514  -2.282  1.00  0.00    -0.354 N 
ATOM     51  N   UNL     1      -4.707   9.433  -2.152  1.00  0.00    -0.248 NA
ATOM     52  C   UNL     1      -6.757  10.005  -1.274  1.00  0.00     0.031 C 
ATOM     53  C   UNL     1      -2.427  10.915  -4.053  1.00  0.00     0.029 A 
ATOM     54  C   UNL     1      -2.414  10.920  -2.669  1.00  0.00     0.049 A 
ATOM     55  H   UNL     1      -0.829  10.483  -1.351  1.00  0.00     0.167 HD
ATOM     56  C   UNL     1      -4.556  10.678  -1.611  1.00  0.00     0.074 A 
ATOM     57  C   UNL     1      -5.864  10.987  -1.058  1.00  0.00     0.031 C 
ATOM     58  C   UNL     1      -3.384  11.373  -1.686  1.00  0.00     0.037 A 
BRANCH  45  59
ATOM     59  C   UNL     1       2.105   9.517  -3.897  1.00  0.00     0.057 A 
ATOM     60  C   UNL     1       2.250  10.375  -5.004  1.00  0.00     0.134 A 
ATOM     61  C   UNL     1       3.300   8.924  -3.452  1.00  0.00     0.134 A 
ATOM     62  F   UNL     1       1.217  11.059  -5.510  1.00  0.00    -0.206 F 
ATOM     63  C   UNL     1       3.470  10.576  -5.660  1.00  0.00     0.040 A 
ATOM     64  C   UNL     1       4.526   9.096  -4.116  1.00  0.00     0.040 A 
ATOM     65  F   UNL     1       3.325   8.169  -2.343  1.00  0.00    -0.206 F 
ATOM     66  C   UNL     1       4.612   9.921  -5.229  1.00  0.00     0.006 A 
ENDBRANCH  45  59
BRANCH  46  67
ATOM     67  C   UNL     1      -7.082   6.616  -1.861  1.00  0.00     0.057 A 
ATOM     68  C   UNL     1      -7.925   5.721  -2.557  1.00  0.00     0.134 A 
ATOM     69  C   UNL     1      -6.595   6.167  -0.629  1.00  0.00     0.134 A 
ATOM     70  F   UNL     1      -8.432   6.068  -3.751  1.00  0.00    -0.206 F 
ATOM     71  C   UNL     1      -8.187   4.420  -2.107  1.00  0.00     0.040 A 
ATOM     72  C   UNL     1      -6.868   4.869  -0.157  1.00  0.00     0.040 A 
ATOM     73  F   UNL     1      -5.778   6.933   0.106  1.00  0.00    -0.206 F 
ATOM     74  C   UNL     1      -7.635   3.981  -0.911  1.00  0.00     0.006 A 
ENDBRANCH  46  67
BRANCH  58  75
ATOM     75  C   UNL     1      -3.070  12.626  -0.920  1.00  0.00     0.057 A 
ATOM     76  C   UNL     1      -3.592  12.909   0.346  1.00  0.00     0.134 A 
ATOM     77  C   UNL     1      -2.073  13.515  -1.382  1.00  0.00     0.134 A 
ATOM     78  F   UNL     1      -4.460  12.085   0.949  1.00  0.00    -0.206 F 
ATOM     79  C   UNL     1      -3.195  14.031   1.079  1.00  0.00     0.040 A 
ATOM     80  C   UNL     1      -1.620  14.597  -0.629  1.00  0.00     0.040 A 
ATOM     81  F   UNL     1      -1.472  13.355  -2.571  1.00  0.00    -0.206 F 
ATOM     82  C   UNL     1      -2.195  14.869   0.600  1.00  0.00     0.006 A 
ENDBRANCH  58  75
ENDBRANCH  32  33
ENDBRANCH  25  27
ENDBRANCH  24  25
ENDBRANCH  23  24
ENDBRANCH   1  23
TORSDOF 14
