REMARK SMILES COc1ccc(-c2ccc(S(=O)(=O)NC(C)(C)C)cc2)c(C(=O)OCCOC(=O)c2ccc(-c3c4nc(c(-c5c(F)cccc5F)c5ccc([nH]5)c(-c5c(F)cccc5F)c5nc(c(-c6c(F)cccc6F)c6ccc3[nH]6)C=C5)C=C4)cc2)c1
REMARK SMILES IDX 25 1 24 2 22 3 23 4 21 5 3 6 4 7 84 8 5 9 6 10 2 11 1 12
REMARK SMILES IDX 7 13 8 14 20 15 9 16 19 17 10 18 11 19 12 20 13 21 14 22
REMARK SMILES IDX 15 24 16 25 17 26 18 27 26 28 27 29 28 30 29 31 30 32 31 33
REMARK SMILES IDX 83 34 32 35 82 36 33 37 34 38 35 39 76 40 36 41 81 42 75 43
REMARK SMILES IDX 77 44 37 45 80 46 74 47 73 48 38 50 64 51 47 52 63 53 48 54
REMARK SMILES IDX 51 55 62 56 78 57 49 58 50 59 61 61 79 62 52 63 39 64 40 65
REMARK SMILES IDX 45 66 41 67 42 68 44 69 46 70 43 71 65 72 66 73 71 74 67 75
REMARK SMILES IDX 68 76 70 77 72 78 69 79 53 80 54 81 59 82 55 83 56 84 58 85
REMARK SMILES IDX 60 86 57 87
REMARK H PARENT 14 23 77 49 51 60
REMARK Flexibility Score: inf
ROOT
ATOM      1  C   UNL     1       6.062  -1.018   3.111  1.00  0.00     0.275 C 
ENDROOT
BRANCH   1   2
ATOM      2  O   UNL     1       4.736  -0.456   3.011  1.00  0.00    -0.458 OA
BRANCH   2   3
ATOM      3  C   UNL     1       3.754  -1.129   3.667  1.00  0.00     0.339 C 
ATOM      4  O   UNL     1       3.880  -2.176   4.278  1.00  0.00    -0.246 OA
BRANCH   3   5
ATOM      5  C   UNL     1       2.453  -0.439   3.489  1.00  0.00     0.071 A 
ATOM      6  C   UNL     1       0.832   0.418   1.903  1.00  0.00     0.119 A 
ATOM      7  C   UNL     1      -0.026   0.707   2.964  1.00  0.00     0.047 A 
ATOM      8  C   UNL     1       2.080  -0.135   2.168  1.00  0.00     0.062 A 
ATOM      9  C   UNL     1       0.347   0.426   4.285  1.00  0.00     0.013 A 
ATOM     10  C   UNL     1       1.588  -0.159   4.574  1.00  0.00    -0.004 A 
BRANCH   6  11
ATOM     11  O   UNL     1       0.368   0.733   0.655  1.00  0.00    -0.497 OA
ATOM     12  C   UNL     1       0.902  -0.051  -0.410  1.00  0.00     0.278 C 
ENDBRANCH   6  11
BRANCH  10  13
ATOM     13  C   UNL     1       2.001  -0.320   5.975  1.00  0.00    -0.017 A 
ATOM     14  C   UNL     1       2.184  -1.905   6.750  1.00  0.00     0.010 A 
ATOM     15  C   UNL     1       2.706   1.107   6.824  1.00  0.00     0.010 A 
ATOM     16  C   UNL     1       3.035  -2.152   8.310  1.00  0.00     0.022 A 
ATOM     17  C   UNL     1       3.724   0.791   8.540  1.00  0.00     0.022 A 
ATOM     18  C   UNL     1       3.801  -0.847   9.220  1.00  0.00     0.082 A 
BRANCH  18  19
ATOM     19  S   UNL     1       4.295  -1.052  10.913  1.00  0.00     0.241 S 
ATOM     20  O   UNL     1       3.110  -1.157  11.723  1.00  0.00    -0.207 OA
ATOM     21  O   UNL     1       5.269  -2.124  10.880  1.00  0.00    -0.207 OA
BRANCH  19  22
ATOM     22  N   UNL     1       5.202   0.300  11.390  1.00  0.00    -0.206 NA
ATOM     23  H   UNL     1       5.592   0.658  10.518  1.00  0.00     0.141 HD
BRANCH  22  24
ATOM     24  C   UNL     1       4.775   1.539  12.140  1.00  0.00     0.025 C 
ATOM     25  C   UNL     1       3.769   1.318  13.268  1.00  0.00     0.028 C 
ATOM     26  C   UNL     1       6.069   2.148  12.727  1.00  0.00     0.028 C 
ATOM     27  C   UNL     1       4.220   2.615  11.221  1.00  0.00     0.028 C 
ENDBRANCH  22  24
ENDBRANCH  19  22
ENDBRANCH  18  19
ENDBRANCH  10  13
ENDBRANCH   3   5
ENDBRANCH   2   3
ENDBRANCH   1   2
BRANCH   1  28
ATOM     28  C   UNL     1       6.946  -0.157   4.009  1.00  0.00     0.275 C 
BRANCH  28  29
ATOM     29  O   UNL     1       6.354  -0.071   5.318  1.00  0.00    -0.458 OA
BRANCH  29  30
ATOM     30  C   UNL     1       5.704   1.089   5.535  1.00  0.00     0.338 C 
ATOM     31  O   UNL     1       5.703   2.083   4.824  1.00  0.00    -0.246 OA
BRANCH  30  32
ATOM     32  C   UNL     1       4.845   1.032   6.716  1.00  0.00     0.060 A 
ATOM     33  C   UNL     1       3.833  -0.404   7.080  1.00  0.00     0.016 A 
ATOM     34  C   UNL     1       4.312   2.589   7.337  1.00  0.00     0.016 A 
ATOM     35  C   UNL     1       2.123  -0.124   8.122  1.00  0.00     0.010 A 
ATOM     36  C   UNL     1       2.829   2.798   8.312  1.00  0.00     0.010 A 
ATOM     37  C   UNL     1       1.695   1.495   8.767  1.00  0.00    -0.014 A 
BRANCH  37  38
ATOM     38  C   UNL     1       0.761   1.585  10.035  1.00  0.00     0.031 A 
ATOM     39  C   UNL     1       0.581   2.909  10.776  1.00  0.00     0.074 A 
ATOM     40  C   UNL     1       0.261   0.509  10.715  1.00  0.00     0.049 A 
ATOM     41  N   UNL     1       0.329   3.145  12.046  1.00  0.00    -0.248 NA
ATOM     42  C   UNL     1       0.731   4.133   9.987  1.00  0.00     0.031 C 
ATOM     43  C   UNL     1       0.096  -0.864  10.256  1.00  0.00     0.029 A 
ATOM     44  N   UNL     1      -0.098   0.392  12.058  1.00  0.00    -0.354 N 
ATOM     45  C   UNL     1       0.352   4.528  12.194  1.00  0.00     0.074 A 
ATOM     46  C   UNL     1       0.823   5.058  10.932  1.00  0.00     0.031 C 
ATOM     47  C   UNL     1      -0.007  -1.705  11.293  1.00  0.00     0.029 A 
ATOM     48  C   UNL     1      -0.110  -0.921  12.508  1.00  0.00     0.049 A 
ATOM     49  H   UNL     1      -0.321   1.162  12.629  1.00  0.00     0.167 HD
ATOM     50  C   UNL     1      -0.096   5.310  13.213  1.00  0.00     0.037 A 
ATOM     51  C   UNL     1      -0.240  -1.486  13.727  1.00  0.00     0.037 A 
ATOM     52  C   UNL     1      -0.748   4.818  14.402  1.00  0.00     0.049 A 
ATOM     53  C   UNL     1      -0.680  -0.643  14.877  1.00  0.00     0.074 A 
ATOM     54  C   UNL     1      -1.421   5.541  15.376  1.00  0.00     0.029 A 
ATOM     55  N   UNL     1      -0.834   3.487  14.773  1.00  0.00    -0.354 N 
ATOM     56  N   UNL     1      -0.759   0.658  14.955  1.00  0.00    -0.248 NA
ATOM     57  C   UNL     1      -1.178  -1.353  16.066  1.00  0.00     0.031 C 
ATOM     58  C   UNL     1      -1.876   4.652  16.357  1.00  0.00     0.029 A 
ATOM     59  C   UNL     1      -1.527   3.371  15.970  1.00  0.00     0.049 A 
ATOM     60  H   UNL     1      -0.458   2.734  14.262  1.00  0.00     0.167 HD
ATOM     61  C   UNL     1      -1.409   0.921  16.151  1.00  0.00     0.074 A 
ATOM     62  C   UNL     1      -1.663  -0.353  16.788  1.00  0.00     0.031 C 
ATOM     63  C   UNL     1      -1.801   2.123  16.633  1.00  0.00     0.037 A 
BRANCH  50  64
ATOM     64  C   UNL     1       0.003   6.808  13.045  1.00  0.00     0.057 A 
ATOM     65  C   UNL     1      -0.707   7.492  12.046  1.00  0.00     0.134 A 
ATOM     66  C   UNL     1       0.775   7.583  13.920  1.00  0.00     0.134 A 
ATOM     67  F   UNL     1      -1.484   6.821  11.181  1.00  0.00    -0.206 F 
ATOM     68  C   UNL     1      -0.596   8.873  11.878  1.00  0.00     0.040 A 
ATOM     69  C   UNL     1       0.857   8.973  13.791  1.00  0.00     0.040 A 
ATOM     70  F   UNL     1       1.454   7.009  14.925  1.00  0.00    -0.206 F 
ATOM     71  C   UNL     1       0.184   9.619  12.756  1.00  0.00     0.006 A 
ENDBRANCH  50  64
BRANCH  51  72
ATOM     72  C   UNL     1      -0.120  -2.962  13.893  1.00  0.00     0.057 A 
ATOM     73  C   UNL     1      -1.251  -3.788  13.902  1.00  0.00     0.134 A 
ATOM     74  C   UNL     1       1.126  -3.576  14.061  1.00  0.00     0.134 A 
ATOM     75  F   UNL     1      -2.475  -3.255  13.775  1.00  0.00    -0.206 F 
ATOM     76  C   UNL     1      -1.151  -5.169  14.083  1.00  0.00     0.040 A 
ATOM     77  C   UNL     1       1.242  -4.960  14.223  1.00  0.00     0.040 A 
ATOM     78  F   UNL     1       2.247  -2.843  14.100  1.00  0.00    -0.206 F 
ATOM     79  C   UNL     1       0.101  -5.761  14.238  1.00  0.00     0.006 A 
ENDBRANCH  51  72
BRANCH  63  80
ATOM     80  C   UNL     1      -2.624   2.126  17.885  1.00  0.00     0.057 A 
ATOM     81  C   UNL     1      -2.090   1.785  19.134  1.00  0.00     0.134 A 
ATOM     82  C   UNL     1      -3.981   2.474  17.837  1.00  0.00     0.134 A 
ATOM     83  F   UNL     1      -0.804   1.419  19.247  1.00  0.00    -0.206 F 
ATOM     84  C   UNL     1      -2.882   1.762  20.284  1.00  0.00     0.040 A 
ATOM     85  C   UNL     1      -4.775   2.485  18.984  1.00  0.00     0.040 A 
ATOM     86  F   UNL     1      -4.559   2.809  16.673  1.00  0.00    -0.206 F 
ATOM     87  C   UNL     1      -4.227   2.120  20.211  1.00  0.00     0.006 A 
ENDBRANCH  63  80
ENDBRANCH  37  38
ENDBRANCH  30  32
ENDBRANCH  29  30
ENDBRANCH  28  29
ENDBRANCH   1  28
TORSDOF 16
