REMARK SMILES C[C@@H](c1ccccc1)[C@@H]1[NH2+][C@@H](C(=O)OCCOC(=O)c2ccc(-c3c4nc(c(-c5c(F)cccc5F)c5ccc([nH]5)c(-c5c(F)cccc5F)c5nc(c(-c6c(F)cccc6F)c6ccc3[nH]6)C=C5)C=C4)cc2)CS1
REMARK SMILES IDX 15 1 14 2 12 3 13 4 11 5 9 6 10 7 75 8 74 11 2 12 1 13 3 14
REMARK SMILES IDX 4 15 8 16 5 17 7 18 6 19 16 20 17 21 18 22 19 23 20 24 21 25
REMARK SMILES IDX 73 26 22 27 72 28 23 29 24 30 25 31 66 32 26 33 71 34 65 35
REMARK SMILES IDX 67 36 27 37 70 38 64 39 63 40 28 42 54 43 37 44 53 45 38 46
REMARK SMILES IDX 41 47 52 48 68 49 39 50 40 51 51 53 69 54 42 55 29 56 30 57
REMARK SMILES IDX 35 58 31 59 32 60 34 61 36 62 33 63 55 64 56 65 61 66 57 67
REMARK SMILES IDX 58 68 60 69 62 70 59 71 43 72 44 73 49 74 45 75 46 76 48 77
REMARK SMILES IDX 50 78 47 79
REMARK H PARENT 10 9 10 10 67 41 41 52
REMARK Flexibility Score: inf
ROOT
ATOM      1  C   UNL     1      -4.192  -4.887   2.849  1.00  0.00     0.274 C 
ENDROOT
BRANCH   1   2
ATOM      2  O   UNL     1      -2.968  -4.325   2.333  1.00  0.00    -0.458 OA
BRANCH   2   3
ATOM      3  C   UNL     1      -3.027  -3.022   1.942  1.00  0.00     0.365 C 
ATOM      4  O   UNL     1      -4.045  -2.337   1.923  1.00  0.00    -0.245 OA
BRANCH   3   5
ATOM      5  C   UNL     1      -1.644  -2.500   1.526  1.00  0.00     0.304 C 
ATOM      6  C   UNL     1      -0.793  -0.465   0.522  1.00  0.00     0.249 C 
ATOM      7  N   UNL     1      -1.659  -1.005   1.573  1.00  0.00    -0.322 N 
ATOM      8  S   UNL     1      -1.052  -1.567  -0.899  1.00  0.00    -0.092 SA
ATOM      9  H   UNL     1      -2.613  -0.672   1.430  1.00  0.00     0.348 HD
ATOM     10  H   UNL     1      -1.318  -0.694   2.482  1.00  0.00     0.348 HD
ATOM     11  C   UNL     1      -1.293  -3.025   0.137  1.00  0.00     0.153 C 
BRANCH   6  12
ATOM     12  C   UNL     1       0.693  -0.316   0.980  1.00  0.00     0.085 C 
ATOM     13  C   UNL     1       1.655  -0.022  -0.186  1.00  0.00     0.020 C 
BRANCH  12  14
ATOM     14  C   UNL     1       0.857   0.770   2.048  1.00  0.00    -0.038 A 
ATOM     15  C   UNL     1       1.219   0.418   3.358  1.00  0.00     0.004 A 
ATOM     16  C   UNL     1       0.685   2.132   1.746  1.00  0.00     0.004 A 
ATOM     17  C   UNL     1       1.411   1.401   4.334  1.00  0.00     0.000 A 
ATOM     18  C   UNL     1       0.878   3.111   2.724  1.00  0.00     0.000 A 
ATOM     19  C   UNL     1       1.242   2.746   4.017  1.00  0.00     0.000 A 
ENDBRANCH  12  14
ENDBRANCH   6  12
ENDBRANCH   3   5
ENDBRANCH   2   3
ENDBRANCH   1   2
BRANCH   1  20
ATOM     20  C   UNL     1      -4.159  -5.001   4.377  1.00  0.00     0.275 C 
BRANCH  20  21
ATOM     21  O   UNL     1      -4.105  -3.709   5.012  1.00  0.00    -0.458 OA
BRANCH  21  22
ATOM     22  C   UNL     1      -2.857  -3.254   5.273  1.00  0.00     0.338 C 
ATOM     23  O   UNL     1      -1.802  -3.837   5.062  1.00  0.00    -0.246 OA
BRANCH  22  24
ATOM     24  C   UNL     1      -2.914  -1.852   5.715  1.00  0.00     0.060 A 
ATOM     25  C   UNL     1      -2.175  -0.923   4.982  1.00  0.00     0.016 A 
ATOM     26  C   UNL     1      -3.615  -1.453   6.855  1.00  0.00     0.016 A 
ATOM     27  C   UNL     1      -2.138   0.412   5.369  1.00  0.00     0.010 A 
ATOM     28  C   UNL     1      -3.560  -0.113   7.260  1.00  0.00     0.010 A 
ATOM     29  C   UNL     1      -2.812   0.824   6.522  1.00  0.00    -0.014 A 
BRANCH  29  30
ATOM     30  C   UNL     1      -2.645   2.220   6.989  1.00  0.00     0.031 A 
ATOM     31  C   UNL     1      -1.697   2.517   8.113  1.00  0.00     0.074 A 
ATOM     32  C   UNL     1      -3.285   3.224   6.364  1.00  0.00     0.049 A 
ATOM     33  N   UNL     1      -1.427   3.659   8.691  1.00  0.00    -0.248 NA
ATOM     34  C   UNL     1      -0.950   1.373   8.657  1.00  0.00     0.031 C 
ATOM     35  C   UNL     1      -4.170   3.073   5.210  1.00  0.00     0.029 A 
ATOM     36  N   UNL     1      -3.275   4.575   6.607  1.00  0.00    -0.354 N 
ATOM     37  C   UNL     1      -0.500   3.370   9.683  1.00  0.00     0.074 A 
ATOM     38  C   UNL     1      -0.258   1.943   9.633  1.00  0.00     0.031 C 
ATOM     39  C   UNL     1      -4.605   4.287   4.833  1.00  0.00     0.029 A 
ATOM     40  C   UNL     1      -4.065   5.293   5.744  1.00  0.00     0.049 A 
ATOM     41  H   UNL     1      -2.751   4.989   7.330  1.00  0.00     0.167 HD
ATOM     42  C   UNL     1       0.095   4.217  10.557  1.00  0.00     0.037 A 
ATOM     43  C   UNL     1      -4.333   6.611   5.706  1.00  0.00     0.037 A 
ATOM     44  C   UNL     1      -0.130   5.638  10.592  1.00  0.00     0.049 A 
ATOM     45  C   UNL     1      -3.716   7.521   6.732  1.00  0.00     0.074 A 
ATOM     46  C   UNL     1       0.436   6.582  11.432  1.00  0.00     0.029 A 
ATOM     47  N   UNL     1      -0.993   6.320   9.748  1.00  0.00    -0.354 N 
ATOM     48  N   UNL     1      -2.855   7.236   7.679  1.00  0.00    -0.248 NA
ATOM     49  C   UNL     1      -4.121   8.934   6.692  1.00  0.00     0.031 C 
ATOM     50  C   UNL     1      -0.114   7.831  11.120  1.00  0.00     0.029 A 
ATOM     51  C   UNL     1      -0.993   7.670  10.062  1.00  0.00     0.049 A 
ATOM     52  H   UNL     1      -1.528   5.907   9.032  1.00  0.00     0.167 HD
ATOM     53  C   UNL     1      -2.599   8.434   8.333  1.00  0.00     0.074 A 
ATOM     54  C   UNL     1      -3.388   9.451   7.669  1.00  0.00     0.031 C 
ATOM     55  C   UNL     1      -1.782   8.670   9.389  1.00  0.00     0.037 A 
BRANCH  42  56
ATOM     56  C   UNL     1       1.013   3.611  11.575  1.00  0.00     0.057 A 
ATOM     57  C   UNL     1       2.286   3.135  11.241  1.00  0.00     0.134 A 
ATOM     58  C   UNL     1       0.611   3.502  12.913  1.00  0.00     0.134 A 
ATOM     59  F   UNL     1       2.723   3.194   9.974  1.00  0.00    -0.206 F 
ATOM     60  C   UNL     1       3.117   2.545  12.196  1.00  0.00     0.040 A 
ATOM     61  C   UNL     1       1.441   2.935  13.880  1.00  0.00     0.040 A 
ATOM     62  F   UNL     1      -0.596   3.941  13.299  1.00  0.00    -0.206 F 
ATOM     63  C   UNL     1       2.696   2.447  13.521  1.00  0.00     0.006 A 
ENDBRANCH  42  56
BRANCH  43  64
ATOM     64  C   UNL     1      -5.239   7.153   4.664  1.00  0.00     0.057 A 
ATOM     65  C   UNL     1      -4.748   7.953   3.627  1.00  0.00     0.134 A 
ATOM     66  C   UNL     1      -6.614   6.890   4.683  1.00  0.00     0.134 A 
ATOM     67  F   UNL     1      -3.444   8.261   3.571  1.00  0.00    -0.206 F 
ATOM     68  C   UNL     1      -5.593   8.478   2.648  1.00  0.00     0.040 A 
ATOM     69  C   UNL     1      -7.467   7.390   3.699  1.00  0.00     0.040 A 
ATOM     70  F   UNL     1      -7.146   6.133   5.654  1.00  0.00    -0.206 F 
ATOM     71  C   UNL     1      -6.956   8.191   2.679  1.00  0.00     0.006 A 
ENDBRANCH  43  64
BRANCH  55  72
ATOM     72  C   UNL     1      -1.679  10.087   9.870  1.00  0.00     0.057 A 
ATOM     73  C   UNL     1      -2.703  10.690  10.610  1.00  0.00     0.134 A 
ATOM     74  C   UNL     1      -0.528  10.844   9.617  1.00  0.00     0.134 A 
ATOM     75  F   UNL     1      -3.836  10.023  10.873  1.00  0.00    -0.206 F 
ATOM     76  C   UNL     1      -2.593  12.005  11.067  1.00  0.00     0.040 A 
ATOM     77  C   UNL     1      -0.398  12.151  10.086  1.00  0.00     0.040 A 
ATOM     78  F   UNL     1       0.491  10.321   8.918  1.00  0.00    -0.206 F 
ATOM     79  C   UNL     1      -1.434  12.737  10.810  1.00  0.00     0.006 A 
ENDBRANCH  55  72
ENDBRANCH  29  30
ENDBRANCH  22  24
ENDBRANCH  21  22
ENDBRANCH  20  21
ENDBRANCH   1  20
TORSDOF 13
