REMARK SMILES CCOc1cc(OCC)cc(-c2ccc([C@@H](C)C(=O)OCCOC(=O)c3ccc(-c4c5nc(c(-c6c(F)cccc6F)c6ccc([nH]6)c(-c6c(F)cccc6F)c6nc(c(-c7c(F)cccc7F)c7ccc4[nH]7)C=C6)C=C5)cc3)cc2)c1
REMARK SMILES IDX 21 1 20 2 18 3 19 4 16 5 17 6 15 7 12 8 13 9 81 10 14 11
REMARK SMILES IDX 80 12 11 13 4 14 5 15 82 16 6 17 10 18 3 19 2 20 1 21 7 22
REMARK SMILES IDX 8 23 9 24 22 25 23 26 24 27 25 28 26 29 27 30 79 31 28 32
REMARK SMILES IDX 78 33 29 34 30 35 31 36 72 37 32 38 77 39 71 40 73 41 33 42
REMARK SMILES IDX 76 43 70 44 69 45 34 47 60 48 43 49 59 50 44 51 47 52 58 53
REMARK SMILES IDX 74 54 45 55 46 56 57 58 75 59 48 60 35 61 36 62 41 63 37 64
REMARK SMILES IDX 38 65 40 66 42 67 39 68 61 69 62 70 67 71 63 72 64 73 66 74
REMARK SMILES IDX 68 75 65 76 49 77 50 78 55 79 51 80 52 81 54 82 56 83 53 84
REMARK H PARENT 73 46 47 57
REMARK Flexibility Score: inf
ROOT
ATOM      1  C   UNL     1       8.184  -0.038  -4.582  1.00  0.00     0.274 C 
ENDROOT
BRANCH   1   2
ATOM      2  O   UNL     1       8.221   0.769  -3.391  1.00  0.00    -0.462 OA
BRANCH   2   3
ATOM      3  C   UNL     1       8.473   2.094  -3.547  1.00  0.00     0.313 C 
ATOM      4  O   UNL     1       8.766   2.623  -4.615  1.00  0.00    -0.252 OA
BRANCH   3   5
ATOM      5  C   UNL     1       8.402   2.884  -2.244  1.00  0.00     0.126 C 
ATOM      6  C   UNL     1       9.802   3.066  -1.663  1.00  0.00     0.025 C 
BRANCH   5   7
ATOM      7  C   UNL     1       7.409   2.360  -1.218  1.00  0.00    -0.034 A 
ATOM      8  C   UNL     1       5.540   1.417   0.694  1.00  0.00    -0.018 A 
ATOM      9  C   UNL     1       6.703   0.691   0.399  1.00  0.00     0.009 A 
ATOM     10  C   UNL     1       5.319   2.616   0.008  1.00  0.00     0.009 A 
ATOM     11  C   UNL     1       7.628   1.156  -0.536  1.00  0.00     0.005 A 
ATOM     12  C   UNL     1       6.242   3.084  -0.931  1.00  0.00     0.005 A 
BRANCH   8  13
ATOM     13  C   UNL     1       4.609   0.938   1.724  1.00  0.00    -0.011 A 
ATOM     14  C   UNL     1       2.392   0.278   2.449  1.00  0.00     0.123 A 
ATOM     15  C   UNL     1       2.883  -0.020   3.720  1.00  0.00     0.092 A 
ATOM     16  C   UNL     1       3.243   0.775   1.463  1.00  0.00     0.055 A 
ATOM     17  C   UNL     1       4.236   0.163   4.010  1.00  0.00     0.123 A 
ATOM     18  C   UNL     1       5.085   0.635   3.010  1.00  0.00     0.055 A 
BRANCH  14  19
ATOM     19  O   UNL     1       1.043   0.181   2.240  1.00  0.00    -0.494 OA
BRANCH  19  20
ATOM     20  C   UNL     1       0.682  -0.829   1.290  1.00  0.00     0.226 C 
ATOM     21  C   UNL     1       0.473  -0.243  -0.098  1.00  0.00     0.049 C 
ENDBRANCH  19  20
ENDBRANCH  14  19
BRANCH  17  22
ATOM     22  O   UNL     1       4.625  -0.169   5.280  1.00  0.00    -0.494 OA
BRANCH  22  23
ATOM     23  C   UNL     1       5.872   0.353   5.749  1.00  0.00     0.226 C 
ATOM     24  C   UNL     1       7.015  -0.614   5.480  1.00  0.00     0.049 C 
ENDBRANCH  22  23
ENDBRANCH  17  22
ENDBRANCH   8  13
ENDBRANCH   5   7
ENDBRANCH   3   5
ENDBRANCH   2   3
ENDBRANCH   1   2
BRANCH   1  25
ATOM     25  C   UNL     1       6.741  -0.304  -5.007  1.00  0.00     0.275 C 
BRANCH  25  26
ATOM     26  O   UNL     1       6.115   0.920  -5.433  1.00  0.00    -0.458 OA
BRANCH  26  27
ATOM     27  C   UNL     1       5.178   1.423  -4.597  1.00  0.00     0.338 C 
ATOM     28  O   UNL     1       4.748   0.940  -3.567  1.00  0.00    -0.246 OA
BRANCH  27  29
ATOM     29  C   UNL     1       4.775   2.744  -5.097  1.00  0.00     0.060 A 
ATOM     30  C   UNL     1       5.374   3.879  -4.549  1.00  0.00     0.016 A 
ATOM     31  C   UNL     1       3.772   2.861  -6.058  1.00  0.00     0.016 A 
ATOM     32  C   UNL     1       4.967   5.147  -4.953  1.00  0.00     0.010 A 
ATOM     33  C   UNL     1       3.381   4.133  -6.483  1.00  0.00     0.010 A 
ATOM     34  C   UNL     1       3.971   5.284  -5.929  1.00  0.00    -0.014 A 
BRANCH  34  35
ATOM     35  C   UNL     1       3.548   6.633  -6.371  1.00  0.00     0.031 A 
ATOM     36  C   UNL     1       2.204   7.169  -5.975  1.00  0.00     0.074 A 
ATOM     37  C   UNL     1       4.377   7.373  -7.130  1.00  0.00     0.049 A 
ATOM     38  N   UNL     1       1.614   8.276  -6.349  1.00  0.00    -0.248 NA
ATOM     39  C   UNL     1       1.420   6.353  -5.037  1.00  0.00     0.031 C 
ATOM     40  C   UNL     1       5.723   6.974  -7.545  1.00  0.00     0.029 A 
ATOM     41  N   UNL     1       4.205   8.611  -7.694  1.00  0.00    -0.354 N 
ATOM     42  C   UNL     1       0.383   8.281  -5.708  1.00  0.00     0.074 A 
ATOM     43  C   UNL     1       0.303   7.061  -4.933  1.00  0.00     0.031 C 
ATOM     44  C   UNL     1       6.254   7.950  -8.299  1.00  0.00     0.029 A 
ATOM     45  C   UNL     1       5.269   9.015  -8.462  1.00  0.00     0.049 A 
ATOM     46  H   UNL     1       3.397   9.157  -7.561  1.00  0.00     0.167 HD
ATOM     47  C   UNL     1      -0.590   9.222  -5.763  1.00  0.00     0.037 A 
ATOM     48  C   UNL     1       5.419  10.103  -9.240  1.00  0.00     0.037 A 
ATOM     49  C   UNL     1      -0.500  10.440  -6.525  1.00  0.00     0.049 A 
ATOM     50  C   UNL     1       4.295  11.094  -9.342  1.00  0.00     0.074 A 
ATOM     51  C   UNL     1      -1.420  11.470  -6.617  1.00  0.00     0.029 A 
ATOM     52  N   UNL     1       0.574  10.790  -7.329  1.00  0.00    -0.354 N 
ATOM     53  N   UNL     1       3.134  11.090  -8.733  1.00  0.00    -0.248 NA
ATOM     54  C   UNL     1       4.494  12.230 -10.252  1.00  0.00     0.031 C 
ATOM     55  C   UNL     1      -0.921  12.424  -7.512  1.00  0.00     0.029 A 
ATOM     56  C   UNL     1       0.326  12.005  -7.947  1.00  0.00     0.049 A 
ATOM     57  H   UNL     1       1.391  10.254  -7.445  1.00  0.00     0.167 HD
ATOM     58  C   UNL     1       2.467  12.222  -9.181  1.00  0.00     0.074 A 
ATOM     59  C   UNL     1       3.361  12.901 -10.096  1.00  0.00     0.031 C 
ATOM     60  C   UNL     1       1.223  12.658  -8.866  1.00  0.00     0.037 A 
BRANCH  47  61
ATOM     61  C   UNL     1      -1.851   8.956  -4.997  1.00  0.00     0.057 A 
ATOM     62  C   UNL     1      -1.907   9.065  -3.602  1.00  0.00     0.134 A 
ATOM     63  C   UNL     1      -3.033   8.619  -5.669  1.00  0.00     0.134 A 
ATOM     64  F   UNL     1      -0.806   9.370  -2.899  1.00  0.00    -0.206 F 
ATOM     65  C   UNL     1      -3.092   8.831  -2.900  1.00  0.00     0.040 A 
ATOM     66  C   UNL     1      -4.228   8.403  -4.980  1.00  0.00     0.040 A 
ATOM     67  F   UNL     1      -3.047   8.502  -7.005  1.00  0.00    -0.206 F 
ATOM     68  C   UNL     1      -4.258   8.505  -3.591  1.00  0.00     0.006 A 
ENDBRANCH  47  61
BRANCH  48  69
ATOM     69  C   UNL     1       6.670  10.290 -10.014  1.00  0.00     0.057 A 
ATOM     70  C   UNL     1       7.586  11.293  -9.679  1.00  0.00     0.134 A 
ATOM     71  C   UNL     1       6.979   9.470 -11.107  1.00  0.00     0.134 A 
ATOM     72  F   UNL     1       7.333  12.124  -8.658  1.00  0.00    -0.206 F 
ATOM     73  C   UNL     1       8.762  11.479 -10.407  1.00  0.00     0.040 A 
ATOM     74  C   UNL     1       8.162   9.630 -11.829  1.00  0.00     0.040 A 
ATOM     75  F   UNL     1       6.139   8.492 -11.478  1.00  0.00    -0.206 F 
ATOM     76  C   UNL     1       9.056  10.640 -11.482  1.00  0.00     0.006 A 
ENDBRANCH  48  69
BRANCH  60  77
ATOM     77  C   UNL     1       0.762  13.926  -9.517  1.00  0.00     0.057 A 
ATOM     78  C   UNL     1       0.369  13.957 -10.861  1.00  0.00     0.134 A 
ATOM     79  C   UNL     1       0.681  15.119  -8.789  1.00  0.00     0.134 A 
ATOM     80  F   UNL     1       0.439  12.850 -11.616  1.00  0.00    -0.206 F 
ATOM     81  C   UNL     1      -0.073  15.136 -11.463  1.00  0.00     0.040 A 
ATOM     82  C   UNL     1       0.221  16.299  -9.374  1.00  0.00     0.040 A 
ATOM     83  F   UNL     1       1.038  15.154  -7.497  1.00  0.00    -0.206 F 
ATOM     84  C   UNL     1      -0.154  16.311 -10.717  1.00  0.00     0.006 A 
ENDBRANCH  60  77
ENDBRANCH  34  35
ENDBRANCH  27  29
ENDBRANCH  26  27
ENDBRANCH  25  26
ENDBRANCH   1  25
TORSDOF 17
