REMARK SMILES CC(C)CC1(CNc2ccnc(C(=O)OCCOC(=O)c3ccc(-c4c5nc(c(-c6c(F)cccc6F)c6ccc([nH]6)c(-c6c(F)cccc6F)c6nc(c(-c7c(F)cccc7F)c7ccc4[nH]7)C=C6)C=C5)cc3)c2)CCCC1
REMARK SMILES IDX 15 1 13 2 14 3 12 4 8 5 9 6 75 7 10 8 11 9 7 10 6 12 5 13
REMARK SMILES IDX 76 14 79 15 77 16 78 17 4 18 2 19 1 20 3 21 16 22 17 23
REMARK SMILES IDX 18 24 19 25 20 26 21 27 22 28 74 29 23 30 73 31 24 32 25 33
REMARK SMILES IDX 26 34 67 35 27 36 72 37 66 38 68 39 28 40 71 41 65 42 64 43
REMARK SMILES IDX 29 45 55 46 38 47 54 48 39 49 42 50 53 51 69 52 40 53 41 54
REMARK SMILES IDX 52 56 70 57 43 58 30 59 31 60 36 61 32 62 33 63 35 64 37 65
REMARK SMILES IDX 34 66 56 67 57 68 62 69 58 70 59 71 61 72 63 73 60 74 44 75
REMARK SMILES IDX 45 76 50 77 46 78 47 79 49 80 51 81 48 82
REMARK H PARENT 7 11 68 44 42 55
REMARK Flexibility Score: inf
ROOT
ATOM      1  O   UNL     1      -1.370  -5.060  -0.545  1.00  0.00    -0.457 OA
ENDROOT
BRANCH   1   2
ATOM      2  C   UNL     1      -0.898  -5.230   0.723  1.00  0.00     0.357 C 
ATOM      3  O   UNL     1      -0.624  -6.300   1.237  1.00  0.00    -0.244 OA
BRANCH   2   4
ATOM      4  C   UNL     1      -0.679  -3.904   1.387  1.00  0.00     0.150 A 
ATOM      5  C   UNL     1      -1.136  -1.562   1.672  1.00  0.00     0.038 A 
ATOM      6  C   UNL     1      -0.067  -1.519   2.564  1.00  0.00     0.046 A 
ATOM      7  C   UNL     1      -1.436  -2.786   1.063  1.00  0.00     0.061 A 
ATOM      8  C   UNL     1       0.617  -2.686   2.854  1.00  0.00     0.114 A 
ATOM      9  N   UNL     1       0.323  -3.878   2.304  1.00  0.00    -0.249 NA
BRANCH   5  10
ATOM     10  N   UNL     1      -1.856  -0.441   1.306  1.00  0.00    -0.384 N 
ATOM     11  H   UNL     1      -2.813  -0.555   1.105  1.00  0.00     0.160 HD
BRANCH  10  12
ATOM     12  C   UNL     1      -1.293   0.898   1.199  1.00  0.00     0.119 C 
BRANCH  12  13
ATOM     13  C   UNL     1      -1.458   1.461  -0.246  1.00  0.00    -0.012 C 
ATOM     14  C   UNL     1      -0.889   2.890  -0.347  1.00  0.00     0.009 C 
ATOM     15  C   UNL     1      -2.955   1.750  -0.538  1.00  0.00     0.009 C 
ATOM     16  C   UNL     1      -1.937   3.800   0.290  1.00  0.00     0.001 C 
ATOM     17  C   UNL     1      -3.265   3.054   0.192  1.00  0.00     0.001 C 
BRANCH  13  18
ATOM     18  C   UNL     1      -0.874   0.516  -1.338  1.00  0.00     0.012 C 
BRANCH  18  19
ATOM     19  C   UNL     1       0.647   0.535  -1.623  1.00  0.00    -0.017 C 
ATOM     20  C   UNL     1       1.542   0.204  -0.433  1.00  0.00     0.007 C 
ATOM     21  C   UNL     1       0.951  -0.457  -2.755  1.00  0.00     0.007 C 
ENDBRANCH  18  19
ENDBRANCH  13  18
ENDBRANCH  12  13
ENDBRANCH  10  12
ENDBRANCH   5  10
ENDBRANCH   2   4
ENDBRANCH   1   2
BRANCH   1  22
ATOM     22  C   UNL     1      -1.523  -6.266  -1.320  1.00  0.00     0.275 C 
BRANCH  22  23
ATOM     23  C   UNL     1      -0.360  -6.481  -2.294  1.00  0.00     0.275 C 
BRANCH  23  24
ATOM     24  O   UNL     1       0.878  -6.735  -1.605  1.00  0.00    -0.458 OA
BRANCH  24  25
ATOM     25  C   UNL     1       1.704  -5.669  -1.497  1.00  0.00     0.338 C 
ATOM     26  O   UNL     1       1.530  -4.549  -1.952  1.00  0.00    -0.246 OA
BRANCH  25  27
ATOM     27  C   UNL     1       2.841  -6.000  -0.624  1.00  0.00     0.060 A 
ATOM     28  C   UNL     1       2.886  -5.386   0.626  1.00  0.00     0.016 A 
ATOM     29  C   UNL     1       3.897  -6.806  -1.050  1.00  0.00     0.016 A 
ATOM     30  C   UNL     1       3.984  -5.561   1.461  1.00  0.00     0.010 A 
ATOM     31  C   UNL     1       5.003  -6.989  -0.207  1.00  0.00     0.010 A 
ATOM     32  C   UNL     1       5.060  -6.356   1.050  1.00  0.00    -0.014 A 
BRANCH  32  33
ATOM     33  C   UNL     1       6.255  -6.465   1.925  1.00  0.00     0.031 A 
ATOM     34  C   UNL     1       7.535  -5.778   1.541  1.00  0.00     0.074 A 
ATOM     35  C   UNL     1       6.178  -7.137   3.090  1.00  0.00     0.049 A 
ATOM     36  N   UNL     1       8.700  -5.804   2.139  1.00  0.00    -0.248 NA
ATOM     37  C   UNL     1       7.503  -4.952   0.324  1.00  0.00     0.031 C 
ATOM     38  C   UNL     1       4.981  -7.808   3.600  1.00  0.00     0.029 A 
ATOM     39  N   UNL     1       7.126  -7.363   4.057  1.00  0.00    -0.354 N 
ATOM     40  C   UNL     1       9.546  -5.029   1.356  1.00  0.00     0.074 A 
ATOM     41  C   UNL     1       8.763  -4.548   0.238  1.00  0.00     0.031 C 
ATOM     42  C   UNL     1       5.266  -8.367   4.788  1.00  0.00     0.029 A 
ATOM     43  C   UNL     1       6.674  -8.136   5.099  1.00  0.00     0.049 A 
ATOM     44  H   UNL     1       8.042  -7.006   4.008  1.00  0.00     0.167 HD
ATOM     45  C   UNL     1      10.855  -4.745   1.555  1.00  0.00     0.037 A 
ATOM     46  C   UNL     1       7.327  -8.626   6.170  1.00  0.00     0.037 A 
ATOM     47  C   UNL     1      11.623  -5.189   2.688  1.00  0.00     0.049 A 
ATOM     48  C   UNL     1       8.787  -8.316   6.351  1.00  0.00     0.074 A 
ATOM     49  C   UNL     1      12.949  -4.923   2.988  1.00  0.00     0.029 A 
ATOM     50  N   UNL     1      11.134  -5.985   3.712  1.00  0.00    -0.354 N 
ATOM     51  N   UNL     1       9.575  -7.585   5.601  1.00  0.00    -0.248 NA
ATOM     52  C   UNL     1       9.450  -8.905   7.524  1.00  0.00     0.031 C 
ATOM     53  C   UNL     1      13.271  -5.588   4.176  1.00  0.00     0.029 A 
ATOM     54  C   UNL     1      12.136  -6.236   4.634  1.00  0.00     0.049 A 
ATOM     55  H   UNL     1      10.211  -6.322   3.774  1.00  0.00     0.167 HD
ATOM     56  C   UNL     1      10.820  -7.614   6.217  1.00  0.00     0.074 A 
ATOM     57  C   UNL     1      10.678  -8.418   7.413  1.00  0.00     0.031 C 
ATOM     58  C   UNL     1      11.978  -7.032   5.823  1.00  0.00     0.037 A 
BRANCH  45  59
ATOM     59  C   UNL     1      11.558  -3.935   0.507  1.00  0.00     0.057 A 
ATOM     60  C   UNL     1      11.374  -2.553   0.390  1.00  0.00     0.134 A 
ATOM     61  C   UNL     1      12.479  -4.544  -0.356  1.00  0.00     0.134 A 
ATOM     62  F   UNL     1      10.499  -1.913   1.179  1.00  0.00    -0.206 F 
ATOM     63  C   UNL     1      12.075  -1.804  -0.558  1.00  0.00     0.040 A 
ATOM     64  C   UNL     1      13.200  -3.803  -1.293  1.00  0.00     0.040 A 
ATOM     65  F   UNL     1      12.704  -5.865  -0.289  1.00  0.00    -0.206 F 
ATOM     66  C   UNL     1      12.997  -2.429  -1.397  1.00  0.00     0.006 A 
ENDBRANCH  45  59
BRANCH  46  67
ATOM     67  C   UNL     1       6.616  -9.499   7.138  1.00  0.00     0.057 A 
ATOM     68  C   UNL     1       6.347  -9.074   8.443  1.00  0.00     0.134 A 
ATOM     69  C   UNL     1       6.212 -10.793   6.784  1.00  0.00     0.134 A 
ATOM     70  F   UNL     1       6.734  -7.856   8.850  1.00  0.00    -0.206 F 
ATOM     71  C   UNL     1       5.716  -9.909   9.367  1.00  0.00     0.040 A 
ATOM     72  C   UNL     1       5.558 -11.628   7.689  1.00  0.00     0.040 A 
ATOM     73  F   UNL     1       6.444 -11.260   5.548  1.00  0.00    -0.206 F 
ATOM     74  C   UNL     1       5.315 -11.189   8.988  1.00  0.00     0.006 A 
ENDBRANCH  46  67
BRANCH  58  75
ATOM     75  C   UNL     1      13.174  -7.221   6.707  1.00  0.00     0.057 A 
ATOM     76  C   UNL     1      13.868  -8.436   6.753  1.00  0.00     0.134 A 
ATOM     77  C   UNL     1      13.656  -6.167   7.492  1.00  0.00     0.134 A 
ATOM     78  F   UNL     1      13.448  -9.488   6.034  1.00  0.00    -0.206 F 
ATOM     79  C   UNL     1      14.991  -8.602   7.566  1.00  0.00     0.040 A 
ATOM     80  C   UNL     1      14.790  -6.314   8.292  1.00  0.00     0.040 A 
ATOM     81  F   UNL     1      13.040  -4.975   7.486  1.00  0.00    -0.206 F 
ATOM     82  C   UNL     1      15.458  -7.537   8.334  1.00  0.00     0.006 A 
ENDBRANCH  58  75
ENDBRANCH  32  33
ENDBRANCH  25  27
ENDBRANCH  24  25
ENDBRANCH  23  24
ENDBRANCH  22  23
ENDBRANCH   1  22
TORSDOF 16
