REMARK SMILES COc1ccc(CSc2ncccc2C(=O)OCCOC(=O)c2ccc(-c3c4nc(c(-c5c(F)cccc5F)c5ccc([nH]5)c(-c5c(F)cccc5F)c5nc(c(-c6c(F)cccc6F)c6ccc3[nH]6)C=C5)C=C4)cc2)cc1
REMARK SMILES IDX 18 1 17 2 15 3 16 4 14 5 9 6 10 7 11 8 13 9 12 10 8 11 7 12
REMARK SMILES IDX 6 13 3 14 4 15 78 16 5 17 77 18 2 19 1 20 19 21 20 22 21 23
REMARK SMILES IDX 22 24 23 25 24 26 76 27 25 28 75 29 26 30 27 31 28 32 69 33
REMARK SMILES IDX 29 34 74 35 68 36 70 37 30 38 73 39 67 40 66 41 31 43 57 44
REMARK SMILES IDX 40 45 56 46 41 47 44 48 55 49 71 50 42 51 43 52 54 54 72 55
REMARK SMILES IDX 45 56 32 57 33 58 38 59 34 60 35 61 37 62 39 63 36 64 58 65
REMARK SMILES IDX 59 66 64 67 60 68 61 69 63 70 65 71 62 72 46 73 47 74 52 75
REMARK SMILES IDX 48 76 49 77 51 78 53 79 50 80
REMARK H PARENT 70 42 44 53
REMARK Flexibility Score: inf
ROOT
ATOM      1  C   UNL     1       6.554  -3.354   7.048  1.00  0.00     0.275 C 
ENDROOT
BRANCH   1   2
ATOM      2  O   UNL     1       5.889  -2.085   7.203  1.00  0.00    -0.458 OA
BRANCH   2   3
ATOM      3  C   UNL     1       5.116  -1.665   6.175  1.00  0.00     0.341 C 
ATOM      4  O   UNL     1       4.953  -2.241   5.106  1.00  0.00    -0.246 OA
BRANCH   3   5
ATOM      5  C   UNL     1       4.610  -0.319   6.466  1.00  0.00     0.092 A 
ATOM      6  C   UNL     1       3.278   0.087   6.416  1.00  0.00     0.111 A 
ATOM      7  N   UNL     1       2.954   1.389   6.682  1.00  0.00    -0.249 NA
ATOM      8  C   UNL     1       3.912   2.275   7.016  1.00  0.00     0.112 A 
ATOM      9  C   UNL     1       5.594   0.634   6.809  1.00  0.00     0.020 A 
ATOM     10  C   UNL     1       5.242   1.944   7.104  1.00  0.00     0.021 A 
BRANCH   6  11
ATOM     11  S   UNL     1       1.762  -0.826   6.365  1.00  0.00    -0.101 SA
BRANCH  11  12
ATOM     12  C   UNL     1       1.889  -2.285   5.287  1.00  0.00     0.112 C 
BRANCH  12  13
ATOM     13  C   UNL     1       1.431  -1.921   3.904  1.00  0.00    -0.037 A 
ATOM     14  C   UNL     1       0.618  -0.709   1.518  1.00  0.00     0.118 A 
ATOM     15  C   UNL     1      -0.324  -1.033   2.493  1.00  0.00     0.047 A 
ATOM     16  C   UNL     1       1.956  -1.065   1.704  1.00  0.00     0.047 A 
ATOM     17  C   UNL     1       0.072  -1.655   3.672  1.00  0.00     0.008 A 
ATOM     18  C   UNL     1       2.361  -1.672   2.894  1.00  0.00     0.008 A 
BRANCH  14  19
ATOM     19  O   UNL     1       0.119   0.013   0.470  1.00  0.00    -0.497 OA
ATOM     20  C   UNL     1       0.901   0.027  -0.714  1.00  0.00     0.278 C 
ENDBRANCH  14  19
ENDBRANCH  12  13
ENDBRANCH  11  12
ENDBRANCH   6  11
ENDBRANCH   3   5
ENDBRANCH   2   3
ENDBRANCH   1   2
BRANCH   1  21
ATOM     21  C   UNL     1       6.363  -4.201   8.307  1.00  0.00     0.275 C 
BRANCH  21  22
ATOM     22  O   UNL     1       4.963  -4.444   8.552  1.00  0.00    -0.458 OA
BRANCH  22  23
ATOM     23  C   UNL     1       4.376  -3.559   9.397  1.00  0.00     0.338 C 
ATOM     24  O   UNL     1       4.919  -2.655  10.008  1.00  0.00    -0.246 OA
BRANCH  23  25
ATOM     25  C   UNL     1       2.910  -3.721   9.344  1.00  0.00     0.060 A 
ATOM     26  C   UNL     1       2.159  -2.570   9.119  1.00  0.00     0.016 A 
ATOM     27  C   UNL     1       2.267  -4.947   9.527  1.00  0.00     0.016 A 
ATOM     28  C   UNL     1       0.772  -2.646   8.994  1.00  0.00     0.010 A 
ATOM     29  C   UNL     1       0.865  -5.016   9.445  1.00  0.00     0.010 A 
ATOM     30  C   UNL     1       0.112  -3.868   9.151  1.00  0.00    -0.014 A 
BRANCH  30  31
ATOM     31  C   UNL     1      -1.371  -3.869   9.132  1.00  0.00     0.031 A 
ATOM     32  C   UNL     1      -2.108  -3.540  10.396  1.00  0.00     0.074 A 
ATOM     33  C   UNL     1      -2.058  -4.048   7.988  1.00  0.00     0.049 A 
ATOM     34  N   UNL     1      -3.396  -3.493  10.618  1.00  0.00    -0.248 NA
ATOM     35  C   UNL     1      -1.276  -3.212  11.563  1.00  0.00     0.031 C 
ATOM     36  C   UNL     1      -1.462  -4.277   6.676  1.00  0.00     0.029 A 
ATOM     37  N   UNL     1      -3.410  -4.043   7.745  1.00  0.00    -0.354 N 
ATOM     38  C   UNL     1      -3.530  -3.139  11.953  1.00  0.00     0.074 A 
ATOM     39  C   UNL     1      -2.195  -2.987  12.490  1.00  0.00     0.031 C 
ATOM     40  C   UNL     1      -2.441  -4.372   5.759  1.00  0.00     0.029 A 
ATOM     41  C   UNL     1      -3.737  -4.275   6.430  1.00  0.00     0.049 A 
ATOM     42  H   UNL     1      -4.083  -3.889   8.447  1.00  0.00     0.167 HD
ATOM     43  C   UNL     1      -4.666  -2.967  12.670  1.00  0.00     0.037 A 
ATOM     44  C   UNL     1      -4.941  -4.429   5.843  1.00  0.00     0.037 A 
ATOM     45  C   UNL     1      -5.993  -3.140  12.142  1.00  0.00     0.049 A 
ATOM     46  C   UNL     1      -6.189  -4.346   6.687  1.00  0.00     0.074 A 
ATOM     47  C   UNL     1      -7.204  -3.035  12.804  1.00  0.00     0.029 A 
ATOM     48  N   UNL     1      -6.284  -3.462  10.825  1.00  0.00    -0.354 N 
ATOM     49  N   UNL     1      -6.310  -4.060   7.961  1.00  0.00    -0.248 NA
ATOM     50  C   UNL     1      -7.467  -4.629   6.015  1.00  0.00     0.031 C 
ATOM     51  C   UNL     1      -8.225  -3.347  11.900  1.00  0.00     0.029 A 
ATOM     52  C   UNL     1      -7.655  -3.586  10.660  1.00  0.00     0.049 A 
ATOM     53  H   UNL     1      -5.616  -3.585  10.112  1.00  0.00     0.167 HD
ATOM     54  C   UNL     1      -7.671  -4.109   8.238  1.00  0.00     0.074 A 
ATOM     55  C   UNL     1      -8.338  -4.435   6.995  1.00  0.00     0.031 C 
ATOM     56  C   UNL     1      -8.310  -3.907   9.417  1.00  0.00     0.037 A 
BRANCH  43  57
ATOM     57  C   UNL     1      -4.504  -2.644  14.125  1.00  0.00     0.057 A 
ATOM     58  C   UNL     1      -4.051  -1.395  14.566  1.00  0.00     0.134 A 
ATOM     59  C   UNL     1      -4.792  -3.610  15.097  1.00  0.00     0.134 A 
ATOM     60  F   UNL     1      -3.734  -0.435  13.684  1.00  0.00    -0.206 F 
ATOM     61  C   UNL     1      -3.861  -1.127  15.923  1.00  0.00     0.040 A 
ATOM     62  C   UNL     1      -4.634  -3.345  16.458  1.00  0.00     0.040 A 
ATOM     63  F   UNL     1      -5.229  -4.827  14.741  1.00  0.00    -0.206 F 
ATOM     64  C   UNL     1      -4.158  -2.103  16.873  1.00  0.00     0.006 A 
ENDBRANCH  43  57
BRANCH  44  65
ATOM     65  C   UNL     1      -5.037  -4.744   4.392  1.00  0.00     0.057 A 
ATOM     66  C   UNL     1      -5.639  -3.860   3.488  1.00  0.00     0.134 A 
ATOM     67  C   UNL     1      -4.570  -5.962   3.881  1.00  0.00     0.134 A 
ATOM     68  F   UNL     1      -6.141  -2.692   3.917  1.00  0.00    -0.206 F 
ATOM     69  C   UNL     1      -5.784  -4.180   2.135  1.00  0.00     0.040 A 
ATOM     70  C   UNL     1      -4.680  -6.282   2.527  1.00  0.00     0.040 A 
ATOM     71  F   UNL     1      -3.994  -6.861   4.693  1.00  0.00    -0.206 F 
ATOM     72  C   UNL     1      -5.297  -5.392   1.651  1.00  0.00     0.006 A 
ENDBRANCH  44  65
BRANCH  56  73
ATOM     73  C   UNL     1      -9.810  -3.995   9.418  1.00  0.00     0.057 A 
ATOM     74  C   UNL     1     -10.483  -5.217   9.284  1.00  0.00     0.134 A 
ATOM     75  C   UNL     1     -10.590  -2.847   9.606  1.00  0.00     0.134 A 
ATOM     76  F   UNL     1      -9.797  -6.354   9.090  1.00  0.00    -0.206 F 
ATOM     77  C   UNL     1     -11.877  -5.289   9.316  1.00  0.00     0.040 A 
ATOM     78  C   UNL     1     -11.983  -2.910   9.668  1.00  0.00     0.040 A 
ATOM     79  F   UNL     1     -10.011  -1.645   9.751  1.00  0.00    -0.206 F 
ATOM     80  C   UNL     1     -12.631  -4.134   9.517  1.00  0.00     0.006 A 
ENDBRANCH  56  73
ENDBRANCH  30  31
ENDBRANCH  23  25
ENDBRANCH  22  23
ENDBRANCH  21  22
ENDBRANCH   1  21
TORSDOF 15
