REMARK SMILES O=C(OCCOC(=O)c1nnn(-c2cccc(C(F)(F)F)c2)c1[C@@H]1COc2ccccc2O1)c1ccc(-c2c3nc(c(-c4c(F)cccc4F)c4ccc([nH]4)c(-c4c(F)cccc4F)c4nc(c(-c5c(F)cccc5F)c5ccc2[nH]5)C=C4)C=C3)cc1
REMARK SMILES IDX 4 1 3 2 2 3 1 4 34 5 35 6 87 7 36 8 86 9 37 10 38 11 39 12
REMARK SMILES IDX 80 13 40 14 85 15 79 16 81 17 41 18 84 19 78 20 77 21 42 23
REMARK SMILES IDX 68 24 51 25 67 26 52 27 55 28 66 29 82 30 53 31 54 32 65 34
REMARK SMILES IDX 83 35 56 36 43 37 44 38 49 39 45 40 46 41 48 42 50 43 47 44
REMARK SMILES IDX 69 45 70 46 75 47 71 48 72 49 74 50 76 51 73 52 57 53 58 54
REMARK SMILES IDX 63 55 59 56 60 57 62 58 64 59 61 60 5 61 6 62 7 63 8 64 9 65
REMARK SMILES IDX 10 66 23 67 11 68 12 69 24 70 25 71 33 72 26 73 32 74 27 75
REMARK SMILES IDX 31 76 28 77 30 78 29 79 13 80 14 81 22 82 15 83 17 84 16 85
REMARK SMILES IDX 18 86 19 87 20 88 21 89
REMARK H PARENT 81 22 55 33
REMARK Flexibility Score: inf
ROOT
ATOM      1  C   UNL     1       4.662   0.881  -0.878  1.00  0.00     0.275 C 
ENDROOT
BRANCH   1   2
ATOM      2  O   UNL     1       3.539   0.284  -1.558  1.00  0.00    -0.458 OA
BRANCH   2   3
ATOM      3  C   UNL     1       2.391   0.087  -0.875  1.00  0.00     0.338 C 
ATOM      4  O   UNL     1       1.431   0.837  -0.944  1.00  0.00    -0.246 OA
BRANCH   3   5
ATOM      5  C   UNL     1       2.348  -1.214  -0.160  1.00  0.00     0.060 A 
ATOM      6  C   UNL     1       3.459  -2.066  -0.093  1.00  0.00     0.016 A 
ATOM      7  C   UNL     1       1.132  -1.600   0.420  1.00  0.00     0.016 A 
ATOM      8  C   UNL     1       3.343  -3.317   0.489  1.00  0.00     0.010 A 
ATOM      9  C   UNL     1       1.010  -2.859   0.990  1.00  0.00     0.010 A 
ATOM     10  C   UNL     1       2.105  -3.728   0.976  1.00  0.00    -0.014 A 
BRANCH  10  11
ATOM     11  C   UNL     1       1.972  -5.120   1.393  1.00  0.00     0.031 A 
ATOM     12  C   UNL     1       2.574  -5.508   2.704  1.00  0.00     0.074 A 
ATOM     13  C   UNL     1       1.210  -5.959   0.663  1.00  0.00     0.049 A 
ATOM     14  N   UNL     1       3.310  -6.536   2.994  1.00  0.00    -0.248 NA
ATOM     15  C   UNL     1       2.346  -4.603   3.844  1.00  0.00     0.031 C 
ATOM     16  C   UNL     1       0.352  -5.618  -0.479  1.00  0.00     0.029 A 
ATOM     17  N   UNL     1       0.934  -7.274   0.872  1.00  0.00    -0.354 N 
ATOM     18  C   UNL     1       3.492  -6.505   4.379  1.00  0.00     0.074 A 
ATOM     19  C   UNL     1       2.960  -5.248   4.835  1.00  0.00     0.031 C 
ATOM     20  C   UNL     1      -0.519  -6.626  -0.694  1.00  0.00     0.029 A 
ATOM     21  C   UNL     1      -0.198  -7.718   0.207  1.00  0.00     0.049 A 
ATOM     22  H   UNL     1       1.487  -7.857   1.442  1.00  0.00     0.167 HD
ATOM     23  C   UNL     1       3.900  -7.593   5.091  1.00  0.00     0.037 A 
ATOM     24  C   UNL     1      -0.888  -8.855   0.456  1.00  0.00     0.037 A 
ATOM     25  C   UNL     1       4.621  -8.532   4.279  1.00  0.00     0.049 A 
ATOM     26  C   UNL     1      -0.011  -9.763   1.232  1.00  0.00     0.074 A 
ATOM     27  C   UNL     1       5.791  -8.490   3.546  1.00  0.00     0.029 A 
ATOM     28  N   UNL     1       4.001  -9.696   3.900  1.00  0.00    -0.354 N 
ATOM     29  N   UNL     1       1.060 -10.335   0.757  1.00  0.00    -0.248 NA
ATOM     30  C   UNL     1      -0.096  -9.705   2.684  1.00  0.00     0.031 C 
ATOM     31  C   UNL     1       5.558  -9.340   2.427  1.00  0.00     0.029 A 
ATOM     32  C   UNL     1       4.271  -9.860   2.567  1.00  0.00     0.049 A 
ATOM     33  H   UNL     1       3.468 -10.294   4.472  1.00  0.00     0.167 HD
ATOM     34  C   UNL     1       1.958 -10.347   1.815  1.00  0.00     0.074 A 
ATOM     35  C   UNL     1       1.159 -10.036   2.997  1.00  0.00     0.031 C 
ATOM     36  C   UNL     1       3.307 -10.332   1.604  1.00  0.00     0.037 A 
BRANCH  23  37
ATOM     37  C   UNL     1       3.369  -7.950   6.460  1.00  0.00     0.057 A 
ATOM     38  C   UNL     1       3.952  -9.008   7.183  1.00  0.00     0.134 A 
ATOM     39  C   UNL     1       2.130  -7.499   6.958  1.00  0.00     0.134 A 
ATOM     40  F   UNL     1       5.125  -9.538   6.805  1.00  0.00    -0.206 F 
ATOM     41  C   UNL     1       3.313  -9.619   8.270  1.00  0.00     0.040 A 
ATOM     42  C   UNL     1       1.505  -8.071   8.071  1.00  0.00     0.040 A 
ATOM     43  F   UNL     1       1.415  -6.550   6.341  1.00  0.00    -0.206 F 
ATOM     44  C   UNL     1       2.080  -9.156   8.712  1.00  0.00     0.006 A 
ENDBRANCH  23  37
BRANCH  24  45
ATOM     45  C   UNL     1      -2.354  -9.034   0.363  1.00  0.00     0.057 A 
ATOM     46  C   UNL     1      -2.933 -10.303   0.261  1.00  0.00     0.134 A 
ATOM     47  C   UNL     1      -3.241  -7.967   0.604  1.00  0.00     0.134 A 
ATOM     48  F   UNL     1      -2.165 -11.389   0.088  1.00  0.00    -0.206 F 
ATOM     49  C   UNL     1      -4.316 -10.501   0.385  1.00  0.00     0.040 A 
ATOM     50  C   UNL     1      -4.622  -8.147   0.717  1.00  0.00     0.040 A 
ATOM     51  F   UNL     1      -2.789  -6.723   0.822  1.00  0.00    -0.206 F 
ATOM     52  C   UNL     1      -5.164  -9.421   0.616  1.00  0.00     0.006 A 
ENDBRANCH  24  45
BRANCH  36  53
ATOM     53  C   UNL     1       3.800 -10.516   0.197  1.00  0.00     0.057 A 
ATOM     54  C   UNL     1       3.567  -9.582  -0.824  1.00  0.00     0.134 A 
ATOM     55  C   UNL     1       4.678 -11.564  -0.095  1.00  0.00     0.134 A 
ATOM     56  F   UNL     1       2.837  -8.484  -0.601  1.00  0.00    -0.206 F 
ATOM     57  C   UNL     1       4.142  -9.711  -2.091  1.00  0.00     0.040 A 
ATOM     58  C   UNL     1       5.286 -11.687  -1.347  1.00  0.00     0.040 A 
ATOM     59  F   UNL     1       5.005 -12.456   0.854  1.00  0.00    -0.206 F 
ATOM     60  C   UNL     1       5.011 -10.764  -2.354  1.00  0.00     0.006 A 
ENDBRANCH  36  53
ENDBRANCH  10  11
ENDBRANCH   3   5
ENDBRANCH   2   3
ENDBRANCH   1   2
BRANCH   1  61
ATOM     61  C   UNL     1       4.348   1.864   0.249  1.00  0.00     0.275 C 
BRANCH  61  62
ATOM     62  O   UNL     1       3.798   1.185   1.396  1.00  0.00    -0.457 OA
BRANCH  62  63
ATOM     63  C   UNL     1       2.657   1.733   1.923  1.00  0.00     0.361 C 
ATOM     64  O   UNL     1       2.093   2.724   1.476  1.00  0.00    -0.244 OA
BRANCH  63  65
ATOM     65  C   UNL     1       2.199   1.035   3.113  1.00  0.00     0.198 A 
ATOM     66  N   UNL     1       0.885   0.694   3.301  1.00  0.00    -0.122 NA
ATOM     67  C   UNL     1       2.942   0.598   4.203  1.00  0.00     0.123 A 
ATOM     68  N   UNL     1       0.784   0.060   4.460  1.00  0.00    -0.061 NA
ATOM     69  N   UNL     1       1.975   0.162   5.092  1.00  0.00    -0.213 N 
BRANCH  67  70
ATOM     70  C   UNL     1       4.425   0.470   4.372  1.00  0.00     0.262 C 
ATOM     71  C   UNL     1       4.909  -0.974   4.191  1.00  0.00     0.281 C 
ATOM     72  O   UNL     1       4.867   1.091   5.581  1.00  0.00    -0.477 OA
ATOM     73  O   UNL     1       4.616  -1.779   5.335  1.00  0.00    -0.485 OA
ATOM     74  C   UNL     1       5.281   0.214   6.550  1.00  0.00     0.162 A 
ATOM     75  C   UNL     1       5.115  -1.171   6.458  1.00  0.00     0.161 A 
ATOM     76  C   UNL     1       5.812   0.773   7.711  1.00  0.00     0.050 A 
ATOM     77  C   UNL     1       5.405  -1.988   7.547  1.00  0.00     0.050 A 
ATOM     78  C   UNL     1       6.135  -0.048   8.793  1.00  0.00     0.004 A 
ATOM     79  C   UNL     1       5.916  -1.425   8.717  1.00  0.00     0.004 A 
ENDBRANCH  67  70
BRANCH  69  80
ATOM     80  C   UNL     1       1.993   0.134   6.497  1.00  0.00     0.067 A 
ATOM     81  C   UNL     1       1.742  -1.065   7.167  1.00  0.00     0.028 A 
ATOM     82  C   UNL     1       2.220   1.324   7.202  1.00  0.00     0.041 A 
ATOM     83  C   UNL     1       1.817  -1.089   8.559  1.00  0.00     0.003 A 
ATOM     84  C   UNL     1       2.237   1.312   8.604  1.00  0.00     0.058 A 
ATOM     85  C   UNL     1       2.068   0.088   9.272  1.00  0.00     0.013 A 
BRANCH  84  86
ATOM     86  C   UNL     1       2.459   2.583   9.385  1.00  0.00     0.416 C 
ATOM     87  F   UNL     1       1.675   2.664  10.496  1.00  0.00    -0.166 F 
ATOM     88  F   UNL     1       3.743   2.709   9.823  1.00  0.00    -0.166 F 
ATOM     89  F   UNL     1       2.198   3.711   8.666  1.00  0.00    -0.166 F 
ENDBRANCH  84  86
ENDBRANCH  69  80
ENDBRANCH  63  65
ENDBRANCH  62  63
ENDBRANCH  61  62
ENDBRANCH   1  61
TORSDOF 14
