REMARK SMILES CC(C)CCn1cc(C(=O)OCCOC(=O)c2ccc(-c3c4nc(c(-c5c(F)cccc5F)c5ccc([nH]5)c(-c5c(F)cccc5F)c5nc(c(-c6c(F)cccc6F)c6ccc3[nH]6)C=C5)C=C4)cc2)c(-c2ccoc2)n1
REMARK SMILES IDX 12 1 11 2 9 3 10 4 8 5 6 6 7 7 77 8 71 9 5 10 4 11 2 12 1 13
REMARK SMILES IDX 3 14 72 15 73 16 76 17 74 18 75 19 13 20 14 21 15 22 16 23
REMARK SMILES IDX 17 24 18 25 70 26 19 27 69 28 20 29 21 30 22 31 63 32 23 33
REMARK SMILES IDX 68 34 62 35 64 36 24 37 67 38 61 39 60 40 25 42 51 43 34 44
REMARK SMILES IDX 50 45 35 46 38 47 49 48 65 49 36 50 37 51 48 53 66 54 39 55
REMARK SMILES IDX 26 56 27 57 32 58 28 59 29 60 31 61 33 62 30 63 52 64 53 65
REMARK SMILES IDX 58 66 54 67 55 68 57 69 59 70 56 71 40 72 41 73 46 74 42 75
REMARK SMILES IDX 43 76 45 77 47 78 44 79
REMARK H PARENT 64 41 38 52
REMARK Flexibility Score: inf
ROOT
ATOM      1  C   UNL     1      -0.172   5.386   5.627  1.00  0.00     0.275 C 
ENDROOT
BRANCH   1   2
ATOM      2  O   UNL     1      -0.398   4.242   4.783  1.00  0.00    -0.458 OA
BRANCH   2   3
ATOM      3  C   UNL     1       0.135   3.040   5.172  1.00  0.00     0.342 C 
ATOM      4  O   UNL     1       0.895   2.903   6.127  1.00  0.00    -0.246 OA
BRANCH   3   5
ATOM      5  C   UNL     1      -0.318   1.948   4.332  1.00  0.00     0.106 A 
ATOM      6  N   UNL     1      -1.187   0.846   2.633  1.00  0.00    -0.271 N 
ATOM      7  C   UNL     1      -1.034   2.093   3.154  1.00  0.00     0.125 A 
ATOM      8  N   UNL     1      -0.757  -0.124   3.449  1.00  0.00    -0.172 NA
ATOM      9  C   UNL     1      -0.230   0.539   4.487  1.00  0.00     0.110 A 
BRANCH   6  10
ATOM     10  C   UNL     1      -1.670   0.511   1.307  1.00  0.00     0.144 C 
BRANCH  10  11
ATOM     11  C   UNL     1      -1.008   1.331   0.192  1.00  0.00     0.027 C 
BRANCH  11  12
ATOM     12  C   UNL     1       0.535   1.308   0.194  1.00  0.00    -0.016 C 
ATOM     13  C   UNL     1       1.093  -0.088  -0.075  1.00  0.00     0.007 C 
ATOM     14  C   UNL     1       1.072   2.304  -0.834  1.00  0.00     0.007 C 
ENDBRANCH  11  12
ENDBRANCH  10  11
ENDBRANCH   6  10
BRANCH   9  15
ATOM     15  C   UNL     1       0.267  -0.202   5.637  1.00  0.00     0.041 A 
ATOM     16  C   UNL     1       1.605  -0.297   6.082  1.00  0.00     0.052 A 
ATOM     17  C   UNL     1      -0.472  -1.036   6.444  1.00  0.00     0.205 A 
ATOM     18  C   UNL     1       1.584  -1.165   7.153  1.00  0.00     0.195 A 
ATOM     19  O   UNL     1       0.320  -1.609   7.387  1.00  0.00    -0.472 OA
ENDBRANCH   9  15
ENDBRANCH   3   5
ENDBRANCH   2   3
ENDBRANCH   1   2
BRANCH   1  20
ATOM     20  C   UNL     1      -1.274   5.566   6.667  1.00  0.00     0.275 C 
BRANCH  20  21
ATOM     21  O   UNL     1      -1.150   4.609   7.717  1.00  0.00    -0.458 OA
BRANCH  21  22
ATOM     22  C   UNL     1      -1.803   3.455   7.469  1.00  0.00     0.338 C 
ATOM     23  O   UNL     1      -2.342   3.122   6.425  1.00  0.00    -0.246 OA
BRANCH  22  24
ATOM     24  C   UNL     1      -1.964   2.686   8.697  1.00  0.00     0.060 A 
ATOM     25  C   UNL     1      -2.441   1.384   8.535  1.00  0.00     0.016 A 
ATOM     26  C   UNL     1      -1.975   3.344   9.932  1.00  0.00     0.016 A 
ATOM     27  C   UNL     1      -3.129   0.807   9.572  1.00  0.00     0.010 A 
ATOM     28  C   UNL     1      -2.648   2.757  10.976  1.00  0.00     0.010 A 
ATOM     29  C   UNL     1      -3.296   1.542  10.749  1.00  0.00    -0.014 A 
BRANCH  29  30
ATOM     30  C   UNL     1      -4.114   0.948  11.788  1.00  0.00     0.031 A 
ATOM     31  C   UNL     1      -3.530  -0.309  12.327  1.00  0.00     0.074 A 
ATOM     32  C   UNL     1      -5.213   1.588  12.234  1.00  0.00     0.049 A 
ATOM     33  N   UNL     1      -4.095  -1.462  12.461  1.00  0.00    -0.248 NA
ATOM     34  C   UNL     1      -2.077  -0.321  12.599  1.00  0.00     0.031 C 
ATOM     35  C   UNL     1      -5.687   2.925  11.850  1.00  0.00     0.029 A 
ATOM     36  N   UNL     1      -6.075   1.241  13.225  1.00  0.00    -0.354 N 
ATOM     37  C   UNL     1      -3.125  -2.289  13.026  1.00  0.00     0.074 A 
ATOM     38  C   UNL     1      -1.873  -1.594  12.928  1.00  0.00     0.031 C 
ATOM     39  C   UNL     1      -6.570   3.369  12.771  1.00  0.00     0.029 A 
ATOM     40  C   UNL     1      -6.814   2.307  13.727  1.00  0.00     0.049 A 
ATOM     41  H   UNL     1      -6.168   0.319  13.558  1.00  0.00     0.167 HD
ATOM     42  C   UNL     1      -3.483  -3.357  13.785  1.00  0.00     0.037 A 
ATOM     43  C   UNL     1      -7.475   2.331  14.911  1.00  0.00     0.037 A 
ATOM     44  C   UNL     1      -4.797  -3.823  13.428  1.00  0.00     0.049 A 
ATOM     45  C   UNL     1      -7.640   0.923  15.356  1.00  0.00     0.074 A 
ATOM     46  C   UNL     1      -5.361  -4.337  12.278  1.00  0.00     0.029 A 
ATOM     47  N   UNL     1      -5.846  -3.446  14.229  1.00  0.00    -0.354 N 
ATOM     48  N   UNL     1      -8.406   0.060  14.747  1.00  0.00    -0.248 NA
ATOM     49  C   UNL     1      -6.582   0.349  16.174  1.00  0.00     0.031 C 
ATOM     50  C   UNL     1      -6.688  -3.818  12.252  1.00  0.00     0.029 A 
ATOM     51  C   UNL     1      -6.882  -3.072  13.415  1.00  0.00     0.049 A 
ATOM     52  H   UNL     1      -5.853  -3.445  15.213  1.00  0.00     0.167 HD
ATOM     53  C   UNL     1      -7.676  -1.122  14.748  1.00  0.00     0.074 A 
ATOM     54  C   UNL     1      -6.595  -0.902  15.706  1.00  0.00     0.031 C 
ATOM     55  C   UNL     1      -7.844  -2.053  13.763  1.00  0.00     0.037 A 
BRANCH  42  56
ATOM     56  C   UNL     1      -2.846  -3.650  15.124  1.00  0.00     0.057 A 
ATOM     57  C   UNL     1      -3.284  -4.774  15.847  1.00  0.00     0.134 A 
ATOM     58  C   UNL     1      -2.083  -2.724  15.868  1.00  0.00     0.134 A 
ATOM     59  F   UNL     1      -4.012  -5.733  15.255  1.00  0.00    -0.206 F 
ATOM     60  C   UNL     1      -3.079  -4.905  17.226  1.00  0.00     0.040 A 
ATOM     61  C   UNL     1      -1.835  -2.868  17.235  1.00  0.00     0.040 A 
ATOM     62  F   UNL     1      -1.616  -1.582  15.352  1.00  0.00    -0.206 F 
ATOM     63  C   UNL     1      -2.368  -3.941  17.927  1.00  0.00     0.006 A 
ENDBRANCH  42  56
BRANCH  43  64
ATOM     64  C   UNL     1      -7.620   3.485  15.828  1.00  0.00     0.057 A 
ATOM     65  C   UNL     1      -8.607   3.516  16.820  1.00  0.00     0.134 A 
ATOM     66  C   UNL     1      -6.633   4.487  15.909  1.00  0.00     0.134 A 
ATOM     67  F   UNL     1      -9.558   2.572  16.862  1.00  0.00    -0.206 F 
ATOM     68  C   UNL     1      -8.617   4.489  17.830  1.00  0.00     0.040 A 
ATOM     69  C   UNL     1      -6.635   5.468  16.905  1.00  0.00     0.040 A 
ATOM     70  F   UNL     1      -5.586   4.498  15.072  1.00  0.00    -0.206 F 
ATOM     71  C   UNL     1      -7.626   5.467  17.877  1.00  0.00     0.006 A 
ENDBRANCH  43  64
BRANCH  55  72
ATOM     72  C   UNL     1      -9.000  -1.870  12.818  1.00  0.00     0.057 A 
ATOM     73  C   UNL     1      -9.118  -0.798  11.919  1.00  0.00     0.134 A 
ATOM     74  C   UNL     1      -9.941  -2.897  12.705  1.00  0.00     0.134 A 
ATOM     75  F   UNL     1      -8.206   0.181  11.885  1.00  0.00    -0.206 F 
ATOM     76  C   UNL     1     -10.152  -0.735  10.980  1.00  0.00     0.040 A 
ATOM     77  C   UNL     1     -10.958  -2.863  11.749  1.00  0.00     0.040 A 
ATOM     78  F   UNL     1      -9.855  -3.982  13.491  1.00  0.00    -0.206 F 
ATOM     79  C   UNL     1     -11.072  -1.774  10.888  1.00  0.00     0.006 A 
ENDBRANCH  55  72
ENDBRANCH  29  30
ENDBRANCH  22  24
ENDBRANCH  21  22
ENDBRANCH  20  21
ENDBRANCH   1  20
TORSDOF 15
