REMARK SMILES CCCOc1cc(NC[C@H]2CC[C@@H](C(=O)OCCOC(=O)c3ccc(-c4c5nc(c(-c6c(F)cccc6F)c6ccc([nH]6)c(-c6c(F)cccc6F)c6nc(c(-c7c(F)cccc7F)c7ccc4[nH]7)C=C6)C=C5)cc3)O2)ncn1
REMARK SMILES IDX 14 1 15 2 13 3 10 4 11 5 76 6 12 7 9 8 8 9 7 11 5 12 6 13
REMARK SMILES IDX 79 14 78 15 77 16 4 17 3 18 2 19 1 20 16 21 17 22 18 23
REMARK SMILES IDX 19 24 20 25 21 26 22 27 23 28 75 29 24 30 74 31 25 32 26 33
REMARK SMILES IDX 27 34 68 35 28 36 73 37 67 38 69 39 29 40 72 41 66 42 65 43
REMARK SMILES IDX 30 45 56 46 39 47 55 48 40 49 43 50 54 51 70 52 41 53 42 54
REMARK SMILES IDX 53 56 71 57 44 58 31 59 32 60 37 61 33 62 34 63 36 64 38 65
REMARK SMILES IDX 35 66 57 67 58 68 63 69 59 70 60 71 62 72 64 73 61 74 45 75
REMARK SMILES IDX 46 76 51 77 47 78 48 79 50 80 52 81 49 82
REMARK H PARENT 8 10 69 44 43 55
REMARK Flexibility Score: inf
ROOT
ATOM      1  C   UNL     1       4.413   4.160  -2.854  1.00  0.00     0.335 C 
ATOM      2  O   UNL     1       5.010   5.006  -3.510  1.00  0.00    -0.249 OA
ENDROOT
BRANCH   1   3
ATOM      3  C   UNL     1       3.189   4.458  -1.984  1.00  0.00     0.228 C 
ATOM      4  C   UNL     1       2.776   4.466   0.329  1.00  0.00     0.138 C 
ATOM      5  C   UNL     1       2.418   5.841  -0.217  1.00  0.00     0.037 C 
ATOM      6  O   UNL     1       3.119   3.651  -0.809  1.00  0.00    -0.361 OA
ATOM      7  C   UNL     1       3.161   5.909  -1.528  1.00  0.00     0.047 C 
BRANCH   4   8
ATOM      8  C   UNL     1       3.924   4.353   1.352  1.00  0.00     0.146 C 
BRANCH   8   9
ATOM      9  N   UNL     1       4.998   5.313   1.145  1.00  0.00    -0.367 N 
ATOM     10  H   UNL     1       5.671   5.155   0.444  1.00  0.00     0.162 HD
BRANCH   9  11
ATOM     11  C   UNL     1       5.072   6.447   1.934  1.00  0.00     0.133 A 
ATOM     12  C   UNL     1       5.973   8.541   2.418  1.00  0.00     0.218 A 
ATOM     13  C   UNL     1       6.034   7.391   1.668  1.00  0.00     0.115 A 
ATOM     14  N   UNL     1       5.137   8.745   3.442  1.00  0.00    -0.202 NA
ATOM     15  C   UNL     1       4.302   7.731   3.674  1.00  0.00     0.228 A 
ATOM     16  N   UNL     1       4.208   6.605   2.951  1.00  0.00    -0.219 NA
BRANCH  12  17
ATOM     17  O   UNL     1       6.821   9.572   2.094  1.00  0.00    -0.478 OA
BRANCH  17  18
ATOM     18  C   UNL     1       6.120  10.557   1.318  1.00  0.00     0.231 C 
BRANCH  18  19
ATOM     19  C   UNL     1       6.301  10.280  -0.178  1.00  0.00     0.038 C 
ATOM     20  C   UNL     1       5.070   9.653  -0.822  1.00  0.00     0.007 C 
ENDBRANCH  18  19
ENDBRANCH  17  18
ENDBRANCH  12  17
ENDBRANCH   9  11
ENDBRANCH   8   9
ENDBRANCH   4   8
ENDBRANCH   1   3
BRANCH   1  21
ATOM     21  O   UNL     1       4.696   2.828  -2.861  1.00  0.00    -0.460 OA
BRANCH  21  22
ATOM     22  C   UNL     1       5.720   2.388  -3.769  1.00  0.00     0.274 C 
BRANCH  22  23
ATOM     23  C   UNL     1       5.113   1.810  -5.051  1.00  0.00     0.275 C 
BRANCH  23  24
ATOM     24  O   UNL     1       4.489   2.827  -5.860  1.00  0.00    -0.458 OA
BRANCH  24  25
ATOM     25  C   UNL     1       3.179   3.043  -5.606  1.00  0.00     0.338 C 
ATOM     26  O   UNL     1       2.473   2.456  -4.795  1.00  0.00    -0.246 OA
BRANCH  25  27
ATOM     27  C   UNL     1       2.707   4.223  -6.345  1.00  0.00     0.060 A 
ATOM     28  C   UNL     1       2.126   5.262  -5.611  1.00  0.00     0.016 A 
ATOM     29  C   UNL     1       2.765   4.288  -7.738  1.00  0.00     0.016 A 
ATOM     30  C   UNL     1       1.600   6.371  -6.261  1.00  0.00     0.010 A 
ATOM     31  C   UNL     1       2.234   5.404  -8.393  1.00  0.00     0.010 A 
ATOM     32  C   UNL     1       1.645   6.447  -7.658  1.00  0.00    -0.014 A 
BRANCH  32  33
ATOM     33  C   UNL     1       1.044   7.617  -8.337  1.00  0.00     0.031 A 
ATOM     34  C   UNL     1      -0.286   7.489  -9.017  1.00  0.00     0.074 A 
ATOM     35  C   UNL     1       1.686   8.799  -8.310  1.00  0.00     0.049 A 
ATOM     36  N   UNL     1      -0.945   8.378  -9.714  1.00  0.00    -0.248 NA
ATOM     37  C   UNL     1      -0.966   6.190  -8.894  1.00  0.00     0.031 C 
ATOM     38  C   UNL     1       2.961   9.051  -7.639  1.00  0.00     0.029 A 
ATOM     39  N   UNL     1       1.352  10.008  -8.865  1.00  0.00    -0.354 N 
ATOM     40  C   UNL     1      -2.107   7.744 -10.130  1.00  0.00     0.074 A 
ATOM     41  C   UNL     1      -2.060   6.391  -9.616  1.00  0.00     0.031 C 
ATOM     42  C   UNL     1       3.307  10.335  -7.828  1.00  0.00     0.029 A 
ATOM     43  C   UNL     1       2.301  10.980  -8.668  1.00  0.00     0.049 A 
ATOM     44  H   UNL     1       0.514  10.163  -9.357  1.00  0.00     0.167 HD
ATOM     45  C   UNL     1      -3.120   8.248 -10.874  1.00  0.00     0.037 A 
ATOM     46  C   UNL     1       2.367  12.239  -9.140  1.00  0.00     0.037 A 
ATOM     47  C   UNL     1      -3.168   9.599 -11.369  1.00  0.00     0.049 A 
ATOM     48  C   UNL     1       1.259  12.753 -10.015  1.00  0.00     0.074 A 
ATOM     49  C   UNL     1      -4.167  10.213 -12.105  1.00  0.00     0.029 A 
ATOM     50  N   UNL     1      -2.171  10.544 -11.181  1.00  0.00    -0.354 N 
ATOM     51  N   UNL     1       0.160  12.149 -10.396  1.00  0.00    -0.248 NA
ATOM     52  C   UNL     1       1.405  14.120 -10.534  1.00  0.00     0.031 C 
ATOM     53  C   UNL     1      -3.754  11.517 -12.399  1.00  0.00     0.029 A 
ATOM     54  C   UNL     1      -2.517  11.727 -11.812  1.00  0.00     0.049 A 
ATOM     55  H   UNL     1      -1.340  10.396 -10.675  1.00  0.00     0.167 HD
ATOM     56  C   UNL     1      -0.523  13.063 -11.187  1.00  0.00     0.074 A 
ATOM     57  C   UNL     1       0.278  14.270 -11.216  1.00  0.00     0.031 C 
ATOM     58  C   UNL     1      -1.705  12.917 -11.833  1.00  0.00     0.037 A 
BRANCH  45  59
ATOM     59  C   UNL     1      -4.247   7.324 -11.226  1.00  0.00     0.057 A 
ATOM     60  C   UNL     1      -5.217   6.948 -10.289  1.00  0.00     0.134 A 
ATOM     61  C   UNL     1      -4.382   6.837 -12.532  1.00  0.00     0.134 A 
ATOM     62  F   UNL     1      -5.135   7.370  -9.018  1.00  0.00    -0.206 F 
ATOM     63  C   UNL     1      -6.275   6.106 -10.636  1.00  0.00     0.040 A 
ATOM     64  C   UNL     1      -5.446   6.011 -12.896  1.00  0.00     0.040 A 
ATOM     65  F   UNL     1      -3.487   7.163 -13.476  1.00  0.00    -0.206 F 
ATOM     66  C   UNL     1      -6.395   5.641 -11.945  1.00  0.00     0.006 A 
ENDBRANCH  45  59
BRANCH  46  67
ATOM     67  C   UNL     1       3.544  13.085  -8.827  1.00  0.00     0.057 A 
ATOM     68  C   UNL     1       3.439  14.192  -7.980  1.00  0.00     0.134 A 
ATOM     69  C   UNL     1       4.802  12.809  -9.379  1.00  0.00     0.134 A 
ATOM     70  F   UNL     1       2.256  14.520  -7.440  1.00  0.00    -0.206 F 
ATOM     71  C   UNL     1       4.540  15.004  -7.700  1.00  0.00     0.040 A 
ATOM     72  C   UNL     1       5.916  13.597  -9.089  1.00  0.00     0.040 A 
ATOM     73  F   UNL     1       4.966  11.760 -10.198  1.00  0.00    -0.206 F 
ATOM     74  C   UNL     1       5.785  14.702  -8.251  1.00  0.00     0.006 A 
ENDBRANCH  46  67
BRANCH  58  75
ATOM     75  C   UNL     1      -2.206  14.095 -12.613  1.00  0.00     0.057 A 
ATOM     76  C   UNL     1      -1.645  14.452 -13.844  1.00  0.00     0.134 A 
ATOM     77  C   UNL     1      -3.285  14.855 -12.144  1.00  0.00     0.134 A 
ATOM     78  F   UNL     1      -0.600  13.771 -14.338  1.00  0.00    -0.206 F 
ATOM     79  C   UNL     1      -2.128  15.538 -14.576  1.00  0.00     0.040 A 
ATOM     80  C   UNL     1      -3.791  15.929 -12.877  1.00  0.00     0.040 A 
ATOM     81  F   UNL     1      -3.870  14.559 -10.974  1.00  0.00    -0.206 F 
ATOM     82  C   UNL     1      -3.209  16.276 -14.095  1.00  0.00     0.006 A 
ENDBRANCH  58  75
ENDBRANCH  32  33
ENDBRANCH  25  27
ENDBRANCH  24  25
ENDBRANCH  23  24
ENDBRANCH  22  23
ENDBRANCH  21  22
ENDBRANCH   1  21
TORSDOF 17
