REMARK SMILES CS(=O)(=O)c1ccc(/C=C(/C(=O)OCCOC(=O)c2ccc(-c3c4nc(c(-c5c(F)cccc5F)c5ccc([nH]5)c(-c5c(F)cccc5F)c5nc(c(-c6c(F)cccc6F)c6ccc3[nH]6)C=C5)C=C4)cc2)c2ccc(O)cc2)cc1
REMARK SMILES IDX 14 1 13 2 11 3 12 4 10 5 9 6 8 7 5 8 6 9 81 10 7 11 80 12
REMARK SMILES IDX 2 13 1 14 3 15 4 16 73 17 74 18 79 19 75 20 78 21 76 22
REMARK SMILES IDX 77 23 15 25 16 26 17 27 18 28 19 29 20 30 72 31 21 32 71 33
REMARK SMILES IDX 22 34 23 35 24 36 65 37 25 38 70 39 64 40 66 41 26 42 69 43
REMARK SMILES IDX 63 44 62 45 27 47 53 48 36 49 52 50 37 51 40 52 51 53 67 54
REMARK SMILES IDX 38 55 39 56 50 58 68 59 41 60 28 61 29 62 34 63 30 64 31 65
REMARK SMILES IDX 33 66 35 67 32 68 54 69 55 70 60 71 56 72 57 73 59 74 61 75
REMARK SMILES IDX 58 76 42 77 43 78 48 79 44 80 45 81 47 82 49 83 46 84
REMARK H PARENT 77 24 66 46 40 57
REMARK Flexibility Score: inf
ROOT
ATOM      1  C   UNL     1       3.251  -4.932  -9.298  1.00  0.00     0.275 C 
ENDROOT
BRANCH   1   2
ATOM      2  O   UNL     1       3.046  -4.575  -7.914  1.00  0.00    -0.458 OA
BRANCH   2   3
ATOM      3  C   UNL     1       1.906  -5.046  -7.345  1.00  0.00     0.338 C 
ATOM      4  O   UNL     1       1.067  -5.730  -7.914  1.00  0.00    -0.246 OA
BRANCH   3   5
ATOM      5  C   UNL     1       1.782  -4.653  -5.904  1.00  0.00     0.067 C 
ATOM      6  C   UNL     1       2.426  -3.561  -5.428  1.00  0.00     0.024 C 
BRANCH   6   7
ATOM      7  C   UNL     1       2.191  -2.957  -4.101  1.00  0.00    -0.025 A 
ATOM      8  C   UNL     1       1.264  -1.869  -1.698  1.00  0.00     0.067 A 
ATOM      9  C   UNL     1       1.800  -3.156  -1.711  1.00  0.00     0.021 A 
ATOM     10  C   UNL     1       1.269  -1.085  -2.854  1.00  0.00     0.021 A 
ATOM     11  C   UNL     1       2.291  -3.683  -2.906  1.00  0.00     0.009 A 
ATOM     12  C   UNL     1       1.737  -1.632  -4.052  1.00  0.00     0.009 A 
BRANCH   8  13
ATOM     13  S   UNL     1       0.476  -1.266  -0.225  1.00  0.00     0.175 S 
ATOM     14  C   UNL     1       1.196   0.324   0.069  1.00  0.00     0.163 C 
ATOM     15  O   UNL     1       0.882  -2.127   0.873  1.00  0.00    -0.224 OA
ATOM     16  O   UNL     1      -0.922  -1.079  -0.550  1.00  0.00    -0.224 OA
ENDBRANCH   8  13
ENDBRANCH   6   7
BRANCH   5  17
ATOM     17  C   UNL     1       0.860  -5.440  -5.053  1.00  0.00    -0.011 A 
ATOM     18  C   UNL     1       1.357  -6.530  -4.324  1.00  0.00     0.013 A 
ATOM     19  C   UNL     1      -0.485  -5.077  -4.902  1.00  0.00     0.013 A 
ATOM     20  C   UNL     1       0.531  -7.241  -3.454  1.00  0.00     0.047 A 
ATOM     21  C   UNL     1      -1.313  -5.789  -4.028  1.00  0.00     0.047 A 
ATOM     22  C   UNL     1      -0.796  -6.863  -3.311  1.00  0.00     0.115 A 
BRANCH  22  23
ATOM     23  O   UNL     1      -1.561  -7.577  -2.439  1.00  0.00    -0.508 OA
ATOM     24  H   UNL     1      -1.188  -8.296  -1.968  1.00  0.00     0.293 HD
ENDBRANCH  22  23
ENDBRANCH   5  17
ENDBRANCH   3   5
ENDBRANCH   2   3
ENDBRANCH   1   2
BRANCH   1  25
ATOM     25  C   UNL     1       4.261  -6.070  -9.415  1.00  0.00     0.275 C 
BRANCH  25  26
ATOM     26  O   UNL     1       3.704  -7.260  -8.828  1.00  0.00    -0.458 OA
BRANCH  26  27
ATOM     27  C   UNL     1       4.490  -7.908  -7.945  1.00  0.00     0.338 C 
ATOM     28  O   UNL     1       5.650  -7.644  -7.651  1.00  0.00    -0.246 OA
BRANCH  27  29
ATOM     29  C   UNL     1       3.743  -9.000  -7.299  1.00  0.00     0.060 A 
ATOM     30  C   UNL     1       2.523  -8.729  -6.687  1.00  0.00     0.016 A 
ATOM     31  C   UNL     1       4.337 -10.252  -7.135  1.00  0.00     0.016 A 
ATOM     32  C   UNL     1       1.980  -9.648  -5.792  1.00  0.00     0.010 A 
ATOM     33  C   UNL     1       3.732 -11.211  -6.310  1.00  0.00     0.010 A 
ATOM     34  C   UNL     1       2.587 -10.891  -5.560  1.00  0.00    -0.014 A 
BRANCH  34  35
ATOM     35  C   UNL     1       2.103 -11.768  -4.446  1.00  0.00     0.031 A 
ATOM     36  C   UNL     1       3.051 -12.190  -3.343  1.00  0.00     0.074 A 
ATOM     37  C   UNL     1       0.803 -12.114  -4.336  1.00  0.00     0.049 A 
ATOM     38  N   UNL     1       2.863 -13.043  -2.365  1.00  0.00    -0.248 NA
ATOM     39  C   UNL     1       4.388 -11.576  -3.343  1.00  0.00     0.031 C 
ATOM     40  C   UNL     1      -0.264 -11.726  -5.259  1.00  0.00     0.029 A 
ATOM     41  N   UNL     1       0.149 -12.839  -3.367  1.00  0.00    -0.354 N 
ATOM     42  C   UNL     1       4.073 -13.117  -1.682  1.00  0.00     0.074 A 
ATOM     43  C   UNL     1       4.990 -12.223  -2.355  1.00  0.00     0.031 C 
ATOM     44  C   UNL     1      -1.442 -12.139  -4.770  1.00  0.00     0.029 A 
ATOM     45  C   UNL     1      -1.211 -12.913  -3.556  1.00  0.00     0.049 A 
ATOM     46  H   UNL     1       0.611 -13.264  -2.609  1.00  0.00     0.167 HD
ATOM     47  C   UNL     1       4.396 -13.858  -0.595  1.00  0.00     0.037 A 
ATOM     48  C   UNL     1      -2.165 -13.556  -2.856  1.00  0.00     0.037 A 
ATOM     49  C   UNL     1       3.476 -14.691   0.134  1.00  0.00     0.049 A 
ATOM     50  C   UNL     1      -1.781 -14.390  -1.667  1.00  0.00     0.074 A 
ATOM     51  C   UNL     1       3.725 -15.507   1.225  1.00  0.00     0.029 A 
ATOM     52  N   UNL     1       2.119 -14.784  -0.131  1.00  0.00    -0.354 N 
ATOM     53  N   UNL     1      -0.605 -14.552  -1.112  1.00  0.00    -0.248 NA
ATOM     54  C   UNL     1      -2.858 -15.160  -1.025  1.00  0.00     0.031 C 
ATOM     55  C   UNL     1       2.521 -16.110   1.608  1.00  0.00     0.029 A 
ATOM     56  C   UNL     1       1.518 -15.642   0.777  1.00  0.00     0.049 A 
ATOM     57  H   UNL     1       1.651 -14.310  -0.856  1.00  0.00     0.167 HD
ATOM     58  C   UNL     1      -0.801 -15.433  -0.057  1.00  0.00     0.074 A 
ATOM     59  C   UNL     1      -2.213 -15.749  -0.029  1.00  0.00     0.031 C 
ATOM     60  C   UNL     1       0.112 -15.946   0.803  1.00  0.00     0.037 A 
BRANCH  47  61
ATOM     61  C   UNL     1       5.829 -13.834  -0.147  1.00  0.00     0.057 A 
ATOM     62  C   UNL     1       6.382 -12.744   0.535  1.00  0.00     0.134 A 
ATOM     63  C   UNL     1       6.659 -14.938  -0.385  1.00  0.00     0.134 A 
ATOM     64  F   UNL     1       5.645 -11.650   0.778  1.00  0.00    -0.206 F 
ATOM     65  C   UNL     1       7.717 -12.743   0.945  1.00  0.00     0.040 A 
ATOM     66  C   UNL     1       7.988 -14.958   0.040  1.00  0.00     0.040 A 
ATOM     67  F   UNL     1       6.189 -16.017  -1.028  1.00  0.00    -0.206 F 
ATOM     68  C   UNL     1       8.522 -13.855   0.703  1.00  0.00     0.006 A 
ENDBRANCH  47  61
BRANCH  48  69
ATOM     69  C   UNL     1      -3.585 -13.482  -3.288  1.00  0.00     0.057 A 
ATOM     70  C   UNL     1      -4.550 -12.840  -2.503  1.00  0.00     0.134 A 
ATOM     71  C   UNL     1      -4.016 -14.076  -4.480  1.00  0.00     0.134 A 
ATOM     72  F   UNL     1      -4.207 -12.280  -1.333  1.00  0.00    -0.206 F 
ATOM     73  C   UNL     1      -5.893 -12.802  -2.882  1.00  0.00     0.040 A 
ATOM     74  C   UNL     1      -5.349 -14.019  -4.887  1.00  0.00     0.040 A 
ATOM     75  F   UNL     1      -3.143 -14.713  -5.274  1.00  0.00    -0.206 F 
ATOM     76  C   UNL     1      -6.294 -13.387  -4.082  1.00  0.00     0.006 A 
ENDBRANCH  48  69
BRANCH  60  77
ATOM     77  C   UNL     1      -0.397 -16.880   1.860  1.00  0.00     0.057 A 
ATOM     78  C   UNL     1      -0.797 -18.188   1.557  1.00  0.00     0.134 A 
ATOM     79  C   UNL     1      -0.482 -16.469   3.196  1.00  0.00     0.134 A 
ATOM     80  F   UNL     1      -0.753 -18.636   0.294  1.00  0.00    -0.206 F 
ATOM     81  C   UNL     1      -1.292 -19.045   2.541  1.00  0.00     0.040 A 
ATOM     82  C   UNL     1      -0.954 -17.325   4.193  1.00  0.00     0.040 A 
ATOM     83  F   UNL     1      -0.108 -15.232   3.554  1.00  0.00    -0.206 F 
ATOM     84  C   UNL     1      -1.369 -18.614   3.865  1.00  0.00     0.006 A 
ENDBRANCH  60  77
ENDBRANCH  34  35
ENDBRANCH  27  29
ENDBRANCH  26  27
ENDBRANCH  25  26
ENDBRANCH   1  25
TORSDOF 15
