REMARK SMILES C[C@@H](C(=O)OCCOC(=O)c1ccc(-c2c3nc(c(-c4c(F)cccc4F)c4ccc([nH]4)c(-c4c(F)cccc4F)c4nc(c(-c5c(F)cccc5F)c5ccc2[nH]5)C=C4)C=C3)cc1)c1ccc2c3cc(Cl)ccc3n(C(=O)c3cocn3)c2c1
REMARK SMILES IDX 6 1 5 2 3 3 4 4 2 5 1 6 65 7 66 8 85 9 67 10 84 11 68 12
REMARK SMILES IDX 76 13 69 14 75 15 70 16 74 17 71 18 73 19 72 20 77 21 78 22
REMARK SMILES IDX 79 23 80 24 83 25 81 26 82 27 7 28 8 29 9 30 10 31 11 32
REMARK SMILES IDX 12 33 64 34 13 35 63 36 14 37 15 38 16 39 57 40 17 41 62 42
REMARK SMILES IDX 56 43 58 44 18 45 61 46 55 47 54 48 19 50 45 51 28 52 44 53
REMARK SMILES IDX 29 54 32 55 43 56 59 57 30 58 31 59 42 61 60 62 33 63 20 64
REMARK SMILES IDX 21 65 26 66 22 67 23 68 25 69 27 70 24 71 46 72 47 73 52 74
REMARK SMILES IDX 48 75 49 76 51 77 53 78 50 79 34 80 35 81 40 82 36 83 37 84
REMARK SMILES IDX 39 85 41 86 38 87
REMARK H PARENT 58 49 32 60
REMARK Flexibility Score: inf
ROOT
ATOM      1  C   UNL     1       2.572  -3.334   1.734  1.00  0.00     0.274 C 
ENDROOT
BRANCH   1   2
ATOM      2  O   UNL     1       2.197  -2.261   0.845  1.00  0.00    -0.462 OA
BRANCH   2   3
ATOM      3  C   UNL     1       1.108  -2.494   0.059  1.00  0.00     0.313 C 
ATOM      4  O   UNL     1       0.517  -3.566   0.076  1.00  0.00    -0.252 OA
BRANCH   3   5
ATOM      5  C   UNL     1       0.801  -1.324  -0.918  1.00  0.00     0.126 C 
ATOM      6  C   UNL     1       1.445  -0.022  -0.415  1.00  0.00     0.025 C 
BRANCH   5   7
ATOM      7  C   UNL     1      -0.698  -1.168  -1.261  1.00  0.00    -0.032 A 
ATOM      8  C   UNL     1      -1.349   0.073  -1.309  1.00  0.00     0.005 A 
ATOM      9  C   UNL     1      -1.473  -2.315  -1.508  1.00  0.00     0.032 A 
ATOM     10  C   UNL     1      -2.730   0.178  -1.544  1.00  0.00     0.011 A 
ATOM     11  C   UNL     1      -2.879  -2.216  -1.491  1.00  0.00     0.058 A 
ATOM     12  C   UNL     1      -3.512  -0.991  -1.592  1.00  0.00     0.008 A 
ATOM     13  N   UNL     1      -3.848  -3.201  -1.220  1.00  0.00    -0.274 N 
ATOM     14  C   UNL     1      -4.907  -1.244  -1.660  1.00  0.00     0.009 A 
ATOM     15  C   UNL     1      -5.114  -2.604  -1.361  1.00  0.00     0.057 A 
ATOM     16  C   UNL     1      -6.007  -0.376  -1.827  1.00  0.00     0.031 A 
ATOM     17  C   UNL     1      -6.420  -3.062  -1.104  1.00  0.00     0.029 A 
ATOM     18  C   UNL     1      -7.293  -0.846  -1.587  1.00  0.00     0.041 A 
ATOM     19  C   UNL     1      -7.495  -2.161  -1.198  1.00  0.00     0.023 A 
ATOM     20  Cl  UNL     1      -8.625   0.235  -1.723  1.00  0.00    -0.084 Cl
BRANCH  13  21
ATOM     21  C   UNL     1      -3.492  -4.447  -0.620  1.00  0.00     0.284 C 
ATOM     22  O   UNL     1      -2.461  -4.415   0.048  1.00  0.00    -0.266 OA
BRANCH  21  23
ATOM     23  C   UNL     1      -4.178  -5.729  -0.700  1.00  0.00     0.167 A 
ATOM     24  C   UNL     1      -5.095  -6.222  -1.596  1.00  0.00     0.231 A 
ATOM     25  N   UNL     1      -3.826  -6.762   0.172  1.00  0.00    -0.211 NA
ATOM     26  O   UNL     1      -5.327  -7.540  -1.298  1.00  0.00    -0.451 OA
ATOM     27  C   UNL     1      -4.514  -7.794  -0.238  1.00  0.00     0.308 A 
ENDBRANCH  21  23
ENDBRANCH  13  21
ENDBRANCH   5   7
ENDBRANCH   3   5
ENDBRANCH   2   3
ENDBRANCH   1   2
BRANCH   1  28
ATOM     28  C   UNL     1       2.129  -3.056   3.173  1.00  0.00     0.275 C 
BRANCH  28  29
ATOM     29  O   UNL     1       0.701  -3.169   3.344  1.00  0.00    -0.458 OA
BRANCH  29  30
ATOM     30  C   UNL     1       0.013  -2.009   3.259  1.00  0.00     0.338 C 
ATOM     31  O   UNL     1       0.477  -0.891   3.066  1.00  0.00    -0.246 OA
BRANCH  30  32
ATOM     32  C   UNL     1      -1.437  -2.258   3.313  1.00  0.00     0.060 A 
ATOM     33  C   UNL     1      -2.165  -1.984   2.161  1.00  0.00     0.016 A 
ATOM     34  C   UNL     1      -2.104  -2.630   4.485  1.00  0.00     0.016 A 
ATOM     35  C   UNL     1      -3.552  -2.091   2.163  1.00  0.00     0.010 A 
ATOM     36  C   UNL     1      -3.508  -2.745   4.483  1.00  0.00     0.010 A 
ATOM     37  C   UNL     1      -4.242  -2.480   3.316  1.00  0.00    -0.014 A 
BRANCH  37  38
ATOM     38  C   UNL     1      -5.727  -2.500   3.245  1.00  0.00     0.031 A 
ATOM     39  C   UNL     1      -6.494  -1.256   3.570  1.00  0.00     0.074 A 
ATOM     40  C   UNL     1      -6.375  -3.560   2.725  1.00  0.00     0.049 A 
ATOM     41  N   UNL     1      -7.779  -1.029   3.468  1.00  0.00    -0.248 NA
ATOM     42  C   UNL     1      -5.713  -0.120   4.078  1.00  0.00     0.031 C 
ATOM     43  C   UNL     1      -5.730  -4.793   2.294  1.00  0.00     0.029 A 
ATOM     44  N   UNL     1      -7.702  -3.743   2.396  1.00  0.00    -0.354 N 
ATOM     45  C   UNL     1      -7.973   0.247   3.977  1.00  0.00     0.074 A 
ATOM     46  C   UNL     1      -6.667   0.768   4.323  1.00  0.00     0.031 C 
ATOM     47  C   UNL     1      -6.638  -5.554   1.663  1.00  0.00     0.029 A 
ATOM     48  C   UNL     1      -7.928  -4.879   1.650  1.00  0.00     0.049 A 
ATOM     49  H   UNL     1      -8.417  -3.122   2.666  1.00  0.00     0.167 HD
ATOM     50  C   UNL     1      -9.142   0.896   4.187  1.00  0.00     0.037 A 
ATOM     51  C   UNL     1      -9.028  -5.294   0.985  1.00  0.00     0.037 A 
ATOM     52  C   UNL     1     -10.437   0.378   3.825  1.00  0.00     0.049 A 
ATOM     53  C   UNL     1     -10.308  -4.520   1.166  1.00  0.00     0.074 A 
ATOM     54  C   UNL     1     -11.685   0.917   4.083  1.00  0.00     0.029 A 
ATOM     55  N   UNL     1     -10.648  -0.792   3.112  1.00  0.00    -0.354 N 
ATOM     56  N   UNL     1     -10.496  -3.349   1.720  1.00  0.00    -0.248 NA
ATOM     57  C   UNL     1     -11.539  -5.157   0.672  1.00  0.00     0.031 C 
ATOM     58  C   UNL     1     -12.653   0.045   3.574  1.00  0.00     0.029 A 
ATOM     59  C   UNL     1     -12.007  -1.006   2.945  1.00  0.00     0.049 A 
ATOM     60  H   UNL     1      -9.937  -1.384   2.775  1.00  0.00     0.167 HD
ATOM     61  C   UNL     1     -11.867  -3.127   1.679  1.00  0.00     0.074 A 
ATOM     62  C   UNL     1     -12.451  -4.241   0.962  1.00  0.00     0.031 C 
ATOM     63  C   UNL     1     -12.582  -2.118   2.233  1.00  0.00     0.037 A 
BRANCH  50  64
ATOM     64  C   UNL     1      -9.078   2.173   4.968  1.00  0.00     0.057 A 
ATOM     65  C   UNL     1      -8.596   3.371   4.432  1.00  0.00     0.134 A 
ATOM     66  C   UNL     1      -9.510   2.187   6.303  1.00  0.00     0.134 A 
ATOM     67  F   UNL     1      -8.141   3.418   3.171  1.00  0.00    -0.206 F 
ATOM     68  C   UNL     1      -8.527   4.534   5.202  1.00  0.00     0.040 A 
ATOM     69  C   UNL     1      -9.473   3.348   7.072  1.00  0.00     0.040 A 
ATOM     70  F   UNL     1      -9.980   1.069   6.878  1.00  0.00    -0.206 F 
ATOM     71  C   UNL     1      -8.973   4.526   6.524  1.00  0.00     0.006 A 
ENDBRANCH  50  64
BRANCH  51  72
ATOM     72  C   UNL     1      -8.995  -6.453   0.041  1.00  0.00     0.057 A 
ATOM     73  C   UNL     1      -9.350  -6.275  -1.307  1.00  0.00     0.134 A 
ATOM     74  C   UNL     1      -8.667  -7.754   0.436  1.00  0.00     0.134 A 
ATOM     75  F   UNL     1      -9.691  -5.058  -1.760  1.00  0.00    -0.206 F 
ATOM     76  C   UNL     1      -9.406  -7.341  -2.209  1.00  0.00     0.040 A 
ATOM     77  C   UNL     1      -8.672  -8.822  -0.466  1.00  0.00     0.040 A 
ATOM     78  F   UNL     1      -8.332  -8.014   1.707  1.00  0.00    -0.206 F 
ATOM     79  C   UNL     1      -9.056  -8.620  -1.790  1.00  0.00     0.006 A 
ENDBRANCH  51  72
BRANCH  63  80
ATOM     80  C   UNL     1     -14.078  -2.189   2.120  1.00  0.00     0.057 A 
ATOM     81  C   UNL     1     -14.820  -3.153   2.818  1.00  0.00     0.134 A 
ATOM     82  C   UNL     1     -14.791  -1.259   1.354  1.00  0.00     0.134 A 
ATOM     83  F   UNL     1     -14.200  -4.079   3.565  1.00  0.00    -0.206 F 
ATOM     84  C   UNL     1     -16.213  -3.205   2.737  1.00  0.00     0.040 A 
ATOM     85  C   UNL     1     -16.185  -1.283   1.288  1.00  0.00     0.040 A 
ATOM     86  F   UNL     1     -14.146  -0.302   0.670  1.00  0.00    -0.206 F 
ATOM     87  C   UNL     1     -16.900  -2.262   1.976  1.00  0.00     0.006 A 
ENDBRANCH  63  80
ENDBRANCH  37  38
ENDBRANCH  30  32
ENDBRANCH  29  30
ENDBRANCH  28  29
ENDBRANCH   1  28
TORSDOF 14
