REMARK SMILES COC(=O)C1=C(C)NC(C)=C(C(=O)OC)C1c1ccc(C(=O)OCCOC(=O)c2ccc(-c3c4nc(c(-c5c(F)cccc5F)c5ccc([nH]5)c(-c5c(F)cccc5F)c5nc(c(-c6c(F)cccc6F)c6ccc3[nH]6)C=C5)C=C4)cc2)cc1
REMARK SMILES IDX 24 1 23 2 21 3 22 4 20 5 17 6 18 7 84 8 19 9 83 10 16 11
REMARK SMILES IDX 5 12 6 13 7 14 8 15 11 16 9 17 10 19 3 20 4 21 2 22 1 23
REMARK SMILES IDX 12 24 13 25 14 26 15 27 25 28 26 29 27 30 28 31 29 32 30 33
REMARK SMILES IDX 82 34 31 35 81 36 32 37 33 38 34 39 75 40 35 41 80 42 74 43
REMARK SMILES IDX 76 44 36 45 79 46 73 47 72 48 37 50 63 51 46 52 62 53 47 54
REMARK SMILES IDX 50 55 61 56 77 57 48 58 49 59 60 61 78 62 51 63 38 64 39 65
REMARK SMILES IDX 44 66 40 67 41 68 43 69 45 70 42 71 64 72 65 73 70 74 66 75
REMARK SMILES IDX 67 76 69 77 71 78 68 79 52 80 53 81 58 82 54 83 55 84 57 85
REMARK SMILES IDX 59 86 56 87
REMARK H PARENT 8 18 76 49 50 60
REMARK Flexibility Score: inf
ROOT
ATOM      1  C   UNL     1       6.290  -6.527   2.231  1.00  0.00     0.275 C 
ENDROOT
BRANCH   1   2
ATOM      2  O   UNL     1       5.440  -5.402   2.519  1.00  0.00    -0.458 OA
BRANCH   2   3
ATOM      3  C   UNL     1       4.177  -5.715   2.900  1.00  0.00     0.338 C 
ATOM      4  O   UNL     1       3.703  -6.839   2.965  1.00  0.00    -0.246 OA
BRANCH   3   5
ATOM      5  C   UNL     1       3.424  -4.504   3.319  1.00  0.00     0.060 A 
ATOM      6  C   UNL     1       1.915  -2.302   4.215  1.00  0.00    -0.035 A 
ATOM      7  C   UNL     1       1.407  -3.603   4.333  1.00  0.00     0.005 A 
ATOM      8  C   UNL     1       3.189  -2.118   3.645  1.00  0.00     0.005 A 
ATOM      9  C   UNL     1       2.157  -4.692   3.890  1.00  0.00     0.016 A 
ATOM     10  C   UNL     1       3.940  -3.210   3.200  1.00  0.00     0.016 A 
BRANCH   6  11
ATOM     11  C   UNL     1       1.079  -1.082   4.610  1.00  0.00     0.098 C 
ATOM     12  C   UNL     1       0.056  -0.745   3.530  1.00  0.00     0.068 C 
ATOM     13  C   UNL     1      -1.209  -0.380   3.831  1.00  0.00     0.023 C 
ATOM     14  C   UNL     1      -2.271  -0.044   2.815  1.00  0.00     0.065 C 
ATOM     15  N   UNL     1      -1.601  -0.329   5.156  1.00  0.00    -0.362 N 
ATOM     16  C   UNL     1       0.445  -1.180   6.003  1.00  0.00     0.068 C 
ATOM     17  C   UNL     1      -0.833  -0.781   6.219  1.00  0.00     0.023 C 
ATOM     18  H   UNL     1      -2.485   0.054   5.359  1.00  0.00     0.166 HD
ATOM     19  C   UNL     1      -1.532  -0.787   7.557  1.00  0.00     0.065 C 
BRANCH  12  20
ATOM     20  C   UNL     1       0.445  -0.893   2.118  1.00  0.00     0.336 C 
ATOM     21  O   UNL     1       0.295  -1.920   1.476  1.00  0.00    -0.246 OA
BRANCH  20  22
ATOM     22  O   UNL     1       0.913   0.292   1.656  1.00  0.00    -0.466 OA
ATOM     23  C   UNL     1       1.191   0.302   0.254  1.00  0.00     0.282 C 
ENDBRANCH  20  22
ENDBRANCH  12  20
BRANCH  16  24
ATOM     24  C   UNL     1       1.223  -1.812   7.094  1.00  0.00     0.336 C 
ATOM     25  O   UNL     1       0.756  -2.621   7.882  1.00  0.00    -0.246 OA
BRANCH  24  26
ATOM     26  O   UNL     1       2.515  -1.403   7.054  1.00  0.00    -0.466 OA
ATOM     27  C   UNL     1       3.364  -2.087   7.980  1.00  0.00     0.282 C 
ENDBRANCH  24  26
ENDBRANCH  16  24
ENDBRANCH   6  11
ENDBRANCH   3   5
ENDBRANCH   2   3
ENDBRANCH   1   2
BRANCH   1  28
ATOM     28  C   UNL     1       7.212  -6.819   3.413  1.00  0.00     0.275 C 
BRANCH  28  29
ATOM     29  O   UNL     1       6.442  -7.088   4.601  1.00  0.00    -0.458 OA
BRANCH  29  30
ATOM     30  C   UNL     1       6.624  -6.224   5.624  1.00  0.00     0.338 C 
ATOM     31  O   UNL     1       7.395  -5.281   5.683  1.00  0.00    -0.246 OA
BRANCH  30  32
ATOM     32  C   UNL     1       5.719  -6.571   6.729  1.00  0.00     0.060 A 
ATOM     33  C   UNL     1       4.400  -6.118   6.699  1.00  0.00     0.016 A 
ATOM     34  C   UNL     1       6.219  -7.223   7.856  1.00  0.00     0.016 A 
ATOM     35  C   UNL     1       3.581  -6.284   7.816  1.00  0.00     0.010 A 
ATOM     36  C   UNL     1       5.385  -7.423   8.961  1.00  0.00     0.010 A 
ATOM     37  C   UNL     1       4.067  -6.929   8.963  1.00  0.00    -0.014 A 
BRANCH  37  38
ATOM     38  C   UNL     1       3.229  -7.017  10.189  1.00  0.00     0.031 A 
ATOM     39  C   UNL     1       3.633  -6.272  11.433  1.00  0.00     0.074 A 
ATOM     40  C   UNL     1       2.100  -7.751  10.197  1.00  0.00     0.049 A 
ATOM     41  N   UNL     1       3.119  -6.325  12.636  1.00  0.00    -0.248 NA
ATOM     42  C   UNL     1       4.779  -5.357  11.310  1.00  0.00     0.031 C 
ATOM     43  C   UNL     1       1.569  -8.501   9.060  1.00  0.00     0.029 A 
ATOM     44  N   UNL     1       1.194  -7.982  11.203  1.00  0.00    -0.354 N 
ATOM     45  C   UNL     1       3.909  -5.497  13.423  1.00  0.00     0.074 A 
ATOM     46  C   UNL     1       4.935  -4.949  12.561  1.00  0.00     0.031 C 
ATOM     47  C   UNL     1       0.416  -9.087   9.422  1.00  0.00     0.029 A 
ATOM     48  C   UNL     1       0.156  -8.799  10.831  1.00  0.00     0.049 A 
ATOM     49  H   UNL     1       1.280  -7.597  12.105  1.00  0.00     0.167 HD
ATOM     50  C   UNL     1       3.793  -5.222  14.744  1.00  0.00     0.037 A 
ATOM     51  C   UNL     1      -0.877  -9.283  11.546  1.00  0.00     0.037 A 
ATOM     52  C   UNL     1       2.738  -5.709  15.593  1.00  0.00     0.049 A 
ATOM     53  C   UNL     1      -1.000  -8.943  13.004  1.00  0.00     0.074 A 
ATOM     54  C   UNL     1       2.524  -5.454  16.937  1.00  0.00     0.029 A 
ATOM     55  N   UNL     1       1.708  -6.537  15.175  1.00  0.00    -0.354 N 
ATOM     56  N   UNL     1      -0.221  -8.195  13.746  1.00  0.00    -0.248 NA
ATOM     57  C   UNL     1      -2.138  -9.529  13.728  1.00  0.00     0.031 C 
ATOM     58  C   UNL     1       1.375  -6.146  17.338  1.00  0.00     0.029 A 
ATOM     59  C   UNL     1       0.860  -6.808  16.236  1.00  0.00     0.049 A 
ATOM     60  H   UNL     1       1.596  -6.881  14.259  1.00  0.00     0.167 HD
ATOM     61  C   UNL     1      -0.770  -8.222  15.021  1.00  0.00     0.074 A 
ATOM     62  C   UNL     1      -1.963  -9.040  14.948  1.00  0.00     0.031 C 
ATOM     63  C   UNL     1      -0.319  -7.630  16.152  1.00  0.00     0.037 A 
BRANCH  50  64
ATOM     64  C   UNL     1       4.861  -4.373  15.366  1.00  0.00     0.057 A 
ATOM     65  C   UNL     1       4.917  -2.988  15.176  1.00  0.00     0.134 A 
ATOM     66  C   UNL     1       5.830  -4.955  16.194  1.00  0.00     0.134 A 
ATOM     67  F   UNL     1       4.027  -2.374  14.382  1.00  0.00    -0.206 F 
ATOM     68  C   UNL     1       5.912  -2.212  15.773  1.00  0.00     0.040 A 
ATOM     69  C   UNL     1       6.818  -4.187  16.812  1.00  0.00     0.040 A 
ATOM     70  F   UNL     1       5.829  -6.277  16.419  1.00  0.00    -0.206 F 
ATOM     71  C   UNL     1       6.863  -2.811  16.599  1.00  0.00     0.006 A 
ENDBRANCH  50  64
BRANCH  51  72
ATOM     72  C   UNL     1      -1.870 -10.167  10.890  1.00  0.00     0.057 A 
ATOM     73  C   UNL     1      -3.159  -9.711  10.594  1.00  0.00     0.134 A 
ATOM     74  C   UNL     1      -1.550 -11.482  10.535  1.00  0.00     0.134 A 
ATOM     75  F   UNL     1      -3.531  -8.469  10.936  1.00  0.00    -0.206 F 
ATOM     76  C   UNL     1      -4.096 -10.533   9.967  1.00  0.00     0.040 A 
ATOM     77  C   UNL     1      -2.470 -12.308   9.889  1.00  0.00     0.040 A 
ATOM     78  F   UNL     1      -0.330 -11.976  10.795  1.00  0.00    -0.206 F 
ATOM     79  C   UNL     1      -3.749 -11.834   9.606  1.00  0.00     0.006 A 
ENDBRANCH  51  72
BRANCH  63  80
ATOM     80  C   UNL     1      -1.119  -7.844  17.400  1.00  0.00     0.057 A 
ATOM     81  C   UNL     1      -1.051  -9.046  18.114  1.00  0.00     0.134 A 
ATOM     82  C   UNL     1      -1.940  -6.830  17.910  1.00  0.00     0.134 A 
ATOM     83  F   UNL     1      -0.292 -10.059  17.669  1.00  0.00    -0.206 F 
ATOM     84  C   UNL     1      -1.785  -9.240  19.285  1.00  0.00     0.040 A 
ATOM     85  C   UNL     1      -2.666  -7.006  19.088  1.00  0.00     0.040 A 
ATOM     86  F   UNL     1      -2.043  -5.654  17.274  1.00  0.00    -0.206 F 
ATOM     87  C   UNL     1      -2.592  -8.216  19.778  1.00  0.00     0.006 A 
ENDBRANCH  63  80
ENDBRANCH  37  38
ENDBRANCH  30  32
ENDBRANCH  29  30
ENDBRANCH  28  29
ENDBRANCH   1  28
TORSDOF 16
