REMARK SMILES NS(=O)(=O)c1ccc(C#Cc2cc(Cl)cc3c2O[C@H](C(F)(F)F)C(C(=O)OCCOC(=O)c2ccc(-c4c5nc(c(-c6c(F)cccc6F)c6ccc([nH]6)c(-c6c(F)cccc6F)c6nc(c(-c7c(F)cccc7F)c7ccc4[nH]7)C=C6)C=C5)cc2)=C3)cc1
REMARK SMILES IDX 28 1 27 2 25 3 26 4 24 5 11 6 12 7 17 8 13 9 16 10 18 11
REMARK SMILES IDX 14 12 15 13 87 14 19 15 10 16 9 17 8 18 5 19 6 20 89 21 7 22
REMARK SMILES IDX 88 23 2 24 3 25 4 26 1 27 20 30 21 31 22 32 23 33 29 34
REMARK SMILES IDX 30 35 31 36 32 37 33 38 34 39 86 40 35 41 85 42 36 43 37 44
REMARK SMILES IDX 38 45 79 46 39 47 84 48 78 49 80 50 40 51 83 52 77 53 76 54
REMARK SMILES IDX 41 56 67 57 50 58 66 59 51 60 54 61 65 62 81 63 52 64 53 65
REMARK SMILES IDX 64 67 82 68 55 69 42 70 43 71 48 72 44 73 45 74 47 75 49 76
REMARK SMILES IDX 46 77 68 78 69 79 74 80 70 81 71 82 73 83 75 84 72 85 56 86
REMARK SMILES IDX 57 87 62 88 58 89 59 90 61 91 63 92 60 93
REMARK H PARENT 1 28 1 29 80 55 54 66
REMARK Flexibility Score: inf
ROOT
ATOM      1  C   UNL     1       1.578  -6.818 -11.772  1.00  0.00     0.275 C 
ENDROOT
BRANCH   1   2
ATOM      2  O   UNL     1       1.689  -6.955 -10.336  1.00  0.00    -0.459 OA
BRANCH   2   3
ATOM      3  C   UNL     1       0.886  -7.886  -9.769  1.00  0.00     0.338 C 
ATOM      4  O   UNL     1       0.060  -8.577 -10.345  1.00  0.00    -0.246 OA
BRANCH   3   5
ATOM      5  C   UNL     1       1.151  -7.999  -8.319  1.00  0.00     0.087 C 
ATOM      6  C   UNL     1       1.461  -8.393  -4.162  1.00  0.00     0.069 A 
ATOM      7  C   UNL     1       1.448  -9.671  -3.586  1.00  0.00     0.041 A 
ATOM      8  C   UNL     1       1.409  -8.230  -5.551  1.00  0.00     0.143 A 
ATOM      9  C   UNL     1       1.413 -10.794  -4.402  1.00  0.00     0.043 A 
ATOM     10  C   UNL     1       1.362  -9.366  -6.350  1.00  0.00     0.020 A 
ATOM     11  O   UNL     1       1.415  -6.960  -6.068  1.00  0.00    -0.474 OA
ATOM     12  Cl  UNL     1       1.386 -12.365  -3.705  1.00  0.00    -0.084 Cl
ATOM     13  C   UNL     1       1.380 -10.649  -5.783  1.00  0.00     0.032 A 
ATOM     14  C   UNL     1       1.246  -9.220  -7.782  1.00  0.00     0.027 C 
ATOM     15  C   UNL     1       1.138  -6.754  -7.484  1.00  0.00     0.316 C 
BRANCH   6  16
ATOM     16  C   UNL     1       1.482  -7.262  -3.300  1.00  0.00    -0.058 C 
ATOM     17  C   UNL     1       1.440  -6.297  -2.587  1.00  0.00    -0.062 C 
BRANCH  17  18
ATOM     18  C   UNL     1       1.297  -5.146  -1.767  1.00  0.00     0.025 A 
ATOM     19  C   UNL     1       0.846  -2.892  -0.218  1.00  0.00     0.082 A 
ATOM     20  C   UNL     1       1.289  -2.743  -1.536  1.00  0.00     0.023 A 
ATOM     21  C   UNL     1       0.657  -4.161   0.338  1.00  0.00     0.023 A 
ATOM     22  C   UNL     1       1.515  -3.878  -2.312  1.00  0.00     0.018 A 
ATOM     23  C   UNL     1       0.881  -5.292  -0.443  1.00  0.00     0.018 A 
BRANCH  19  24
ATOM     24  S   UNL     1       0.504  -1.490   0.797  1.00  0.00     0.238 S 
ATOM     25  O   UNL     1       1.264  -1.616   2.019  1.00  0.00    -0.207 OA
ATOM     26  O   UNL     1      -0.920  -1.257   0.779  1.00  0.00    -0.207 OA
BRANCH  24  27
ATOM     27  N   UNL     1       1.192  -0.194  -0.021  1.00  0.00    -0.225 NA
ATOM     28  H   UNL     1       1.036   0.664   0.508  1.00  0.00     0.137 HD
ATOM     29  H   UNL     1       0.764  -0.108  -0.943  1.00  0.00     0.137 HD
ENDBRANCH  24  27
ENDBRANCH  19  24
ENDBRANCH  17  18
ENDBRANCH   6  16
BRANCH  15  30
ATOM     30  C   UNL     1      -0.205  -6.019  -7.636  1.00  0.00     0.430 C 
ATOM     31  F   UNL     1      -0.251  -4.903  -6.873  1.00  0.00    -0.167 F 
ATOM     32  F   UNL     1      -0.413  -5.622  -8.915  1.00  0.00    -0.167 F 
ATOM     33  F   UNL     1      -1.252  -6.801  -7.284  1.00  0.00    -0.167 F 
ENDBRANCH  15  30
ENDBRANCH   3   5
ENDBRANCH   2   3
ENDBRANCH   1   2
BRANCH   1  34
ATOM     34  C   UNL     1       2.758  -7.473 -12.495  1.00  0.00     0.275 C 
BRANCH  34  35
ATOM     35  O   UNL     1       2.693  -8.908 -12.410  1.00  0.00    -0.458 OA
BRANCH  35  36
ATOM     36  C   UNL     1       3.373  -9.441 -11.373  1.00  0.00     0.338 C 
ATOM     37  O   UNL     1       4.033  -8.854 -10.532  1.00  0.00    -0.246 OA
BRANCH  36  38
ATOM     38  C   UNL     1       3.079 -10.873 -11.279  1.00  0.00     0.060 A 
ATOM     39  C   UNL     1       3.905 -11.841 -11.827  1.00  0.00     0.016 A 
ATOM     40  C   UNL     1       2.022 -11.247 -10.464  1.00  0.00     0.016 A 
ATOM     41  C   UNL     1       3.631 -13.185 -11.553  1.00  0.00     0.010 A 
ATOM     42  C   UNL     1       1.886 -12.550 -10.021  1.00  0.00     0.010 A 
ATOM     43  C   UNL     1       2.642 -13.556 -10.615  1.00  0.00    -0.014 A 
BRANCH  43  44
ATOM     44  C   UNL     1       2.358 -14.980 -10.291  1.00  0.00     0.031 A 
ATOM     45  C   UNL     1       0.958 -15.542 -10.418  1.00  0.00     0.074 A 
ATOM     46  C   UNL     1       3.365 -15.772  -9.871  1.00  0.00     0.049 A 
ATOM     47  N   UNL     1       0.544 -16.774 -10.246  1.00  0.00    -0.248 NA
ATOM     48  C   UNL     1      -0.130 -14.601 -10.741  1.00  0.00     0.031 C 
ATOM     49  C   UNL     1       4.737 -15.331  -9.611  1.00  0.00     0.029 A 
ATOM     50  N   UNL     1       3.398 -17.119  -9.620  1.00  0.00    -0.354 N 
ATOM     51  C   UNL     1      -0.834 -16.743 -10.435  1.00  0.00     0.074 A 
ATOM     52  C   UNL     1      -1.205 -15.363 -10.625  1.00  0.00     0.031 C 
ATOM     53  C   UNL     1       5.498 -16.400  -9.333  1.00  0.00     0.029 A 
ATOM     54  C   UNL     1       4.657 -17.591  -9.333  1.00  0.00     0.049 A 
ATOM     55  H   UNL     1       2.599 -17.693  -9.643  1.00  0.00     0.167 HD
ATOM     56  C   UNL     1      -1.712 -17.772 -10.502  1.00  0.00     0.037 A 
ATOM     57  C   UNL     1       5.085 -18.846  -9.104  1.00  0.00     0.037 A 
ATOM     58  C   UNL     1      -1.338 -19.149 -10.333  1.00  0.00     0.049 A 
ATOM     59  C   UNL     1       4.088 -19.970  -9.157  1.00  0.00     0.074 A 
ATOM     60  C   UNL     1      -2.130 -20.278 -10.433  1.00  0.00     0.029 A 
ATOM     61  N   UNL     1      -0.059 -19.580 -10.015  1.00  0.00    -0.354 N 
ATOM     62  N   UNL     1       2.808 -19.933  -9.444  1.00  0.00    -0.248 NA
ATOM     63  C   UNL     1       4.597 -21.314  -8.853  1.00  0.00     0.031 C 
ATOM     64  C   UNL     1      -1.344 -21.388 -10.110  1.00  0.00     0.029 A 
ATOM     65  C   UNL     1      -0.048 -20.957  -9.877  1.00  0.00     0.049 A 
ATOM     66  H   UNL     1       0.724 -18.994  -9.903  1.00  0.00     0.167 HD
ATOM     67  C   UNL     1       2.365 -21.247  -9.374  1.00  0.00     0.074 A 
ATOM     68  C   UNL     1       3.521 -22.059  -9.052  1.00  0.00     0.031 C 
ATOM     69  C   UNL     1       1.115 -21.742  -9.551  1.00  0.00     0.037 A 
BRANCH  56  70
ATOM     70  C   UNL     1      -3.153 -17.439 -10.782  1.00  0.00     0.057 A 
ATOM     71  C   UNL     1      -4.144 -17.672  -9.820  1.00  0.00     0.134 A 
ATOM     72  C   UNL     1      -3.564 -16.891 -12.006  1.00  0.00     0.134 A 
ATOM     73  F   UNL     1      -3.828 -18.205  -8.630  1.00  0.00    -0.206 F 
ATOM     74  C   UNL     1      -5.485 -17.364 -10.061  1.00  0.00     0.040 A 
ATOM     75  C   UNL     1      -4.896 -16.544 -12.245  1.00  0.00     0.040 A 
ATOM     76  F   UNL     1      -2.669 -16.633 -12.972  1.00  0.00    -0.206 F 
ATOM     77  C   UNL     1      -5.862 -16.786 -11.271  1.00  0.00     0.006 A 
ENDBRANCH  56  70
BRANCH  57  78
ATOM     78  C   UNL     1       6.519 -19.114  -8.822  1.00  0.00     0.057 A 
ATOM     79  C   UNL     1       7.133 -18.654  -7.651  1.00  0.00     0.134 A 
ATOM     80  C   UNL     1       7.303 -19.868  -9.704  1.00  0.00     0.134 A 
ATOM     81  F   UNL     1       6.443 -17.913  -6.771  1.00  0.00    -0.206 F 
ATOM     82  C   UNL     1       8.468 -18.936  -7.364  1.00  0.00     0.040 A 
ATOM     83  C   UNL     1       8.631 -20.188  -9.413  1.00  0.00     0.040 A 
ATOM     84  F   UNL     1       6.774 -20.346 -10.839  1.00  0.00    -0.206 F 
ATOM     85  C   UNL     1       9.217 -19.719  -8.239  1.00  0.00     0.006 A 
ENDBRANCH  57  78
BRANCH  69  86
ATOM     86  C   UNL     1       0.945 -23.228  -9.422  1.00  0.00     0.057 A 
ATOM     87  C   UNL     1       0.626 -24.009 -10.540  1.00  0.00     0.134 A 
ATOM     88  C   UNL     1       1.070 -23.882  -8.190  1.00  0.00     0.134 A 
ATOM     89  F   UNL     1       0.477 -23.444 -11.748  1.00  0.00    -0.206 F 
ATOM     90  C   UNL     1       0.440 -25.387 -10.438  1.00  0.00     0.040 A 
ATOM     91  C   UNL     1       0.923 -25.265  -8.081  1.00  0.00     0.040 A 
ATOM     92  F   UNL     1       1.383 -23.193  -7.082  1.00  0.00    -0.206 F 
ATOM     93  C   UNL     1       0.600 -26.021  -9.207  1.00  0.00     0.006 A 
ENDBRANCH  69  86
ENDBRANCH  43  44
ENDBRANCH  36  38
ENDBRANCH  35  36
ENDBRANCH  34  35
ENDBRANCH   1  34
TORSDOF 16
