REMARK SMILES Cc1nn(C(C)C)c(C)c1S(=O)(=O)Nc1cccc(C(=O)OCCOC(=O)c2ccc(-c3c4nc(c(-c5c(F)cccc5F)c5ccc([nH]5)c(-c5c(F)cccc5F)c5nc(c(-c6c(F)cccc6F)c6ccc3[nH]6)C=C5)C=C4)cc2)c1C
REMARK SMILES IDX 23 1 22 2 20 3 21 4 19 5 15 6 16 7 82 8 17 9 83 10 18 11
REMARK SMILES IDX 14 12 11 14 12 15 13 16 10 17 1 18 2 19 3 20 4 21 8 22 9 23
REMARK SMILES IDX 5 24 6 25 7 26 24 27 25 28 26 29 27 30 28 31 29 32 81 33
REMARK SMILES IDX 30 34 80 35 31 36 32 37 33 38 74 39 34 40 79 41 73 42 75 43
REMARK SMILES IDX 35 44 78 45 72 46 71 47 36 49 62 50 45 51 61 52 46 53 49 54
REMARK SMILES IDX 60 55 76 56 47 57 48 58 59 60 77 61 50 62 37 63 38 64 43 65
REMARK SMILES IDX 39 66 40 67 42 68 44 69 41 70 63 71 64 72 69 73 65 74 66 75
REMARK SMILES IDX 68 76 70 77 67 78 51 79 52 80 57 81 53 82 54 83 56 84 58 85
REMARK SMILES IDX 55 86
REMARK H PARENT 14 13 75 48 49 59
REMARK Flexibility Score: inf
ROOT
ATOM      1  C   UNL     1       3.014   2.773  -4.835  1.00  0.00     0.275 C 
ENDROOT
BRANCH   1   2
ATOM      2  O   UNL     1       2.435   2.297  -3.614  1.00  0.00    -0.458 OA
BRANCH   2   3
ATOM      3  C   UNL     1       1.225   2.768  -3.239  1.00  0.00     0.338 C 
ATOM      4  O   UNL     1       0.647   3.740  -3.685  1.00  0.00    -0.246 OA
BRANCH   3   5
ATOM      5  C   UNL     1       0.612   1.792  -2.299  1.00  0.00     0.065 A 
ATOM      6  C   UNL     1      -0.606   1.129  -0.313  1.00  0.00     0.053 A 
ATOM      7  C   UNL     1      -0.836  -0.126  -0.887  1.00  0.00     0.027 A 
ATOM      8  C   UNL     1       0.110   2.125  -1.018  1.00  0.00    -0.012 A 
ATOM      9  C   UNL     1      -0.318  -0.443  -2.138  1.00  0.00     0.003 A 
ATOM     10  C   UNL     1       0.319   3.486  -0.412  1.00  0.00     0.047 C 
ATOM     11  C   UNL     1       0.413   0.508  -2.837  1.00  0.00     0.016 A 
BRANCH   6  12
ATOM     12  N   UNL     1      -1.186   1.343   0.978  1.00  0.00    -0.279 N 
ATOM     13  H   UNL     1      -2.058   1.794   1.047  1.00  0.00     0.180 HD
BRANCH  12  14
ATOM     14  S   UNL     1      -0.396   0.833   2.393  1.00  0.00     0.265 S 
ATOM     15  O   UNL     1      -1.379   1.028   3.438  1.00  0.00    -0.201 OA
ATOM     16  O   UNL     1       0.882   1.506   2.462  1.00  0.00    -0.201 OA
BRANCH  14  17
ATOM     17  C   UNL     1      -0.018  -0.857   2.427  1.00  0.00     0.131 A 
ATOM     18  C   UNL     1       1.951  -0.937   0.668  1.00  0.00     0.070 C 
ATOM     19  C   UNL     1       0.954  -1.496   1.615  1.00  0.00     0.080 A 
ATOM     20  N   UNL     1       0.960  -2.818   1.814  1.00  0.00    -0.176 NA
ATOM     21  N   UNL     1       0.172  -3.008   2.885  1.00  0.00    -0.266 N 
ATOM     22  C   UNL     1      -0.417  -1.843   3.333  1.00  0.00     0.056 A 
ATOM     23  C   UNL     1      -1.207  -1.804   4.595  1.00  0.00     0.068 C 
BRANCH  21  24
ATOM     24  C   UNL     1       0.105  -4.349   3.473  1.00  0.00     0.101 C 
ATOM     25  C   UNL     1      -0.735  -5.296   2.616  1.00  0.00     0.033 C 
ATOM     26  C   UNL     1       1.500  -4.931   3.722  1.00  0.00     0.033 C 
ENDBRANCH  21  24
ENDBRANCH  14  17
ENDBRANCH  12  14
ENDBRANCH   6  12
ENDBRANCH   3   5
ENDBRANCH   2   3
ENDBRANCH   1   2
BRANCH   1  27
ATOM     27  C   UNL     1       3.303   4.273  -5.060  1.00  0.00     0.275 C 
BRANCH  27  28
ATOM     28  O   UNL     1       3.022   5.270  -4.045  1.00  0.00    -0.458 OA
BRANCH  28  29
ATOM     29  C   UNL     1       3.470   5.343  -2.772  1.00  0.00     0.338 C 
ATOM     30  O   UNL     1       3.177   6.252  -2.002  1.00  0.00    -0.246 OA
BRANCH  29  31
ATOM     31  C   UNL     1       4.253   4.208  -2.298  1.00  0.00     0.060 A 
ATOM     32  C   UNL     1       3.805   3.516  -1.164  1.00  0.00     0.016 A 
ATOM     33  C   UNL     1       5.348   3.780  -3.040  1.00  0.00     0.016 A 
ATOM     34  C   UNL     1       4.413   2.329  -0.802  1.00  0.00     0.010 A 
ATOM     35  C   UNL     1       5.879   2.548  -2.763  1.00  0.00     0.010 A 
ATOM     36  C   UNL     1       5.454   1.870  -1.608  1.00  0.00    -0.014 A 
BRANCH  36  37
ATOM     37  C   UNL     1       6.467   0.983  -1.079  1.00  0.00     0.031 A 
ATOM     38  C   UNL     1       6.339  -0.471  -1.121  1.00  0.00     0.074 A 
ATOM     39  C   UNL     1       7.537   1.670  -0.626  1.00  0.00     0.049 A 
ATOM     40  N   UNL     1       6.868  -1.258  -0.253  1.00  0.00    -0.248 NA
ATOM     41  C   UNL     1       5.549  -1.171  -2.131  1.00  0.00     0.031 C 
ATOM     42  C   UNL     1       8.871   1.236  -0.272  1.00  0.00     0.029 A 
ATOM     43  N   UNL     1       7.511   3.024  -0.269  1.00  0.00    -0.354 N 
ATOM     44  C   UNL     1       6.806  -2.532  -0.775  1.00  0.00     0.074 A 
ATOM     45  C   UNL     1       5.853  -2.447  -1.859  1.00  0.00     0.031 C 
ATOM     46  C   UNL     1       9.445   2.205   0.471  1.00  0.00     0.029 A 
ATOM     47  C   UNL     1       8.428   3.219   0.751  1.00  0.00     0.049 A 
ATOM     48  H   UNL     1       6.940   3.716  -0.672  1.00  0.00     0.167 HD
ATOM     49  C   UNL     1       7.741  -3.446  -0.378  1.00  0.00     0.037 A 
ATOM     50  C   UNL     1       7.942   3.540   1.987  1.00  0.00     0.037 A 
ATOM     51  C   UNL     1       8.651  -2.833   0.593  1.00  0.00     0.049 A 
ATOM     52  C   UNL     1       8.197   2.424   2.966  1.00  0.00     0.074 A 
ATOM     53  C   UNL     1       9.872  -2.203   0.406  1.00  0.00     0.029 A 
ATOM     54  N   UNL     1       8.192  -2.437   1.847  1.00  0.00    -0.354 N 
ATOM     55  N   UNL     1       8.257   1.161   2.640  1.00  0.00    -0.248 NA
ATOM     56  C   UNL     1       8.440   2.663   4.382  1.00  0.00     0.031 C 
ATOM     57  C   UNL     1      10.110  -1.363   1.520  1.00  0.00     0.029 A 
ATOM     58  C   UNL     1       9.045  -1.494   2.394  1.00  0.00     0.049 A 
ATOM     59  H   UNL     1       7.377  -2.779   2.281  1.00  0.00     0.167 HD
ATOM     60  C   UNL     1       8.594   0.432   3.747  1.00  0.00     0.074 A 
ATOM     61  C   UNL     1       8.689   1.415   4.813  1.00  0.00     0.031 C 
ATOM     62  C   UNL     1       8.797  -0.918   3.707  1.00  0.00     0.037 A 
BRANCH  49  63
ATOM     63  C   UNL     1       8.077  -4.697  -1.165  1.00  0.00     0.057 A 
ATOM     64  C   UNL     1       9.399  -5.187  -1.214  1.00  0.00     0.134 A 
ATOM     65  C   UNL     1       7.163  -5.433  -1.938  1.00  0.00     0.134 A 
ATOM     66  F   UNL     1      10.372  -4.679  -0.447  1.00  0.00    -0.206 F 
ATOM     67  C   UNL     1       9.802  -6.231  -2.058  1.00  0.00     0.040 A 
ATOM     68  C   UNL     1       7.557  -6.459  -2.815  1.00  0.00     0.040 A 
ATOM     69  F   UNL     1       5.844  -5.219  -1.850  1.00  0.00    -0.206 F 
ATOM     70  C   UNL     1       8.886  -6.849  -2.892  1.00  0.00     0.006 A 
ENDBRANCH  49  63
BRANCH  50  71
ATOM     71  C   UNL     1       6.709   4.397   1.997  1.00  0.00     0.057 A 
ATOM     72  C   UNL     1       6.708   5.626   1.307  1.00  0.00     0.134 A 
ATOM     73  C   UNL     1       5.468   3.952   2.468  1.00  0.00     0.134 A 
ATOM     74  F   UNL     1       7.855   6.129   0.821  1.00  0.00    -0.206 F 
ATOM     75  C   UNL     1       5.532   6.333   1.031  1.00  0.00     0.040 A 
ATOM     76  C   UNL     1       4.283   4.660   2.212  1.00  0.00     0.040 A 
ATOM     77  F   UNL     1       5.364   2.792   3.130  1.00  0.00    -0.206 F 
ATOM     78  C   UNL     1       4.309   5.841   1.472  1.00  0.00     0.006 A 
ENDBRANCH  50  71
BRANCH  62  79
ATOM     79  C   UNL     1       8.926  -1.800   4.917  1.00  0.00     0.057 A 
ATOM     80  C   UNL     1       8.306  -1.532   6.145  1.00  0.00     0.134 A 
ATOM     81  C   UNL     1       9.580  -3.049   4.831  1.00  0.00     0.134 A 
ATOM     82  F   UNL     1       7.539  -0.447   6.324  1.00  0.00    -0.206 F 
ATOM     83  C   UNL     1       8.402  -2.400   7.237  1.00  0.00     0.040 A 
ATOM     84  C   UNL     1       9.626  -3.952   5.894  1.00  0.00     0.040 A 
ATOM     85  F   UNL     1      10.182  -3.459   3.705  1.00  0.00    -0.206 F 
ATOM     86  C   UNL     1       9.055  -3.619   7.111  1.00  0.00     0.006 A 
ENDBRANCH  62  79
ENDBRANCH  36  37
ENDBRANCH  29  31
ENDBRANCH  28  29
ENDBRANCH  27  28
ENDBRANCH   1  27
TORSDOF 15
