REMARK SMILES Cc1ccc(-c2cc(C(=O)OCCOC(=O)c3ccc(-c4c5nc(c(-c6c(F)cccc6F)c6ccc([nH]6)c(-c6c(F)cccc6F)c6nc(c(-c7c(F)cccc7F)c7ccc4[nH]7)C=C6)C=C5)cc3)c3cc(C)ccc3n2)c(C)c1
REMARK SMILES IDX 13 1 12 2 11 3 9 4 10 5 8 6 6 7 7 8 78 9 77 10 71 11 76 12
REMARK SMILES IDX 72 13 75 14 73 15 74 16 5 17 1 18 2 19 3 20 81 21 4 22 79 23
REMARK SMILES IDX 80 24 14 25 15 26 16 27 17 28 18 29 70 30 19 31 69 32 20 33
REMARK SMILES IDX 21 34 22 35 63 36 23 37 68 38 62 39 64 40 24 41 67 42 61 43
REMARK SMILES IDX 60 44 25 46 51 47 34 48 50 49 35 50 38 51 49 52 65 53 36 54
REMARK SMILES IDX 37 55 48 57 66 58 39 59 26 60 27 61 32 62 28 63 29 64 31 65
REMARK SMILES IDX 33 66 30 67 52 68 53 69 58 70 54 71 55 72 57 73 59 74 56 75
REMARK SMILES IDX 40 76 41 77 46 78 42 79 43 80 45 81 47 82 44 83
REMARK H PARENT 64 45 38 56
REMARK Flexibility Score: inf
ROOT
ATOM      1  C   UNL     1      -4.621  -6.868   3.333  1.00  0.00     0.275 C 
ENDROOT
BRANCH   1   2
ATOM      2  C   UNL     1      -5.572  -5.686   3.160  1.00  0.00     0.275 C 
BRANCH   2   3
ATOM      3  O   UNL     1      -5.212  -4.908   2.000  1.00  0.00    -0.458 OA
BRANCH   3   4
ATOM      4  C   UNL     1      -4.825  -3.626   2.221  1.00  0.00     0.339 C 
ATOM      5  O   UNL     1      -4.684  -3.087   3.299  1.00  0.00    -0.246 OA
BRANCH   4   6
ATOM      6  C   UNL     1      -4.445  -2.968   0.946  1.00  0.00     0.071 A 
ATOM      7  C   UNL     1      -2.794  -1.665  -0.199  1.00  0.00     0.072 A 
ATOM      8  C   UNL     1      -3.247  -2.256   0.964  1.00  0.00     0.045 A 
ATOM      9  N   UNL     1      -3.519  -1.683  -1.336  1.00  0.00    -0.248 NA
ATOM     10  C   UNL     1      -4.718  -2.297  -1.335  1.00  0.00     0.072 A 
ATOM     11  C   UNL     1      -5.241  -2.979  -0.216  1.00  0.00     0.015 A 
ATOM     12  C   UNL     1      -5.486  -2.234  -2.489  1.00  0.00     0.029 A 
ATOM     13  C   UNL     1      -6.523  -3.577  -0.311  1.00  0.00     0.014 A 
ATOM     14  C   UNL     1      -6.753  -2.820  -2.573  1.00  0.00     0.005 A 
ATOM     15  C   UNL     1      -7.284  -3.497  -1.480  1.00  0.00    -0.050 A 
ATOM     16  C   UNL     1      -8.629  -4.156  -1.540  1.00  0.00     0.044 C 
BRANCH   7  17
ATOM     17  C   UNL     1      -1.500  -0.970  -0.220  1.00  0.00     0.003 A 
ATOM     18  C   UNL     1       2.390   0.934   0.021  1.00  0.00     0.044 C 
ATOM     19  C   UNL     1       1.051   0.261  -0.071  1.00  0.00    -0.051 A 
ATOM     20  C   UNL     1       0.946  -1.125  -0.178  1.00  0.00     0.004 A 
ATOM     21  C   UNL     1      -0.119   1.030  -0.054  1.00  0.00     0.007 A 
ATOM     22  C   UNL     1      -0.312  -1.730  -0.256  1.00  0.00     0.011 A 
ATOM     23  C   UNL     1      -1.393   0.432  -0.114  1.00  0.00    -0.041 A 
ATOM     24  C   UNL     1      -2.596   1.337  -0.087  1.00  0.00     0.045 C 
ENDBRANCH   7  17
ENDBRANCH   4   6
ENDBRANCH   3   4
ENDBRANCH   2   3
ENDBRANCH   1   2
BRANCH   1  25
ATOM     25  O   UNL     1      -3.314  -6.385   3.690  1.00  0.00    -0.458 OA
BRANCH  25  26
ATOM     26  C   UNL     1      -2.391  -6.435   2.705  1.00  0.00     0.338 C 
ATOM     27  O   UNL     1      -2.504  -6.918   1.591  1.00  0.00    -0.246 OA
BRANCH  26  28
ATOM     28  C   UNL     1      -1.193  -5.701   3.130  1.00  0.00     0.060 A 
ATOM     29  C   UNL     1      -1.237  -4.312   3.094  1.00  0.00     0.016 A 
ATOM     30  C   UNL     1       0.002  -6.359   3.399  1.00  0.00     0.016 A 
ATOM     31  C   UNL     1      -0.067  -3.568   3.203  1.00  0.00     0.010 A 
ATOM     32  C   UNL     1       1.159  -5.603   3.628  1.00  0.00     0.010 A 
ATOM     33  C   UNL     1       1.150  -4.200   3.488  1.00  0.00    -0.014 A 
BRANCH  33  34
ATOM     34  C   UNL     1       2.411  -3.410   3.595  1.00  0.00     0.031 A 
ATOM     35  C   UNL     1       3.592  -3.754   2.722  1.00  0.00     0.074 A 
ATOM     36  C   UNL     1       2.511  -2.377   4.458  1.00  0.00     0.049 A 
ATOM     37  N   UNL     1       4.836  -3.352   2.811  1.00  0.00    -0.248 NA
ATOM     38  C   UNL     1       3.345  -4.686   1.610  1.00  0.00     0.031 C 
ATOM     39  C   UNL     1       1.439  -1.882   5.324  1.00  0.00     0.029 A 
ATOM     40  N   UNL     1       3.572  -1.552   4.748  1.00  0.00    -0.354 N 
ATOM     41  C   UNL     1       5.526  -4.024   1.808  1.00  0.00     0.074 A 
ATOM     42  C   UNL     1       4.566  -4.864   1.126  1.00  0.00     0.031 C 
ATOM     43  C   UNL     1       1.882  -0.822   6.017  1.00  0.00     0.029 A 
ATOM     44  C   UNL     1       3.296  -0.623   5.724  1.00  0.00     0.049 A 
ATOM     45  H   UNL     1       4.446  -1.619   4.300  1.00  0.00     0.167 HD
ATOM     46  C   UNL     1       6.840  -3.944   1.485  1.00  0.00     0.037 A 
ATOM     47  C   UNL     1       4.098   0.255   6.355  1.00  0.00     0.037 A 
ATOM     48  C   UNL     1       7.782  -3.066   2.129  1.00  0.00     0.049 A 
ATOM     49  C   UNL     1       5.561   0.287   6.013  1.00  0.00     0.074 A 
ATOM     50  C   UNL     1       9.137  -2.922   1.883  1.00  0.00     0.029 A 
ATOM     51  N   UNL     1       7.460  -2.161   3.129  1.00  0.00    -0.354 N 
ATOM     52  N   UNL     1       6.218  -0.409   5.118  1.00  0.00    -0.248 NA
ATOM     53  C   UNL     1       6.401   1.213   6.788  1.00  0.00     0.031 C 
ATOM     54  C   UNL     1       9.640  -1.948   2.751  1.00  0.00     0.029 A 
ATOM     55  C   UNL     1       8.591  -1.456   3.509  1.00  0.00     0.049 A 
ATOM     56  H   UNL     1       6.562  -2.038   3.513  1.00  0.00     0.167 HD
ATOM     57  C   UNL     1       7.538   0.010   5.206  1.00  0.00     0.074 A 
ATOM     58  C   UNL     1       7.587   1.035   6.227  1.00  0.00     0.031 C 
ATOM     59  C   UNL     1       8.617  -0.422   4.509  1.00  0.00     0.037 A 
BRANCH  46  60
ATOM     60  C   UNL     1       7.349  -4.841   0.394  1.00  0.00     0.057 A 
ATOM     61  C   UNL     1       7.055  -4.608  -0.955  1.00  0.00     0.134 A 
ATOM     62  C   UNL     1       8.195  -5.917   0.694  1.00  0.00     0.134 A 
ATOM     63  F   UNL     1       6.241  -3.602  -1.309  1.00  0.00    -0.206 F 
ATOM     64  C   UNL     1       7.574  -5.421  -1.965  1.00  0.00     0.040 A 
ATOM     65  C   UNL     1       8.739  -6.722  -0.308  1.00  0.00     0.040 A 
ATOM     66  F   UNL     1       8.522  -6.192   1.966  1.00  0.00    -0.206 F 
ATOM     67  C   UNL     1       8.426  -6.476  -1.643  1.00  0.00     0.006 A 
ENDBRANCH  46  60
BRANCH  47  68
ATOM     68  C   UNL     1       3.556   1.140   7.420  1.00  0.00     0.057 A 
ATOM     69  C   UNL     1       3.511   2.529   7.253  1.00  0.00     0.134 A 
ATOM     70  C   UNL     1       3.105   0.624   8.641  1.00  0.00     0.134 A 
ATOM     71  F   UNL     1       3.954   3.088   6.117  1.00  0.00    -0.206 F 
ATOM     72  C   UNL     1       3.060   3.374   8.269  1.00  0.00     0.040 A 
ATOM     73  C   UNL     1       2.620   1.454   9.653  1.00  0.00     0.040 A 
ATOM     74  F   UNL     1       3.121  -0.698   8.866  1.00  0.00    -0.206 F 
ATOM     75  C   UNL     1       2.607   2.835   9.472  1.00  0.00     0.006 A 
ENDBRANCH  47  68
BRANCH  59  76
ATOM     76  C   UNL     1       9.925   0.254   4.790  1.00  0.00     0.057 A 
ATOM     77  C   UNL     1      10.642   0.019   5.969  1.00  0.00     0.134 A 
ATOM     78  C   UNL     1      10.482   1.136   3.855  1.00  0.00     0.134 A 
ATOM     79  F   UNL     1      10.154  -0.803   6.910  1.00  0.00    -0.206 F 
ATOM     80  C   UNL     1      11.857   0.658   6.221  1.00  0.00     0.040 A 
ATOM     81  C   UNL     1      11.708   1.762   4.085  1.00  0.00     0.040 A 
ATOM     82  F   UNL     1       9.848   1.399   2.703  1.00  0.00    -0.206 F 
ATOM     83  C   UNL     1      12.396   1.528   5.274  1.00  0.00     0.006 A 
ENDBRANCH  59  76
ENDBRANCH  33  34
ENDBRANCH  26  28
ENDBRANCH  25  26
ENDBRANCH   1  25
TORSDOF 12
