REMARK SMILES Nc1c(C(=O)OCC2c3ccccc3-c3ccccc32)ccc(F)c1C(=O)OCCOC(=O)c1ccc(-c2c3nc(c(-c4c(F)cccc4F)c4ccc([nH]4)c(-c4c(F)cccc4F)c4nc(c(-c5c(F)cccc5F)c5ccc2[nH]5)C=C4)C=C3)cc1
REMARK SMILES IDX 29 1 28 2 26 3 27 4 25 5 2 6 3 7 21 8 23 9 22 10 24 11 1 12
REMARK SMILES IDX 4 15 5 16 6 17 7 18 8 19 9 20 20 21 10 22 14 23 15 24 19 25
REMARK SMILES IDX 11 26 13 27 16 28 18 29 12 30 17 31 30 32 31 33 32 34 33 35
REMARK SMILES IDX 34 36 35 37 87 38 36 39 86 40 37 41 38 42 39 43 80 44 40 45
REMARK SMILES IDX 85 46 79 47 81 48 41 49 84 50 78 51 77 52 42 54 68 55 51 56
REMARK SMILES IDX 67 57 52 58 55 59 66 60 82 61 53 62 54 63 65 65 83 66 56 67
REMARK SMILES IDX 43 68 44 69 49 70 45 71 46 72 48 73 50 74 47 75 69 76 70 77
REMARK SMILES IDX 75 78 71 79 72 80 74 81 76 82 73 83 57 84 58 85 63 86 59 87
REMARK SMILES IDX 60 88 62 89 64 90 61 91
REMARK H PARENT 1 13 1 14 81 53 55 64
REMARK Flexibility Score: inf
ROOT
ATOM      1  C   UNL     1       0.774   4.457   0.233  1.00  0.00     0.275 C 
ENDROOT
BRANCH   1   2
ATOM      2  O   UNL     1       0.927   3.040   0.018  1.00  0.00    -0.458 OA
BRANCH   2   3
ATOM      3  C   UNL     1       0.264   2.199   0.857  1.00  0.00     0.343 C 
ATOM      4  O   UNL     1      -0.457   2.534   1.781  1.00  0.00    -0.246 OA
BRANCH   3   5
ATOM      5  C   UNL     1       0.473   0.795   0.423  1.00  0.00     0.119 A 
ATOM      6  C   UNL     1       1.713   0.337  -0.075  1.00  0.00     0.064 A 
ATOM      7  C   UNL     1       1.801  -1.024  -0.454  1.00  0.00     0.084 A 
ATOM      8  C   UNL     1       0.676  -1.868  -0.420  1.00  0.00     0.021 A 
ATOM      9  C   UNL     1      -0.607  -0.092   0.543  1.00  0.00     0.139 A 
ATOM     10  C   UNL     1      -0.526  -1.403   0.091  1.00  0.00     0.041 A 
ATOM     11  F   UNL     1      -1.764   0.287   1.102  1.00  0.00    -0.206 F 
BRANCH   6  12
ATOM     12  N   UNL     1       2.840   1.164  -0.064  1.00  0.00    -0.397 N 
ATOM     13  H   UNL     1       3.698   0.832  -0.414  1.00  0.00     0.156 HD
ATOM     14  H   UNL     1       2.776   2.079   0.294  1.00  0.00     0.156 HD
ENDBRANCH   6  12
BRANCH   7  15
ATOM     15  C   UNL     1       3.074  -1.679  -0.840  1.00  0.00     0.340 C 
ATOM     16  O   UNL     1       3.142  -2.610  -1.625  1.00  0.00    -0.246 OA
BRANCH  15  17
ATOM     17  O   UNL     1       4.073  -1.192  -0.059  1.00  0.00    -0.461 OA
BRANCH  17  18
ATOM     18  C   UNL     1       5.255  -1.997   0.011  1.00  0.00     0.246 C 
BRANCH  18  19
ATOM     19  C   UNL     1       5.357  -2.729   1.363  1.00  0.00     0.088 C 
ATOM     20  C   UNL     1       4.115  -3.536   1.733  1.00  0.00    -0.029 A 
ATOM     21  C   UNL     1       6.402  -3.830   1.235  1.00  0.00    -0.029 A 
ATOM     22  C   UNL     1       2.876  -3.071   2.154  1.00  0.00     0.005 A 
ATOM     23  C   UNL     1       4.379  -4.916   1.625  1.00  0.00    -0.014 A 
ATOM     24  C   UNL     1       5.784  -5.098   1.327  1.00  0.00    -0.014 A 
ATOM     25  C   UNL     1       7.760  -3.698   0.992  1.00  0.00     0.005 A 
ATOM     26  C   UNL     1       1.861  -4.002   2.376  1.00  0.00     0.000 A 
ATOM     27  C   UNL     1       3.369  -5.840   1.840  1.00  0.00     0.009 A 
ATOM     28  C   UNL     1       6.530  -6.251   1.163  1.00  0.00     0.009 A 
ATOM     29  C   UNL     1       8.509  -4.862   0.826  1.00  0.00     0.000 A 
ATOM     30  C   UNL     1       2.100  -5.374   2.201  1.00  0.00     0.001 A 
ATOM     31  C   UNL     1       7.900  -6.126   0.906  1.00  0.00     0.001 A 
ENDBRANCH  18  19
ENDBRANCH  17  18
ENDBRANCH  15  17
ENDBRANCH   7  15
ENDBRANCH   3   5
ENDBRANCH   2   3
ENDBRANCH   1   2
BRANCH   1  32
ATOM     32  C   UNL     1       0.126   5.101  -0.991  1.00  0.00     0.275 C 
BRANCH  32  33
ATOM     33  O   UNL     1      -1.250   4.687  -1.081  1.00  0.00    -0.458 OA
BRANCH  33  34
ATOM     34  C   UNL     1      -1.510   3.740  -2.010  1.00  0.00     0.338 C 
ATOM     35  O   UNL     1      -0.750   3.269  -2.837  1.00  0.00    -0.246 OA
BRANCH  34  36
ATOM     36  C   UNL     1      -2.871   3.231  -1.801  1.00  0.00     0.060 A 
ATOM     37  C   UNL     1      -3.050   2.261  -0.822  1.00  0.00     0.016 A 
ATOM     38  C   UNL     1      -3.924   3.584  -2.639  1.00  0.00     0.016 A 
ATOM     39  C   UNL     1      -4.249   1.563  -0.730  1.00  0.00     0.010 A 
ATOM     40  C   UNL     1      -5.164   2.950  -2.480  1.00  0.00     0.010 A 
ATOM     41  C   UNL     1      -5.332   1.905  -1.549  1.00  0.00    -0.014 A 
BRANCH  41  42
ATOM     42  C   UNL     1      -6.611   1.141  -1.464  1.00  0.00     0.031 A 
ATOM     43  C   UNL     1      -7.160   0.449  -2.685  1.00  0.00     0.074 A 
ATOM     44  C   UNL     1      -7.276   1.038  -0.295  1.00  0.00     0.049 A 
ATOM     45  N   UNL     1      -8.336  -0.096  -2.872  1.00  0.00    -0.248 NA
ATOM     46  C   UNL     1      -6.272   0.369  -3.856  1.00  0.00     0.031 C 
ATOM     47  C   UNL     1      -6.841   1.600   0.985  1.00  0.00     0.029 A 
ATOM     48  N   UNL     1      -8.464   0.415   0.008  1.00  0.00    -0.354 N 
ATOM     49  C   UNL     1      -8.350  -0.528  -4.194  1.00  0.00     0.074 A 
ATOM     50  C   UNL     1      -7.066  -0.179  -4.764  1.00  0.00     0.031 C 
ATOM     51  C   UNL     1      -7.726   1.269   1.937  1.00  0.00     0.029 A 
ATOM     52  C   UNL     1      -8.839   0.556   1.323  1.00  0.00     0.049 A 
ATOM     53  H   UNL     1      -8.994  -0.085  -0.654  1.00  0.00     0.167 HD
ATOM     54  C   UNL     1      -9.342  -1.157  -4.868  1.00  0.00     0.037 A 
ATOM     55  C   UNL     1      -9.973   0.201   1.958  1.00  0.00     0.037 A 
ATOM     56  C   UNL     1     -10.595  -1.557  -4.282  1.00  0.00     0.049 A 
ATOM     57  C   UNL     1     -11.075  -0.460   1.180  1.00  0.00     0.074 A 
ATOM     58  C   UNL     1     -11.661  -2.205  -4.883  1.00  0.00     0.029 A 
ATOM     59  N   UNL     1     -10.943  -1.367  -2.954  1.00  0.00    -0.354 N 
ATOM     60  N   UNL     1     -11.104  -0.799  -0.086  1.00  0.00    -0.248 NA
ATOM     61  C   UNL     1     -12.311  -0.768   1.913  1.00  0.00     0.031 C 
ATOM     62  C   UNL     1     -12.668  -2.376  -3.927  1.00  0.00     0.029 A 
ATOM     63  C   UNL     1     -12.210  -1.875  -2.719  1.00  0.00     0.049 A 
ATOM     64  H   UNL     1     -10.374  -0.934  -2.277  1.00  0.00     0.167 HD
ATOM     65  C   UNL     1     -12.351  -1.371  -0.297  1.00  0.00     0.074 A 
ATOM     66  C   UNL     1     -13.041  -1.355   0.976  1.00  0.00     0.031 C 
ATOM     67  C   UNL     1     -12.881  -1.859  -1.445  1.00  0.00     0.037 A 
BRANCH  54  68
ATOM     68  C   UNL     1      -9.130  -1.429  -6.330  1.00  0.00     0.057 A 
ATOM     69  C   UNL     1      -8.252  -2.420  -6.787  1.00  0.00     0.134 A 
ATOM     70  C   UNL     1      -9.854  -0.715  -7.294  1.00  0.00     0.134 A 
ATOM     71  F   UNL     1      -7.519  -3.131  -5.918  1.00  0.00    -0.206 F 
ATOM     72  C   UNL     1      -8.090  -2.678  -8.150  1.00  0.00     0.040 A 
ATOM     73  C   UNL     1      -9.720  -0.982  -8.658  1.00  0.00     0.040 A 
ATOM     74  F   UNL     1     -10.718   0.244  -6.925  1.00  0.00    -0.206 F 
ATOM     75  C   UNL     1      -8.831  -1.964  -9.089  1.00  0.00     0.006 A 
ENDBRANCH  54  68
BRANCH  55  76
ATOM     76  C   UNL     1     -10.149   0.517   3.400  1.00  0.00     0.057 A 
ATOM     77  C   UNL     1     -10.218  -0.494   4.363  1.00  0.00     0.134 A 
ATOM     78  C   UNL     1     -10.263   1.841   3.846  1.00  0.00     0.134 A 
ATOM     79  F   UNL     1     -10.143  -1.782   3.997  1.00  0.00    -0.206 F 
ATOM     80  C   UNL     1     -10.407  -0.204   5.716  1.00  0.00     0.040 A 
ATOM     81  C   UNL     1     -10.420   2.147   5.198  1.00  0.00     0.040 A 
ATOM     82  F   UNL     1     -10.207   2.858   2.974  1.00  0.00    -0.206 F 
ATOM     83  C   UNL     1     -10.500   1.121   6.137  1.00  0.00     0.006 A 
ENDBRANCH  55  76
BRANCH  67  84
ATOM     84  C   UNL     1     -14.258  -2.449  -1.365  1.00  0.00     0.057 A 
ATOM     85  C   UNL     1     -15.397  -1.647  -1.221  1.00  0.00     0.134 A 
ATOM     86  C   UNL     1     -14.446  -3.833  -1.459  1.00  0.00     0.134 A 
ATOM     87  F   UNL     1     -15.282  -0.315  -1.111  1.00  0.00    -0.206 F 
ATOM     88  C   UNL     1     -16.675  -2.205  -1.150  1.00  0.00     0.040 A 
ATOM     89  C   UNL     1     -15.720  -4.400  -1.414  1.00  0.00     0.040 A 
ATOM     90  F   UNL     1     -13.396  -4.656  -1.605  1.00  0.00    -0.206 F 
ATOM     91  C   UNL     1     -16.838  -3.585  -1.252  1.00  0.00     0.006 A 
ENDBRANCH  67  84
ENDBRANCH  41  42
ENDBRANCH  34  36
ENDBRANCH  33  34
ENDBRANCH  32  33
ENDBRANCH   1  32
TORSDOF 16
