REMARK SMILES CC(C)=CC[N@H+]1CC[C@@H](C(=O)OCCOC(=O)c2ccc(-c3c4nc(c(-c5c(F)cccc5F)c5ccc([nH]5)c(-c5c(F)cccc5F)c5nc(c(-c6c(F)cccc6F)c6ccc3[nH]6)C=C5)C=C4)cc2)[C@H]1C
REMARK SMILES IDX 13 1 12 2 10 3 11 4 9 5 6 6 7 7 72 8 8 10 73 11 5 12 4 13
REMARK SMILES IDX 1 14 2 15 3 16 14 17 15 18 16 19 17 20 18 21 19 22 71 23
REMARK SMILES IDX 20 24 70 25 21 26 22 27 23 28 64 29 24 30 69 31 63 32 65 33
REMARK SMILES IDX 25 34 68 35 62 36 61 37 26 39 52 40 35 41 51 42 36 43 39 44
REMARK SMILES IDX 50 45 66 46 37 47 38 48 49 50 67 51 40 52 27 53 28 54 33 55
REMARK SMILES IDX 29 56 30 57 32 58 34 59 31 60 53 61 54 62 59 63 55 64 56 65
REMARK SMILES IDX 58 66 60 67 57 68 41 69 42 70 47 71 43 72 44 73 46 74 48 75
REMARK SMILES IDX 45 76
REMARK H PARENT 6 9 65 38 39 49
REMARK Flexibility Score: inf
ROOT
ATOM      1  C   UNL     1       2.071  -8.442  -0.885  1.00  0.00     0.274 C 
ENDROOT
BRANCH   1   2
ATOM      2  O   UNL     1       2.106  -7.007  -1.004  1.00  0.00    -0.462 OA
BRANCH   2   3
ATOM      3  C   UNL     1       3.253  -6.394  -0.646  1.00  0.00     0.315 C 
ATOM      4  O   UNL     1       4.190  -6.960  -0.089  1.00  0.00    -0.252 OA
BRANCH   3   5
ATOM      5  C   UNL     1       3.321  -4.924  -0.992  1.00  0.00     0.162 C 
ATOM      6  N   UNL     1       2.539  -2.801  -1.683  1.00  0.00    -0.329 N 
ATOM      7  C   UNL     1       3.282  -2.661  -0.427  1.00  0.00     0.263 C 
ATOM      8  C   UNL     1       2.443  -4.237  -2.055  1.00  0.00     0.195 C 
ATOM      9  H   UNL     1       3.059  -2.407  -2.467  1.00  0.00     0.348 HD
ATOM     10  C   UNL     1       3.195  -4.028   0.222  1.00  0.00     0.083 C 
ATOM     11  C   UNL     1       1.039  -4.803  -2.263  1.00  0.00     0.076 C 
BRANCH   6  12
ATOM     12  C   UNL     1       1.390  -1.912  -1.809  1.00  0.00     0.291 C 
BRANCH  12  13
ATOM     13  C   UNL     1       0.395  -2.019  -0.683  1.00  0.00     0.032 C 
ATOM     14  C   UNL     1       0.768   0.269   0.283  1.00  0.00     0.039 C 
ATOM     15  C   UNL     1       0.130  -1.092   0.260  1.00  0.00    -0.075 C 
ATOM     16  C   UNL     1      -0.805  -1.421   1.390  1.00  0.00     0.039 C 
ENDBRANCH  12  13
ENDBRANCH   6  12
ENDBRANCH   3   5
ENDBRANCH   2   3
ENDBRANCH   1   2
BRANCH   1  17
ATOM     17  C   UNL     1       2.298  -9.105  -2.247  1.00  0.00     0.275 C 
BRANCH  17  18
ATOM     18  O   UNL     1       3.658  -8.950  -2.701  1.00  0.00    -0.458 OA
BRANCH  18  19
ATOM     19  C   UNL     1       3.884  -7.880  -3.498  1.00  0.00     0.338 C 
ATOM     20  O   UNL     1       3.070  -7.058  -3.882  1.00  0.00    -0.246 OA
BRANCH  19  21
ATOM     21  C   UNL     1       5.325  -7.738  -3.753  1.00  0.00     0.060 A 
ATOM     22  C   UNL     1       5.956  -6.581  -3.294  1.00  0.00     0.016 A 
ATOM     23  C   UNL     1       6.031  -8.673  -4.511  1.00  0.00     0.016 A 
ATOM     24  C   UNL     1       7.295  -6.346  -3.581  1.00  0.00     0.010 A 
ATOM     25  C   UNL     1       7.379  -8.437  -4.804  1.00  0.00     0.010 A 
ATOM     26  C   UNL     1       8.015  -7.269  -4.345  1.00  0.00    -0.014 A 
BRANCH  26  27
ATOM     27  C   UNL     1       9.423  -6.975  -4.695  1.00  0.00     0.031 A 
ATOM     28  C   UNL     1       9.769  -6.522  -6.082  1.00  0.00     0.074 A 
ATOM     29  C   UNL     1      10.378  -7.073  -3.753  1.00  0.00     0.049 A 
ATOM     30  N   UNL     1      10.945  -6.298  -6.609  1.00  0.00    -0.248 NA
ATOM     31  C   UNL     1       8.641  -6.286  -6.998  1.00  0.00     0.031 C 
ATOM     32  C   UNL     1      10.152  -7.441  -2.355  1.00  0.00     0.029 A 
ATOM     33  N   UNL     1      11.732  -6.867  -3.831  1.00  0.00    -0.354 N 
ATOM     34  C   UNL     1      10.703  -5.916  -7.922  1.00  0.00     0.074 A 
ATOM     35  C   UNL     1       9.269  -5.946  -8.115  1.00  0.00     0.031 C 
ATOM     36  C   UNL     1      11.327  -7.434  -1.706  1.00  0.00     0.029 A 
ATOM     37  C   UNL     1      12.391  -7.109  -2.651  1.00  0.00     0.049 A 
ATOM     38  H   UNL     1      12.187  -6.575  -4.654  1.00  0.00     0.167 HD
ATOM     39  C   UNL     1      11.600  -5.572  -8.876  1.00  0.00     0.037 A 
ATOM     40  C   UNL     1      13.708  -7.099  -2.374  1.00  0.00     0.037 A 
ATOM     41  C   UNL     1      13.024  -5.528  -8.673  1.00  0.00     0.049 A 
ATOM     42  C   UNL     1      14.685  -6.770  -3.467  1.00  0.00     0.074 A 
ATOM     43  C   UNL     1      14.016  -5.202  -9.582  1.00  0.00     0.029 A 
ATOM     44  N   UNL     1      13.657  -5.811  -7.473  1.00  0.00    -0.354 N 
ATOM     45  N   UNL     1      14.450  -6.446  -4.716  1.00  0.00    -0.248 NA
ATOM     46  C   UNL     1      16.112  -6.816  -3.117  1.00  0.00     0.031 C 
ATOM     47  C   UNL     1      15.253  -5.316  -8.937  1.00  0.00     0.029 A 
ATOM     48  C   UNL     1      15.028  -5.679  -7.619  1.00  0.00     0.049 A 
ATOM     49  H   UNL     1      13.200  -6.068  -6.639  1.00  0.00     0.167 HD
ATOM     50  C   UNL     1      15.693  -6.234  -5.295  1.00  0.00     0.074 A 
ATOM     51  C   UNL     1      16.681  -6.452  -4.258  1.00  0.00     0.031 C 
ATOM     52  C   UNL     1      15.992  -5.895  -6.572  1.00  0.00     0.037 A 
BRANCH  39  53
ATOM     53  C   UNL     1      11.066  -5.244 -10.237  1.00  0.00     0.057 A 
ATOM     54  C   UNL     1      10.434  -4.025 -10.510  1.00  0.00     0.134 A 
ATOM     55  C   UNL     1      11.219  -6.147 -11.297  1.00  0.00     0.134 A 
ATOM     56  F   UNL     1      10.244  -3.125  -9.533  1.00  0.00    -0.206 F 
ATOM     57  C   UNL     1       9.961  -3.720 -11.787  1.00  0.00     0.040 A 
ATOM     58  C   UNL     1      10.767  -5.846 -12.583  1.00  0.00     0.040 A 
ATOM     59  F   UNL     1      11.818  -7.332 -11.101  1.00  0.00    -0.206 F 
ATOM     60  C   UNL     1      10.133  -4.630 -12.829  1.00  0.00     0.006 A 
ENDBRANCH  39  53
BRANCH  40  61
ATOM     61  C   UNL     1      14.182  -7.442  -1.011  1.00  0.00     0.057 A 
ATOM     62  C   UNL     1      14.742  -6.473  -0.173  1.00  0.00     0.134 A 
ATOM     63  C   UNL     1      14.096  -8.751  -0.521  1.00  0.00     0.134 A 
ATOM     64  F   UNL     1      14.873  -5.207  -0.597  1.00  0.00    -0.206 F 
ATOM     65  C   UNL     1      15.211  -6.795   1.102  1.00  0.00     0.040 A 
ATOM     66  C   UNL     1      14.540  -9.082   0.759  1.00  0.00     0.040 A 
ATOM     67  F   UNL     1      13.570  -9.725  -1.278  1.00  0.00    -0.206 F 
ATOM     68  C   UNL     1      15.106  -8.102   1.573  1.00  0.00     0.006 A 
ENDBRANCH  40  61
BRANCH  52  69
ATOM     69  C   UNL     1      17.441  -5.712  -6.906  1.00  0.00     0.057 A 
ATOM     70  C   UNL     1      18.298  -6.806  -7.077  1.00  0.00     0.134 A 
ATOM     71  C   UNL     1      17.975  -4.431  -7.089  1.00  0.00     0.134 A 
ATOM     72  F   UNL     1      17.848  -8.057  -6.901  1.00  0.00    -0.206 F 
ATOM     73  C   UNL     1      19.644  -6.630  -7.402  1.00  0.00     0.040 A 
ATOM     74  C   UNL     1      19.314  -4.243  -7.433  1.00  0.00     0.040 A 
ATOM     75  F   UNL     1      17.202  -3.344  -6.944  1.00  0.00    -0.206 F 
ATOM     76  C   UNL     1      20.153  -5.345  -7.586  1.00  0.00     0.006 A 
ENDBRANCH  52  69
ENDBRANCH  26  27
ENDBRANCH  19  21
ENDBRANCH  18  19
ENDBRANCH  17  18
ENDBRANCH   1  17
TORSDOF 13
