REMARK SMILES CCCCCC[C@@H](C)N1C[C@H](C(=O)OCCOC(=O)c2ccc(-c3c4nc(c(-c5c(F)cccc5F)c5ccc([nH]5)c(-c5c(F)cccc5F)c5nc(c(-c6c(F)cccc6F)c6ccc3[nH]6)C=C5)C=C4)cc2)CC1=O
REMARK SMILES IDX 12 1 13 2 11 3 9 4 10 5 75 6 74 7 76 8 7 9 8 10 6 11 5 12
REMARK SMILES IDX 4 13 3 14 2 15 1 16 14 17 15 18 16 19 17 20 18 21 19 22
REMARK SMILES IDX 20 23 21 24 73 25 22 26 72 27 23 28 24 29 25 30 66 31 26 32
REMARK SMILES IDX 71 33 65 34 67 35 27 36 70 37 64 38 63 39 28 41 54 42 37 43
REMARK SMILES IDX 53 44 38 45 41 46 52 47 68 48 39 49 40 50 51 52 69 53 42 54
REMARK SMILES IDX 29 55 30 56 35 57 31 58 32 59 34 60 36 61 33 62 55 63 56 64
REMARK SMILES IDX 61 65 57 66 58 67 60 68 62 69 59 70 43 71 44 72 49 73 45 74
REMARK SMILES IDX 46 75 48 76 50 77 47 78
REMARK H PARENT 67 40 41 51
REMARK Flexibility Score: inf
ROOT
ATOM      1  C   UNL     1      -3.985   7.393   1.184  1.00  0.00     0.311 C 
ATOM      2  O   UNL     1      -4.214   6.964   0.061  1.00  0.00    -0.252 OA
ENDROOT
BRANCH   1   3
ATOM      3  C   UNL     1      -2.822   6.944   2.050  1.00  0.00     0.128 C 
ATOM      4  N   UNL     1      -1.366   5.754   0.662  1.00  0.00    -0.339 N 
ATOM      5  C   UNL     1      -2.409   5.541   1.638  1.00  0.00     0.135 C 
ATOM      6  C   UNL     1      -0.788   7.006   0.799  1.00  0.00     0.223 C 
ATOM      7  C   UNL     1      -1.563   7.778   1.845  1.00  0.00     0.117 C 
ATOM      8  O   UNL     1       0.170   7.439   0.178  1.00  0.00    -0.275 OA
BRANCH   4   9
ATOM      9  C   UNL     1      -0.995   4.794  -0.390  1.00  0.00     0.082 C 
ATOM     10  C   UNL     1      -1.568   5.241  -1.739  1.00  0.00     0.031 C 
BRANCH   9  11
ATOM     11  C   UNL     1      -1.425   3.350  -0.071  1.00  0.00     0.025 C 
BRANCH  11  12
ATOM     12  C   UNL     1      -0.849   2.281  -1.008  1.00  0.00     0.002 C 
BRANCH  12  13
ATOM     13  C   UNL     1       0.679   2.232  -1.077  1.00  0.00     0.000 C 
BRANCH  13  14
ATOM     14  C   UNL     1       1.381   2.067   0.275  1.00  0.00    -0.000 C 
BRANCH  14  15
ATOM     15  C   UNL     1       0.957   0.835   1.079  1.00  0.00    -0.003 C 
ATOM     16  C   UNL     1       1.224  -0.475   0.356  1.00  0.00     0.004 C 
ENDBRANCH  14  15
ENDBRANCH  13  14
ENDBRANCH  12  13
ENDBRANCH  11  12
ENDBRANCH   9  11
ENDBRANCH   4   9
ENDBRANCH   1   3
BRANCH   1  17
ATOM     17  O   UNL     1      -4.777   8.284   1.841  1.00  0.00    -0.462 OA
BRANCH  17  18
ATOM     18  C   UNL     1      -6.048   8.556   1.214  1.00  0.00     0.274 C 
BRANCH  18  19
ATOM     19  C   UNL     1      -6.056   9.864   0.421  1.00  0.00     0.275 C 
BRANCH  19  20
ATOM     20  O   UNL     1      -5.190   9.800  -0.726  1.00  0.00    -0.458 OA
BRANCH  20  21
ATOM     21  C   UNL     1      -4.007  10.441  -0.584  1.00  0.00     0.338 C 
ATOM     22  O   UNL     1      -3.619  11.071   0.386  1.00  0.00    -0.246 OA
BRANCH  21  23
ATOM     23  C   UNL     1      -3.143  10.163  -1.739  1.00  0.00     0.060 A 
ATOM     24  C   UNL     1      -2.199   9.154  -1.589  1.00  0.00     0.016 A 
ATOM     25  C   UNL     1      -3.135  10.963  -2.880  1.00  0.00     0.016 A 
ATOM     26  C   UNL     1      -1.207   8.966  -2.540  1.00  0.00     0.010 A 
ATOM     27  C   UNL     1      -2.172  10.729  -3.876  1.00  0.00     0.010 A 
ATOM     28  C   UNL     1      -1.194   9.733  -3.705  1.00  0.00    -0.014 A 
BRANCH  28  29
ATOM     29  C   UNL     1      -0.110   9.499  -4.691  1.00  0.00     0.031 A 
ATOM     30  C   UNL     1       0.994  10.502  -4.838  1.00  0.00     0.074 A 
ATOM     31  C   UNL     1      -0.066   8.346  -5.387  1.00  0.00     0.049 A 
ATOM     32  N   UNL     1       1.964  10.541  -5.714  1.00  0.00    -0.248 NA
ATOM     33  C   UNL     1       1.010  11.607  -3.867  1.00  0.00     0.031 C 
ATOM     34  C   UNL     1      -1.019   7.242  -5.257  1.00  0.00     0.029 A 
ATOM     35  N   UNL     1       0.825   7.906  -6.334  1.00  0.00    -0.354 N 
ATOM     36  C   UNL     1       2.679  11.697  -5.431  1.00  0.00     0.074 A 
ATOM     37  C   UNL     1       2.040  12.325  -4.294  1.00  0.00     0.031 C 
ATOM     38  C   UNL     1      -0.654   6.249  -6.084  1.00  0.00     0.029 A 
ATOM     39  C   UNL     1       0.514   6.671  -6.850  1.00  0.00     0.049 A 
ATOM     40  H   UNL     1       1.612   8.426  -6.616  1.00  0.00     0.167 HD
ATOM     41  C   UNL     1       3.764  12.191  -6.073  1.00  0.00     0.037 A 
ATOM     42  C   UNL     1       1.082   5.978  -7.856  1.00  0.00     0.037 A 
ATOM     43  C   UNL     1       4.423  11.538  -7.173  1.00  0.00     0.049 A 
ATOM     44  C   UNL     1       2.251   6.577  -8.590  1.00  0.00     0.074 A 
ATOM     45  C   UNL     1       5.526  11.964  -7.894  1.00  0.00     0.029 A 
ATOM     46  N   UNL     1       4.048  10.313  -7.703  1.00  0.00    -0.354 N 
ATOM     47  N   UNL     1       2.881   7.704  -8.362  1.00  0.00    -0.248 NA
ATOM     48  C   UNL     1       2.774   5.818  -9.736  1.00  0.00     0.031 C 
ATOM     49  C   UNL     1       5.794  11.015  -8.885  1.00  0.00     0.029 A 
ATOM     50  C   UNL     1       4.883   9.979  -8.756  1.00  0.00     0.049 A 
ATOM     51  H   UNL     1       3.299   9.763  -7.379  1.00  0.00     0.167 HD
ATOM     52  C   UNL     1       3.875   7.787  -9.328  1.00  0.00     0.074 A 
ATOM     53  C   UNL     1       3.782   6.584 -10.129  1.00  0.00     0.031 C 
ATOM     54  C   UNL     1       4.778   8.775  -9.539  1.00  0.00     0.037 A 
BRANCH  41  55
ATOM     55  C   UNL     1       4.268  13.533  -5.641  1.00  0.00     0.057 A 
ATOM     56  C   UNL     1       5.008  13.714  -4.467  1.00  0.00     0.134 A 
ATOM     57  C   UNL     1       4.030  14.660  -6.439  1.00  0.00     0.134 A 
ATOM     58  F   UNL     1       5.255  12.678  -3.652  1.00  0.00    -0.206 F 
ATOM     59  C   UNL     1       5.481  14.973  -4.094  1.00  0.00     0.040 A 
ATOM     60  C   UNL     1       4.516  15.920  -6.087  1.00  0.00     0.040 A 
ATOM     61  F   UNL     1       3.329  14.552  -7.578  1.00  0.00    -0.206 F 
ATOM     62  C   UNL     1       5.241  16.079  -4.909  1.00  0.00     0.006 A 
ENDBRANCH  41  55
BRANCH  42  63
ATOM     63  C   UNL     1       0.513   4.673  -8.280  1.00  0.00     0.057 A 
ATOM     64  C   UNL     1       1.225   3.480  -8.119  1.00  0.00     0.134 A 
ATOM     65  C   UNL     1      -0.746   4.595  -8.890  1.00  0.00     0.134 A 
ATOM     66  F   UNL     1       2.448   3.491  -7.569  1.00  0.00    -0.206 F 
ATOM     67  C   UNL     1       0.714   2.258  -8.562  1.00  0.00     0.040 A 
ATOM     68  C   UNL     1      -1.281   3.377  -9.312  1.00  0.00     0.040 A 
ATOM     69  F   UNL     1      -1.477   5.703  -9.080  1.00  0.00    -0.206 F 
ATOM     70  C   UNL     1      -0.546   2.204  -9.155  1.00  0.00     0.006 A 
ENDBRANCH  42  63
BRANCH  54  71
ATOM     71  C   UNL     1       5.745   8.588 -10.669  1.00  0.00     0.057 A 
ATOM     72  C   UNL     1       5.352   8.740 -12.004  1.00  0.00     0.134 A 
ATOM     73  C   UNL     1       7.090   8.294 -10.417  1.00  0.00     0.134 A 
ATOM     74  F   UNL     1       4.073   9.007 -12.311  1.00  0.00    -0.206 F 
ATOM     75  C   UNL     1       6.261   8.590 -13.052  1.00  0.00     0.040 A 
ATOM     76  C   UNL     1       8.014   8.163 -11.455  1.00  0.00     0.040 A 
ATOM     77  F   UNL     1       7.531   8.143  -9.159  1.00  0.00    -0.206 F 
ATOM     78  C   UNL     1       7.598   8.307 -12.777  1.00  0.00     0.006 A 
ENDBRANCH  54  71
ENDBRANCH  28  29
ENDBRANCH  21  23
ENDBRANCH  20  21
ENDBRANCH  19  20
ENDBRANCH  18  19
ENDBRANCH  17  18
ENDBRANCH   1  17
TORSDOF 17
