REMARK SMILES O=C(OCCOC(=O)[C@@H]1C=C[C@H](NC(=O)[C@@H]2CCSC2)C1)c1ccc(-c2c3nc(c(-c4c(F)cccc4F)c4ccc([nH]4)c(-c4c(F)cccc4F)c4nc(c(-c5c(F)cccc5F)c5ccc2[nH]5)C=C4)C=C3)cc1
REMARK SMILES IDX 4 1 3 2 2 3 1 4 22 5 23 6 75 7 24 8 74 9 25 10 26 11 27 12
REMARK SMILES IDX 68 13 28 14 73 15 67 16 69 17 29 18 72 19 66 20 65 21 30 23
REMARK SMILES IDX 56 24 39 25 55 26 40 27 43 28 54 29 70 30 41 31 42 32 53 34
REMARK SMILES IDX 71 35 44 36 31 37 32 38 37 39 33 40 34 41 36 42 38 43 35 44
REMARK SMILES IDX 57 45 58 46 63 47 59 48 60 49 62 50 64 51 61 52 45 53 46 54
REMARK SMILES IDX 51 55 47 56 48 57 50 58 52 59 49 60 5 61 6 62 7 63 8 64 9 65
REMARK SMILES IDX 10 66 21 67 11 68 12 69 13 70 14 71 15 73 16 74 17 75 20 76
REMARK SMILES IDX 18 77 19 78
REMARK H PARENT 69 22 43 33 13 72
REMARK Flexibility Score: inf
ROOT
ATOM      1  C   UNL     1      -1.258   0.109   3.796  1.00  0.00     0.275 C 
ENDROOT
BRANCH   1   2
ATOM      2  O   UNL     1      -1.654  -0.866   2.811  1.00  0.00    -0.458 OA
BRANCH   2   3
ATOM      3  C   UNL     1      -1.370  -0.932   1.488  1.00  0.00     0.338 C 
ATOM      4  O   UNL     1      -2.028  -1.677   0.764  1.00  0.00    -0.246 OA
BRANCH   3   5
ATOM      5  C   UNL     1      -0.161  -0.288   0.894  1.00  0.00     0.060 A 
ATOM      6  C   UNL     1       0.370   0.945   1.273  1.00  0.00     0.016 A 
ATOM      7  C   UNL     1       0.503  -1.014  -0.113  1.00  0.00     0.016 A 
ATOM      8  C   UNL     1       1.595   1.382   0.766  1.00  0.00     0.010 A 
ATOM      9  C   UNL     1       1.737  -0.589  -0.619  1.00  0.00     0.010 A 
ATOM     10  C   UNL     1       2.294   0.613  -0.169  1.00  0.00    -0.014 A 
BRANCH  10  11
ATOM     11  C   UNL     1       3.494   1.197  -0.806  1.00  0.00     0.031 A 
ATOM     12  C   UNL     1       3.321   1.807  -2.165  1.00  0.00     0.074 A 
ATOM     13  C   UNL     1       4.665   1.282  -0.146  1.00  0.00     0.049 A 
ATOM     14  N   UNL     1       4.166   2.505  -2.874  1.00  0.00    -0.248 NA
ATOM     15  C   UNL     1       2.006   1.618  -2.806  1.00  0.00     0.031 C 
ATOM     16  C   UNL     1       4.931   0.747   1.190  1.00  0.00     0.029 A 
ATOM     17  N   UNL     1       5.849   1.876  -0.504  1.00  0.00    -0.354 N 
ATOM     18  C   UNL     1       3.474   2.864  -4.022  1.00  0.00     0.074 A 
ATOM     19  C   UNL     1       2.171   2.247  -3.956  1.00  0.00     0.031 C 
ATOM     20  C   UNL     1       6.196   1.044   1.542  1.00  0.00     0.029 A 
ATOM     21  C   UNL     1       6.829   1.790   0.458  1.00  0.00     0.049 A 
ATOM     22  H   UNL     1       5.986   2.324  -1.370  1.00  0.00     0.167 HD
ATOM     23  C   UNL     1       3.875   3.672  -5.029  1.00  0.00     0.037 A 
ATOM     24  C   UNL     1       8.087   2.273   0.458  1.00  0.00     0.037 A 
ATOM     25  C   UNL     1       5.179   4.263  -5.101  1.00  0.00     0.049 A 
ATOM     26  C   UNL     1       8.540   3.093  -0.725  1.00  0.00     0.074 A 
ATOM     27  C   UNL     1       5.713   5.059  -6.095  1.00  0.00     0.029 A 
ATOM     28  N   UNL     1       6.160   4.108  -4.132  1.00  0.00    -0.354 N 
ATOM     29  N   UNL     1       7.862   3.460  -1.787  1.00  0.00    -0.248 NA
ATOM     30  C   UNL     1       9.927   3.581  -0.704  1.00  0.00     0.031 C 
ATOM     31  C   UNL     1       7.035   5.355  -5.745  1.00  0.00     0.029 A 
ATOM     32  C   UNL     1       7.305   4.782  -4.511  1.00  0.00     0.049 A 
ATOM     33  H   UNL     1       6.055   3.594  -3.299  1.00  0.00     0.167 HD
ATOM     34  C   UNL     1       8.726   4.244  -2.542  1.00  0.00     0.074 A 
ATOM     35  C   UNL     1       9.970   4.319  -1.803  1.00  0.00     0.031 C 
ATOM     36  C   UNL     1       8.520   4.845  -3.740  1.00  0.00     0.037 A 
BRANCH  23  37
ATOM     37  C   UNL     1       2.880   3.932  -6.117  1.00  0.00     0.057 A 
ATOM     38  C   UNL     1       1.753   4.739  -5.901  1.00  0.00     0.134 A 
ATOM     39  C   UNL     1       3.021   3.339  -7.375  1.00  0.00     0.134 A 
ATOM     40  F   UNL     1       1.543   5.307  -4.703  1.00  0.00    -0.206 F 
ATOM     41  C   UNL     1       0.788   4.923  -6.891  1.00  0.00     0.040 A 
ATOM     42  C   UNL     1       2.075   3.536  -8.382  1.00  0.00     0.040 A 
ATOM     43  F   UNL     1       4.070   2.546  -7.641  1.00  0.00    -0.206 F 
ATOM     44  C   UNL     1       0.950   4.323  -8.138  1.00  0.00     0.006 A 
ENDBRANCH  23  37
BRANCH  24  45
ATOM     45  C   UNL     1       9.016   2.014   1.594  1.00  0.00     0.057 A 
ATOM     46  C   UNL     1       9.504   3.053   2.397  1.00  0.00     0.134 A 
ATOM     47  C   UNL     1       9.502   0.726   1.854  1.00  0.00     0.134 A 
ATOM     48  F   UNL     1       9.094   4.314   2.191  1.00  0.00    -0.206 F 
ATOM     49  C   UNL     1      10.468   2.830   3.384  1.00  0.00     0.040 A 
ATOM     50  C   UNL     1      10.446   0.484   2.856  1.00  0.00     0.040 A 
ATOM     51  F   UNL     1       9.075  -0.319   1.130  1.00  0.00    -0.206 F 
ATOM     52  C   UNL     1      10.943   1.542   3.615  1.00  0.00     0.006 A 
ENDBRANCH  24  45
BRANCH  36  53
ATOM     53  C   UNL     1       9.651   5.654  -4.302  1.00  0.00     0.057 A 
ATOM     54  C   UNL     1      10.806   5.051  -4.813  1.00  0.00     0.134 A 
ATOM     55  C   UNL     1       9.558   7.049  -4.377  1.00  0.00     0.134 A 
ATOM     56  F   UNL     1      10.959   3.719  -4.760  1.00  0.00    -0.206 F 
ATOM     57  C   UNL     1      11.842   5.810  -5.357  1.00  0.00     0.040 A 
ATOM     58  C   UNL     1      10.574   7.816  -4.946  1.00  0.00     0.040 A 
ATOM     59  F   UNL     1       8.471   7.686  -3.915  1.00  0.00    -0.206 F 
ATOM     60  C   UNL     1      11.724   7.197  -5.431  1.00  0.00     0.006 A 
ENDBRANCH  36  53
ENDBRANCH  10  11
ENDBRANCH   3   5
ENDBRANCH   2   3
ENDBRANCH   1   2
BRANCH   1  61
ATOM     61  C   UNL     1       0.046  -0.202   4.540  1.00  0.00     0.274 C 
BRANCH  61  62
ATOM     62  O   UNL     1       1.119  -0.618   3.679  1.00  0.00    -0.462 OA
BRANCH  62  63
ATOM     63  C   UNL     1       1.198  -1.966   3.463  1.00  0.00     0.312 C 
ATOM     64  O   UNL     1       0.485  -2.790   4.024  1.00  0.00    -0.252 OA
BRANCH  63  65
ATOM     65  C   UNL     1       2.295  -2.281   2.449  1.00  0.00     0.124 C 
ATOM     66  C   UNL     1       1.986  -3.484   1.604  1.00  0.00    -0.014 C 
ATOM     67  C   UNL     1       3.611  -2.715   3.082  1.00  0.00     0.048 C 
ATOM     68  C   UNL     1       2.696  -4.550   1.996  1.00  0.00    -0.006 C 
ATOM     69  C   UNL     1       3.509  -4.238   3.220  1.00  0.00     0.106 C 
BRANCH  69  70
ATOM     70  N   UNL     1       2.744  -4.801   4.321  1.00  0.00    -0.350 N 
ATOM     71  C   UNL     1       2.603  -4.515   5.641  1.00  0.00     0.224 C 
ATOM     72  H   UNL     1       2.200  -5.573   4.043  1.00  0.00     0.164 HD
ATOM     73  O   UNL     1       1.959  -5.309   6.327  1.00  0.00    -0.275 OA
BRANCH  71  74
ATOM     74  C   UNL     1       3.207  -3.250   6.224  1.00  0.00     0.089 C 
ATOM     75  C   UNL     1       4.732  -3.316   6.260  1.00  0.00     0.025 C 
ATOM     76  C   UNL     1       2.724  -2.944   7.640  1.00  0.00     0.083 C 
ATOM     77  C   UNL     1       5.111  -4.135   7.479  1.00  0.00     0.070 C 
ATOM     78  S   UNL     1       4.014  -3.529   8.778  1.00  0.00    -0.161 SA
ENDBRANCH  71  74
ENDBRANCH  69  70
ENDBRANCH  63  65
ENDBRANCH  62  63
ENDBRANCH  61  62
ENDBRANCH   1  61
TORSDOF 13
