REMARK SMILES CC[C@@](C)(NC(=O)c1cccc(Br)c1C)C(=O)OCCOC(=O)c1ccc(-c2c3nc(c(-c4c(F)cccc4F)c4ccc([nH]4)c(-c4c(F)cccc4F)c4nc(c(-c5c(F)cccc5F)c5ccc2[nH]5)C=C4)C=C3)cc1
REMARK SMILES IDX 19 1 18 2 16 3 17 4 3 5 4 6 2 7 1 8 5 9 6 10 7 12 8 13 9 14
REMARK SMILES IDX 14 15 10 16 12 17 15 18 11 19 13 20 20 21 21 22 22 23 23 24
REMARK SMILES IDX 24 25 25 26 77 27 26 28 76 29 27 30 28 31 29 32 70 33 30 34
REMARK SMILES IDX 75 35 69 36 71 37 31 38 74 39 68 40 67 41 32 43 58 44 41 45
REMARK SMILES IDX 57 46 42 47 45 48 56 49 72 50 43 51 44 52 55 54 73 55 46 56
REMARK SMILES IDX 33 57 34 58 39 59 35 60 36 61 38 62 40 63 37 64 59 65 60 66
REMARK SMILES IDX 65 67 61 68 62 69 64 70 66 71 63 72 47 73 48 74 53 75 49 76
REMARK SMILES IDX 50 77 52 78 54 79 51 80
REMARK H PARENT 5 11 71 42 45 53
REMARK Flexibility Score: inf
ROOT
ATOM      1  C   UNL     1       4.718   0.894  -2.017  1.00  0.00     0.274 C 
ENDROOT
BRANCH   1   2
ATOM      2  O   UNL     1       3.405   1.493  -2.119  1.00  0.00    -0.460 OA
BRANCH   2   3
ATOM      3  C   UNL     1       2.359   0.638  -2.034  1.00  0.00     0.331 C 
ATOM      4  O   UNL     1       2.488  -0.554  -1.769  1.00  0.00    -0.249 OA
BRANCH   3   5
ATOM      5  C   UNL     1       0.978   1.281  -2.361  1.00  0.00     0.135 C 
ATOM      6  C   UNL     1       0.367   0.441  -3.499  1.00  0.00     0.047 C 
BRANCH   5   7
ATOM      7  C   UNL     1       0.029   1.145  -1.112  1.00  0.00     0.037 C 
ATOM      8  C   UNL     1      -0.069  -0.197  -0.399  1.00  0.00     0.007 C 
ENDBRANCH   5   7
BRANCH   5   9
ATOM      9  N   UNL     1       0.866   2.739  -2.712  1.00  0.00    -0.336 N 
ATOM     10  C   UNL     1       1.427   3.620  -3.592  1.00  0.00     0.252 C 
ATOM     11  H   UNL     1       0.196   3.186  -2.145  1.00  0.00     0.165 HD
ATOM     12  O   UNL     1       0.710   4.519  -4.035  1.00  0.00    -0.269 OA
BRANCH  10  13
ATOM     13  C   UNL     1       2.873   3.721  -3.855  1.00  0.00     0.043 A 
ATOM     14  C   UNL     1       3.517   4.783  -3.195  1.00  0.00     0.014 A 
ATOM     15  C   UNL     1       3.560   2.967  -4.822  1.00  0.00    -0.024 A 
ATOM     16  C   UNL     1       4.861   5.061  -3.430  1.00  0.00     0.002 A 
ATOM     17  C   UNL     1       4.937   3.222  -4.994  1.00  0.00     0.021 A 
ATOM     18  C   UNL     1       2.857   1.920  -5.629  1.00  0.00     0.046 C 
ATOM     19  C   UNL     1       5.577   4.265  -4.314  1.00  0.00     0.016 A 
ATOM     20  Br  UNL     1       6.027   2.154  -6.131  1.00  0.00    -0.051 Br
ENDBRANCH  10  13
ENDBRANCH   5   9
ENDBRANCH   3   5
ENDBRANCH   2   3
ENDBRANCH   1   2
BRANCH   1  21
ATOM     21  C   UNL     1       5.666   1.840  -1.290  1.00  0.00     0.275 C 
BRANCH  21  22
ATOM     22  O   UNL     1       5.181   1.987   0.051  1.00  0.00    -0.458 OA
BRANCH  22  23
ATOM     23  C   UNL     1       4.550   3.151   0.318  1.00  0.00     0.338 C 
ATOM     24  O   UNL     1       4.539   4.185  -0.319  1.00  0.00    -0.246 OA
BRANCH  23  25
ATOM     25  C   UNL     1       3.752   2.930   1.520  1.00  0.00     0.060 A 
ATOM     26  C   UNL     1       2.566   2.204   1.402  1.00  0.00     0.016 A 
ATOM     27  C   UNL     1       4.166   3.451   2.739  1.00  0.00     0.016 A 
ATOM     28  C   UNL     1       1.762   2.006   2.515  1.00  0.00     0.010 A 
ATOM     29  C   UNL     1       3.392   3.200   3.867  1.00  0.00     0.010 A 
ATOM     30  C   UNL     1       2.188   2.479   3.761  1.00  0.00    -0.014 A 
BRANCH  30  31
ATOM     31  C   UNL     1       1.391   2.209   4.975  1.00  0.00     0.031 A 
ATOM     32  C   UNL     1       0.763   3.352   5.710  1.00  0.00     0.074 A 
ATOM     33  C   UNL     1       1.290   0.946   5.427  1.00  0.00     0.049 A 
ATOM     34  N   UNL     1       0.237   3.376   6.906  1.00  0.00    -0.248 NA
ATOM     35  C   UNL     1       0.740   4.646   5.011  1.00  0.00     0.031 C 
ATOM     36  C   UNL     1       1.830  -0.238   4.755  1.00  0.00     0.029 A 
ATOM     37  N   UNL     1       0.714   0.449   6.566  1.00  0.00    -0.354 N 
ATOM     38  C   UNL     1      -0.135   4.695   7.124  1.00  0.00     0.074 A 
ATOM     39  C   UNL     1       0.221   5.441   5.936  1.00  0.00     0.031 C 
ATOM     40  C   UNL     1       1.557  -1.325   5.492  1.00  0.00     0.029 A 
ATOM     41  C   UNL     1       0.894  -0.905   6.720  1.00  0.00     0.049 A 
ATOM     42  H   UNL     1       0.221   1.006   7.210  1.00  0.00     0.167 HD
ATOM     43  C   UNL     1      -0.712   5.227   8.227  1.00  0.00     0.037 A 
ATOM     44  C   UNL     1       0.601  -1.704   7.761  1.00  0.00     0.037 A 
ATOM     45  C   UNL     1      -1.069   4.453   9.388  1.00  0.00     0.049 A 
ATOM     46  C   UNL     1      -0.015  -1.087   8.983  1.00  0.00     0.074 A 
ATOM     47  C   UNL     1      -1.646   4.878  10.570  1.00  0.00     0.029 A 
ATOM     48  N   UNL     1      -0.884   3.081   9.501  1.00  0.00    -0.354 N 
ATOM     49  N   UNL     1      -0.322   0.170   9.205  1.00  0.00    -0.248 NA
ATOM     50  C   UNL     1      -0.310  -1.988  10.102  1.00  0.00     0.031 C 
ATOM     51  C   UNL     1      -1.783   3.767  11.411  1.00  0.00     0.029 A 
ATOM     52  C   UNL     1      -1.330   2.643  10.736  1.00  0.00     0.049 A 
ATOM     53  H   UNL     1      -0.493   2.504   8.806  1.00  0.00     0.167 HD
ATOM     54  C   UNL     1      -0.858   0.210  10.483  1.00  0.00     0.074 A 
ATOM     55  C   UNL     1      -0.852  -1.153  10.979  1.00  0.00     0.031 C 
ATOM     56  C   UNL     1      -1.310   1.275  11.190  1.00  0.00     0.037 A 
BRANCH  43  57
ATOM     57  C   UNL     1      -0.941   6.709   8.239  1.00  0.00     0.057 A 
ATOM     58  C   UNL     1      -1.927   7.318   7.454  1.00  0.00     0.134 A 
ATOM     59  C   UNL     1      -0.156   7.543   9.048  1.00  0.00     0.134 A 
ATOM     60  F   UNL     1      -2.700   6.581   6.642  1.00  0.00    -0.206 F 
ATOM     61  C   UNL     1      -2.108   8.704   7.452  1.00  0.00     0.040 A 
ATOM     62  C   UNL     1      -0.343   8.926   9.072  1.00  0.00     0.040 A 
ATOM     63  F   UNL     1       0.808   7.026   9.825  1.00  0.00    -0.206 F 
ATOM     64  C   UNL     1      -1.317   9.511   8.267  1.00  0.00     0.006 A 
ENDBRANCH  43  57
BRANCH  44  65
ATOM     65  C   UNL     1       0.920  -3.153   7.697  1.00  0.00     0.057 A 
ATOM     66  C   UNL     1      -0.095  -4.113   7.619  1.00  0.00     0.134 A 
ATOM     67  C   UNL     1       2.243  -3.613   7.687  1.00  0.00     0.134 A 
ATOM     68  F   UNL     1      -1.382  -3.737   7.641  1.00  0.00    -0.206 F 
ATOM     69  C   UNL     1       0.193  -5.477   7.540  1.00  0.00     0.040 A 
ATOM     70  C   UNL     1       2.546  -4.971   7.582  1.00  0.00     0.040 A 
ATOM     71  F   UNL     1       3.263  -2.744   7.753  1.00  0.00    -0.206 F 
ATOM     72  C   UNL     1       1.518  -5.909   7.513  1.00  0.00     0.006 A 
ENDBRANCH  44  65
BRANCH  56  73
ATOM     73  C   UNL     1      -1.859   0.990  12.554  1.00  0.00     0.057 A 
ATOM     74  C   UNL     1      -1.022   0.696  13.637  1.00  0.00     0.134 A 
ATOM     75  C   UNL     1      -3.238   1.039  12.788  1.00  0.00     0.134 A 
ATOM     76  F   UNL     1       0.306   0.619  13.470  1.00  0.00    -0.206 F 
ATOM     77  C   UNL     1      -1.543   0.439  14.906  1.00  0.00     0.040 A 
ATOM     78  C   UNL     1      -3.768   0.807  14.057  1.00  0.00     0.040 A 
ATOM     79  F   UNL     1      -4.089   1.322  11.790  1.00  0.00    -0.206 F 
ATOM     80  C   UNL     1      -2.919   0.501  15.119  1.00  0.00     0.006 A 
ENDBRANCH  56  73
ENDBRANCH  30  31
ENDBRANCH  23  25
ENDBRANCH  22  23
ENDBRANCH  21  22
ENDBRANCH   1  21
TORSDOF 14
