REMARK SMILES Cc1nn(CC(=O)OCCOC(=O)c2ccc(-c3c4nc(c(-c5c(F)cccc5F)c5ccc([nH]5)c(-c5c(F)cccc5F)c5nc(c(-c6c(F)cccc6F)c6ccc3[nH]6)C=C5)C=C4)cc2)c(C)c1NS(=O)(=O)c1cccc2cccnc12
REMARK SMILES IDX 9 1 8 2 6 3 7 4 5 5 4 6 1 7 2 8 3 9 70 10 68 11 69 12 71 13
REMARK SMILES IDX 72 15 73 16 74 17 75 18 76 19 84 20 77 21 79 22 83 23 78 24
REMARK SMILES IDX 80 25 82 26 81 27 10 28 11 29 12 30 13 31 14 32 15 33 67 34
REMARK SMILES IDX 16 35 66 36 17 37 18 38 19 39 60 40 20 41 65 42 59 43 61 44
REMARK SMILES IDX 21 45 64 46 58 47 57 48 22 50 48 51 31 52 47 53 32 54 35 55
REMARK SMILES IDX 46 56 62 57 33 58 34 59 45 61 63 62 36 63 23 64 24 65 29 66
REMARK SMILES IDX 25 67 26 68 28 69 30 70 27 71 49 72 50 73 55 74 51 75 52 76
REMARK SMILES IDX 54 77 56 78 53 79 37 80 38 81 43 82 39 83 40 84 42 85 44 86
REMARK SMILES IDX 41 87
REMARK H PARENT 71 14 61 49 35 60
REMARK Flexibility Score: inf
ROOT
ATOM      1  C   UNL     1      -1.317  -5.987  -2.302  1.00  0.00     0.274 C 
ENDROOT
BRANCH   1   2
ATOM      2  O   UNL     1      -0.869  -5.289  -1.109  1.00  0.00    -0.461 OA
BRANCH   2   3
ATOM      3  C   UNL     1      -0.079  -5.994  -0.255  1.00  0.00     0.327 C 
ATOM      4  O   UNL     1       0.132  -7.201  -0.384  1.00  0.00    -0.250 OA
BRANCH   3   5
ATOM      5  C   UNL     1       0.596  -5.222   0.855  1.00  0.00     0.267 C 
BRANCH   5   6
ATOM      6  N   UNL     1       0.199  -3.839   1.042  1.00  0.00    -0.256 N 
ATOM      7  C   UNL     1       0.377  -0.491  -0.055  1.00  0.00     0.071 C 
ATOM      8  C   UNL     1       0.053  -1.783   0.600  1.00  0.00     0.084 A 
ATOM      9  N   UNL     1       0.798  -2.865   0.334  1.00  0.00    -0.175 NA
ATOM     10  C   UNL     1      -0.965  -2.085   1.551  1.00  0.00     0.093 A 
ATOM     11  C   UNL     1      -0.573  -3.311   2.051  1.00  0.00     0.060 A 
ATOM     12  C   UNL     1      -0.841  -4.020   3.324  1.00  0.00     0.069 C 
BRANCH  10  13
ATOM     13  N   UNL     1      -2.037  -1.259   1.892  1.00  0.00    -0.276 N 
ATOM     14  H   UNL     1      -1.938  -0.298   1.700  1.00  0.00     0.180 HD
BRANCH  13  15
ATOM     15  S   UNL     1      -3.495  -1.755   2.606  1.00  0.00     0.264 S 
ATOM     16  O   UNL     1      -3.275  -1.676   4.034  1.00  0.00    -0.201 OA
ATOM     17  O   UNL     1      -4.507  -0.942   1.961  1.00  0.00    -0.201 OA
BRANCH  15  18
ATOM     18  C   UNL     1      -3.805  -3.425   2.072  1.00  0.00     0.114 A 
ATOM     19  C   UNL     1      -3.573  -3.742   0.721  1.00  0.00     0.024 A 
ATOM     20  C   UNL     1      -4.267  -4.386   2.982  1.00  0.00     0.091 A 
ATOM     21  C   UNL     1      -3.742  -5.046   0.277  1.00  0.00     0.002 A 
ATOM     22  C   UNL     1      -4.448  -5.704   2.492  1.00  0.00     0.002 A 
ATOM     23  N   UNL     1      -4.537  -4.119   4.277  1.00  0.00    -0.255 NA
ATOM     24  C   UNL     1      -4.162  -6.029   1.161  1.00  0.00     0.010 A 
ATOM     25  C   UNL     1      -4.930  -6.698   3.354  1.00  0.00     0.012 A 
ATOM     26  C   UNL     1      -4.988  -5.099   5.091  1.00  0.00     0.112 A 
ATOM     27  C   UNL     1      -5.210  -6.393   4.676  1.00  0.00     0.021 A 
ENDBRANCH  15  18
ENDBRANCH  13  15
ENDBRANCH  10  13
ENDBRANCH   5   6
ENDBRANCH   3   5
ENDBRANCH   2   3
ENDBRANCH   1   2
BRANCH   1  28
ATOM     28  C   UNL     1      -0.420  -5.750  -3.515  1.00  0.00     0.275 C 
BRANCH  28  29
ATOM     29  O   UNL     1       0.928  -6.101  -3.224  1.00  0.00    -0.458 OA
BRANCH  29  30
ATOM     30  C   UNL     1       1.595  -5.067  -2.668  1.00  0.00     0.338 C 
ATOM     31  O   UNL     1       1.139  -3.979  -2.364  1.00  0.00    -0.246 OA
BRANCH  30  32
ATOM     32  C   UNL     1       3.020  -5.341  -2.605  1.00  0.00     0.060 A 
ATOM     33  C   UNL     1       3.756  -4.571  -1.698  1.00  0.00     0.016 A 
ATOM     34  C   UNL     1       3.592  -5.979  -3.708  1.00  0.00     0.016 A 
ATOM     35  C   UNL     1       5.052  -4.257  -2.024  1.00  0.00     0.010 A 
ATOM     36  C   UNL     1       4.876  -5.639  -4.046  1.00  0.00     0.010 A 
ATOM     37  C   UNL     1       5.550  -4.715  -3.245  1.00  0.00    -0.014 A 
BRANCH  37  38
ATOM     38  C   UNL     1       6.838  -4.222  -3.672  1.00  0.00     0.031 A 
ATOM     39  C   UNL     1       7.971  -4.881  -2.990  1.00  0.00     0.074 A 
ATOM     40  C   UNL     1       6.951  -3.367  -4.704  1.00  0.00     0.049 A 
ATOM     41  N   UNL     1       8.883  -4.344  -2.252  1.00  0.00    -0.248 NA
ATOM     42  C   UNL     1       8.006  -6.354  -3.022  1.00  0.00     0.031 C 
ATOM     43  C   UNL     1       5.903  -2.917  -5.625  1.00  0.00     0.029 A 
ATOM     44  N   UNL     1       8.075  -2.821  -5.231  1.00  0.00    -0.354 N 
ATOM     45  C   UNL     1       9.723  -5.391  -1.888  1.00  0.00     0.074 A 
ATOM     46  C   UNL     1       9.040  -6.611  -2.224  1.00  0.00     0.031 C 
ATOM     47  C   UNL     1       6.483  -2.379  -6.722  1.00  0.00     0.029 A 
ATOM     48  C   UNL     1       7.923  -2.347  -6.525  1.00  0.00     0.049 A 
ATOM     49  H   UNL     1       8.925  -2.765  -4.738  1.00  0.00     0.167 HD
ATOM     50  C   UNL     1      11.030  -5.177  -1.588  1.00  0.00     0.037 A 
ATOM     51  C   UNL     1       8.930  -2.062  -7.387  1.00  0.00     0.037 A 
ATOM     52  C   UNL     1      11.279  -3.803  -1.242  1.00  0.00     0.049 A 
ATOM     53  C   UNL     1      10.184  -1.951  -6.592  1.00  0.00     0.074 A 
ATOM     54  C   UNL     1      10.782  -2.943  -0.281  1.00  0.00     0.029 A 
ATOM     55  N   UNL     1      11.895  -3.002  -2.173  1.00  0.00    -0.354 N 
ATOM     56  N   UNL     1      10.443  -0.977  -5.766  1.00  0.00    -0.248 NA
ATOM     57  C   UNL     1      10.957  -3.168  -6.379  1.00  0.00     0.031 C 
ATOM     58  C   UNL     1      10.695  -1.675  -0.926  1.00  0.00     0.029 A 
ATOM     59  C   UNL     1      11.187  -1.828  -2.222  1.00  0.00     0.049 A 
ATOM     60  H   UNL     1      12.692  -3.228  -2.704  1.00  0.00     0.167 HD
ATOM     61  C   UNL     1      11.078  -1.582  -4.690  1.00  0.00     0.074 A 
ATOM     62  C   UNL     1      11.448  -2.914  -5.163  1.00  0.00     0.031 C 
ATOM     63  C   UNL     1      10.987  -1.063  -3.430  1.00  0.00     0.037 A 
BRANCH  50  64
ATOM     64  C   UNL     1      12.124  -6.133  -1.983  1.00  0.00     0.057 A 
ATOM     65  C   UNL     1      13.415  -5.947  -1.466  1.00  0.00     0.134 A 
ATOM     66  C   UNL     1      12.029  -7.043  -3.058  1.00  0.00     0.134 A 
ATOM     67  F   UNL     1      13.636  -5.086  -0.461  1.00  0.00    -0.206 F 
ATOM     68  C   UNL     1      14.537  -6.574  -2.019  1.00  0.00     0.040 A 
ATOM     69  C   UNL     1      13.133  -7.719  -3.579  1.00  0.00     0.040 A 
ATOM     70  F   UNL     1      10.890  -7.250  -3.730  1.00  0.00    -0.206 F 
ATOM     71  C   UNL     1      14.399  -7.461  -3.081  1.00  0.00     0.006 A 
ENDBRANCH  50  64
BRANCH  51  72
ATOM     72  C   UNL     1       8.945  -2.199  -8.861  1.00  0.00     0.057 A 
ATOM     73  C   UNL     1       9.941  -1.585  -9.632  1.00  0.00     0.134 A 
ATOM     74  C   UNL     1       8.142  -3.141  -9.530  1.00  0.00     0.134 A 
ATOM     75  F   UNL     1      10.785  -0.704  -9.076  1.00  0.00    -0.206 F 
ATOM     76  C   UNL     1      10.142  -1.902 -10.982  1.00  0.00     0.040 A 
ATOM     77  C   UNL     1       8.323  -3.458 -10.880  1.00  0.00     0.040 A 
ATOM     78  F   UNL     1       7.211  -3.852  -8.878  1.00  0.00    -0.206 F 
ATOM     79  C   UNL     1       9.337  -2.849 -11.608  1.00  0.00     0.006 A 
ENDBRANCH  51  72
BRANCH  63  80
ATOM     80  C   UNL     1      10.384   0.305  -3.276  1.00  0.00     0.057 A 
ATOM     81  C   UNL     1       9.062   0.622  -3.627  1.00  0.00     0.134 A 
ATOM     82  C   UNL     1      11.117   1.298  -2.618  1.00  0.00     0.134 A 
ATOM     83  F   UNL     1       8.247  -0.296  -4.159  1.00  0.00    -0.206 F 
ATOM     84  C   UNL     1       8.516   1.885  -3.384  1.00  0.00     0.040 A 
ATOM     85  C   UNL     1      10.572   2.553  -2.337  1.00  0.00     0.040 A 
ATOM     86  F   UNL     1      12.367   1.048  -2.196  1.00  0.00    -0.206 F 
ATOM     87  C   UNL     1       9.271   2.855  -2.732  1.00  0.00     0.006 A 
ENDBRANCH  63  80
ENDBRANCH  37  38
ENDBRANCH  30  32
ENDBRANCH  29  30
ENDBRANCH  28  29
ENDBRANCH   1  28
TORSDOF 15
