REMARK SMILES CC[C@H](CCO)CNc1cc(C(=O)OCCOC(=O)c2ccc(-c3c4nc(c(-c5c(F)cccc5F)c5ccc([nH]5)c(-c5c(F)cccc5F)c5nc(c(-c6c(F)cccc6F)c6ccc3[nH]6)C=C5)C=C4)cc2)ccn1
REMARK SMILES IDX 12 1 13 2 11 3 9 4 10 5 76 6 75 7 74 8 8 9 7 11 3 12 2 13
REMARK SMILES IDX 1 14 4 15 5 16 6 17 14 19 15 20 16 21 17 22 18 23 19 24
REMARK SMILES IDX 20 25 21 26 73 27 22 28 72 29 23 30 24 31 25 32 66 33 26 34
REMARK SMILES IDX 71 35 65 36 67 37 27 38 70 39 64 40 63 41 28 43 54 44 37 45
REMARK SMILES IDX 53 46 38 47 41 48 52 49 68 50 39 51 40 52 51 54 69 55 42 56
REMARK SMILES IDX 29 57 30 58 35 59 31 60 32 61 34 62 36 63 33 64 55 65 56 66
REMARK SMILES IDX 61 67 57 68 58 69 60 70 62 71 59 72 43 73 44 74 49 75 45 76
REMARK SMILES IDX 46 77 48 78 50 79 47 80
REMARK H PARENT 8 10 6 18 67 42 41 53
REMARK Flexibility Score: inf
ROOT
ATOM      1  C   UNL     1       2.354  -7.004  -4.352  1.00  0.00     0.338 C 
ATOM      2  O   UNL     1       3.344  -7.692  -4.156  1.00  0.00    -0.246 OA
ENDROOT
BRANCH   1   3
ATOM      3  C   UNL     1       2.396  -5.526  -4.338  1.00  0.00     0.065 A 
ATOM      4  C   UNL     1       1.453  -3.416  -3.763  1.00  0.00     0.126 A 
ATOM      5  C   UNL     1       1.325  -4.793  -3.844  1.00  0.00     0.062 A 
ATOM      6  N   UNL     1       2.514  -2.755  -4.258  1.00  0.00    -0.240 NA
ATOM      7  C   UNL     1       3.538  -3.482  -4.741  1.00  0.00     0.114 A 
ATOM      8  C   UNL     1       3.548  -4.860  -4.751  1.00  0.00     0.036 A 
BRANCH   4   9
ATOM      9  N   UNL     1       0.537  -2.630  -3.094  1.00  0.00    -0.370 N 
ATOM     10  H   UNL     1       0.160  -1.824  -3.516  1.00  0.00     0.162 HD
BRANCH   9  11
ATOM     11  C   UNL     1       0.142  -3.023  -1.750  1.00  0.00     0.118 C 
BRANCH  11  12
ATOM     12  C   UNL     1       0.710  -2.056  -0.676  1.00  0.00     0.010 C 
BRANCH  12  13
ATOM     13  C   UNL     1       0.500  -2.701   0.717  1.00  0.00     0.002 C 
ATOM     14  C   UNL     1       1.597  -2.384   1.726  1.00  0.00     0.004 C 
ENDBRANCH  12  13
BRANCH  12  15
ATOM     15  C   UNL     1       0.016  -0.677  -0.832  1.00  0.00     0.033 C 
BRANCH  15  16
ATOM     16  C   UNL     1       0.290   0.368   0.240  1.00  0.00     0.156 C 
BRANCH  16  17
ATOM     17  O   UNL     1       1.642   0.795   0.218  1.00  0.00    -0.396 OA
ATOM     18  H   UNL     1       2.223   0.038   0.391  1.00  0.00     0.210 HD
ENDBRANCH  16  17
ENDBRANCH  15  16
ENDBRANCH  12  15
ENDBRANCH  11  12
ENDBRANCH   9  11
ENDBRANCH   4   9
ENDBRANCH   1   3
BRANCH   1  19
ATOM     19  O   UNL     1       1.113  -7.440  -4.676  1.00  0.00    -0.458 OA
BRANCH  19  20
ATOM     20  C   UNL     1       0.948  -8.867  -4.811  1.00  0.00     0.275 C 
BRANCH  20  21
ATOM     21  C   UNL     1       0.881  -9.280  -6.281  1.00  0.00     0.275 C 
BRANCH  21  22
ATOM     22  O   UNL     1       2.161  -9.086  -6.911  1.00  0.00    -0.458 OA
BRANCH  22  23
ATOM     23  C   UNL     1       2.229  -8.053  -7.780  1.00  0.00     0.338 C 
ATOM     24  O   UNL     1       1.331  -7.309  -8.132  1.00  0.00    -0.246 OA
BRANCH  23  25
ATOM     25  C   UNL     1       3.623  -7.861  -8.206  1.00  0.00     0.060 A 
ATOM     26  C   UNL     1       4.482  -7.201  -7.336  1.00  0.00     0.016 A 
ATOM     27  C   UNL     1       4.039  -8.169  -9.497  1.00  0.00     0.016 A 
ATOM     28  C   UNL     1       5.721  -6.747  -7.771  1.00  0.00     0.010 A 
ATOM     29  C   UNL     1       5.331  -7.807  -9.903  1.00  0.00     0.010 A 
ATOM     30  C   UNL     1       6.174  -7.058  -9.058  1.00  0.00    -0.014 A 
BRANCH  30  31
ATOM     31  C   UNL     1       7.500  -6.562  -9.524  1.00  0.00     0.031 A 
ATOM     32  C   UNL     1       7.592  -5.696 -10.754  1.00  0.00     0.074 A 
ATOM     33  C   UNL     1       8.624  -6.856  -8.838  1.00  0.00     0.049 A 
ATOM     34  N   UNL     1       8.650  -5.326 -11.431  1.00  0.00    -0.248 NA
ATOM     35  C   UNL     1       6.324  -5.184 -11.301  1.00  0.00     0.031 C 
ATOM     36  C   UNL     1       8.686  -7.628  -7.594  1.00  0.00     0.029 A 
ATOM     37  N   UNL     1       9.937  -6.535  -9.087  1.00  0.00    -0.354 N 
ATOM     38  C   UNL     1       8.175  -4.586 -12.507  1.00  0.00     0.074 A 
ATOM     39  C   UNL     1       6.732  -4.565 -12.400  1.00  0.00     0.031 C 
ATOM     40  C   UNL     1       9.958  -7.690  -7.173  1.00  0.00     0.029 A 
ATOM     41  C   UNL     1      10.815  -7.052  -8.164  1.00  0.00     0.049 A 
ATOM     42  H   UNL     1      10.222  -5.987  -9.854  1.00  0.00     0.167 HD
ATOM     43  C   UNL     1       8.878  -3.980 -13.494  1.00  0.00     0.037 A 
ATOM     44  C   UNL     1      12.162  -7.061  -8.140  1.00  0.00     0.037 A 
ATOM     45  C   UNL     1      10.316  -3.960 -13.569  1.00  0.00     0.049 A 
ATOM     46  C   UNL     1      12.917  -6.434  -9.278  1.00  0.00     0.074 A 
ATOM     47  C   UNL     1      11.122  -3.382 -14.536  1.00  0.00     0.029 A 
ATOM     48  N   UNL     1      11.164  -4.525 -12.629  1.00  0.00    -0.354 N 
ATOM     49  N   UNL     1      12.454  -5.801 -10.329  1.00  0.00    -0.248 NA
ATOM     50  C   UNL     1      14.382  -6.541  -9.238  1.00  0.00     0.031 C 
ATOM     51  C   UNL     1      12.457  -3.624 -14.196  1.00  0.00     0.029 A 
ATOM     52  C   UNL     1      12.482  -4.315 -12.996  1.00  0.00     0.049 A 
ATOM     53  H   UNL     1      10.871  -5.005 -11.820  1.00  0.00     0.167 HD
ATOM     54  C   UNL     1      13.569  -5.417 -11.061  1.00  0.00     0.074 A 
ATOM     55  C   UNL     1      14.732  -5.871 -10.326  1.00  0.00     0.031 C 
ATOM     56  C   UNL     1      13.627  -4.754 -12.241  1.00  0.00     0.037 A 
BRANCH  43  57
ATOM     57  C   UNL     1       8.107  -3.304 -14.590  1.00  0.00     0.057 A 
ATOM     58  C   UNL     1       7.442  -2.088 -14.391  1.00  0.00     0.134 A 
ATOM     59  C   UNL     1       8.078  -3.852 -15.879  1.00  0.00     0.134 A 
ATOM     60  F   UNL     1       7.420  -1.516 -13.178  1.00  0.00    -0.206 F 
ATOM     61  C   UNL     1       6.765  -1.448 -15.431  1.00  0.00     0.040 A 
ATOM     62  C   UNL     1       7.426  -3.210 -16.933  1.00  0.00     0.040 A 
ATOM     63  F   UNL     1       8.700  -5.012 -16.140  1.00  0.00    -0.206 F 
ATOM     64  C   UNL     1       6.763  -2.006 -16.709  1.00  0.00     0.006 A 
ENDBRANCH  43  57
BRANCH  44  65
ATOM     65  C   UNL     1      12.889  -7.736  -7.034  1.00  0.00     0.057 A 
ATOM     66  C   UNL     1      13.680  -7.010  -6.136  1.00  0.00     0.134 A 
ATOM     67  C   UNL     1      12.839  -9.127  -6.868  1.00  0.00     0.134 A 
ATOM     68  F   UNL     1      13.790  -5.679  -6.258  1.00  0.00    -0.206 F 
ATOM     69  C   UNL     1      14.409  -7.642  -5.126  1.00  0.00     0.040 A 
ATOM     70  C   UNL     1      13.536  -9.768  -5.843  1.00  0.00     0.040 A 
ATOM     71  F   UNL     1      12.101  -9.882  -7.694  1.00  0.00    -0.206 F 
ATOM     72  C   UNL     1      14.333  -9.025  -4.975  1.00  0.00     0.006 A 
ENDBRANCH  44  65
BRANCH  56  73
ATOM     73  C   UNL     1      14.989  -4.435 -12.780  1.00  0.00     0.057 A 
ATOM     74  C   UNL     1      15.813  -5.420 -13.338  1.00  0.00     0.134 A 
ATOM     75  C   UNL     1      15.469  -3.119 -12.762  1.00  0.00     0.134 A 
ATOM     76  F   UNL     1      15.417  -6.701 -13.370  1.00  0.00    -0.206 F 
ATOM     77  C   UNL     1      17.078  -5.110 -13.840  1.00  0.00     0.040 A 
ATOM     78  C   UNL     1      16.721  -2.794 -13.284  1.00  0.00     0.040 A 
ATOM     79  F   UNL     1      14.725  -2.129 -12.247  1.00  0.00    -0.206 F 
ATOM     80  C   UNL     1      17.532  -3.792 -13.819  1.00  0.00     0.006 A 
ENDBRANCH  56  73
ENDBRANCH  30  31
ENDBRANCH  23  25
ENDBRANCH  22  23
ENDBRANCH  21  22
ENDBRANCH  20  21
ENDBRANCH  19  20
ENDBRANCH   1  19
TORSDOF 18
