REMARK SMILES O=C(CSc1nc(-c2cccc(F)c2)n[nH]1)OCCOC(=O)c1ccc(-c2c3nc(c(-c4c(F)cccc4F)c4ccc([nH]4)c(-c4c(F)cccc4F)c4nc(c(-c5c(F)cccc5F)c5ccc2[nH]5)C=C4)C=C3)cc1
REMARK SMILES IDX 18 1 17 2 2 3 1 4 3 5 4 6 5 7 6 8 16 9 7 10 15 11 8 13 9 14
REMARK SMILES IDX 14 15 10 16 12 17 11 18 13 19 19 20 20 21 21 22 22 23 23 24
REMARK SMILES IDX 24 25 76 26 25 27 75 28 26 29 27 30 28 31 69 32 29 33 74 34
REMARK SMILES IDX 68 35 70 36 30 37 73 38 67 39 66 40 31 42 57 43 40 44 56 45
REMARK SMILES IDX 41 46 44 47 55 48 71 49 42 50 43 51 54 53 72 54 45 55 32 56
REMARK SMILES IDX 33 57 38 58 34 59 35 60 37 61 39 62 36 63 58 64 59 65 64 66
REMARK SMILES IDX 60 67 61 68 63 69 65 70 62 71 46 72 47 73 52 74 48 75 49 76
REMARK SMILES IDX 51 77 53 78 50 79
REMARK H PARENT 16 12 70 41 44 52
REMARK Flexibility Score: inf
ROOT
ATOM      1  C   UNL     1       4.647   0.488  -1.020  1.00  0.00     0.274 C 
ENDROOT
BRANCH   1   2
ATOM      2  O   UNL     1       3.341  -0.121  -1.105  1.00  0.00    -0.461 OA
BRANCH   2   3
ATOM      3  C   UNL     1       2.676  -0.663  -0.054  1.00  0.00     0.316 C 
ATOM      4  O   UNL     1       1.455  -0.794  -0.110  1.00  0.00    -0.251 OA
BRANCH   3   5
ATOM      5  C   UNL     1       3.465  -1.073   1.171  1.00  0.00     0.200 C 
BRANCH   5   6
ATOM      6  S   UNL     1       4.428  -2.590   0.904  1.00  0.00    -0.075 SA
BRANCH   6   7
ATOM      7  C   UNL     1       3.192  -3.763   1.106  1.00  0.00     0.184 A 
ATOM      8  N   UNL     1       1.905  -3.589   0.993  1.00  0.00    -0.201 NA
ATOM      9  N   UNL     1       3.457  -5.044   1.463  1.00  0.00    -0.254 N 
ATOM     10  C   UNL     1       1.389  -4.820   1.321  1.00  0.00     0.182 A 
ATOM     11  N   UNL     1       2.318  -5.736   1.649  1.00  0.00    -0.153 NA
ATOM     12  H   UNL     1       4.361  -5.418   1.571  1.00  0.00     0.192 HD
BRANCH  10  13
ATOM     13  C   UNL     1      -0.042  -5.069   1.306  1.00  0.00     0.024 A 
ATOM     14  C   UNL     1      -0.846  -4.468   0.325  1.00  0.00     0.012 A 
ATOM     15  C   UNL     1      -0.633  -5.894   2.267  1.00  0.00     0.051 A 
ATOM     16  C   UNL     1      -2.222  -4.705   0.292  1.00  0.00     0.004 A 
ATOM     17  C   UNL     1      -2.006  -6.107   2.236  1.00  0.00     0.123 A 
ATOM     18  C   UNL     1      -2.804  -5.527   1.255  1.00  0.00     0.039 A 
ATOM     19  F   UNL     1      -2.573  -6.882   3.170  1.00  0.00    -0.207 F 
ENDBRANCH  10  13
ENDBRANCH   6   7
ENDBRANCH   5   6
ENDBRANCH   3   5
ENDBRANCH   2   3
ENDBRANCH   1   2
BRANCH   1  20
ATOM     20  C   UNL     1       4.544   1.966  -0.634  1.00  0.00     0.275 C 
BRANCH  20  21
ATOM     21  O   UNL     1       4.088   2.086   0.728  1.00  0.00    -0.458 OA
BRANCH  21  22
ATOM     22  C   UNL     1       2.791   2.448   0.890  1.00  0.00     0.338 C 
ATOM     23  O   UNL     1       2.009   2.782   0.018  1.00  0.00    -0.246 OA
BRANCH  22  24
ATOM     24  C   UNL     1       2.404   2.220   2.300  1.00  0.00     0.060 A 
ATOM     25  C   UNL     1       1.153   1.647   2.561  1.00  0.00     0.016 A 
ATOM     26  C   UNL     1       3.255   2.561   3.357  1.00  0.00     0.016 A 
ATOM     27  C   UNL     1       0.739   1.443   3.880  1.00  0.00     0.010 A 
ATOM     28  C   UNL     1       2.838   2.356   4.676  1.00  0.00     0.010 A 
ATOM     29  C   UNL     1       1.568   1.819   4.946  1.00  0.00    -0.014 A 
BRANCH  29  30
ATOM     30  C   UNL     1       1.069   1.759   6.342  1.00  0.00     0.031 A 
ATOM     31  C   UNL     1       0.549   3.012   6.991  1.00  0.00     0.074 A 
ATOM     32  C   UNL     1       1.072   0.602   7.029  1.00  0.00     0.049 A 
ATOM     33  N   UNL     1       0.089   3.187   8.204  1.00  0.00    -0.248 NA
ATOM     34  C   UNL     1       0.550   4.229   6.164  1.00  0.00     0.031 C 
ATOM     35  C   UNL     1       1.520  -0.688   6.511  1.00  0.00     0.029 A 
ATOM     36  N   UNL     1       0.685   0.333   8.319  1.00  0.00    -0.354 N 
ATOM     37  C   UNL     1      -0.268   4.527   8.281  1.00  0.00     0.074 A 
ATOM     38  C   UNL     1       0.069   5.130   7.009  1.00  0.00     0.031 C 
ATOM     39  C   UNL     1       1.382  -1.615   7.475  1.00  0.00     0.029 A 
ATOM     40  C   UNL     1       0.859  -0.979   8.684  1.00  0.00     0.049 A 
ATOM     41  H   UNL     1       0.317   1.016   8.924  1.00  0.00     0.167 HD
ATOM     42  C   UNL     1      -0.842   5.191   9.311  1.00  0.00     0.037 A 
ATOM     43  C   UNL     1       0.630  -1.595   9.860  1.00  0.00     0.037 A 
ATOM     44  C   UNL     1      -1.177   4.602  10.579  1.00  0.00     0.049 A 
ATOM     45  C   UNL     1       0.071  -0.815  11.020  1.00  0.00     0.074 A 
ATOM     46  C   UNL     1      -1.773   5.201  11.675  1.00  0.00     0.029 A 
ATOM     47  N   UNL     1      -0.940   3.281  10.924  1.00  0.00    -0.354 N 
ATOM     48  N   UNL     1      -0.284   0.446  11.073  1.00  0.00    -0.248 NA
ATOM     49  C   UNL     1      -0.119  -1.543  12.284  1.00  0.00     0.031 C 
ATOM     50  C   UNL     1      -1.858   4.254  12.699  1.00  0.00     0.029 A 
ATOM     51  C   UNL     1      -1.356   3.053  12.225  1.00  0.00     0.049 A 
ATOM     52  H   UNL     1      -0.537   2.605  10.332  1.00  0.00     0.167 HD
ATOM     53  C   UNL     1      -0.766   0.653  12.360  1.00  0.00     0.074 A 
ATOM     54  C   UNL     1      -0.661  -0.611  13.057  1.00  0.00     0.031 C 
ATOM     55  C   UNL     1      -1.256   1.790  12.910  1.00  0.00     0.037 A 
BRANCH  42  56
ATOM     56  C   UNL     1      -1.148   6.645   9.111  1.00  0.00     0.057 A 
ATOM     57  C   UNL     1      -0.407   7.631   9.772  1.00  0.00     0.134 A 
ATOM     58  C   UNL     1      -2.220   7.062   8.312  1.00  0.00     0.134 A 
ATOM     59  F   UNL     1       0.628   7.295  10.556  1.00  0.00    -0.206 F 
ATOM     60  C   UNL     1      -0.728   8.984   9.654  1.00  0.00     0.040 A 
ATOM     61  C   UNL     1      -2.537   8.414   8.169  1.00  0.00     0.040 A 
ATOM     62  F   UNL     1      -2.960   6.165   7.643  1.00  0.00    -0.206 F 
ATOM     63  C   UNL     1      -1.795   9.378   8.848  1.00  0.00     0.006 A 
ENDBRANCH  42  56
BRANCH  43  64
ATOM     64  C   UNL     1       0.920  -3.044  10.002  1.00  0.00     0.057 A 
ATOM     65  C   UNL     1       2.233  -3.526  10.045  1.00  0.00     0.134 A 
ATOM     66  C   UNL     1      -0.116  -3.979  10.110  1.00  0.00     0.134 A 
ATOM     67  F   UNL     1       3.269  -2.679   9.950  1.00  0.00    -0.206 F 
ATOM     68  C   UNL     1       2.507  -4.888  10.177  1.00  0.00     0.040 A 
ATOM     69  C   UNL     1       0.143  -5.342  10.262  1.00  0.00     0.040 A 
ATOM     70  F   UNL     1      -1.394  -3.573  10.102  1.00  0.00    -0.206 F 
ATOM     71  C   UNL     1       1.460  -5.800  10.290  1.00  0.00     0.006 A 
ENDBRANCH  43  64
BRANCH  55  72
ATOM     72  C   UNL     1      -1.743   1.732  14.328  1.00  0.00     0.057 A 
ATOM     73  C   UNL     1      -3.112   1.817  14.616  1.00  0.00     0.134 A 
ATOM     74  C   UNL     1      -0.856   1.681  15.410  1.00  0.00     0.134 A 
ATOM     75  F   UNL     1      -4.014   1.881  13.625  1.00  0.00    -0.206 F 
ATOM     76  C   UNL     1      -3.580   1.871  15.930  1.00  0.00     0.040 A 
ATOM     77  C   UNL     1      -1.314   1.711  16.729  1.00  0.00     0.040 A 
ATOM     78  F   UNL     1       0.466   1.589  15.202  1.00  0.00    -0.206 F 
ATOM     79  C   UNL     1      -2.679   1.817  16.991  1.00  0.00     0.006 A 
ENDBRANCH  55  72
ENDBRANCH  29  30
ENDBRANCH  22  24
ENDBRANCH  21  22
ENDBRANCH  20  21
ENDBRANCH   1  20
TORSDOF 14
