REMARK SMILES CCc1cc(Nc2cccc(C(=O)OCCOC(=O)c3ccc(-c4c5nc(c(-c6c(F)cccc6F)c6ccc([nH]6)c(-c6c(F)cccc6F)c6nc(c(-c7c(F)cccc7F)c7ccc4[nH]7)C=C6)C=C5)cc3)c2)nc(C(C)C)n1
REMARK SMILES IDX 15 1 14 2 12 3 13 4 11 5 7 6 8 7 74 8 9 9 10 10 6 11 5 13
REMARK SMILES IDX 3 14 4 15 80 16 76 17 75 18 2 19 1 20 77 21 78 22 79 23
REMARK SMILES IDX 16 24 17 25 18 26 19 27 20 28 21 29 73 30 22 31 72 32 23 33
REMARK SMILES IDX 24 34 25 35 66 36 26 37 71 38 65 39 67 40 27 41 70 42 64 43
REMARK SMILES IDX 63 44 28 46 54 47 37 48 53 49 38 50 41 51 52 52 68 53 39 54
REMARK SMILES IDX 40 55 51 57 69 58 42 59 29 60 30 61 35 62 31 63 32 64 34 65
REMARK SMILES IDX 36 66 33 67 55 68 56 69 61 70 57 71 58 72 60 73 62 74 59 75
REMARK SMILES IDX 43 76 44 77 49 78 45 79 46 80 48 81 50 82 47 83
REMARK H PARENT 6 12 67 45 41 56
REMARK Flexibility Score: inf
ROOT
ATOM      1  C   UNL     1      -0.962  -3.844  -9.575  1.00  0.00     0.275 C 
ENDROOT
BRANCH   1   2
ATOM      2  O   UNL     1       0.015  -3.052  -8.869  1.00  0.00    -0.458 OA
BRANCH   2   3
ATOM      3  C   UNL     1       1.218  -3.640  -8.646  1.00  0.00     0.338 C 
ATOM      4  O   UNL     1       1.536  -4.782  -8.934  1.00  0.00    -0.246 OA
BRANCH   3   5
ATOM      5  C   UNL     1       2.174  -2.647  -8.100  1.00  0.00     0.062 A 
ATOM      6  C   UNL     1       2.670  -0.744  -6.678  1.00  0.00     0.040 A 
ATOM      7  C   UNL     1       4.019  -0.831  -7.046  1.00  0.00     0.026 A 
ATOM      8  C   UNL     1       1.745  -1.626  -7.255  1.00  0.00     0.041 A 
ATOM      9  C   UNL     1       4.452  -1.846  -7.898  1.00  0.00     0.003 A 
ATOM     10  C   UNL     1       3.538  -2.777  -8.386  1.00  0.00     0.016 A 
BRANCH   6  11
ATOM     11  N   UNL     1       2.300   0.050  -5.571  1.00  0.00    -0.340 N 
ATOM     12  H   UNL     1       2.473   1.019  -5.607  1.00  0.00     0.168 HD
BRANCH  11  13
ATOM     13  C   UNL     1       1.695  -0.485  -4.413  1.00  0.00     0.134 A 
ATOM     14  C   UNL     1       0.762  -0.249  -2.268  1.00  0.00     0.046 A 
ATOM     15  C   UNL     1       1.329   0.348  -3.380  1.00  0.00     0.071 A 
ATOM     16  N   UNL     1       0.525  -1.576  -2.199  1.00  0.00    -0.238 NA
ATOM     17  C   UNL     1       0.891  -2.313  -3.258  1.00  0.00     0.133 A 
ATOM     18  N   UNL     1       1.467  -1.809  -4.354  1.00  0.00    -0.216 NA
BRANCH  14  19
ATOM     19  C   UNL     1       0.355   0.580  -1.077  1.00  0.00     0.053 C 
ATOM     20  C   UNL     1       0.970   0.059   0.215  1.00  0.00     0.011 C 
ENDBRANCH  14  19
BRANCH  17  21
ATOM     21  C   UNL     1       0.653  -3.805  -3.246  1.00  0.00     0.051 C 
ATOM     22  C   UNL     1       1.448  -4.481  -2.131  1.00  0.00     0.016 C 
ATOM     23  C   UNL     1      -0.837  -4.121  -3.145  1.00  0.00     0.016 C 
ENDBRANCH  17  21
ENDBRANCH  11  13
ENDBRANCH   6  11
ENDBRANCH   3   5
ENDBRANCH   2   3
ENDBRANCH   1   2
BRANCH   1  24
ATOM     24  C   UNL     1      -0.994  -3.438 -11.048  1.00  0.00     0.275 C 
BRANCH  24  25
ATOM     25  O   UNL     1       0.263  -3.789 -11.651  1.00  0.00    -0.458 OA
BRANCH  25  26
ATOM     26  C   UNL     1       0.813  -2.872 -12.475  1.00  0.00     0.338 C 
ATOM     27  O   UNL     1       0.325  -1.818 -12.853  1.00  0.00    -0.246 OA
BRANCH  26  28
ATOM     28  C   UNL     1       2.151  -3.340 -12.878  1.00  0.00     0.060 A 
ATOM     29  C   UNL     1       3.079  -3.701 -11.902  1.00  0.00     0.016 A 
ATOM     30  C   UNL     1       2.517  -3.354 -14.221  1.00  0.00     0.016 A 
ATOM     31  C   UNL     1       4.388  -4.023 -12.250  1.00  0.00     0.010 A 
ATOM     32  C   UNL     1       3.809  -3.755 -14.579  1.00  0.00     0.010 A 
ATOM     33  C   UNL     1       4.768  -4.068 -13.596  1.00  0.00    -0.014 A 
BRANCH  33  34
ATOM     34  C   UNL     1       6.172  -4.386 -13.977  1.00  0.00     0.031 A 
ATOM     35  C   UNL     1       6.987  -3.374 -14.738  1.00  0.00     0.074 A 
ATOM     36  C   UNL     1       6.731  -5.565 -13.643  1.00  0.00     0.049 A 
ATOM     37  N   UNL     1       8.146  -3.518 -15.329  1.00  0.00    -0.248 NA
ATOM     38  C   UNL     1       6.415  -2.023 -14.859  1.00  0.00     0.031 C 
ATOM     39  C   UNL     1       6.088  -6.622 -12.860  1.00  0.00     0.029 A 
ATOM     40  N   UNL     1       7.979  -6.072 -13.918  1.00  0.00    -0.354 N 
ATOM     41  C   UNL     1       8.408  -2.302 -15.949  1.00  0.00     0.074 A 
ATOM     42  C   UNL     1       7.294  -1.427 -15.652  1.00  0.00     0.031 C 
ATOM     43  C   UNL     1       6.955  -7.633 -12.689  1.00  0.00     0.029 A 
ATOM     44  C   UNL     1       8.185  -7.333 -13.415  1.00  0.00     0.049 A 
ATOM     45  H   UNL     1       8.660  -5.577 -14.428  1.00  0.00     0.167 HD
ATOM     46  C   UNL     1       9.477  -1.950 -16.701  1.00  0.00     0.037 A 
ATOM     47  C   UNL     1       9.229  -8.172 -13.553  1.00  0.00     0.037 A 
ATOM     48  C   UNL     1      10.620  -2.792 -16.937  1.00  0.00     0.049 A 
ATOM     49  C   UNL     1      10.398  -7.766 -14.405  1.00  0.00     0.074 A 
ATOM     50  C   UNL     1      11.764  -2.511 -17.665  1.00  0.00     0.029 A 
ATOM     51  N   UNL     1      10.773  -4.074 -16.432  1.00  0.00    -0.354 N 
ATOM     52  N   UNL     1      10.604  -6.639 -15.040  1.00  0.00    -0.248 NA
ATOM     53  C   UNL     1      11.466  -8.761 -14.582  1.00  0.00     0.031 C 
ATOM     54  C   UNL     1      12.600  -3.632 -17.619  1.00  0.00     0.029 A 
ATOM     55  C   UNL     1      11.988  -4.599 -16.838  1.00  0.00     0.049 A 
ATOM     56  H   UNL     1      10.115  -4.541 -15.868  1.00  0.00     0.167 HD
ATOM     57  C   UNL     1      11.825  -6.785 -15.685  1.00  0.00     0.074 A 
ATOM     58  C   UNL     1      12.323  -8.103 -15.350  1.00  0.00     0.031 C 
ATOM     59  C   UNL     1      12.470  -5.910 -16.492  1.00  0.00     0.037 A 
BRANCH  46  60
ATOM     60  C   UNL     1       9.448  -0.603 -17.357  1.00  0.00     0.057 A 
ATOM     61  C   UNL     1       9.682   0.578 -16.644  1.00  0.00     0.134 A 
ATOM     62  C   UNL     1       9.217  -0.496 -18.734  1.00  0.00     0.134 A 
ATOM     63  F   UNL     1       9.894   0.543 -15.320  1.00  0.00    -0.206 F 
ATOM     64  C   UNL     1       9.672   1.823 -17.277  1.00  0.00     0.040 A 
ATOM     65  C   UNL     1       9.225   0.740 -19.382  1.00  0.00     0.040 A 
ATOM     66  F   UNL     1       8.989  -1.592 -19.474  1.00  0.00    -0.206 F 
ATOM     67  C   UNL     1       9.450   1.905 -18.651  1.00  0.00     0.006 A 
ENDBRANCH  46  60
BRANCH  47  68
ATOM     68  C   UNL     1       9.203  -9.504 -12.899  1.00  0.00     0.057 A 
ATOM     69  C   UNL     1      10.043  -9.792 -11.818  1.00  0.00     0.134 A 
ATOM     70  C   UNL     1       8.348 -10.521 -13.342  1.00  0.00     0.134 A 
ATOM     71  F   UNL     1      10.904  -8.868 -11.367  1.00  0.00    -0.206 F 
ATOM     72  C   UNL     1      10.039 -11.046 -11.204  1.00  0.00     0.040 A 
ATOM     73  C   UNL     1       8.317 -11.771 -12.723  1.00  0.00     0.040 A 
ATOM     74  F   UNL     1       7.522 -10.307 -14.377  1.00  0.00    -0.206 F 
ATOM     75  C   UNL     1       9.168 -12.037 -11.653  1.00  0.00     0.006 A 
ENDBRANCH  47  68
BRANCH  59  76
ATOM     76  C   UNL     1      13.793  -6.341 -17.047  1.00  0.00     0.057 A 
ATOM     77  C   UNL     1      13.880  -7.246 -18.111  1.00  0.00     0.134 A 
ATOM     78  C   UNL     1      14.987  -5.824 -16.531  1.00  0.00     0.134 A 
ATOM     79  F   UNL     1      12.771  -7.786 -18.638  1.00  0.00    -0.206 F 
ATOM     80  C   UNL     1      15.114  -7.635 -18.635  1.00  0.00     0.040 A 
ATOM     81  C   UNL     1      16.226  -6.192 -17.058  1.00  0.00     0.040 A 
ATOM     82  F   UNL     1      14.968  -4.949 -15.514  1.00  0.00    -0.206 F 
ATOM     83  C   UNL     1      16.291  -7.103 -18.111  1.00  0.00     0.006 A 
ENDBRANCH  59  76
ENDBRANCH  33  34
ENDBRANCH  26  28
ENDBRANCH  25  26
ENDBRANCH  24  25
ENDBRANCH   1  24
TORSDOF 15
