REMARK SMILES Cc1cccc(C(=O)OCCOC(=O)c2ccc(-c3c4nc(c(-c5c(F)cccc5F)c5ccc([nH]5)c(-c5c(F)cccc5F)c5nc(c(-c6c(F)cccc6F)c6ccc3[nH]6)C=C5)C=C4)cc2)c1OC[C@@H]1C[C@H]2CC[C@@H]1C2
REMARK SMILES IDX 10 1 9 2 7 3 8 4 6 5 1 6 2 7 3 8 69 9 4 10 5 11 70 12 71 13
REMARK SMILES IDX 72 14 73 15 77 16 74 17 76 18 78 19 75 20 11 21 12 22 13 23
REMARK SMILES IDX 14 24 15 25 16 26 68 27 17 28 67 29 18 30 19 31 20 32 61 33
REMARK SMILES IDX 21 34 66 35 60 36 62 37 22 38 65 39 59 40 58 41 23 43 49 44
REMARK SMILES IDX 32 45 48 46 33 47 36 48 47 49 63 50 34 51 35 52 46 54 64 55
REMARK SMILES IDX 37 56 24 57 25 58 30 59 26 60 27 61 29 62 31 63 28 64 50 65
REMARK SMILES IDX 51 66 56 67 52 68 53 69 55 70 57 71 54 72 38 73 39 74 44 75
REMARK SMILES IDX 40 76 41 77 43 78 45 79 42 80
REMARK H PARENT 62 42 36 53
REMARK Flexibility Score: inf
ROOT
ATOM      1  C   UNL     1      -1.144   4.434  -1.713  1.00  0.00     0.275 C 
ENDROOT
BRANCH   1   2
ATOM      2  O   UNL     1      -0.980   3.010  -1.730  1.00  0.00    -0.458 OA
BRANCH   2   3
ATOM      3  C   UNL     1      -0.128   2.586  -0.751  1.00  0.00     0.342 C 
ATOM      4  O   UNL     1       0.377   3.293   0.107  1.00  0.00    -0.246 OA
BRANCH   3   5
ATOM      5  C   UNL     1       0.140   1.139  -0.827  1.00  0.00     0.102 A 
ATOM      6  C   UNL     1       2.892  -1.328  -1.717  1.00  0.00     0.048 C 
ATOM      7  C   UNL     1       1.618  -0.743  -1.171  1.00  0.00    -0.008 A 
ATOM      8  C   UNL     1       0.562  -1.626  -0.897  1.00  0.00     0.007 A 
ATOM      9  C   UNL     1       1.433   0.648  -1.032  1.00  0.00     0.136 A 
ATOM     10  C   UNL     1      -0.710  -1.136  -0.646  1.00  0.00     0.001 A 
ATOM     11  C   UNL     1      -0.924   0.239  -0.668  1.00  0.00     0.019 A 
BRANCH   9  12
ATOM     12  O   UNL     1       2.498   1.442  -1.341  1.00  0.00    -0.492 OA
BRANCH  12  13
ATOM     13  C   UNL     1       3.170   2.175  -0.308  1.00  0.00     0.233 C 
BRANCH  13  14
ATOM     14  C   UNL     1       3.327   1.585   1.108  1.00  0.00     0.030 C 
ATOM     15  C   UNL     1       4.311   2.450   1.948  1.00  0.00     0.011 C 
ATOM     16  C   UNL     1       3.991   0.193   1.220  1.00  0.00    -0.004 C 
ATOM     17  C   UNL     1       5.323   1.426   2.494  1.00  0.00    -0.010 C 
ATOM     18  C   UNL     1       3.725  -0.361   2.632  1.00  0.00     0.004 C 
ATOM     19  C   UNL     1       5.484   0.505   1.291  1.00  0.00     0.007 C 
ATOM     20  C   UNL     1       4.629   0.508   3.514  1.00  0.00     0.004 C 
ENDBRANCH  13  14
ENDBRANCH  12  13
ENDBRANCH   9  12
ENDBRANCH   3   5
ENDBRANCH   2   3
ENDBRANCH   1   2
BRANCH   1  21
ATOM     21  C   UNL     1      -2.337   4.960  -2.527  1.00  0.00     0.275 C 
BRANCH  21  22
ATOM     22  O   UNL     1      -3.602   4.241  -2.586  1.00  0.00    -0.458 OA
BRANCH  22  23
ATOM     23  C   UNL     1      -4.087   3.292  -1.760  1.00  0.00     0.338 C 
ATOM     24  O   UNL     1      -4.801   2.375  -2.155  1.00  0.00    -0.246 OA
BRANCH  23  25
ATOM     25  C   UNL     1      -3.739   3.394  -0.341  1.00  0.00     0.060 A 
ATOM     26  C   UNL     1      -3.553   2.211   0.390  1.00  0.00     0.016 A 
ATOM     27  C   UNL     1      -3.516   4.640   0.229  1.00  0.00     0.016 A 
ATOM     28  C   UNL     1      -2.978   2.253   1.650  1.00  0.00     0.010 A 
ATOM     29  C   UNL     1      -2.879   4.688   1.442  1.00  0.00     0.010 A 
ATOM     30  C   UNL     1      -2.643   3.499   2.157  1.00  0.00    -0.014 A 
BRANCH  30  31
ATOM     31  C   UNL     1      -2.370   3.738   3.558  1.00  0.00     0.031 A 
ATOM     32  C   UNL     1      -1.013   3.700   4.110  1.00  0.00     0.074 A 
ATOM     33  C   UNL     1      -3.458   4.273   4.152  1.00  0.00     0.049 A 
ATOM     34  N   UNL     1      -0.743   4.016   5.323  1.00  0.00    -0.248 NA
ATOM     35  C   UNL     1       0.167   3.273   3.366  1.00  0.00     0.031 C 
ATOM     36  C   UNL     1      -3.604   5.104   5.329  1.00  0.00     0.029 A 
ATOM     37  N   UNL     1      -4.781   3.997   3.766  1.00  0.00    -0.354 N 
ATOM     38  C   UNL     1       0.625   4.119   5.449  1.00  0.00     0.074 A 
ATOM     39  C   UNL     1       1.146   3.549   4.239  1.00  0.00     0.031 C 
ATOM     40  C   UNL     1      -4.881   5.015   5.752  1.00  0.00     0.029 A 
ATOM     41  C   UNL     1      -5.521   3.976   4.950  1.00  0.00     0.049 A 
ATOM     42  H   UNL     1      -5.116   3.850   2.852  1.00  0.00     0.167 HD
ATOM     43  C   UNL     1       1.103   4.800   6.529  1.00  0.00     0.037 A 
ATOM     44  C   UNL     1      -5.909   2.752   5.421  1.00  0.00     0.037 A 
ATOM     45  C   UNL     1       0.012   4.961   7.490  1.00  0.00     0.049 A 
ATOM     46  C   UNL     1      -5.213   2.458   6.730  1.00  0.00     0.074 A 
ATOM     47  C   UNL     1      -0.887   5.987   7.717  1.00  0.00     0.029 A 
ATOM     48  N   UNL     1      -0.534   3.814   8.059  1.00  0.00    -0.354 N 
ATOM     49  N   UNL     1      -3.978   2.789   7.014  1.00  0.00    -0.248 NA
ATOM     50  C   UNL     1      -5.935   1.901   7.867  1.00  0.00     0.031 C 
ATOM     51  C   UNL     1      -2.053   5.405   8.294  1.00  0.00     0.029 A 
ATOM     52  C   UNL     1      -1.841   4.042   8.445  1.00  0.00     0.049 A 
ATOM     53  H   UNL     1      -0.057   2.960   8.171  1.00  0.00     0.167 HD
ATOM     54  C   UNL     1      -3.770   2.597   8.357  1.00  0.00     0.074 A 
ATOM     55  C   UNL     1      -5.014   2.017   8.836  1.00  0.00     0.031 C 
ATOM     56  C   UNL     1      -2.638   2.971   9.027  1.00  0.00     0.037 A 
BRANCH  43  57
ATOM     57  C   UNL     1       2.436   5.510   6.656  1.00  0.00     0.057 A 
ATOM     58  C   UNL     1       2.666   6.368   7.756  1.00  0.00     0.134 A 
ATOM     59  C   UNL     1       3.473   5.518   5.704  1.00  0.00     0.134 A 
ATOM     60  F   UNL     1       1.786   6.467   8.763  1.00  0.00    -0.206 F 
ATOM     61  C   UNL     1       3.798   7.190   7.872  1.00  0.00     0.040 A 
ATOM     62  C   UNL     1       4.621   6.322   5.818  1.00  0.00     0.040 A 
ATOM     63  F   UNL     1       3.435   4.775   4.596  1.00  0.00    -0.206 F 
ATOM     64  C   UNL     1       4.782   7.174   6.898  1.00  0.00     0.006 A 
ENDBRANCH  43  57
BRANCH  44  65
ATOM     65  C   UNL     1      -6.213   1.763   4.330  1.00  0.00     0.057 A 
ATOM     66  C   UNL     1      -7.161   2.123   3.345  1.00  0.00     0.134 A 
ATOM     67  C   UNL     1      -5.396   0.669   4.027  1.00  0.00     0.134 A 
ATOM     68  F   UNL     1      -7.995   3.154   3.559  1.00  0.00    -0.206 F 
ATOM     69  C   UNL     1      -7.202   1.520   2.082  1.00  0.00     0.040 A 
ATOM     70  C   UNL     1      -5.452   0.034   2.773  1.00  0.00     0.040 A 
ATOM     71  F   UNL     1      -4.466   0.246   4.894  1.00  0.00    -0.206 F 
ATOM     72  C   UNL     1      -6.326   0.485   1.784  1.00  0.00     0.006 A 
ENDBRANCH  44  65
BRANCH  56  73
ATOM     73  C   UNL     1      -2.232   2.422  10.374  1.00  0.00     0.057 A 
ATOM     74  C   UNL     1      -2.658   1.179  10.866  1.00  0.00     0.134 A 
ATOM     75  C   UNL     1      -1.243   3.064  11.154  1.00  0.00     0.134 A 
ATOM     76  F   UNL     1      -3.477   0.385  10.163  1.00  0.00    -0.206 F 
ATOM     77  C   UNL     1      -2.213   0.659  12.085  1.00  0.00     0.040 A 
ATOM     78  C   UNL     1      -0.735   2.517  12.334  1.00  0.00     0.040 A 
ATOM     79  F   UNL     1      -0.695   4.232  10.791  1.00  0.00    -0.206 F 
ATOM     80  C   UNL     1      -1.240   1.322  12.819  1.00  0.00     0.006 A 
ENDBRANCH  56  73
ENDBRANCH  30  31
ENDBRANCH  23  25
ENDBRANCH  22  23
ENDBRANCH  21  22
ENDBRANCH   1  21
TORSDOF 14
