REMARK SMILES CN1C(=O)C[C@@H](C(=O)OCCOC(=O)c2ccc(-c3c4nc(c(-c5c(F)cccc5F)c5ccc([nH]5)c(-c5c(F)cccc5F)c5nc(c(-c6c(F)cccc6F)c6ccc3[nH]6)C=C5)C=C4)cc2)C12CCN(C(=O)c1ccccc1-n1cccn1)CC2
REMARK SMILES IDX 10 1 9 2 7 3 8 4 6 5 1 6 2 7 3 8 69 9 4 10 5 11 70 12 87 13
REMARK SMILES IDX 71 14 86 15 72 16 73 17 74 18 75 19 76 20 80 21 77 22 79 23
REMARK SMILES IDX 78 24 81 25 82 26 85 27 83 28 84 29 11 30 12 31 13 32 14 33
REMARK SMILES IDX 15 34 16 35 68 36 17 37 67 38 18 39 19 40 20 41 61 42 21 43
REMARK SMILES IDX 66 44 60 45 62 46 22 47 65 48 59 49 58 50 23 52 49 53 32 54
REMARK SMILES IDX 48 55 33 56 36 57 47 58 63 59 34 60 35 61 46 63 64 64 37 65
REMARK SMILES IDX 24 66 25 67 30 68 26 69 27 70 29 71 31 72 28 73 50 74 51 75
REMARK SMILES IDX 56 76 52 77 53 78 55 79 57 80 54 81 38 82 39 83 44 84 40 85
REMARK SMILES IDX 41 86 43 87 45 88 42 89
REMARK H PARENT 62 51 36 62
REMARK Flexibility Score: inf
ROOT
ATOM      1  C   UNL     1      -2.878  -1.760  -3.524  1.00  0.00     0.274 C 
ENDROOT
BRANCH   1   2
ATOM      2  O   UNL     1      -1.923  -1.866  -2.446  1.00  0.00    -0.462 OA
BRANCH   2   3
ATOM      3  C   UNL     1      -2.348  -2.514  -1.342  1.00  0.00     0.311 C 
ATOM      4  O   UNL     1      -3.498  -2.914  -1.179  1.00  0.00    -0.252 OA
BRANCH   3   5
ATOM      5  C   UNL     1      -1.287  -2.752  -0.279  1.00  0.00     0.134 C 
ATOM      6  C   UNL     1       1.285  -0.049  -0.270  1.00  0.00     0.147 C 
ATOM      7  N   UNL     1       0.213  -0.989  -0.009  1.00  0.00    -0.339 N 
ATOM      8  C   UNL     1      -0.855  -0.690   0.824  1.00  0.00     0.223 C 
ATOM      9  C   UNL     1       0.205  -2.379  -0.481  1.00  0.00     0.060 C 
ATOM     10  O   UNL     1      -1.060   0.363   1.405  1.00  0.00    -0.275 OA
ATOM     11  C   UNL     1      -1.716  -1.917   0.937  1.00  0.00     0.118 C 
ATOM     12  C   UNL     1       0.802  -2.538  -1.895  1.00  0.00     0.051 C 
ATOM     13  C   UNL     1       1.097  -3.239   0.477  1.00  0.00     0.051 C 
ATOM     14  C   UNL     1       0.886  -3.995  -2.324  1.00  0.00     0.122 C 
ATOM     15  C   UNL     1       1.303  -4.683   0.007  1.00  0.00     0.122 C 
ATOM     16  N   UNL     1       1.715  -4.756  -1.391  1.00  0.00    -0.338 N 
ATOM     17  C   UNL     1       2.727  -5.656  -1.742  1.00  0.00     0.256 C 
ATOM     18  O   UNL     1       3.283  -6.394  -0.930  1.00  0.00    -0.269 OA
BRANCH  17  19
ATOM     19  C   UNL     1       3.156  -5.784  -3.154  1.00  0.00     0.065 A 
ATOM     20  C   UNL     1       2.950  -7.046  -3.737  1.00  0.00     0.016 A 
ATOM     21  C   UNL     1       3.679  -4.739  -3.932  1.00  0.00     0.077 A 
ATOM     22  C   UNL     1       3.198  -7.251  -5.095  1.00  0.00     0.001 A 
ATOM     23  C   UNL     1       3.867  -4.940  -5.312  1.00  0.00     0.029 A 
ATOM     24  C   UNL     1       3.634  -6.192  -5.885  1.00  0.00     0.002 A 
BRANCH  21  25
ATOM     25  N   UNL     1       4.041  -3.481  -3.388  1.00  0.00    -0.240 N 
ATOM     26  C   UNL     1       4.477  -3.183  -2.114  1.00  0.00     0.115 A 
ATOM     27  N   UNL     1       3.995  -2.361  -4.160  1.00  0.00    -0.177 NA
ATOM     28  C   UNL     1       4.641  -1.819  -2.049  1.00  0.00     0.042 A 
ATOM     29  C   UNL     1       4.315  -1.365  -3.334  1.00  0.00     0.135 A 
ENDBRANCH  21  25
ENDBRANCH  17  19
ENDBRANCH   3   5
ENDBRANCH   2   3
ENDBRANCH   1   2
BRANCH   1  30
ATOM     30  C   UNL     1      -2.691  -2.909  -4.518  1.00  0.00     0.275 C 
BRANCH  30  31
ATOM     31  O   UNL     1      -2.789  -4.167  -3.823  1.00  0.00    -0.458 OA
BRANCH  31  32
ATOM     32  C   UNL     1      -1.966  -5.149  -4.259  1.00  0.00     0.338 C 
ATOM     33  O   UNL     1      -1.228  -5.101  -5.229  1.00  0.00    -0.246 OA
BRANCH  32  34
ATOM     34  C   UNL     1      -2.010  -6.311  -3.338  1.00  0.00     0.060 A 
ATOM     35  C   UNL     1      -2.221  -6.143  -1.966  1.00  0.00     0.016 A 
ATOM     36  C   UNL     1      -1.723  -7.582  -3.836  1.00  0.00     0.016 A 
ATOM     37  C   UNL     1      -2.079  -7.218  -1.091  1.00  0.00     0.010 A 
ATOM     38  C   UNL     1      -1.684  -8.679  -2.969  1.00  0.00     0.010 A 
ATOM     39  C   UNL     1      -1.847  -8.509  -1.584  1.00  0.00    -0.014 A 
BRANCH  39  40
ATOM     40  C   UNL     1      -1.810  -9.683  -0.668  1.00  0.00     0.031 A 
ATOM     41  C   UNL     1      -0.600 -10.575  -0.612  1.00  0.00     0.074 A 
ATOM     42  C   UNL     1      -2.886  -9.979   0.089  1.00  0.00     0.049 A 
ATOM     43  N   UNL     1      -0.467 -11.755  -0.059  1.00  0.00    -0.248 NA
ATOM     44  C   UNL     1       0.615 -10.085  -1.279  1.00  0.00     0.031 C 
ATOM     45  C   UNL     1      -4.120  -9.194   0.159  1.00  0.00     0.029 A 
ATOM     46  N   UNL     1      -3.118 -11.032   0.940  1.00  0.00    -0.354 N 
ATOM     47  C   UNL     1       0.825 -12.171  -0.358  1.00  0.00     0.074 A 
ATOM     48  C   UNL     1       1.435 -11.118  -1.142  1.00  0.00     0.031 C 
ATOM     49  C   UNL     1      -4.965  -9.775   1.022  1.00  0.00     0.029 A 
ATOM     50  C   UNL     1      -4.372 -11.017   1.501  1.00  0.00     0.049 A 
ATOM     51  H   UNL     1      -2.450 -11.729   1.130  1.00  0.00     0.167 HD
ATOM     52  C   UNL     1       1.442 -13.326  -0.009  1.00  0.00     0.037 A 
ATOM     53  C   UNL     1      -5.000 -11.921   2.274  1.00  0.00     0.037 A 
ATOM     54  C   UNL     1       0.855 -14.346   0.823  1.00  0.00     0.049 A 
ATOM     55  C   UNL     1      -4.304 -13.201   2.629  1.00  0.00     0.074 A 
ATOM     56  C   UNL     1       1.420 -15.534   1.259  1.00  0.00     0.029 A 
ATOM     57  N   UNL     1      -0.422 -14.293   1.360  1.00  0.00    -0.354 N 
ATOM     58  N   UNL     1      -3.101 -13.604   2.302  1.00  0.00    -0.248 NA
ATOM     59  C   UNL     1      -5.061 -14.161   3.444  1.00  0.00     0.031 C 
ATOM     60  C   UNL     1       0.473 -16.213   2.034  1.00  0.00     0.029 A 
ATOM     61  C   UNL     1      -0.668 -15.431   2.111  1.00  0.00     0.049 A 
ATOM     62  H   UNL     1      -1.060 -13.555   1.226  1.00  0.00     0.167 HD
ATOM     63  C   UNL     1      -2.952 -14.857   2.878  1.00  0.00     0.074 A 
ATOM     64  C   UNL     1      -4.180 -15.140   3.592  1.00  0.00     0.031 C 
ATOM     65  C   UNL     1      -1.894 -15.701   2.815  1.00  0.00     0.037 A 
BRANCH  52  66
ATOM     66  C   UNL     1       2.823 -13.567  -0.543  1.00  0.00     0.057 A 
ATOM     67  C   UNL     1       3.943 -12.892  -0.044  1.00  0.00     0.134 A 
ATOM     68  C   UNL     1       3.040 -14.534  -1.535  1.00  0.00     0.134 A 
ATOM     69  F   UNL     1       3.803 -11.950   0.901  1.00  0.00    -0.206 F 
ATOM     70  C   UNL     1       5.228 -13.156  -0.525  1.00  0.00     0.040 A 
ATOM     71  C   UNL     1       4.321 -14.823  -2.007  1.00  0.00     0.040 A 
ATOM     72  F   UNL     1       2.011 -15.223  -2.051  1.00  0.00    -0.206 F 
ATOM     73  C   UNL     1       5.420 -14.130  -1.504  1.00  0.00     0.006 A 
ENDBRANCH  52  66
BRANCH  53  74
ATOM     74  C   UNL     1      -6.386 -11.658   2.735  1.00  0.00     0.057 A 
ATOM     75  C   UNL     1      -6.655 -11.374   4.077  1.00  0.00     0.134 A 
ATOM     76  C   UNL     1      -7.467 -11.673   1.845  1.00  0.00     0.134 A 
ATOM     77  F   UNL     1      -5.662 -11.368   4.979  1.00  0.00    -0.206 F 
ATOM     78  C   UNL     1      -7.953 -11.119   4.522  1.00  0.00     0.040 A 
ATOM     79  C   UNL     1      -8.766 -11.395   2.271  1.00  0.00     0.040 A 
ATOM     80  F   UNL     1      -7.271 -11.935   0.545  1.00  0.00    -0.206 F 
ATOM     81  C   UNL     1      -9.012 -11.121   3.615  1.00  0.00     0.006 A 
ENDBRANCH  53  74
BRANCH  65  82
ATOM     82  C   UNL     1      -2.014 -16.996   3.561  1.00  0.00     0.057 A 
ATOM     83  C   UNL     1      -2.814 -18.044   3.090  1.00  0.00     0.134 A 
ATOM     84  C   UNL     1      -1.312 -17.200   4.755  1.00  0.00     0.134 A 
ATOM     85  F   UNL     1      -3.524 -17.903   1.961  1.00  0.00    -0.206 F 
ATOM     86  C   UNL     1      -2.930 -19.244   3.795  1.00  0.00     0.040 A 
ATOM     87  C   UNL     1      -1.403 -18.403   5.457  1.00  0.00     0.040 A 
ATOM     88  F   UNL     1      -0.526 -16.236   5.257  1.00  0.00    -0.206 F 
ATOM     89  C   UNL     1      -2.220 -19.427   4.980  1.00  0.00     0.006 A 
ENDBRANCH  65  82
ENDBRANCH  39  40
ENDBRANCH  32  34
ENDBRANCH  31  32
ENDBRANCH  30  31
ENDBRANCH   1  30
TORSDOF 13
