REMARK SMILES C[NH2+][C@]1(C(=O)OCCOC(=O)c2ccc(-c3c4nc(c(-c5c(F)cccc5F)c5ccc([nH]5)c(-c5c(F)cccc5F)c5nc(c(-c6c(F)cccc6F)c6ccc3[nH]6)C=C5)C=C4)cc2)CCC[C@@H]1CCn1cc(C)cn1
REMARK SMILES IDX 7 1 6 2 4 3 5 4 3 5 66 6 69 7 67 8 68 9 2 10 1 11 70 14
REMARK SMILES IDX 71 15 72 16 73 17 77 18 74 19 76 20 75 21 8 22 9 23 10 24
REMARK SMILES IDX 11 25 12 26 13 27 65 28 14 29 64 30 15 31 16 32 17 33 58 34
REMARK SMILES IDX 18 35 63 36 57 37 59 38 19 39 62 40 56 41 55 42 20 44 46 45
REMARK SMILES IDX 29 46 45 47 30 48 33 49 44 50 60 51 31 52 32 53 43 55 61 56
REMARK SMILES IDX 34 57 21 58 22 59 27 60 23 61 24 62 26 63 28 64 25 65 47 66
REMARK SMILES IDX 48 67 53 68 49 69 50 70 52 71 54 72 51 73 35 74 36 75 41 76
REMARK SMILES IDX 37 77 38 78 40 79 42 80 39 81
REMARK H PARENT 2 12 2 13 59 43 33 54
REMARK Flexibility Score: inf
ROOT
ATOM      1  C   UNL     1       2.303   2.217  -1.027  1.00  0.00     0.274 C 
ENDROOT
BRANCH   1   2
ATOM      2  O   UNL     1       0.876   2.404  -0.937  1.00  0.00    -0.457 OA
BRANCH   2   3
ATOM      3  C   UNL     1       0.188   1.312  -0.502  1.00  0.00     0.368 C 
ATOM      4  O   UNL     1       0.726   0.285  -0.097  1.00  0.00    -0.245 OA
BRANCH   3   5
ATOM      5  C   UNL     1      -1.348   1.500  -0.530  1.00  0.00     0.197 C 
ATOM      6  C   UNL     1      -1.830   2.586  -1.509  1.00  0.00     0.081 C 
ATOM      7  C   UNL     1      -1.963   0.245  -1.222  1.00  0.00     0.064 C 
ATOM      8  C   UNL     1      -3.279   2.218  -1.817  1.00  0.00     0.008 C 
ATOM      9  C   UNL     1      -3.368   0.699  -1.650  1.00  0.00     0.011 C 
BRANCH   5  10
ATOM     10  N   UNL     1      -1.917   1.641   0.837  1.00  0.00    -0.334 N 
ATOM     11  C   UNL     1      -1.680   2.929   1.470  1.00  0.00     0.331 C 
ATOM     12  H   UNL     1      -2.925   1.498   0.777  1.00  0.00     0.347 HD
ATOM     13  H   UNL     1      -1.444   0.947   1.416  1.00  0.00     0.347 HD
ENDBRANCH   5  10
BRANCH   7  14
ATOM     14  C   UNL     1      -1.978  -1.063  -0.400  1.00  0.00     0.034 C 
BRANCH  14  15
ATOM     15  C   UNL     1      -1.864  -2.323  -1.266  1.00  0.00     0.144 C 
BRANCH  15  16
ATOM     16  N   UNL     1      -0.580  -2.445  -1.937  1.00  0.00    -0.272 N 
ATOM     17  C   UNL     1       0.602  -2.850  -1.385  1.00  0.00     0.112 A 
ATOM     18  N   UNL     1      -0.474  -2.134  -3.244  1.00  0.00    -0.181 NA
ATOM     19  C   UNL     1       1.551  -2.762  -2.382  1.00  0.00    -0.013 A 
ATOM     20  C   UNL     1       0.822  -2.314  -3.506  1.00  0.00     0.138 A 
ATOM     21  C   UNL     1       2.999  -3.054  -2.305  1.00  0.00     0.048 C 
ENDBRANCH  15  16
ENDBRANCH  14  15
ENDBRANCH   7  14
ENDBRANCH   3   5
ENDBRANCH   2   3
ENDBRANCH   1   2
BRANCH   1  22
ATOM     22  C   UNL     1       3.015   2.682   0.242  1.00  0.00     0.275 C 
BRANCH  22  23
ATOM     23  O   UNL     1       2.538   1.945   1.381  1.00  0.00    -0.458 OA
BRANCH  23  24
ATOM     24  C   UNL     1       2.222   2.681   2.470  1.00  0.00     0.338 C 
ATOM     25  O   UNL     1       2.368   3.884   2.611  1.00  0.00    -0.246 OA
BRANCH  24  26
ATOM     26  C   UNL     1       1.648   1.823   3.528  1.00  0.00     0.060 A 
ATOM     27  C   UNL     1       0.691   0.851   3.233  1.00  0.00     0.016 A 
ATOM     28  C   UNL     1       1.985   2.077   4.857  1.00  0.00     0.016 A 
ATOM     29  C   UNL     1       0.004   0.201   4.259  1.00  0.00     0.010 A 
ATOM     30  C   UNL     1       1.365   1.358   5.883  1.00  0.00     0.010 A 
ATOM     31  C   UNL     1       0.339   0.439   5.598  1.00  0.00    -0.014 A 
BRANCH  31  32
ATOM     32  C   UNL     1      -0.401  -0.224   6.708  1.00  0.00     0.031 A 
ATOM     33  C   UNL     1      -1.103   0.611   7.747  1.00  0.00     0.074 A 
ATOM     34  C   UNL     1      -0.445  -1.567   6.806  1.00  0.00     0.049 A 
ATOM     35  N   UNL     1      -1.589   0.254   8.909  1.00  0.00    -0.248 NA
ATOM     36  C   UNL     1      -1.264   2.042   7.444  1.00  0.00     0.031 C 
ATOM     37  C   UNL     1       0.144  -2.512   5.856  1.00  0.00     0.029 A 
ATOM     38  N   UNL     1      -1.016  -2.373   7.762  1.00  0.00    -0.354 N 
ATOM     39  C   UNL     1      -2.043   1.423   9.505  1.00  0.00     0.074 A 
ATOM     40  C   UNL     1      -1.792   2.500   8.571  1.00  0.00     0.031 C 
ATOM     41  C   UNL     1      -0.128  -3.764   6.255  1.00  0.00     0.029 A 
ATOM     42  C   UNL     1      -0.833  -3.714   7.531  1.00  0.00     0.049 A 
ATOM     43  H   UNL     1      -1.510  -2.022   8.538  1.00  0.00     0.167 HD
ATOM     44  C   UNL     1      -2.609   1.585  10.725  1.00  0.00     0.037 A 
ATOM     45  C   UNL     1      -1.155  -4.785   8.280  1.00  0.00     0.037 A 
ATOM     46  C   UNL     1      -2.926   0.508  11.625  1.00  0.00     0.049 A 
ATOM     47  C   UNL     1      -1.791  -4.585   9.624  1.00  0.00     0.074 A 
ATOM     48  C   UNL     1      -3.505   0.572  12.881  1.00  0.00     0.029 A 
ATOM     49  N   UNL     1      -2.716  -0.834  11.350  1.00  0.00    -0.354 N 
ATOM     50  N   UNL     1      -2.128  -3.467  10.219  1.00  0.00    -0.248 NA
ATOM     51  C   UNL     1      -2.063  -5.794  10.415  1.00  0.00     0.031 C 
ATOM     52  C   UNL     1      -3.633  -0.732  13.372  1.00  0.00     0.029 A 
ATOM     53  C   UNL     1      -3.156  -1.608  12.411  1.00  0.00     0.049 A 
ATOM     54  H   UNL     1      -2.313  -1.185  10.523  1.00  0.00     0.167 HD
ATOM     55  C   UNL     1      -2.646  -3.835  11.453  1.00  0.00     0.074 A 
ATOM     56  C   UNL     1      -2.603  -5.282  11.512  1.00  0.00     0.031 C 
ATOM     57  C   UNL     1      -3.104  -3.045  12.453  1.00  0.00     0.037 A 
BRANCH  44  58
ATOM     58  C   UNL     1      -2.893   2.986  11.174  1.00  0.00     0.057 A 
ATOM     59  C   UNL     1      -3.982   3.718  10.688  1.00  0.00     0.134 A 
ATOM     60  C   UNL     1      -2.078   3.597  12.136  1.00  0.00     0.134 A 
ATOM     61  F   UNL     1      -4.790   3.195   9.754  1.00  0.00    -0.206 F 
ATOM     62  C   UNL     1      -4.243   5.016  11.133  1.00  0.00     0.040 A 
ATOM     63  C   UNL     1      -2.339   4.886  12.603  1.00  0.00     0.040 A 
ATOM     64  F   UNL     1      -1.020   2.947  12.644  1.00  0.00    -0.206 F 
ATOM     65  C   UNL     1      -3.424   5.601  12.098  1.00  0.00     0.006 A 
ENDBRANCH  44  58
BRANCH  45  66
ATOM     66  C   UNL     1      -0.838  -6.148   7.788  1.00  0.00     0.057 A 
ATOM     67  C   UNL     1      -1.850  -7.007   7.348  1.00  0.00     0.134 A 
ATOM     68  C   UNL     1       0.480  -6.616   7.733  1.00  0.00     0.134 A 
ATOM     69  F   UNL     1      -3.133  -6.622   7.401  1.00  0.00    -0.206 F 
ATOM     70  C   UNL     1      -1.563  -8.287   6.870  1.00  0.00     0.040 A 
ATOM     71  C   UNL     1       0.784  -7.884   7.237  1.00  0.00     0.040 A 
ATOM     72  F   UNL     1       1.493  -5.837   8.140  1.00  0.00    -0.206 F 
ATOM     73  C   UNL     1      -0.241  -8.724   6.806  1.00  0.00     0.006 A 
ENDBRANCH  45  66
BRANCH  57  74
ATOM     74  C   UNL     1      -3.603  -3.731  13.686  1.00  0.00     0.057 A 
ATOM     75  C   UNL     1      -2.720  -4.243  14.644  1.00  0.00     0.134 A 
ATOM     76  C   UNL     1      -4.975  -3.860  13.928  1.00  0.00     0.134 A 
ATOM     77  F   UNL     1      -1.394  -4.160  14.460  1.00  0.00    -0.206 F 
ATOM     78  C   UNL     1      -3.186  -4.874  15.798  1.00  0.00     0.040 A 
ATOM     79  C   UNL     1      -5.454  -4.476  15.085  1.00  0.00     0.040 A 
ATOM     80  F   UNL     1      -5.870  -3.387  13.047  1.00  0.00    -0.206 F 
ATOM     81  C   UNL     1      -4.558  -4.989  16.022  1.00  0.00     0.006 A 
ENDBRANCH  57  74
ENDBRANCH  31  32
ENDBRANCH  24  26
ENDBRANCH  23  24
ENDBRANCH  22  23
ENDBRANCH   1  22
TORSDOF 15
