REMARK SMILES Cc1cc(C)nc(N2CCCC[C@H]2C(=O)OCCOC(=O)c2ccc(-c3c4nc(c(-c5c(F)cccc5F)c5ccc([nH]5)c(-c5c(F)cccc5F)c5nc(c(-c6c(F)cccc6F)c6ccc3[nH]6)C=C5)C=C4)cc2)n1
REMARK SMILES IDX 18 1 17 2 16 3 14 4 15 5 13 6 8 7 9 8 10 9 12 10 11 11 7 12
REMARK SMILES IDX 1 13 2 14 3 15 76 16 4 17 5 18 6 19 19 20 20 21 21 22 22 23
REMARK SMILES IDX 23 24 75 25 24 26 74 27 25 28 26 29 27 30 68 31 28 32 73 33
REMARK SMILES IDX 67 34 69 35 29 36 72 37 66 38 65 39 30 41 56 42 39 43 55 44
REMARK SMILES IDX 40 45 43 46 54 47 70 48 41 49 42 50 53 52 71 53 44 54 31 55
REMARK SMILES IDX 32 56 37 57 33 58 34 59 36 60 38 61 35 62 57 63 58 64 63 65
REMARK SMILES IDX 59 66 60 67 62 68 64 69 61 70 45 71 46 72 51 73 47 74 48 75
REMARK SMILES IDX 50 76 52 77 49 78
REMARK H PARENT 69 40 43 51
REMARK Flexibility Score: inf
ROOT
ATOM      1  C   UNL     1       5.109  -3.577   1.604  1.00  0.00     0.275 C 
ENDROOT
BRANCH   1   2
ATOM      2  C   UNL     1       4.250  -3.059   0.456  1.00  0.00     0.274 C 
BRANCH   2   3
ATOM      3  O   UNL     1       2.895  -2.841   0.898  1.00  0.00    -0.461 OA
BRANCH   3   4
ATOM      4  C   UNL     1       1.943  -3.669   0.372  1.00  0.00     0.328 C 
ATOM      5  O   UNL     1       2.190  -4.649  -0.324  1.00  0.00    -0.250 OA
BRANCH   4   6
ATOM      6  C   UNL     1       0.525  -3.204   0.760  1.00  0.00     0.195 C 
ATOM      7  N   UNL     1      -0.189  -2.661  -0.387  1.00  0.00    -0.327 N 
ATOM      8  C   UNL     1      -0.578  -3.526  -1.479  1.00  0.00     0.120 C 
ATOM      9  C   UNL     1      -1.372  -4.722  -0.943  1.00  0.00     0.022 C 
ATOM     10  C   UNL     1      -0.379  -4.303   1.341  1.00  0.00     0.037 C 
ATOM     11  C   UNL     1      -0.752  -5.362   0.302  1.00  0.00     0.005 C 
BRANCH   7  12
ATOM     12  C   UNL     1      -0.133  -1.307  -0.547  1.00  0.00     0.226 A 
ATOM     13  C   UNL     1       2.395   1.304  -0.135  1.00  0.00     0.067 C 
ATOM     14  C   UNL     1       1.062   0.644  -0.302  1.00  0.00     0.043 A 
ATOM     15  C   UNL     1      -0.099   1.387  -0.303  1.00  0.00     0.047 A 
ATOM     16  N   UNL     1       1.052  -0.697  -0.396  1.00  0.00    -0.218 NA
ATOM     17  C   UNL     1      -1.275   0.680  -0.449  1.00  0.00     0.043 A 
ATOM     18  C   UNL     1      -2.598   1.375  -0.352  1.00  0.00     0.067 C 
ATOM     19  N   UNL     1      -1.299  -0.656  -0.613  1.00  0.00    -0.218 NA
ENDBRANCH   7  12
ENDBRANCH   4   6
ENDBRANCH   3   4
ENDBRANCH   2   3
ENDBRANCH   1   2
BRANCH   1  20
ATOM     20  O   UNL     1       4.628  -4.873   1.999  1.00  0.00    -0.458 OA
BRANCH  20  21
ATOM     21  C   UNL     1       4.184  -4.977   3.268  1.00  0.00     0.338 C 
ATOM     22  O   UNL     1       4.249  -4.148   4.163  1.00  0.00    -0.246 OA
BRANCH  21  23
ATOM     23  C   UNL     1       3.485  -6.259   3.415  1.00  0.00     0.060 A 
ATOM     24  C   UNL     1       2.251  -6.405   2.786  1.00  0.00     0.016 A 
ATOM     25  C   UNL     1       3.966  -7.254   4.259  1.00  0.00     0.016 A 
ATOM     26  C   UNL     1       1.444  -7.503   3.058  1.00  0.00     0.010 A 
ATOM     27  C   UNL     1       3.191  -8.400   4.470  1.00  0.00     0.010 A 
ATOM     28  C   UNL     1       1.907  -8.517   3.901  1.00  0.00    -0.014 A 
BRANCH  28  29
ATOM     29  C   UNL     1       1.023  -9.659   4.249  1.00  0.00     0.031 A 
ATOM     30  C   UNL     1       0.583  -9.848   5.674  1.00  0.00     0.074 A 
ATOM     31  C   UNL     1       0.581 -10.505   3.299  1.00  0.00     0.049 A 
ATOM     32  N   UNL     1      -0.019 -10.868   6.228  1.00  0.00    -0.248 NA
ATOM     33  C   UNL     1       0.861  -8.738   6.601  1.00  0.00     0.031 C 
ATOM     34  C   UNL     1       0.850 -10.389   1.865  1.00  0.00     0.029 A 
ATOM     35  N   UNL     1      -0.196 -11.631   3.402  1.00  0.00    -0.354 N 
ATOM     36  C   UNL     1      -0.144 -10.548   7.574  1.00  0.00     0.074 A 
ATOM     37  C   UNL     1       0.437  -9.235   7.753  1.00  0.00     0.031 C 
ATOM     38  C   UNL     1       0.228 -11.390   1.221  1.00  0.00     0.029 A 
ATOM     39  C   UNL     1      -0.412 -12.261   2.201  1.00  0.00     0.049 A 
ATOM     40  H   UNL     1      -0.565 -11.956   4.255  1.00  0.00     0.167 HD
ATOM     41  C   UNL     1      -0.687 -11.288   8.569  1.00  0.00     0.037 A 
ATOM     42  C   UNL     1      -1.015 -13.432   1.925  1.00  0.00     0.037 A 
ATOM     43  C   UNL     1      -1.306 -12.572   8.380  1.00  0.00     0.049 A 
ATOM     44  C   UNL     1      -1.551 -14.267   3.053  1.00  0.00     0.074 A 
ATOM     45  C   UNL     1      -1.873 -13.407   9.328  1.00  0.00     0.029 A 
ATOM     46  N   UNL     1      -1.455 -13.200   7.153  1.00  0.00    -0.354 N 
ATOM     47  N   UNL     1      -1.585 -14.000   4.336  1.00  0.00    -0.248 NA
ATOM     48  C   UNL     1      -2.105 -15.582   2.698  1.00  0.00     0.031 C 
ATOM     49  C   UNL     1      -2.343 -14.553   8.676  1.00  0.00     0.029 A 
ATOM     50  C   UNL     1      -2.095 -14.416   7.320  1.00  0.00     0.049 A 
ATOM     51  H   UNL     1      -1.151 -12.835   6.291  1.00  0.00     0.167 HD
ATOM     52  C   UNL     1      -2.170 -15.105   4.939  1.00  0.00     0.074 A 
ATOM     53  C   UNL     1      -2.491 -16.040   3.881  1.00  0.00     0.031 C 
ATOM     54  C   UNL     1      -2.411 -15.329   6.253  1.00  0.00     0.037 A 
BRANCH  41  55
ATOM     55  C   UNL     1      -0.591 -10.741   9.960  1.00  0.00     0.057 A 
ATOM     56  C   UNL     1      -1.417  -9.706  10.412  1.00  0.00     0.134 A 
ATOM     57  C   UNL     1       0.335 -11.275  10.865  1.00  0.00     0.134 A 
ATOM     58  F   UNL     1      -2.312  -9.140   9.588  1.00  0.00    -0.206 F 
ATOM     59  C   UNL     1      -1.313  -9.209  11.713  1.00  0.00     0.040 A 
ATOM     60  C   UNL     1       0.436 -10.800  12.173  1.00  0.00     0.040 A 
ATOM     61  F   UNL     1       1.156 -12.269  10.492  1.00  0.00    -0.206 F 
ATOM     62  C   UNL     1      -0.388  -9.760  12.598  1.00  0.00     0.006 A 
ENDBRANCH  41  55
BRANCH  42  63
ATOM     63  C   UNL     1      -1.095 -13.916   0.524  1.00  0.00     0.057 A 
ATOM     64  C   UNL     1      -2.320 -13.977  -0.149  1.00  0.00     0.134 A 
ATOM     65  C   UNL     1       0.046 -14.340  -0.168  1.00  0.00     0.134 A 
ATOM     66  F   UNL     1      -3.450 -13.611   0.471  1.00  0.00    -0.206 F 
ATOM     67  C   UNL     1      -2.409 -14.450  -1.459  1.00  0.00     0.040 A 
ATOM     68  C   UNL     1      -0.025 -14.793  -1.485  1.00  0.00     0.040 A 
ATOM     69  F   UNL     1       1.248 -14.309   0.425  1.00  0.00    -0.206 F 
ATOM     70  C   UNL     1      -1.257 -14.854  -2.133  1.00  0.00     0.006 A 
ENDBRANCH  42  63
BRANCH  54  71
ATOM     71  C   UNL     1      -3.075 -16.623   6.612  1.00  0.00     0.057 A 
ATOM     72  C   UNL     1      -2.366 -17.830   6.629  1.00  0.00     0.134 A 
ATOM     73  C   UNL     1      -4.426 -16.655   6.976  1.00  0.00     0.134 A 
ATOM     74  F   UNL     1      -1.073 -17.864   6.275  1.00  0.00    -0.206 F 
ATOM     75  C   UNL     1      -2.985 -19.030   6.982  1.00  0.00     0.040 A 
ATOM     76  C   UNL     1      -5.050 -17.846   7.349  1.00  0.00     0.040 A 
ATOM     77  F   UNL     1      -5.157 -15.530   6.984  1.00  0.00    -0.206 F 
ATOM     78  C   UNL     1      -4.329 -19.039   7.349  1.00  0.00     0.006 A 
ENDBRANCH  54  71
ENDBRANCH  28  29
ENDBRANCH  21  23
ENDBRANCH  20  21
ENDBRANCH   1  20
TORSDOF 12
