REMARK SMILES CC(C)(C)c1ccc(OCC(=O)N/N=C/c2ccc(C(=O)OCCOC(=O)c3ccc(-c4c5nc(c(-c6c(F)cccc6F)c6ccc([nH]6)c(-c6c(F)cccc6F)c6nc(c(-c7c(F)cccc7F)c7ccc4[nH]7)C=C6)C=C5)cc3)cc2)cc1
REMARK SMILES IDX 20 1 21 2 19 3 16 4 17 5 83 6 18 7 82 8 15 9 14 10 13 11
REMARK SMILES IDX 11 12 12 13 10 15 9 16 8 17 5 18 6 19 85 20 7 21 84 22 2 23
REMARK SMILES IDX 1 24 3 25 4 26 22 27 23 28 24 29 25 30 26 31 27 32 28 33
REMARK SMILES IDX 29 34 81 35 30 36 80 37 31 38 32 39 33 40 74 41 34 42 79 43
REMARK SMILES IDX 73 44 75 45 35 46 78 47 72 48 71 49 36 51 62 52 45 53 61 54
REMARK SMILES IDX 46 55 49 56 60 57 76 58 47 59 48 60 59 62 77 63 50 64 37 65
REMARK SMILES IDX 38 66 43 67 39 68 40 69 42 70 44 71 41 72 63 73 64 74 69 75
REMARK SMILES IDX 65 76 66 77 68 78 70 79 67 80 51 81 52 82 57 83 53 84 54 85
REMARK SMILES IDX 56 86 58 87 55 88
REMARK H PARENT 13 14 75 50 49 61
REMARK Flexibility Score: inf
ROOT
ATOM      1  C   UNL     1      -2.250 -10.040  -6.443  1.00  0.00     0.338 C 
ATOM      2  O   UNL     1      -2.715 -10.404  -5.375  1.00  0.00    -0.246 OA
ENDROOT
BRANCH   1   3
ATOM      3  C   UNL     1      -1.526  -8.757  -6.603  1.00  0.00     0.060 A 
ATOM      4  C   UNL     1      -0.085  -6.387  -6.805  1.00  0.00    -0.005 A 
ATOM      5  C   UNL     1      -0.007  -7.134  -5.633  1.00  0.00     0.010 A 
ATOM      6  C   UNL     1      -0.894  -6.792  -7.870  1.00  0.00     0.010 A 
ATOM      7  C   UNL     1      -0.763  -8.296  -5.520  1.00  0.00     0.016 A 
ATOM      8  C   UNL     1      -1.599  -7.998  -7.778  1.00  0.00     0.016 A 
BRANCH   4   9
ATOM      9  C   UNL     1       0.734  -5.173  -6.873  1.00  0.00     0.141 C 
ATOM     10  N   UNL     1       0.196  -4.022  -7.074  1.00  0.00    -0.181 NA
BRANCH  10  11
ATOM     11  N   UNL     1       0.933  -2.876  -7.032  1.00  0.00    -0.244 N 
ATOM     12  C   UNL     1       2.090  -2.507  -6.396  1.00  0.00     0.277 C 
ATOM     13  O   UNL     1       2.486  -1.343  -6.554  1.00  0.00    -0.269 OA
ATOM     14  H   UNL     1       0.549  -2.153  -7.580  1.00  0.00     0.193 HD
BRANCH  12  15
ATOM     15  C   UNL     1       2.916  -3.464  -5.533  1.00  0.00     0.331 C 
BRANCH  15  16
ATOM     16  O   UNL     1       2.243  -4.147  -4.488  1.00  0.00    -0.484 OA
BRANCH  16  17
ATOM     17  C   UNL     1       1.873  -3.416  -3.393  1.00  0.00     0.120 A 
ATOM     18  C   UNL     1       0.920  -2.106  -1.054  1.00  0.00    -0.042 A 
ATOM     19  C   UNL     1       0.620  -3.455  -1.313  1.00  0.00     0.008 A 
ATOM     20  C   UNL     1       1.735  -1.445  -1.985  1.00  0.00     0.008 A 
ATOM     21  C   UNL     1       1.091  -4.099  -2.464  1.00  0.00     0.047 A 
ATOM     22  C   UNL     1       2.206  -2.089  -3.138  1.00  0.00     0.047 A 
BRANCH  18  23
ATOM     23  C   UNL     1       0.352  -1.406   0.192  1.00  0.00    -0.013 C 
ATOM     24  C   UNL     1       0.749   0.084   0.306  1.00  0.00     0.016 C 
ATOM     25  C   UNL     1       0.857  -2.114   1.467  1.00  0.00     0.016 C 
ATOM     26  C   UNL     1      -1.191  -1.462   0.156  1.00  0.00     0.016 C 
ENDBRANCH  18  23
ENDBRANCH  16  17
ENDBRANCH  15  16
ENDBRANCH  12  15
ENDBRANCH  10  11
ENDBRANCH   4   9
ENDBRANCH   1   3
BRANCH   1  27
ATOM     27  O   UNL     1      -2.204 -10.754  -7.595  1.00  0.00    -0.458 OA
BRANCH  27  28
ATOM     28  C   UNL     1      -2.752 -12.087  -7.527  1.00  0.00     0.275 C 
BRANCH  28  29
ATOM     29  C   UNL     1      -1.648 -13.126  -7.335  1.00  0.00     0.275 C 
BRANCH  29  30
ATOM     30  O   UNL     1      -1.037 -12.955  -6.043  1.00  0.00    -0.458 OA
BRANCH  30  31
ATOM     31  C   UNL     1       0.315 -12.920  -6.028  1.00  0.00     0.338 C 
ATOM     32  O   UNL     1       1.075 -13.062  -6.970  1.00  0.00    -0.246 OA
BRANCH  31  33
ATOM     33  C   UNL     1       0.788 -12.661  -4.656  1.00  0.00     0.060 A 
ATOM     34  C   UNL     1       0.387 -11.502  -3.998  1.00  0.00     0.016 A 
ATOM     35  C   UNL     1       1.734 -13.501  -4.072  1.00  0.00     0.016 A 
ATOM     36  C   UNL     1       1.000 -11.121  -2.805  1.00  0.00     0.010 A 
ATOM     37  C   UNL     1       2.272 -13.171  -2.822  1.00  0.00     0.010 A 
ATOM     38  C   UNL     1       1.946 -11.955  -2.192  1.00  0.00    -0.014 A 
BRANCH  38  39
ATOM     39  C   UNL     1       2.627 -11.541  -0.928  1.00  0.00     0.031 A 
ATOM     40  C   UNL     1       4.132 -11.459  -0.866  1.00  0.00     0.074 A 
ATOM     41  C   UNL     1       1.914 -11.233   0.174  1.00  0.00     0.049 A 
ATOM     42  N   UNL     1       4.913 -11.311   0.175  1.00  0.00    -0.248 NA
ATOM     43  C   UNL     1       4.854 -11.578  -2.142  1.00  0.00     0.031 C 
ATOM     44  C   UNL     1       0.454 -11.235   0.269  1.00  0.00     0.029 A 
ATOM     45  N   UNL     1       2.326 -10.855   1.429  1.00  0.00    -0.354 N 
ATOM     46  C   UNL     1       6.213 -11.397  -0.309  1.00  0.00     0.074 A 
ATOM     47  C   UNL     1       6.117 -11.600  -1.739  1.00  0.00     0.031 C 
ATOM     48  C   UNL     1       0.092 -10.838   1.498  1.00  0.00     0.029 A 
ATOM     49  C   UNL     1       1.291 -10.637   2.305  1.00  0.00     0.049 A 
ATOM     50  H   UNL     1       3.273 -10.751   1.677  1.00  0.00     0.167 HD
ATOM     51  C   UNL     1       7.381 -11.320   0.375  1.00  0.00     0.037 A 
ATOM     52  C   UNL     1       1.295 -10.351   3.621  1.00  0.00     0.037 A 
ATOM     53  C   UNL     1       7.486 -11.037   1.783  1.00  0.00     0.049 A 
ATOM     54  C   UNL     1       2.598 -10.250   4.358  1.00  0.00     0.074 A 
ATOM     55  C   UNL     1       8.630 -10.893   2.551  1.00  0.00     0.029 A 
ATOM     56  N   UNL     1       6.409 -10.833   2.630  1.00  0.00    -0.354 N 
ATOM     57  N   UNL     1       3.816 -10.392   3.898  1.00  0.00    -0.248 NA
ATOM     58  C   UNL     1       2.525  -9.974   5.800  1.00  0.00     0.031 C 
ATOM     59  C   UNL     1       8.242 -10.629   3.870  1.00  0.00     0.029 A 
ATOM     60  C   UNL     1       6.859 -10.576   3.915  1.00  0.00     0.049 A 
ATOM     61  H   UNL     1       5.463 -10.865   2.359  1.00  0.00     0.167 HD
ATOM     62  C   UNL     1       4.655 -10.229   4.992  1.00  0.00     0.074 A 
ATOM     63  C   UNL     1       3.808  -9.952   6.134  1.00  0.00     0.031 C 
ATOM     64  C   UNL     1       6.007 -10.313   5.045  1.00  0.00     0.037 A 
BRANCH  51  65
ATOM     65  C   UNL     1       8.646 -11.586  -0.388  1.00  0.00     0.057 A 
ATOM     66  C   UNL     1       9.187 -10.662  -1.289  1.00  0.00     0.134 A 
ATOM     67  C   UNL     1       9.343 -12.787  -0.196  1.00  0.00     0.134 A 
ATOM     68  F   UNL     1       8.561  -9.500  -1.529  1.00  0.00    -0.206 F 
ATOM     69  C   UNL     1      10.363 -10.933  -1.992  1.00  0.00     0.040 A 
ATOM     70  C   UNL     1      10.531 -13.060  -0.875  1.00  0.00     0.040 A 
ATOM     71  F   UNL     1       8.882 -13.713   0.658  1.00  0.00    -0.206 F 
ATOM     72  C   UNL     1      11.041 -12.133  -1.782  1.00  0.00     0.006 A 
ENDBRANCH  51  65
BRANCH  52  73
ATOM     73  C   UNL     1       0.003 -10.183   4.332  1.00  0.00     0.057 A 
ATOM     74  C   UNL     1      -0.437  -8.922   4.744  1.00  0.00     0.134 A 
ATOM     75  C   UNL     1      -0.838 -11.276   4.578  1.00  0.00     0.134 A 
ATOM     76  F   UNL     1       0.336  -7.842   4.556  1.00  0.00    -0.206 F 
ATOM     77  C   UNL     1      -1.672  -8.750   5.371  1.00  0.00     0.040 A 
ATOM     78  C   UNL     1      -2.084 -11.116   5.182  1.00  0.00     0.040 A 
ATOM     79  F   UNL     1      -0.470 -12.510   4.204  1.00  0.00    -0.206 F 
ATOM     80  C   UNL     1      -2.504  -9.849   5.582  1.00  0.00     0.006 A 
ENDBRANCH  52  73
BRANCH  64  81
ATOM     81  C   UNL     1       6.650 -10.098   6.381  1.00  0.00     0.057 A 
ATOM     82  C   UNL     1       6.630 -11.089   7.370  1.00  0.00     0.134 A 
ATOM     83  C   UNL     1       7.319  -8.903   6.671  1.00  0.00     0.134 A 
ATOM     84  F   UNL     1       5.993 -12.250   7.157  1.00  0.00    -0.206 F 
ATOM     85  C   UNL     1       7.239 -10.891   8.611  1.00  0.00     0.040 A 
ATOM     86  C   UNL     1       7.946  -8.700   7.901  1.00  0.00     0.040 A 
ATOM     87  F   UNL     1       7.377  -7.918   5.763  1.00  0.00    -0.206 F 
ATOM     88  C   UNL     1       7.904  -9.695   8.877  1.00  0.00     0.006 A 
ENDBRANCH  64  81
ENDBRANCH  38  39
ENDBRANCH  31  33
ENDBRANCH  30  31
ENDBRANCH  29  30
ENDBRANCH  28  29
ENDBRANCH  27  28
ENDBRANCH   1  27
TORSDOF 17
