REMARK SMILES C[C@@](O)(c1ccc(Cl)cc1Cl)[C@@H](F)C(=O)OCCOC(=O)c1ccc(-c2c3nc(c(-c4c(F)cccc4F)c4ccc([nH]4)c(-c4c(F)cccc4F)c4nc(c(-c5c(F)cccc5F)c5ccc2[nH]5)C=C4)C=C3)cc1
REMARK SMILES IDX 17 1 16 2 14 3 15 4 12 5 13 6 2 7 1 8 3 9 4 11 5 12 10 13
REMARK SMILES IDX 6 14 9 15 11 16 7 17 8 18 18 19 19 20 20 21 21 22 22 23
REMARK SMILES IDX 23 24 75 25 24 26 74 27 25 28 26 29 27 30 68 31 28 32 73 33
REMARK SMILES IDX 67 34 69 35 29 36 72 37 66 38 65 39 30 41 56 42 39 43 55 44
REMARK SMILES IDX 40 45 43 46 54 47 70 48 41 49 42 50 53 52 71 53 44 54 31 55
REMARK SMILES IDX 32 56 37 57 33 58 34 59 36 60 38 61 35 62 57 63 58 64 63 65
REMARK SMILES IDX 59 66 60 67 62 68 64 69 61 70 45 71 46 72 51 73 47 74 48 75
REMARK SMILES IDX 50 76 52 77 49 78
REMARK H PARENT 3 10 69 40 43 51
REMARK Flexibility Score: inf
ROOT
ATOM      1  C   UNL     1       4.487   0.832   1.447  1.00  0.00     0.274 C 
ENDROOT
BRANCH   1   2
ATOM      2  O   UNL     1       3.081   0.704   1.138  1.00  0.00    -0.460 OA
BRANCH   2   3
ATOM      3  C   UNL     1       2.222   1.380   1.946  1.00  0.00     0.344 C 
ATOM      4  O   UNL     1       2.586   2.114   2.861  1.00  0.00    -0.249 OA
BRANCH   3   5
ATOM      5  C   UNL     1       0.753   1.070   1.690  1.00  0.00     0.311 C 
ATOM      6  F   UNL     1       0.379  -0.055   2.381  1.00  0.00    -0.231 F 
BRANCH   5   7
ATOM      7  C   UNL     1       0.278   0.933   0.218  1.00  0.00     0.130 C 
ATOM      8  C   UNL     1       0.791  -0.373  -0.424  1.00  0.00     0.051 C 
BRANCH   7   9
ATOM      9  O   UNL     1       0.741   1.991  -0.621  1.00  0.00    -0.382 OA
ATOM     10  H   UNL     1       0.415   1.853  -1.524  1.00  0.00     0.212 HD
ENDBRANCH   7   9
BRANCH   7  11
ATOM     11  C   UNL     1      -1.275   1.019   0.209  1.00  0.00     0.006 A 
ATOM     12  C   UNL     1      -2.045  -0.165   0.234  1.00  0.00     0.010 A 
ATOM     13  C   UNL     1      -1.996   2.240   0.224  1.00  0.00     0.048 A 
ATOM     14  C   UNL     1      -3.445  -0.138   0.223  1.00  0.00     0.021 A 
ATOM     15  C   UNL     1      -3.398   2.263   0.204  1.00  0.00     0.041 A 
ATOM     16  Cl  UNL     1      -1.261   3.801   0.324  1.00  0.00    -0.084 Cl
ATOM     17  C   UNL     1      -4.115   1.077   0.197  1.00  0.00     0.042 A 
ATOM     18  Cl  UNL     1      -5.833   1.114   0.180  1.00  0.00    -0.084 Cl
ENDBRANCH   7  11
ENDBRANCH   5   7
ENDBRANCH   3   5
ENDBRANCH   2   3
ENDBRANCH   1   2
BRANCH   1  19
ATOM     19  C   UNL     1       5.211   1.812   0.518  1.00  0.00     0.275 C 
BRANCH  19  20
ATOM     20  O   UNL     1       4.755   3.165   0.700  1.00  0.00    -0.458 OA
BRANCH  20  21
ATOM     21  C   UNL     1       3.734   3.525  -0.111  1.00  0.00     0.338 C 
ATOM     22  O   UNL     1       3.202   2.828  -0.960  1.00  0.00    -0.246 OA
BRANCH  21  23
ATOM     23  C   UNL     1       3.223   4.844   0.290  1.00  0.00     0.060 A 
ATOM     24  C   UNL     1       2.014   4.891   0.985  1.00  0.00     0.016 A 
ATOM     25  C   UNL     1       3.870   6.023  -0.078  1.00  0.00     0.016 A 
ATOM     26  C   UNL     1       1.431   6.115   1.300  1.00  0.00     0.010 A 
ATOM     27  C   UNL     1       3.293   7.256   0.257  1.00  0.00     0.010 A 
ATOM     28  C   UNL     1       2.064   7.309   0.939  1.00  0.00    -0.014 A 
BRANCH  28  29
ATOM     29  C   UNL     1       1.420   8.605   1.267  1.00  0.00     0.031 A 
ATOM     30  C   UNL     1       0.802   9.441   0.184  1.00  0.00     0.074 A 
ATOM     31  C   UNL     1       1.360   9.014   2.548  1.00  0.00     0.049 A 
ATOM     32  N   UNL     1       0.279  10.639   0.262  1.00  0.00    -0.248 NA
ATOM     33  C   UNL     1       0.768   8.855  -1.164  1.00  0.00     0.031 C 
ATOM     34  C   UNL     1       1.874   8.268   3.697  1.00  0.00     0.029 A 
ATOM     35  N   UNL     1       0.838  10.158   3.097  1.00  0.00    -0.354 N 
ATOM     36  C   UNL     1      -0.124  10.961  -1.027  1.00  0.00     0.074 A 
ATOM     37  C   UNL     1       0.223   9.836  -1.871  1.00  0.00     0.031 C 
ATOM     38  C   UNL     1       1.637   8.971   4.816  1.00  0.00     0.029 A 
ATOM     39  C   UNL     1       0.999  10.235   4.458  1.00  0.00     0.049 A 
ATOM     40  H   UNL     1       0.391  10.856   2.566  1.00  0.00     0.167 HD
ATOM     41  C   UNL     1      -0.729  12.092  -1.464  1.00  0.00     0.037 A 
ATOM     42  C   UNL     1       0.695  11.225   5.318  1.00  0.00     0.037 A 
ATOM     43  C   UNL     1      -1.099  13.199  -0.621  1.00  0.00     0.049 A 
ATOM     44  C   UNL     1       0.067  12.487   4.800  1.00  0.00     0.074 A 
ATOM     45  C   UNL     1      -1.720  14.384  -0.976  1.00  0.00     0.029 A 
ATOM     46  N   UNL     1      -0.889  13.252   0.748  1.00  0.00    -0.354 N 
ATOM     47  N   UNL     1      -0.278  12.794   3.574  1.00  0.00    -0.248 NA
ATOM     48  C   UNL     1      -0.203  13.545   5.784  1.00  0.00     0.031 C 
ATOM     49  C   UNL     1      -1.860  15.168   0.176  1.00  0.00     0.029 A 
ATOM     50  C   UNL     1      -1.356  14.456   1.251  1.00  0.00     0.049 A 
ATOM     51  H   UNL     1      -0.470  12.540   1.284  1.00  0.00     0.167 HD
ATOM     52  C   UNL     1      -0.814  14.072   3.639  1.00  0.00     0.074 A 
ATOM     53  C   UNL     1      -0.766  14.477   5.029  1.00  0.00     0.031 C 
ATOM     54  C   UNL     1      -1.299  14.844   2.636  1.00  0.00     0.037 A 
BRANCH  41  55
ATOM     55  C   UNL     1      -1.008  12.201  -2.933  1.00  0.00     0.057 A 
ATOM     56  C   UNL     1      -2.063  11.511  -3.539  1.00  0.00     0.134 A 
ATOM     57  C   UNL     1      -0.235  13.045  -3.741  1.00  0.00     0.134 A 
ATOM     58  F   UNL     1      -2.832  10.678  -2.821  1.00  0.00    -0.206 F 
ATOM     59  C   UNL     1      -2.333  11.645  -4.902  1.00  0.00     0.040 A 
ATOM     60  C   UNL     1      -0.507  13.202  -5.101  1.00  0.00     0.040 A 
ATOM     61  F   UNL     1       0.788  13.738  -3.220  1.00  0.00    -0.206 F 
ATOM     62  C   UNL     1      -1.557  12.498  -5.686  1.00  0.00     0.006 A 
ENDBRANCH  41  55
BRANCH  42  63
ATOM     63  C   UNL     1       1.010  11.073   6.760  1.00  0.00     0.057 A 
ATOM     64  C   UNL     1      -0.004  10.903   7.708  1.00  0.00     0.134 A 
ATOM     65  C   UNL     1       2.331  11.103   7.221  1.00  0.00     0.134 A 
ATOM     66  F   UNL     1      -1.290  10.893   7.328  1.00  0.00    -0.206 F 
ATOM     67  C   UNL     1       0.284  10.777   9.068  1.00  0.00     0.040 A 
ATOM     68  C   UNL     1       2.635  10.956   8.574  1.00  0.00     0.040 A 
ATOM     69  F   UNL     1       3.346  11.264   6.359  1.00  0.00    -0.206 F 
ATOM     70  C   UNL     1       1.608  10.797   9.503  1.00  0.00     0.006 A 
ENDBRANCH  42  63
BRANCH  54  71
ATOM     71  C   UNL     1      -1.830  16.193   3.014  1.00  0.00     0.057 A 
ATOM     72  C   UNL     1      -0.975  17.258   3.323  1.00  0.00     0.134 A 
ATOM     73  C   UNL     1      -3.209  16.435   3.048  1.00  0.00     0.134 A 
ATOM     74  F   UNL     1       0.355  17.083   3.322  1.00  0.00    -0.206 F 
ATOM     75  C   UNL     1      -1.474  18.514   3.672  1.00  0.00     0.040 A 
ATOM     76  C   UNL     1      -3.719  17.692   3.377  1.00  0.00     0.040 A 
ATOM     77  F   UNL     1      -4.080  15.457   2.757  1.00  0.00    -0.206 F 
ATOM     78  C   UNL     1      -2.850  18.734   3.695  1.00  0.00     0.006 A 
ENDBRANCH  54  71
ENDBRANCH  28  29
ENDBRANCH  21  23
ENDBRANCH  20  21
ENDBRANCH  19  20
ENDBRANCH   1  19
TORSDOF 14
