REMARK SMILES Cc1c(CC(=O)OCCOC(=O)c2ccc(-c3c4nc(c(-c5c(F)cccc5F)c5ccc([nH]5)c(-c5c(F)cccc5F)c5nc(c(-c6c(F)cccc6F)c6ccc3[nH]6)C=C5)C=C4)cc2)cc(-c2ccccc2)cc1-c1ccccc1
REMARK SMILES IDX 8 1 7 2 5 3 6 4 4 5 3 6 1 7 2 8 76 9 67 10 75 11 68 12 77 13
REMARK SMILES IDX 78 14 82 15 79 16 81 17 80 18 69 19 70 20 74 21 71 22 73 23
REMARK SMILES IDX 72 24 9 25 10 26 11 27 12 28 13 29 14 30 66 31 15 32 65 33
REMARK SMILES IDX 16 34 17 35 18 36 59 37 19 38 64 39 58 40 60 41 20 42 63 43
REMARK SMILES IDX 57 44 56 45 21 47 47 48 30 49 46 50 31 51 34 52 45 53 61 54
REMARK SMILES IDX 32 55 33 56 44 58 62 59 35 60 22 61 23 62 28 63 24 64 25 65
REMARK SMILES IDX 27 66 29 67 26 68 48 69 49 70 54 71 50 72 51 73 53 74 55 75
REMARK SMILES IDX 52 76 36 77 37 78 42 79 38 80 39 81 41 82 43 83 40 84
REMARK H PARENT 60 46 34 57
REMARK Flexibility Score: inf
ROOT
ATOM      1  C   UNL     1      -0.425  -4.457   4.282  1.00  0.00     0.274 C 
ENDROOT
BRANCH   1   2
ATOM      2  O   UNL     1       0.543  -3.742   3.494  1.00  0.00    -0.462 OA
BRANCH   2   3
ATOM      3  C   UNL     1       0.522  -3.964   2.060  1.00  0.00     0.310 C 
ATOM      4  O   UNL     1       0.156  -5.175   1.946  1.00  0.00    -0.252 OA
BRANCH   3   5
ATOM      5  C   UNL     1       0.965  -2.453   0.564  1.00  0.00     0.158 C 
BRANCH   5   6
ATOM      6  C   UNL     1       0.266  -0.925   0.129  1.00  0.00    -0.033 A 
ATOM      7  C   UNL     1       2.516   0.293   0.242  1.00  0.00     0.045 C 
ATOM      8  C   UNL     1       1.011   0.292   0.130  1.00  0.00    -0.039 A 
ATOM      9  C   UNL     1       0.314   1.524  -0.021  1.00  0.00    -0.015 A 
ATOM     10  C   UNL     1      -1.058  -0.867  -0.338  1.00  0.00     0.013 A 
ATOM     11  C   UNL     1      -1.090   1.510  -0.135  1.00  0.00     0.017 A 
ATOM     12  C   UNL     1      -1.788   0.318  -0.293  1.00  0.00    -0.017 A 
BRANCH   9  13
ATOM     13  C   UNL     1       0.988   2.833  -0.059  1.00  0.00    -0.018 A 
ATOM     14  C   UNL     1       0.844   3.751   0.990  1.00  0.00     0.009 A 
ATOM     15  C   UNL     1       1.779   3.197  -1.163  1.00  0.00     0.009 A 
ATOM     16  C   UNL     1       1.494   4.987   0.950  1.00  0.00     0.001 A 
ATOM     17  C   UNL     1       2.443   4.424  -1.196  1.00  0.00     0.001 A 
ATOM     18  C   UNL     1       2.300   5.317  -0.138  1.00  0.00     0.000 A 
ENDBRANCH   9  13
BRANCH  12  19
ATOM     19  C   UNL     1      -3.252   0.250  -0.306  1.00  0.00    -0.018 A 
ATOM     20  C   UNL     1      -3.926  -0.414   0.737  1.00  0.00     0.009 A 
ATOM     21  C   UNL     1      -4.009   0.787  -1.347  1.00  0.00     0.009 A 
ATOM     22  C   UNL     1      -5.309  -0.586   0.716  1.00  0.00     0.001 A 
ATOM     23  C   UNL     1      -5.399   0.634  -1.361  1.00  0.00     0.001 A 
ATOM     24  C   UNL     1      -6.046  -0.060  -0.338  1.00  0.00     0.000 A 
ENDBRANCH  12  19
ENDBRANCH   5   6
ENDBRANCH   3   5
ENDBRANCH   2   3
ENDBRANCH   1   2
BRANCH   1  25
ATOM     25  C   UNL     1      -1.809  -3.834   4.060  1.00  0.00     0.275 C 
BRANCH  25  26
ATOM     26  O   UNL     1      -2.453  -4.144   2.792  1.00  0.00    -0.458 OA
BRANCH  26  27
ATOM     27  C   UNL     1      -2.369  -3.451   1.625  1.00  0.00     0.338 C 
ATOM     28  O   UNL     1      -3.248  -3.483   0.777  1.00  0.00    -0.246 OA
BRANCH  27  29
ATOM     29  C   UNL     1      -1.024  -2.981   1.225  1.00  0.00     0.060 A 
ATOM     30  C   UNL     1      -0.217  -4.134   0.092  1.00  0.00     0.016 A 
ATOM     31  C   UNL     1      -0.043  -1.964   2.348  1.00  0.00     0.016 A 
ATOM     32  C   UNL     1       1.557  -4.466   0.282  1.00  0.00     0.010 A 
ATOM     33  C   UNL     1       1.731  -2.265   2.494  1.00  0.00     0.010 A 
ATOM     34  C   UNL     1       2.486  -3.606   1.541  1.00  0.00    -0.014 A 
BRANCH  34  35
ATOM     35  C   UNL     1       3.567  -4.251   2.265  1.00  0.00     0.031 A 
ATOM     36  C   UNL     1       4.805  -3.496   2.406  1.00  0.00     0.074 A 
ATOM     37  C   UNL     1       3.309  -5.390   2.953  1.00  0.00     0.049 A 
ATOM     38  N   UNL     1       5.920  -4.027   2.741  1.00  0.00    -0.248 NA
ATOM     39  C   UNL     1       4.935  -2.082   2.065  1.00  0.00     0.031 C 
ATOM     40  C   UNL     1       4.020  -5.969   4.087  1.00  0.00     0.029 A 
ATOM     41  N   UNL     1       2.348  -6.350   2.690  1.00  0.00    -0.354 N 
ATOM     42  C   UNL     1       6.764  -2.990   3.049  1.00  0.00     0.074 A 
ATOM     43  C   UNL     1       6.206  -1.844   2.392  1.00  0.00     0.031 C 
ATOM     44  C   UNL     1       3.628  -7.248   4.256  1.00  0.00     0.029 A 
ATOM     45  C   UNL     1       2.740  -7.598   3.161  1.00  0.00     0.049 A 
ATOM     46  H   UNL     1       1.497  -6.172   2.229  1.00  0.00     0.167 HD
ATOM     47  C   UNL     1       7.716  -3.216   3.991  1.00  0.00     0.037 A 
ATOM     48  C   UNL     1       2.949  -8.597   2.249  1.00  0.00     0.037 A 
ATOM     49  C   UNL     1       7.766  -4.650   4.310  1.00  0.00     0.049 A 
ATOM     50  C   UNL     1       4.434  -8.784   1.966  1.00  0.00     0.074 A 
ATOM     51  C   UNL     1       7.346  -5.444   5.361  1.00  0.00     0.029 A 
ATOM     52  N   UNL     1       7.981  -5.522   3.257  1.00  0.00    -0.354 N 
ATOM     53  N   UNL     1       5.380  -8.116   2.574  1.00  0.00    -0.248 NA
ATOM     54  C   UNL     1       4.978  -9.689   0.957  1.00  0.00     0.031 C 
ATOM     55  C   UNL     1       7.247  -6.795   4.877  1.00  0.00     0.029 A 
ATOM     56  C   UNL     1       7.655  -6.827   3.552  1.00  0.00     0.049 A 
ATOM     57  H   UNL     1       8.333  -5.238   2.383  1.00  0.00     0.167 HD
ATOM     58  C   UNL     1       6.601  -8.413   2.043  1.00  0.00     0.074 A 
ATOM     59  C   UNL     1       6.291  -9.394   1.010  1.00  0.00     0.031 C 
ATOM     60  C   UNL     1       7.758  -7.818   2.477  1.00  0.00     0.037 A 
BRANCH  47  61
ATOM     61  C   UNL     1       8.476  -2.147   4.734  1.00  0.00     0.057 A 
ATOM     62  C   UNL     1       9.505  -2.527   5.613  1.00  0.00     0.134 A 
ATOM     63  C   UNL     1       8.219  -0.758   4.710  1.00  0.00     0.134 A 
ATOM     64  F   UNL     1       9.860  -3.812   5.754  1.00  0.00    -0.206 F 
ATOM     65  C   UNL     1      10.211  -1.609   6.402  1.00  0.00     0.040 A 
ATOM     66  C   UNL     1       8.950   0.174   5.458  1.00  0.00     0.040 A 
ATOM     67  F   UNL     1       7.218  -0.215   4.012  1.00  0.00    -0.206 F 
ATOM     68  C   UNL     1       9.944  -0.251   6.319  1.00  0.00     0.006 A 
ENDBRANCH  47  61
BRANCH  48  69
ATOM     69  C   UNL     1       1.811  -8.676   1.273  1.00  0.00     0.057 A 
ATOM     70  C   UNL     1       0.531  -8.943   1.808  1.00  0.00     0.134 A 
ATOM     71  C   UNL     1       1.845  -8.065   0.017  1.00  0.00     0.134 A 
ATOM     72  F   UNL     1       0.415  -9.568   2.991  1.00  0.00    -0.206 F 
ATOM     73  C   UNL     1      -0.638  -8.444   1.227  1.00  0.00     0.040 A 
ATOM     74  C   UNL     1       0.670  -7.602  -0.599  1.00  0.00     0.040 A 
ATOM     75  F   UNL     1       3.014  -7.759  -0.565  1.00  0.00    -0.206 F 
ATOM     76  C   UNL     1      -0.564  -7.732   0.038  1.00  0.00     0.006 A 
ENDBRANCH  48  69
BRANCH  60  77
ATOM     77  C   UNL     1       9.113  -8.106   1.867  1.00  0.00     0.057 A 
ATOM     78  C   UNL     1       9.505  -9.396   1.494  1.00  0.00     0.134 A 
ATOM     79  C   UNL     1      10.111  -7.116   1.708  1.00  0.00     0.134 A 
ATOM     80  F   UNL     1       8.718 -10.456   1.725  1.00  0.00    -0.206 F 
ATOM     81  C   UNL     1      10.743  -9.659   0.892  1.00  0.00     0.040 A 
ATOM     82  C   UNL     1      11.376  -7.379   1.183  1.00  0.00     0.040 A 
ATOM     83  F   UNL     1       9.915  -5.829   2.018  1.00  0.00    -0.206 F 
ATOM     84  C   UNL     1      11.684  -8.649   0.737  1.00  0.00     0.006 A 
ENDBRANCH  60  77
ENDBRANCH  34  35
ENDBRANCH  27  29
ENDBRANCH  26  27
ENDBRANCH  25  26
ENDBRANCH   1  25
TORSDOF 14
