REMARK SMILES CC(=O)Nc1cccc(-c2ccc(F)c(C(=O)OCCOC(=O)c3ccc(-c4c5nc(c(-c6c(F)cccc6F)c6ccc([nH]6)c(-c6c(F)cccc6F)c6nc(c(-c7c(F)cccc7F)c7ccc4[nH]7)C=C6)C=C5)cc3)c2)c1
REMARK SMILES IDX 19 1 18 2 16 3 17 4 15 5 10 6 11 7 78 8 12 9 13 10 14 11
REMARK SMILES IDX 9 12 5 13 6 14 79 15 7 16 8 17 4 18 1 19 2 20 3 21 20 23
REMARK SMILES IDX 21 24 22 25 23 26 24 27 25 28 77 29 26 30 76 31 27 32 28 33
REMARK SMILES IDX 29 34 70 35 30 36 75 37 69 38 71 39 31 40 74 41 68 42 67 43
REMARK SMILES IDX 32 45 58 46 41 47 57 48 42 49 45 50 56 51 72 52 43 53 44 54
REMARK SMILES IDX 55 56 73 57 46 58 33 59 34 60 39 61 35 62 36 63 38 64 40 65
REMARK SMILES IDX 37 66 59 67 60 68 65 69 61 70 62 71 64 72 66 73 63 74 47 75
REMARK SMILES IDX 48 76 53 77 49 78 50 79 52 80 54 81 51 82
REMARK H PARENT 4 22 71 44 45 55
REMARK Flexibility Score: inf
ROOT
ATOM      1  C   UNL     1       8.523  -2.511   0.564  1.00  0.00     0.275 C 
ENDROOT
BRANCH   1   2
ATOM      2  O   UNL     1       7.582  -1.782  -0.251  1.00  0.00    -0.458 OA
BRANCH   2   3
ATOM      3  C   UNL     1       7.418  -0.461   0.020  1.00  0.00     0.341 C 
ATOM      4  O   UNL     1       7.955   0.157   0.924  1.00  0.00    -0.246 OA
BRANCH   3   5
ATOM      5  C   UNL     1       6.544   0.153  -1.009  1.00  0.00     0.096 A 
ATOM      6  C   UNL     1       4.708  -0.011  -2.606  1.00  0.00    -0.017 A 
ATOM      7  C   UNL     1       4.935   1.317  -2.994  1.00  0.00     0.012 A 
ATOM      8  C   UNL     1       5.565  -0.602  -1.658  1.00  0.00     0.027 A 
ATOM      9  C   UNL     1       5.910   2.075  -2.351  1.00  0.00     0.041 A 
ATOM     10  C   UNL     1       6.661   1.508  -1.325  1.00  0.00     0.137 A 
ATOM     11  F   UNL     1       7.499   2.314  -0.658  1.00  0.00    -0.206 F 
BRANCH   6  12
ATOM     12  C   UNL     1       3.487  -0.712  -3.007  1.00  0.00    -0.016 A 
ATOM     13  C   UNL     1       1.376  -1.703  -2.272  1.00  0.00     0.041 A 
ATOM     14  C   UNL     1       1.100  -2.060  -3.590  1.00  0.00     0.026 A 
ATOM     15  C   UNL     1       2.579  -1.066  -1.993  1.00  0.00     0.034 A 
ATOM     16  C   UNL     1       1.979  -1.697  -4.618  1.00  0.00     0.003 A 
ATOM     17  C   UNL     1       3.164  -1.013  -4.330  1.00  0.00     0.009 A 
BRANCH  13  18
ATOM     18  N   UNL     1       0.463  -2.053  -1.265  1.00  0.00    -0.326 N 
ATOM     19  C   UNL     1       0.737  -0.092   0.256  1.00  0.00     0.114 C 
ATOM     20  C   UNL     1       0.242  -1.488  -0.037  1.00  0.00     0.221 C 
ATOM     21  O   UNL     1      -0.428  -2.103   0.796  1.00  0.00    -0.275 OA
ATOM     22  H   UNL     1      -0.109  -2.826  -1.474  1.00  0.00     0.169 HD
ENDBRANCH  13  18
ENDBRANCH   6  12
ENDBRANCH   3   5
ENDBRANCH   2   3
ENDBRANCH   1   2
BRANCH   1  23
ATOM     23  C   UNL     1       9.774  -2.869  -0.241  1.00  0.00     0.275 C 
BRANCH  23  24
ATOM     24  O   UNL     1      10.541  -1.688  -0.542  1.00  0.00    -0.458 OA
BRANCH  24  25
ATOM     25  C   UNL     1      10.346  -1.180  -1.779  1.00  0.00     0.338 C 
ATOM     26  O   UNL     1       9.652  -1.635  -2.673  1.00  0.00    -0.246 OA
BRANCH  25  27
ATOM     27  C   UNL     1      10.988   0.136  -1.879  1.00  0.00     0.060 A 
ATOM     28  C   UNL     1      10.204   1.243  -1.582  1.00  0.00     0.016 A 
ATOM     29  C   UNL     1      12.262   0.307  -2.408  1.00  0.00     0.016 A 
ATOM     30  C   UNL     1      10.630   2.527  -1.892  1.00  0.00     0.010 A 
ATOM     31  C   UNL     1      12.732   1.608  -2.639  1.00  0.00     0.010 A 
ATOM     32  C   UNL     1      11.907   2.731  -2.418  1.00  0.00    -0.014 A 
BRANCH  32  33
ATOM     33  C   UNL     1      12.351   4.103  -2.793  1.00  0.00     0.031 A 
ATOM     34  C   UNL     1      12.745   4.395  -4.217  1.00  0.00     0.074 A 
ATOM     35  C   UNL     1      12.381   5.094  -1.879  1.00  0.00     0.049 A 
ATOM     36  N   UNL     1      13.352   5.443  -4.713  1.00  0.00    -0.248 NA
ATOM     37  C   UNL     1      12.423   3.362  -5.216  1.00  0.00     0.031 C 
ATOM     38  C   UNL     1      11.952   4.980  -0.483  1.00  0.00     0.029 A 
ATOM     39  N   UNL     1      12.800   6.399  -1.988  1.00  0.00    -0.354 N 
ATOM     40  C   UNL     1      13.528   5.176  -6.065  1.00  0.00     0.074 A 
ATOM     41  C   UNL     1      12.977   3.861  -6.311  1.00  0.00     0.031 C 
ATOM     42  C   UNL     1      12.120   6.162   0.129  1.00  0.00     0.029 A 
ATOM     43  C   UNL     1      12.753   7.090  -0.800  1.00  0.00     0.049 A 
ATOM     44  H   UNL     1      13.104   6.800  -2.834  1.00  0.00     0.167 HD
ATOM     45  C   UNL     1      14.096   5.958  -7.014  1.00  0.00     0.037 A 
ATOM     46  C   UNL     1      13.221   8.311  -0.476  1.00  0.00     0.037 A 
ATOM     47  C   UNL     1      14.605   7.283  -6.769  1.00  0.00     0.049 A 
ATOM     48  C   UNL     1      13.918   9.130  -1.528  1.00  0.00     0.074 A 
ATOM     49  C   UNL     1      15.206   8.155  -7.660  1.00  0.00     0.029 A 
ATOM     50  N   UNL     1      14.559   7.933  -5.544  1.00  0.00    -0.354 N 
ATOM     51  N   UNL     1      14.131   8.847  -2.790  1.00  0.00    -0.248 NA
ATOM     52  C   UNL     1      14.450  10.434  -1.109  1.00  0.00     0.031 C 
ATOM     53  C   UNL     1      15.564   9.314  -6.966  1.00  0.00     0.029 A 
ATOM     54  C   UNL     1      15.131   9.189  -5.656  1.00  0.00     0.049 A 
ATOM     55  H   UNL     1      14.176   7.557  -4.719  1.00  0.00     0.167 HD
ATOM     56  C   UNL     1      14.788   9.949  -3.322  1.00  0.00     0.074 A 
ATOM     57  C   UNL     1      14.929  10.910  -2.249  1.00  0.00     0.031 C 
ATOM     58  C   UNL     1      15.236  10.147  -4.585  1.00  0.00     0.037 A 
BRANCH  45  59
ATOM     59  C   UNL     1      14.228   5.396  -8.400  1.00  0.00     0.057 A 
ATOM     60  C   UNL     1      13.123   5.216  -9.241  1.00  0.00     0.134 A 
ATOM     61  C   UNL     1      15.491   5.077  -8.918  1.00  0.00     0.134 A 
ATOM     62  F   UNL     1      11.884   5.488  -8.805  1.00  0.00    -0.206 F 
ATOM     63  C   UNL     1      13.267   4.723 -10.540  1.00  0.00     0.040 A 
ATOM     64  C   UNL     1      15.651   4.611 -10.224  1.00  0.00     0.040 A 
ATOM     65  F   UNL     1      16.594   5.232  -8.169  1.00  0.00    -0.206 F 
ATOM     66  C   UNL     1      14.535   4.428 -11.038  1.00  0.00     0.006 A 
ENDBRANCH  45  59
BRANCH  46  67
ATOM     67  C   UNL     1      13.107   8.814   0.919  1.00  0.00     0.057 A 
ATOM     68  C   UNL     1      12.330   9.936   1.228  1.00  0.00     0.134 A 
ATOM     69  C   UNL     1      13.806   8.209   1.972  1.00  0.00     0.134 A 
ATOM     70  F   UNL     1      11.655  10.577   0.262  1.00  0.00    -0.206 F 
ATOM     71  C   UNL     1      12.273  10.454   2.524  1.00  0.00     0.040 A 
ATOM     72  C   UNL     1      13.731   8.694   3.278  1.00  0.00     0.040 A 
ATOM     73  F   UNL     1      14.570   7.129   1.748  1.00  0.00    -0.206 F 
ATOM     74  C   UNL     1      12.972   9.829   3.554  1.00  0.00     0.006 A 
ENDBRANCH  46  67
BRANCH  58  75
ATOM     75  C   UNL     1      15.853  11.478  -4.898  1.00  0.00     0.057 A 
ATOM     76  C   UNL     1      17.116  11.847  -4.418  1.00  0.00     0.134 A 
ATOM     77  C   UNL     1      15.187  12.386  -5.731  1.00  0.00     0.134 A 
ATOM     78  F   UNL     1      17.800  11.029  -3.604  1.00  0.00    -0.206 F 
ATOM     79  C   UNL     1      17.684  13.081  -4.738  1.00  0.00     0.040 A 
ATOM     80  C   UNL     1      15.758  13.610  -6.083  1.00  0.00     0.040 A 
ATOM     81  F   UNL     1      13.978  12.091  -6.232  1.00  0.00    -0.206 F 
ATOM     82  C   UNL     1      17.008  13.963  -5.580  1.00  0.00     0.006 A 
ENDBRANCH  58  75
ENDBRANCH  32  33
ENDBRANCH  25  27
ENDBRANCH  24  25
ENDBRANCH  23  24
ENDBRANCH   1  23
TORSDOF 13
