REMARK SMILES O=C(COCCNC(=O)[C@@H]1CCCCO1)OCCOC(=O)c1ccc(-c2c3nc(c(-c4c(F)cccc4F)c4ccc([nH]4)c(-c4c(F)cccc4F)c4nc(c(-c5c(F)cccc5F)c5ccc2[nH]5)C=C4)C=C3)cc1
REMARK SMILES IDX 16 1 2 2 1 3 3 4 4 5 5 6 6 7 7 8 8 9 9 11 10 12 11 13 15 14
REMARK SMILES IDX 12 15 14 16 13 17 17 18 18 19 19 20 20 21 21 22 22 23 23 24
REMARK SMILES IDX 75 25 24 26 74 27 25 28 26 29 27 30 68 31 28 32 73 33 67 34
REMARK SMILES IDX 69 35 29 36 72 37 66 38 65 39 30 41 56 42 39 43 55 44 40 45
REMARK SMILES IDX 43 46 54 47 70 48 41 49 42 50 53 52 71 53 44 54 31 55 32 56
REMARK SMILES IDX 37 57 33 58 34 59 36 60 38 61 35 62 57 63 58 64 63 65 59 66
REMARK SMILES IDX 60 67 62 68 64 69 61 70 45 71 46 72 51 73 47 74 48 75 50 76
REMARK SMILES IDX 52 77 49 78
REMARK H PARENT 7 10 69 40 43 51
REMARK Flexibility Score: inf
ROOT
ATOM      1  O   UNL     1       3.561  -0.728  -0.471  1.00  0.00    -0.460 OA
ENDROOT
BRANCH   1   2
ATOM      2  C   UNL     1       3.083  -0.256   0.705  1.00  0.00     0.332 C 
ATOM      3  O   UNL     1       2.063  -0.752   1.181  1.00  0.00    -0.250 OA
BRANCH   2   4
ATOM      4  C   UNL     1       3.788   0.934   1.386  1.00  0.00     0.282 C 
BRANCH   4   5
ATOM      5  O   UNL     1       4.230   0.843   2.730  1.00  0.00    -0.368 OA
BRANCH   5   6
ATOM      6  C   UNL     1       3.250   0.479   3.706  1.00  0.00     0.182 C 
BRANCH   6   7
ATOM      7  C   UNL     1       2.222   1.577   4.029  1.00  0.00     0.144 C 
BRANCH   7   8
ATOM      8  N   UNL     1       1.184   1.746   3.027  1.00  0.00    -0.352 N 
ATOM      9  C   UNL     1      -0.087   1.308   2.866  1.00  0.00     0.249 C 
ATOM     10  H   UNL     1       1.477   2.319   2.281  1.00  0.00     0.163 HD
ATOM     11  O   UNL     1      -0.624   1.704   1.820  1.00  0.00    -0.272 OA
BRANCH   9  12
ATOM     12  C   UNL     1      -0.904   0.477   3.893  1.00  0.00     0.207 C 
ATOM     13  C   UNL     1      -0.236  -0.516   4.838  1.00  0.00     0.042 C 
ATOM     14  O   UNL     1      -1.988  -0.218   3.242  1.00  0.00    -0.368 OA
ATOM     15  C   UNL     1       0.248  -1.763   4.113  1.00  0.00     0.006 C 
ATOM     16  C   UNL     1      -1.533  -1.296   2.417  1.00  0.00     0.161 C 
ATOM     17  C   UNL     1      -0.858  -2.367   3.262  1.00  0.00     0.029 C 
ENDBRANCH   9  12
ENDBRANCH   7   8
ENDBRANCH   6   7
ENDBRANCH   5   6
ENDBRANCH   4   5
ENDBRANCH   2   4
ENDBRANCH   1   2
BRANCH   1  18
ATOM     18  C   UNL     1       4.852  -0.420  -1.034  1.00  0.00     0.274 C 
BRANCH  18  19
ATOM     19  C   UNL     1       4.744   0.659  -2.111  1.00  0.00     0.275 C 
BRANCH  19  20
ATOM     20  O   UNL     1       4.213   1.877  -1.555  1.00  0.00    -0.458 OA
BRANCH  20  21
ATOM     21  C   UNL     1       2.918   2.148  -1.860  1.00  0.00     0.338 C 
ATOM     22  O   UNL     1       2.204   1.512  -2.616  1.00  0.00    -0.246 OA
BRANCH  21  23
ATOM     23  C   UNL     1       2.427   3.267  -1.019  1.00  0.00     0.060 A 
ATOM     24  C   UNL     1       1.087   3.244  -0.619  1.00  0.00     0.016 A 
ATOM     25  C   UNL     1       3.258   4.314  -0.600  1.00  0.00     0.016 A 
ATOM     26  C   UNL     1       0.573   4.270   0.179  1.00  0.00     0.010 A 
ATOM     27  C   UNL     1       2.740   5.343   0.199  1.00  0.00     0.010 A 
ATOM     28  C   UNL     1       1.388   5.337   0.578  1.00  0.00    -0.014 A 
BRANCH  28  29
ATOM     29  C   UNL     1       0.786   6.488   1.298  1.00  0.00     0.031 A 
ATOM     30  C   UNL     1       0.276   7.660   0.510  1.00  0.00     0.074 A 
ATOM     31  C   UNL     1       0.649   6.479   2.636  1.00  0.00     0.049 A 
ATOM     32  N   UNL     1      -0.348   8.732   0.929  1.00  0.00    -0.248 NA
ATOM     33  C   UNL     1       0.502   7.621  -0.943  1.00  0.00     0.031 C 
ATOM     34  C   UNL     1       1.092   5.409   3.523  1.00  0.00     0.029 A 
ATOM     35  N   UNL     1       0.091   7.405   3.483  1.00  0.00    -0.354 N 
ATOM     36  C   UNL     1      -0.622   9.477  -0.209  1.00  0.00     0.074 A 
ATOM     37  C   UNL     1      -0.049   8.763  -1.331  1.00  0.00     0.031 C 
ATOM     38  C   UNL     1       0.785   5.732   4.791  1.00  0.00     0.029 A 
ATOM     39  C   UNL     1       0.137   7.042   4.807  1.00  0.00     0.049 A 
ATOM     40  H   UNL     1      -0.305   8.251   3.170  1.00  0.00     0.167 HD
ATOM     41  C   UNL     1      -1.307  10.640  -0.316  1.00  0.00     0.037 A 
ATOM     42  C   UNL     1      -0.293   7.692   5.905  1.00  0.00     0.037 A 
ATOM     43  C   UNL     1      -1.856  11.374   0.792  1.00  0.00     0.049 A 
ATOM     44  C   UNL     1      -0.982   9.024   5.764  1.00  0.00     0.074 A 
ATOM     45  C   UNL     1      -2.559  12.568   0.772  1.00  0.00     0.029 A 
ATOM     46  N   UNL     1      -1.758  10.992   2.120  1.00  0.00    -0.354 N 
ATOM     47  N   UNL     1      -1.279   9.693   4.678  1.00  0.00    -0.248 NA
ATOM     48  C   UNL     1      -1.402   9.688   7.009  1.00  0.00     0.031 C 
ATOM     49  C   UNL     1      -2.851  12.928   2.092  1.00  0.00     0.029 A 
ATOM     50  C   UNL     1      -2.366  11.938   2.930  1.00  0.00     0.049 A 
ATOM     51  H   UNL     1      -1.321  10.170   2.441  1.00  0.00     0.167 HD
ATOM     52  C   UNL     1      -1.944  10.837   5.104  1.00  0.00     0.074 A 
ATOM     53  C   UNL     1      -2.021  10.765   6.547  1.00  0.00     0.031 C 
ATOM     54  C   UNL     1      -2.444  11.857   4.365  1.00  0.00     0.037 A 
BRANCH  41  55
ATOM     55  C   UNL     1      -1.499  11.192  -1.694  1.00  0.00     0.057 A 
ATOM     56  C   UNL     1      -2.425  10.629  -2.581  1.00  0.00     0.134 A 
ATOM     57  C   UNL     1      -0.785  12.315  -2.125  1.00  0.00     0.134 A 
ATOM     58  F   UNL     1      -3.129   9.542  -2.229  1.00  0.00    -0.206 F 
ATOM     59  C   UNL     1      -2.626  11.157  -3.856  1.00  0.00     0.040 A 
ATOM     60  C   UNL     1      -0.990  12.864  -3.391  1.00  0.00     0.040 A 
ATOM     61  F   UNL     1       0.116  12.900  -1.321  1.00  0.00    -0.206 F 
ATOM     62  C   UNL     1      -1.911  12.283  -4.262  1.00  0.00     0.006 A 
ENDBRANCH  41  55
BRANCH  42  63
ATOM     63  C   UNL     1      -0.085   7.109   7.255  1.00  0.00     0.057 A 
ATOM     64  C   UNL     1      -1.162   6.658   8.027  1.00  0.00     0.134 A 
ATOM     65  C   UNL     1       1.190   7.060   7.832  1.00  0.00     0.134 A 
ATOM     66  F   UNL     1      -2.409   6.708   7.538  1.00  0.00    -0.206 F 
ATOM     67  C   UNL     1      -0.984   6.207   9.336  1.00  0.00     0.040 A 
ATOM     68  C   UNL     1       1.385   6.590   9.131  1.00  0.00     0.040 A 
ATOM     69  F   UNL     1       2.262   7.478   7.144  1.00  0.00    -0.206 F 
ATOM     70  C   UNL     1       0.294   6.173   9.891  1.00  0.00     0.006 A 
ENDBRANCH  42  63
BRANCH  54  71
ATOM     71  C   UNL     1      -3.143  12.963   5.101  1.00  0.00     0.057 A 
ATOM     72  C   UNL     1      -2.438  13.898   5.870  1.00  0.00     0.134 A 
ATOM     73  C   UNL     1      -4.533  13.110   5.019  1.00  0.00     0.134 A 
ATOM     74  F   UNL     1      -1.106  13.805   6.001  1.00  0.00    -0.206 F 
ATOM     75  C   UNL     1      -3.095  14.925   6.552  1.00  0.00     0.040 A 
ATOM     76  C   UNL     1      -5.198  14.147   5.676  1.00  0.00     0.040 A 
ATOM     77  F   UNL     1      -5.268  12.254   4.292  1.00  0.00    -0.206 F 
ATOM     78  C   UNL     1      -4.479  15.054   6.451  1.00  0.00     0.006 A 
ENDBRANCH  54  71
ENDBRANCH  28  29
ENDBRANCH  21  23
ENDBRANCH  20  21
ENDBRANCH  19  20
ENDBRANCH  18  19
ENDBRANCH   1  18
TORSDOF 16
