REMARK SMILES COc1ccc(-c2nc3ccc(C)cc3[nH]2)c(C(=O)OCCOC(=O)c2ccc(-c3c4nc(c(-c5c(F)cccc5F)c5ccc([nH]5)c(-c5c(F)cccc5F)c5nc(c(-c6c(F)cccc6F)c6ccc3[nH]6)C=C5)C=C4)cc2)c1OC
REMARK SMILES IDX 22 1 21 2 20 3 18 4 19 5 17 6 3 7 4 8 80 9 5 10 6 11 2 12
REMARK SMILES IDX 1 13 81 14 82 15 7 16 8 17 16 18 9 19 15 20 10 22 14 23
REMARK SMILES IDX 11 24 12 25 13 26 23 27 24 28 25 29 26 30 27 31 79 32 28 33
REMARK SMILES IDX 78 34 29 35 30 36 31 37 72 38 32 39 77 40 71 41 73 42 33 43
REMARK SMILES IDX 76 44 70 45 69 46 34 48 60 49 43 50 59 51 44 52 47 53 58 54
REMARK SMILES IDX 74 55 45 56 46 57 57 59 75 60 48 61 35 62 36 63 41 64 37 65
REMARK SMILES IDX 38 66 40 67 42 68 39 69 61 70 62 71 67 72 63 73 64 74 66 75
REMARK SMILES IDX 68 76 65 77 49 78 50 79 55 80 51 81 52 82 54 83 56 84 53 85
REMARK H PARENT 16 21 73 47 47 58
REMARK Flexibility Score: inf
ROOT
ATOM      1  C   UNL     1       6.439  -5.292  -1.627  1.00  0.00     0.275 C 
ENDROOT
BRANCH   1   2
ATOM      2  C   UNL     1       6.131  -4.002  -2.389  1.00  0.00     0.275 C 
BRANCH   2   3
ATOM      3  O   UNL     1       4.821  -3.590  -2.009  1.00  0.00    -0.458 OA
BRANCH   3   4
ATOM      4  C   UNL     1       4.178  -2.790  -2.881  1.00  0.00     0.342 C 
ATOM      5  O   UNL     1       4.636  -2.155  -3.818  1.00  0.00    -0.246 OA
BRANCH   4   6
ATOM      6  C   UNL     1       2.747  -2.882  -2.553  1.00  0.00     0.116 A 
ATOM      7  C   UNL     1       0.949  -2.248  -1.093  1.00  0.00     0.161 A 
ATOM      8  C   UNL     1       0.070  -2.988  -1.902  1.00  0.00     0.051 A 
ATOM      9  C   UNL     1       2.308  -2.216  -1.396  1.00  0.00     0.176 A 
ATOM     10  C   UNL     1       0.534  -3.697  -3.028  1.00  0.00     0.017 A 
ATOM     11  C   UNL     1       1.892  -3.659  -3.373  1.00  0.00     0.036 A 
BRANCH   7  12
ATOM     12  O   UNL     1       0.456  -1.705   0.062  1.00  0.00    -0.493 OA
ATOM     13  C   UNL     1      -0.028  -0.377  -0.147  1.00  0.00     0.278 C 
ENDBRANCH   7  12
BRANCH   9  14
ATOM     14  O   UNL     1       3.298  -1.760  -0.568  1.00  0.00    -0.492 OA
ATOM     15  C   UNL     1       3.161  -0.472  -0.005  1.00  0.00     0.278 C 
ENDBRANCH   9  14
BRANCH  11  16
ATOM     16  C   UNL     1       2.494  -4.556  -4.381  1.00  0.00     0.139 A 
ATOM     17  N   UNL     1       3.708  -5.048  -4.236  1.00  0.00    -0.228 NA
ATOM     18  N   UNL     1       1.933  -5.074  -5.532  1.00  0.00    -0.338 N 
ATOM     19  C   UNL     1       3.917  -5.939  -5.235  1.00  0.00     0.089 A 
ATOM     20  C   UNL     1       2.825  -5.981  -6.081  1.00  0.00     0.066 A 
ATOM     21  H   UNL     1       1.051  -4.838  -5.900  1.00  0.00     0.168 HD
ATOM     22  C   UNL     1       5.010  -6.790  -5.432  1.00  0.00     0.031 A 
ATOM     23  C   UNL     1       2.774  -6.864  -7.167  1.00  0.00     0.031 A 
ATOM     24  C   UNL     1       4.915  -7.771  -6.416  1.00  0.00     0.006 A 
ATOM     25  C   UNL     1       3.801  -7.829  -7.261  1.00  0.00    -0.049 A 
ATOM     26  C   UNL     1       3.665  -9.013  -8.178  1.00  0.00     0.044 C 
ENDBRANCH  11  16
ENDBRANCH   4   6
ENDBRANCH   3   4
ENDBRANCH   2   3
ENDBRANCH   1   2
BRANCH   1  27
ATOM     27  O   UNL     1       5.575  -6.369  -2.057  1.00  0.00    -0.458 OA
BRANCH  27  28
ATOM     28  C   UNL     1       4.405  -6.517  -1.379  1.00  0.00     0.338 C 
ATOM     29  O   UNL     1       4.078  -5.959  -0.344  1.00  0.00    -0.246 OA
BRANCH  28  30
ATOM     30  C   UNL     1       3.500  -7.439  -2.117  1.00  0.00     0.060 A 
ATOM     31  C   UNL     1       2.123  -7.167  -2.136  1.00  0.00     0.016 A 
ATOM     32  C   UNL     1       3.990  -8.548  -2.809  1.00  0.00     0.016 A 
ATOM     33  C   UNL     1       1.245  -7.969  -2.881  1.00  0.00     0.010 A 
ATOM     34  C   UNL     1       3.114  -9.350  -3.550  1.00  0.00     0.010 A 
ATOM     35  C   UNL     1       1.734  -9.071  -3.593  1.00  0.00    -0.014 A 
BRANCH  35  36
ATOM     36  C   UNL     1       0.827 -10.068  -4.224  1.00  0.00     0.031 A 
ATOM     37  C   UNL     1       0.493 -11.304  -3.452  1.00  0.00     0.074 A 
ATOM     38  C   UNL     1       0.319  -9.932  -5.463  1.00  0.00     0.049 A 
ATOM     39  N   UNL     1      -0.192 -12.349  -3.832  1.00  0.00    -0.248 NA
ATOM     40  C   UNL     1       0.945 -11.340  -2.053  1.00  0.00     0.031 C 
ATOM     41  C   UNL     1       0.388  -8.729  -6.270  1.00  0.00     0.029 A 
ATOM     42  N   UNL     1      -0.314 -10.838  -6.285  1.00  0.00    -0.354 N 
ATOM     43  C   UNL     1      -0.323 -13.131  -2.698  1.00  0.00     0.074 A 
ATOM     44  C   UNL     1       0.433 -12.489  -1.643  1.00  0.00     0.031 C 
ATOM     45  C   UNL     1      -0.024  -9.003  -7.521  1.00  0.00     0.029 A 
ATOM     46  C   UNL     1      -0.422 -10.402  -7.587  1.00  0.00     0.049 A 
ATOM     47  H   UNL     1      -0.655 -11.707  -5.973  1.00  0.00     0.167 HD
ATOM     48  C   UNL     1      -1.053 -14.258  -2.539  1.00  0.00     0.037 A 
ATOM     49  C   UNL     1      -0.778 -11.061  -8.707  1.00  0.00     0.037 A 
ATOM     50  C   UNL     1      -1.746 -14.933  -3.602  1.00  0.00     0.049 A 
ATOM     51  C   UNL     1      -1.333 -12.449  -8.581  1.00  0.00     0.074 A 
ATOM     52  C   UNL     1      -2.484 -16.101  -3.546  1.00  0.00     0.029 A 
ATOM     53  N   UNL     1      -1.756 -14.516  -4.926  1.00  0.00    -0.354 N 
ATOM     54  N   UNL     1      -1.492 -13.169  -7.499  1.00  0.00    -0.248 NA
ATOM     55  C   UNL     1      -1.823 -13.090  -9.810  1.00  0.00     0.031 C 
ATOM     56  C   UNL     1      -2.890 -16.423  -4.846  1.00  0.00     0.029 A 
ATOM     57  C   UNL     1      -2.454 -15.425  -5.703  1.00  0.00     0.049 A 
ATOM     58  H   UNL     1      -1.330 -13.694  -5.262  1.00  0.00     0.167 HD
ATOM     59  C   UNL     1      -2.181 -14.305  -7.898  1.00  0.00     0.074 A 
ATOM     60  C   UNL     1      -2.368 -14.200  -9.331  1.00  0.00     0.031 C 
ATOM     61  C   UNL     1      -2.652 -15.315  -7.128  1.00  0.00     0.037 A 
BRANCH  48  62
ATOM     62  C   UNL     1      -1.101 -14.817  -1.153  1.00  0.00     0.057 A 
ATOM     63  C   UNL     1      -1.810 -14.171  -0.131  1.00  0.00     0.134 A 
ATOM     64  C   UNL     1      -0.391 -15.975  -0.823  1.00  0.00     0.134 A 
ATOM     65  F   UNL     1      -2.490 -13.041  -0.382  1.00  0.00    -0.206 F 
ATOM     66  C   UNL     1      -1.779 -14.638   1.183  1.00  0.00     0.040 A 
ATOM     67  C   UNL     1      -0.372 -16.465   0.482  1.00  0.00     0.040 A 
ATOM     68  F   UNL     1       0.312 -16.633  -1.757  1.00  0.00    -0.206 F 
ATOM     69  C   UNL     1      -1.059 -15.790   1.491  1.00  0.00     0.006 A 
ENDBRANCH  48  62
BRANCH  49  70
ATOM     70  C   UNL     1      -0.641 -10.422 -10.040  1.00  0.00     0.057 A 
ATOM     71  C   UNL     1      -1.748  -9.940 -10.743  1.00  0.00     0.134 A 
ATOM     72  C   UNL     1       0.610 -10.325 -10.662  1.00  0.00     0.134 A 
ATOM     73  F   UNL     1      -2.976 -10.034 -10.213  1.00  0.00    -0.206 F 
ATOM     74  C   UNL     1      -1.621  -9.393 -12.023  1.00  0.00     0.040 A 
ATOM     75  C   UNL     1       0.756  -9.764 -11.934  1.00  0.00     0.040 A 
ATOM     76  F   UNL     1       1.708 -10.793 -10.051  1.00  0.00    -0.206 F 
ATOM     77  C   UNL     1      -0.364  -9.301 -12.620  1.00  0.00     0.006 A 
ENDBRANCH  49  70
BRANCH  61  78
ATOM     78  C   UNL     1      -3.490 -16.362  -7.798  1.00  0.00     0.057 A 
ATOM     79  C   UNL     1      -2.942 -17.327  -8.650  1.00  0.00     0.134 A 
ATOM     80  C   UNL     1      -4.865 -16.434  -7.535  1.00  0.00     0.134 A 
ATOM     81  F   UNL     1      -1.637 -17.301  -8.958  1.00  0.00    -0.206 F 
ATOM     82  C   UNL     1      -3.735 -18.323  -9.224  1.00  0.00     0.040 A 
ATOM     83  C   UNL     1      -5.662 -17.440  -8.081  1.00  0.00     0.040 A 
ATOM     84  F   UNL     1      -5.452 -15.538  -6.727  1.00  0.00    -0.206 F 
ATOM     85  C   UNL     1      -5.096 -18.388  -8.930  1.00  0.00     0.006 A 
ENDBRANCH  61  78
ENDBRANCH  35  36
ENDBRANCH  28  30
ENDBRANCH  27  28
ENDBRANCH   1  27
TORSDOF 14
