REMARK SMILES COc1ccc(CCN2C(=O)C[C@@H](C(=O)OCCOC(=O)c3ccc(-c4c5nc(c(-c6c(F)cccc6F)c6ccc([nH]6)c(-c6c(F)cccc6F)c6nc(c(-c7c(F)cccc7F)c7ccc4[nH]7)C=C6)C=C5)cc3)S/C2=[NH+]\c2ccc(F)cc2)cc1OC
REMARK SMILES IDX 17 1 16 2 14 3 15 4 13 5 9 6 10 7 77 8 11 9 12 10 76 11
REMARK SMILES IDX 78 12 8 14 7 15 6 16 3 17 4 18 87 19 5 20 86 21 2 22 1 23
REMARK SMILES IDX 88 24 89 25 79 26 80 27 85 28 81 29 84 30 82 31 83 32 18 33
REMARK SMILES IDX 19 34 20 35 21 36 22 37 23 38 75 39 24 40 74 41 25 42 26 43
REMARK SMILES IDX 27 44 68 45 28 46 73 47 67 48 69 49 29 50 72 51 66 52 65 53
REMARK SMILES IDX 30 55 56 56 39 57 55 58 40 59 43 60 54 61 70 62 41 63 42 64
REMARK SMILES IDX 53 66 71 67 44 68 31 69 32 70 37 71 33 72 34 73 36 74 38 75
REMARK SMILES IDX 35 76 57 77 58 78 63 79 59 80 60 81 62 82 64 83 61 84 45 85
REMARK SMILES IDX 46 86 51 87 47 88 48 89 50 90 52 91 49 92
REMARK H PARENT 78 13 69 54 43 65
REMARK Flexibility Score: inf
ROOT
ATOM      1  C   UNL     1      -2.115   8.357  -0.667  1.00  0.00     0.274 C 
ENDROOT
BRANCH   1   2
ATOM      2  O   UNL     1      -1.371   7.967   0.501  1.00  0.00    -0.461 OA
BRANCH   2   3
ATOM      3  C   UNL     1      -1.842   8.404   1.701  1.00  0.00     0.320 C 
ATOM      4  O   UNL     1      -2.596   9.359   1.851  1.00  0.00    -0.251 OA
BRANCH   3   5
ATOM      5  C   UNL     1      -1.339   7.566   2.865  1.00  0.00     0.180 C 
ATOM      6  N   UNL     1       0.527   5.841   4.329  1.00  0.00    -0.191 N 
ATOM      7  C   UNL     1       0.618   7.230   4.450  1.00  0.00     0.311 C 
ATOM      8  C   UNL     1      -0.638   5.230   3.903  1.00  0.00     0.319 C 
ATOM      9  O   UNL     1       1.275   7.774   5.341  1.00  0.00    -0.247 OA
ATOM     10  C   UNL     1      -0.037   8.095   3.395  1.00  0.00     0.155 C 
ATOM     11  S   UNL     1      -1.141   5.844   2.365  1.00  0.00    -0.022 SA
ATOM     12  N   UNL     1      -1.228   4.314   4.601  1.00  0.00    -0.235 N 
ATOM     13  H   UNL     1      -0.847   4.139   5.492  1.00  0.00     0.313 HD
BRANCH   6  14
ATOM     14  C   UNL     1       1.727   5.119   4.784  1.00  0.00     0.251 C 
BRANCH  14  15
ATOM     15  C   UNL     1       1.823   3.585   4.840  1.00  0.00     0.082 C 
BRANCH  15  16
ATOM     16  C   UNL     1       1.869   2.826   3.531  1.00  0.00    -0.040 A 
ATOM     17  C   UNL     1       1.788   1.313   1.125  1.00  0.00     0.160 A 
ATOM     18  C   UNL     1       0.619   1.691   1.768  1.00  0.00     0.051 A 
ATOM     19  C   UNL     1       3.018   1.673   1.703  1.00  0.00     0.160 A 
ATOM     20  C   UNL     1       0.681   2.365   2.981  1.00  0.00     0.008 A 
ATOM     21  C   UNL     1       3.050   2.470   2.872  1.00  0.00     0.054 A 
BRANCH  17  22
ATOM     22  O   UNL     1       1.764   0.622  -0.058  1.00  0.00    -0.493 OA
ATOM     23  C   UNL     1       0.622  -0.210  -0.261  1.00  0.00     0.278 C 
ENDBRANCH  17  22
BRANCH  19  24
ATOM     24  O   UNL     1       4.260   1.303   1.244  1.00  0.00    -0.493 OA
ATOM     25  C   UNL     1       4.321   0.032   0.596  1.00  0.00     0.278 C 
ENDBRANCH  19  24
ENDBRANCH  15  16
ENDBRANCH  14  15
ENDBRANCH   6  14
BRANCH  12  26
ATOM     26  C   UNL     1      -2.357   3.526   4.244  1.00  0.00     0.125 A 
ATOM     27  C   UNL     1      -3.057   2.913   5.296  1.00  0.00     0.055 A 
ATOM     28  C   UNL     1      -2.681   3.102   2.941  1.00  0.00     0.055 A 
ATOM     29  C   UNL     1      -4.008   1.907   5.061  1.00  0.00     0.043 A 
ATOM     30  C   UNL     1      -3.635   2.106   2.696  1.00  0.00     0.043 A 
ATOM     31  C   UNL     1      -4.279   1.505   3.762  1.00  0.00     0.123 A 
ATOM     32  F   UNL     1      -5.143   0.507   3.535  1.00  0.00    -0.207 F 
ENDBRANCH  12  26
ENDBRANCH   3   5
ENDBRANCH   2   3
ENDBRANCH   1   2
BRANCH   1  33
ATOM     33  C   UNL     1      -3.107   7.247  -1.023  1.00  0.00     0.275 C 
BRANCH  33  34
ATOM     34  O   UNL     1      -4.091   7.131   0.024  1.00  0.00    -0.458 OA
BRANCH  34  35
ATOM     35  C   UNL     1      -4.376   5.875   0.442  1.00  0.00     0.338 C 
ATOM     36  O   UNL     1      -3.928   4.823   0.028  1.00  0.00    -0.246 OA
BRANCH  35  37
ATOM     37  C   UNL     1      -5.362   5.967   1.530  1.00  0.00     0.060 A 
ATOM     38  C   UNL     1      -4.933   6.198   2.838  1.00  0.00     0.016 A 
ATOM     39  C   UNL     1      -6.713   5.758   1.256  1.00  0.00     0.016 A 
ATOM     40  C   UNL     1      -5.850   6.217   3.885  1.00  0.00     0.010 A 
ATOM     41  C   UNL     1      -7.637   5.799   2.303  1.00  0.00     0.010 A 
ATOM     42  C   UNL     1      -7.210   6.017   3.625  1.00  0.00    -0.014 A 
BRANCH  42  43
ATOM     43  C   UNL     1      -8.182   5.975   4.742  1.00  0.00     0.031 A 
ATOM     44  C   UNL     1      -8.772   4.661   5.163  1.00  0.00     0.074 A 
ATOM     45  C   UNL     1      -8.533   7.109   5.376  1.00  0.00     0.049 A 
ATOM     46  N   UNL     1      -9.720   4.421   6.032  1.00  0.00    -0.248 NA
ATOM     47  C   UNL     1      -8.223   3.459   4.517  1.00  0.00     0.031 C 
ATOM     48  C   UNL     1      -7.996   8.439   5.089  1.00  0.00     0.029 A 
ATOM     49  N   UNL     1      -9.433   7.321   6.389  1.00  0.00    -0.354 N 
ATOM     50  C   UNL     1      -9.903   3.045   6.018  1.00  0.00     0.074 A 
ATOM     51  C   UNL     1      -8.974   2.504   5.047  1.00  0.00     0.031 C 
ATOM     52  C   UNL     1      -8.579   9.331   5.908  1.00  0.00     0.029 A 
ATOM     53  C   UNL     1      -9.562   8.642   6.741  1.00  0.00     0.049 A 
ATOM     54  H   UNL     1      -9.939   6.596   6.822  1.00  0.00     0.167 HD
ATOM     55  C   UNL     1     -10.767   2.302   6.750  1.00  0.00     0.037 A 
ATOM     56  C   UNL     1     -10.398   9.233   7.615  1.00  0.00     0.037 A 
ATOM     57  C   UNL     1     -11.674   2.840   7.729  1.00  0.00     0.049 A 
ATOM     58  C   UNL     1     -11.381   8.392   8.380  1.00  0.00     0.074 A 
ATOM     59  C   UNL     1     -12.577   2.165   8.532  1.00  0.00     0.029 A 
ATOM     60  N   UNL     1     -11.789   4.186   8.042  1.00  0.00    -0.354 N 
ATOM     61  N   UNL     1     -11.557   7.093   8.350  1.00  0.00    -0.248 NA
ATOM     62  C   UNL     1     -12.289   9.099   9.295  1.00  0.00     0.031 C 
ATOM     63  C   UNL     1     -13.263   3.107   9.308  1.00  0.00     0.029 A 
ATOM     64  C   UNL     1     -12.760   4.364   9.015  1.00  0.00     0.049 A 
ATOM     65  H   UNL     1     -11.260   4.909   7.633  1.00  0.00     0.167 HD
ATOM     66  C   UNL     1     -12.578   6.825   9.252  1.00  0.00     0.074 A 
ATOM     67  C   UNL     1     -12.975   8.096   9.824  1.00  0.00     0.031 C 
ATOM     68  C   UNL     1     -13.139   5.635   9.576  1.00  0.00     0.037 A 
BRANCH  55  69
ATOM     69  C   UNL     1     -10.789   0.825   6.495  1.00  0.00     0.057 A 
ATOM     70  C   UNL     1      -9.765  -0.019   6.940  1.00  0.00     0.134 A 
ATOM     71  C   UNL     1     -11.865   0.238   5.817  1.00  0.00     0.134 A 
ATOM     72  F   UNL     1      -8.700   0.484   7.582  1.00  0.00    -0.206 F 
ATOM     73  C   UNL     1      -9.801  -1.394   6.704  1.00  0.00     0.040 A 
ATOM     74  C   UNL     1     -11.923  -1.138   5.594  1.00  0.00     0.040 A 
ATOM     75  F   UNL     1     -12.880   0.992   5.368  1.00  0.00    -0.206 F 
ATOM     76  C   UNL     1     -10.886  -1.958   6.034  1.00  0.00     0.006 A 
ENDBRANCH  55  69
BRANCH  56  77
ATOM     77  C   UNL     1     -10.360  10.705   7.799  1.00  0.00     0.057 A 
ATOM     78  C   UNL     1      -9.876  11.274   8.982  1.00  0.00     0.134 A 
ATOM     79  C   UNL     1     -10.816  11.576   6.802  1.00  0.00     0.134 A 
ATOM     80  F   UNL     1      -9.450  10.489   9.982  1.00  0.00    -0.206 F 
ATOM     81  C   UNL     1      -9.857  12.656   9.173  1.00  0.00     0.040 A 
ATOM     82  C   UNL     1     -10.781  12.961   6.970  1.00  0.00     0.040 A 
ATOM     83  F   UNL     1     -11.293  11.092   5.646  1.00  0.00    -0.206 F 
ATOM     84  C   UNL     1     -10.305  13.504   8.162  1.00  0.00     0.006 A 
ENDBRANCH  56  77
BRANCH  68  85
ATOM     85  C   UNL     1     -14.219   5.649  10.616  1.00  0.00     0.057 A 
ATOM     86  C   UNL     1     -15.511   6.106  10.330  1.00  0.00     0.134 A 
ATOM     87  C   UNL     1     -13.971   5.168  11.908  1.00  0.00     0.134 A 
ATOM     88  F   UNL     1     -15.807   6.591   9.115  1.00  0.00    -0.206 F 
ATOM     89  C   UNL     1     -16.515   6.101  11.299  1.00  0.00     0.040 A 
ATOM     90  C   UNL     1     -14.973   5.139  12.879  1.00  0.00     0.040 A 
ATOM     91  F   UNL     1     -12.755   4.711  12.243  1.00  0.00    -0.206 F 
ATOM     92  C   UNL     1     -16.248   5.611  12.576  1.00  0.00     0.006 A 
ENDBRANCH  68  85
ENDBRANCH  42  43
ENDBRANCH  35  37
ENDBRANCH  34  35
ENDBRANCH  33  34
ENDBRANCH   1  33
TORSDOF 17
