REMARK SMILES COc1ccc(/C=C2/C(=O)N(c3ccccc3)C(=O)N=C2OCCOC(=O)c2ccc(-c3c4nc(c(-c5c(F)cccc5F)c5ccc([nH]5)c(-c5c(F)cccc5F)c5nc(c(-c6c(F)cccc6F)c6ccc3[nH]6)C=C5)C=C4)cc2)cc1C(=O)[O-]
REMARK SMILES IDX 24 1 23 2 22 3 21 4 7 5 8 6 9 7 10 8 11 9 20 10 18 11 19 12
REMARK SMILES IDX 6 13 3 14 4 15 83 16 5 17 82 18 2 19 1 20 84 21 85 22 86 23
REMARK SMILES IDX 12 24 13 25 17 26 14 27 16 28 15 29 25 30 26 31 27 32 28 33
REMARK SMILES IDX 29 34 81 35 30 36 80 37 31 38 32 39 33 40 74 41 34 42 79 43
REMARK SMILES IDX 73 44 75 45 35 46 78 47 72 48 71 49 36 51 62 52 45 53 61 54
REMARK SMILES IDX 46 55 49 56 60 57 76 58 47 59 48 60 59 62 77 63 50 64 37 65
REMARK SMILES IDX 38 66 43 67 39 68 40 69 42 70 44 71 41 72 63 73 64 74 69 75
REMARK SMILES IDX 65 76 66 77 68 78 70 79 67 80 51 81 52 82 57 83 53 84 54 85
REMARK SMILES IDX 56 86 58 87 55 88
REMARK H PARENT 75 50 49 61
REMARK Flexibility Score: inf
ROOT
ATOM      1  C   UNL     1      -3.117   0.704   6.374  1.00  0.00     0.274 C 
ENDROOT
BRANCH   1   2
ATOM      2  C   UNL     1      -2.048   1.791   6.242  1.00  0.00     0.273 C 
BRANCH   2   3
ATOM      3  O   UNL     1      -0.721   1.210   6.293  1.00  0.00    -0.473 OA
BRANCH   3   4
ATOM      4  C   UNL     1       0.195   1.671   7.171  1.00  0.00     0.231 C 
ATOM      5  C   UNL     1       2.216   0.750   5.925  1.00  0.00     0.027 C 
ATOM      6  C   UNL     1       1.508   1.040   7.035  1.00  0.00     0.103 C 
ATOM      7  C   UNL     1       2.169   0.797   8.353  1.00  0.00     0.272 C 
ATOM      8  O   UNL     1       3.058  -0.045   8.454  1.00  0.00    -0.268 OA
ATOM      9  N   UNL     1       1.722   1.642   9.368  1.00  0.00    -0.226 N 
ATOM     10  N   UNL     1      -0.088   2.495   8.115  1.00  0.00    -0.156 NA
ATOM     11  C   UNL     1       0.903   2.734   9.045  1.00  0.00     0.358 C 
ATOM     12  O   UNL     1       0.988   3.842   9.564  1.00  0.00    -0.245 OA
BRANCH   5  13
ATOM     13  C   UNL     1       1.949   0.932   4.483  1.00  0.00    -0.024 A 
ATOM     14  C   UNL     1       1.511   1.062   1.692  1.00  0.00     0.127 A 
ATOM     15  C   UNL     1       0.714   1.793   2.570  1.00  0.00     0.048 A 
ATOM     16  C   UNL     1       2.620   0.376   2.188  1.00  0.00     0.040 A 
ATOM     17  C   UNL     1       0.958   1.758   3.947  1.00  0.00     0.012 A 
ATOM     18  C   UNL     1       2.804   0.277   3.578  1.00  0.00     0.022 A 
BRANCH  14  19
ATOM     19  O   UNL     1       1.139   1.098   0.375  1.00  0.00    -0.496 OA
ATOM     20  C   UNL     1       0.711  -0.190  -0.076  1.00  0.00     0.278 C 
ENDBRANCH  14  19
BRANCH  16  21
ATOM     21  C   UNL     1       3.664  -0.230   1.334  1.00  0.00     0.075 C 
ATOM     22  O   UNL     1       4.359  -1.184   1.635  1.00  0.00    -0.545 OA
ATOM     23  O   UNL     1       3.875   0.462   0.203  1.00  0.00    -0.545 OA
ENDBRANCH  16  21
ENDBRANCH   5  13
BRANCH   9  24
ATOM     24  C   UNL     1       2.150   1.412  10.726  1.00  0.00     0.054 A 
ATOM     25  C   UNL     1       2.222   0.090  11.212  1.00  0.00     0.027 A 
ATOM     26  C   UNL     1       2.354   2.450  11.646  1.00  0.00     0.027 A 
ATOM     27  C   UNL     1       2.419  -0.177  12.572  1.00  0.00     0.002 A 
ATOM     28  C   UNL     1       2.587   2.181  13.001  1.00  0.00     0.002 A 
ATOM     29  C   UNL     1       2.595   0.870  13.467  1.00  0.00     0.000 A 
ENDBRANCH   9  24
ENDBRANCH   3   4
ENDBRANCH   2   3
ENDBRANCH   1   2
BRANCH   1  30
ATOM     30  O   UNL     1      -3.363   0.446   7.768  1.00  0.00    -0.458 OA
BRANCH  30  31
ATOM     31  C   UNL     1      -2.736  -0.632   8.286  1.00  0.00     0.338 C 
ATOM     32  O   UNL     1      -2.124  -1.503   7.695  1.00  0.00    -0.246 OA
BRANCH  31  33
ATOM     33  C   UNL     1      -2.659  -0.430   9.738  1.00  0.00     0.060 A 
ATOM     34  C   UNL     1      -1.462   0.096  10.211  1.00  0.00     0.016 A 
ATOM     35  C   UNL     1      -3.687  -0.761  10.618  1.00  0.00     0.016 A 
ATOM     36  C   UNL     1      -1.277   0.295  11.569  1.00  0.00     0.010 A 
ATOM     37  C   UNL     1      -3.490  -0.576  11.996  1.00  0.00     0.010 A 
ATOM     38  C   UNL     1      -2.272  -0.064  12.480  1.00  0.00    -0.014 A 
BRANCH  38  39
ATOM     39  C   UNL     1      -1.924  -0.048  13.924  1.00  0.00     0.031 A 
ATOM     40  C   UNL     1      -1.686  -1.355  14.626  1.00  0.00     0.074 A 
ATOM     41  C   UNL     1      -1.637   1.103  14.561  1.00  0.00     0.049 A 
ATOM     42  N   UNL     1      -1.469  -1.589  15.895  1.00  0.00    -0.248 NA
ATOM     43  C   UNL     1      -1.671  -2.560  13.780  1.00  0.00     0.031 C 
ATOM     44  C   UNL     1      -1.648   2.434  13.953  1.00  0.00     0.029 A 
ATOM     45  N   UNL     1      -1.233   1.330  15.853  1.00  0.00    -0.354 N 
ATOM     46  C   UNL     1      -1.342  -2.967  16.006  1.00  0.00     0.074 A 
ATOM     47  C   UNL     1      -1.487  -3.518  14.677  1.00  0.00     0.031 C 
ATOM     48  C   UNL     1      -1.219   3.330  14.857  1.00  0.00     0.029 A 
ATOM     49  C   UNL     1      -0.984   2.652  16.129  1.00  0.00     0.049 A 
ATOM     50  H   UNL     1      -1.131   0.613  16.520  1.00  0.00     0.167 HD
ATOM     51  C   UNL     1      -1.135  -3.706  17.121  1.00  0.00     0.037 A 
ATOM     52  C   UNL     1      -0.637   3.251  17.285  1.00  0.00     0.037 A 
ATOM     53  C   UNL     1      -0.957  -3.153  18.436  1.00  0.00     0.049 A 
ATOM     54  C   UNL     1      -0.511   2.419  18.532  1.00  0.00     0.074 A 
ATOM     55  C   UNL     1      -0.848  -3.813  19.647  1.00  0.00     0.029 A 
ATOM     56  N   UNL     1      -0.833  -1.799  18.704  1.00  0.00    -0.354 N 
ATOM     57  N   UNL     1      -0.574   1.117  18.668  1.00  0.00    -0.248 NA
ATOM     58  C   UNL     1      -0.306   3.145  19.795  1.00  0.00     0.031 C 
ATOM     59  C   UNL     1      -0.675  -2.854  20.652  1.00  0.00     0.029 A 
ATOM     60  C   UNL     1      -0.645  -1.601  20.061  1.00  0.00     0.049 A 
ATOM     61  H   UNL     1      -0.873  -1.083  18.029  1.00  0.00     0.167 HD
ATOM     62  C   UNL     1      -0.424   0.868  20.026  1.00  0.00     0.074 A 
ATOM     63  C   UNL     1      -0.234   2.151  20.669  1.00  0.00     0.031 C 
ATOM     64  C   UNL     1      -0.459  -0.317  20.683  1.00  0.00     0.037 A 
BRANCH  51  65
ATOM     65  C   UNL     1      -1.160  -5.194  16.966  1.00  0.00     0.057 A 
ATOM     66  C   UNL     1      -0.081  -5.905  16.428  1.00  0.00     0.134 A 
ATOM     67  C   UNL     1      -2.287  -5.925  17.365  1.00  0.00     0.134 A 
ATOM     68  F   UNL     1       1.015  -5.259  16.003  1.00  0.00    -0.206 F 
ATOM     69  C   UNL     1      -0.128  -7.293  16.279  1.00  0.00     0.040 A 
ATOM     70  C   UNL     1      -2.338  -7.313  17.239  1.00  0.00     0.040 A 
ATOM     71  F   UNL     1      -3.354  -5.300  17.883  1.00  0.00    -0.206 F 
ATOM     72  C   UNL     1      -1.258  -8.001  16.690  1.00  0.00     0.006 A 
ENDBRANCH  51  65
BRANCH  52  73
ATOM     73  C   UNL     1      -0.441   4.722  17.338  1.00  0.00     0.057 A 
ATOM     74  C   UNL     1       0.819   5.276  17.590  1.00  0.00     0.134 A 
ATOM     75  C   UNL     1      -1.511   5.609  17.163  1.00  0.00     0.134 A 
ATOM     76  F   UNL     1       1.878   4.479  17.796  1.00  0.00    -0.206 F 
ATOM     77  C   UNL     1       1.008   6.657  17.669  1.00  0.00     0.040 A 
ATOM     78  C   UNL     1      -1.332   6.992  17.214  1.00  0.00     0.040 A 
ATOM     79  F   UNL     1      -2.747   5.142  16.932  1.00  0.00    -0.206 F 
ATOM     80  C   UNL     1      -0.069   7.519  17.473  1.00  0.00     0.006 A 
ENDBRANCH  52  73
BRANCH  64  81
ATOM     81  C   UNL     1      -0.285  -0.280  22.171  1.00  0.00     0.057 A 
ATOM     82  C   UNL     1      -1.320   0.135  23.017  1.00  0.00     0.134 A 
ATOM     83  C   UNL     1       0.911  -0.703  22.763  1.00  0.00     0.134 A 
ATOM     84  F   UNL     1      -2.485   0.562  22.508  1.00  0.00    -0.206 F 
ATOM     85  C   UNL     1      -1.167   0.142  24.404  1.00  0.00     0.040 A 
ATOM     86  C   UNL     1       1.070  -0.718  24.150  1.00  0.00     0.040 A 
ATOM     87  F   UNL     1       1.937  -1.118  22.006  1.00  0.00    -0.206 F 
ATOM     88  C   UNL     1       0.030  -0.291  24.974  1.00  0.00     0.006 A 
ENDBRANCH  64  81
ENDBRANCH  38  39
ENDBRANCH  31  33
ENDBRANCH  30  31
ENDBRANCH   1  30
TORSDOF 14
