REMARK SMILES C=CCN(CC(=O)OCCOC(=O)c1ccc(-c2c3nc(c(-c4c(F)cccc4F)c4ccc([nH]4)c(-c4c(F)cccc4F)c4nc(c(-c5c(F)cccc5F)c5ccc2[nH]5)C=C4)C=C3)cc1)C(=O)/C=C/c1ccc(OC)cc1
REMARK SMILES IDX 8 1 6 2 7 3 5 4 4 5 3 6 2 7 1 8 68 9 69 10 70 11 71 12 72 13
REMARK SMILES IDX 73 14 79 15 74 16 78 17 75 18 76 19 77 20 9 21 10 22 11 23
REMARK SMILES IDX 12 24 13 25 14 26 15 27 67 28 16 29 66 30 17 31 18 32 19 33
REMARK SMILES IDX 60 34 20 35 65 36 59 37 61 38 21 39 64 40 58 41 57 42 22 44
REMARK SMILES IDX 48 45 31 46 47 47 32 48 35 49 46 50 62 51 33 52 34 53 45 55
REMARK SMILES IDX 63 56 36 57 23 58 24 59 29 60 25 61 26 62 28 63 30 64 27 65
REMARK SMILES IDX 49 66 50 67 55 68 51 69 52 70 54 71 56 72 53 73 37 74 38 75
REMARK SMILES IDX 43 76 39 77 40 78 42 79 44 80 41 81
REMARK H PARENT 61 43 35 54
REMARK Flexibility Score: inf
ROOT
ATOM      1  O   UNL     1      -4.534  -2.083  -0.496  1.00  0.00    -0.461 OA
ENDROOT
BRANCH   1   2
ATOM      2  C   UNL     1      -3.573  -2.754   0.192  1.00  0.00     0.325 C 
ATOM      3  O   UNL     1      -3.811  -3.563   1.087  1.00  0.00    -0.250 OA
BRANCH   2   4
ATOM      4  C   UNL     1      -2.161  -2.605  -0.377  1.00  0.00     0.242 C 
BRANCH   4   5
ATOM      5  N   UNL     1      -1.712  -1.366  -1.021  1.00  0.00    -0.324 N 
BRANCH   5   6
ATOM      6  C   UNL     1      -1.267  -0.294  -0.141  1.00  0.00     0.147 C 
BRANCH   6   7
ATOM      7  C   UNL     1       0.113  -0.598   0.376  1.00  0.00    -0.014 C 
ATOM      8  C   UNL     1       1.214   0.088   0.042  1.00  0.00     0.006 C 
ENDBRANCH   6   7
ENDBRANCH   5   6
BRANCH   5   9
ATOM      9  C   UNL     1      -1.525  -1.208  -2.389  1.00  0.00     0.247 C 
ATOM     10  O   UNL     1      -0.896  -0.283  -2.896  1.00  0.00    -0.270 OA
BRANCH   9  11
ATOM     11  C   UNL     1      -2.197  -2.188  -3.273  1.00  0.00     0.072 C 
ATOM     12  C   UNL     1      -1.512  -3.066  -4.026  1.00  0.00     0.014 C 
BRANCH  12  13
ATOM     13  C   UNL     1      -2.122  -4.109  -4.885  1.00  0.00    -0.025 A 
ATOM     14  C   UNL     1      -3.482  -4.137  -5.221  1.00  0.00     0.012 A 
ATOM     15  C   UNL     1      -1.321  -5.149  -5.375  1.00  0.00     0.012 A 
ATOM     16  C   UNL     1      -4.040  -5.219  -5.912  1.00  0.00     0.047 A 
ATOM     17  C   UNL     1      -1.875  -6.226  -6.091  1.00  0.00     0.047 A 
ATOM     18  C   UNL     1      -3.246  -6.286  -6.322  1.00  0.00     0.118 A 
BRANCH  18  19
ATOM     19  O   UNL     1      -3.921  -7.308  -6.928  1.00  0.00    -0.497 OA
ATOM     20  C   UNL     1      -3.212  -8.530  -7.102  1.00  0.00     0.278 C 
ENDBRANCH  18  19
ENDBRANCH  12  13
ENDBRANCH   9  11
ENDBRANCH   5   9
ENDBRANCH   4   5
ENDBRANCH   2   4
ENDBRANCH   1   2
BRANCH   1  21
ATOM     21  C   UNL     1      -5.892  -2.449  -0.155  1.00  0.00     0.274 C 
BRANCH  21  22
ATOM     22  C   UNL     1      -6.463  -3.592  -1.016  1.00  0.00     0.275 C 
BRANCH  22  23
ATOM     23  O   UNL     1      -5.738  -4.838  -0.891  1.00  0.00    -0.458 OA
BRANCH  23  24
ATOM     24  C   UNL     1      -4.703  -4.910  -1.754  1.00  0.00     0.338 C 
ATOM     25  O   UNL     1      -4.365  -4.018  -2.509  1.00  0.00    -0.246 OA
BRANCH  24  26
ATOM     26  C   UNL     1      -3.943  -6.162  -1.725  1.00  0.00     0.060 A 
ATOM     27  C   UNL     1      -2.810  -6.268  -0.911  1.00  0.00     0.016 A 
ATOM     28  C   UNL     1      -4.182  -7.099  -2.731  1.00  0.00     0.016 A 
ATOM     29  C   UNL     1      -1.897  -7.304  -1.119  1.00  0.00     0.010 A 
ATOM     30  C   UNL     1      -3.281  -8.146  -2.923  1.00  0.00     0.010 A 
ATOM     31  C   UNL     1      -2.126  -8.247  -2.130  1.00  0.00    -0.014 A 
BRANCH  31  32
ATOM     32  C   UNL     1      -1.261  -9.439  -2.266  1.00  0.00     0.031 A 
ATOM     33  C   UNL     1      -0.176  -9.529  -3.294  1.00  0.00     0.074 A 
ATOM     34  C   UNL     1      -1.556 -10.497  -1.493  1.00  0.00     0.049 A 
ATOM     35  N   UNL     1       0.504 -10.576  -3.686  1.00  0.00    -0.248 NA
ATOM     36  C   UNL     1       0.190  -8.285  -3.977  1.00  0.00     0.031 C 
ATOM     37  C   UNL     1      -2.597 -10.512  -0.464  1.00  0.00     0.029 A 
ATOM     38  N   UNL     1      -1.053 -11.769  -1.490  1.00  0.00    -0.354 N 
ATOM     39  C   UNL     1       1.361 -10.125  -4.682  1.00  0.00     0.074 A 
ATOM     40  C   UNL     1       1.109  -8.707  -4.840  1.00  0.00     0.031 C 
ATOM     41  C   UNL     1      -2.704 -11.755   0.024  1.00  0.00     0.029 A 
ATOM     42  C   UNL     1      -1.756 -12.616  -0.673  1.00  0.00     0.049 A 
ATOM     43  H   UNL     1      -0.270 -12.046  -2.019  1.00  0.00     0.167 HD
ATOM     44  C   UNL     1       2.276 -10.836  -5.385  1.00  0.00     0.037 A 
ATOM     45  C   UNL     1      -1.680 -13.950  -0.534  1.00  0.00     0.037 A 
ATOM     46  C   UNL     1       2.557 -12.234  -5.170  1.00  0.00     0.049 A 
ATOM     47  C   UNL     1      -0.654 -14.711  -1.307  1.00  0.00     0.074 A 
ATOM     48  C   UNL     1       3.531 -13.021  -5.763  1.00  0.00     0.029 A 
ATOM     49  N   UNL     1       1.870 -13.051  -4.286  1.00  0.00    -0.354 N 
ATOM     50  N   UNL     1       0.162 -14.276  -2.235  1.00  0.00    -0.248 NA
ATOM     51  C   UNL     1      -0.520 -16.139  -0.999  1.00  0.00     0.031 C 
ATOM     52  C   UNL     1       3.420 -14.319  -5.250  1.00  0.00     0.029 A 
ATOM     53  C   UNL     1       2.392 -14.334  -4.322  1.00  0.00     0.049 A 
ATOM     54  H   UNL     1       1.121 -12.762  -3.716  1.00  0.00     0.167 HD
ATOM     55  C   UNL     1       0.925 -15.370  -2.609  1.00  0.00     0.074 A 
ATOM     56  C   UNL     1       0.470 -16.491  -1.809  1.00  0.00     0.031 C 
ATOM     57  C   UNL     1       1.921 -15.436  -3.524  1.00  0.00     0.037 A 
BRANCH  44  58
ATOM     58  C   UNL     1       3.058 -10.129  -6.452  1.00  0.00     0.057 A 
ATOM     59  C   UNL     1       4.136  -9.291  -6.144  1.00  0.00     0.134 A 
ATOM     60  C   UNL     1       2.795 -10.373  -7.806  1.00  0.00     0.134 A 
ATOM     61  F   UNL     1       4.438  -9.014  -4.867  1.00  0.00    -0.206 F 
ATOM     62  C   UNL     1       4.925  -8.719  -7.146  1.00  0.00     0.040 A 
ATOM     63  C   UNL     1       3.585  -9.820  -8.816  1.00  0.00     0.040 A 
ATOM     64  F   UNL     1       1.779 -11.172  -8.168  1.00  0.00    -0.206 F 
ATOM     65  C   UNL     1       4.655  -8.991  -8.486  1.00  0.00     0.006 A 
ENDBRANCH  44  58
BRANCH  45  66
ATOM     66  C   UNL     1      -2.636 -14.617   0.373  1.00  0.00     0.057 A 
ATOM     67  C   UNL     1      -2.275 -14.954   1.680  1.00  0.00     0.134 A 
ATOM     68  C   UNL     1      -3.965 -14.821  -0.014  1.00  0.00     0.134 A 
ATOM     69  F   UNL     1      -1.014 -14.777   2.099  1.00  0.00    -0.206 F 
ATOM     70  C   UNL     1      -3.209 -15.468   2.579  1.00  0.00     0.040 A 
ATOM     71  C   UNL     1      -4.912 -15.322   0.877  1.00  0.00     0.040 A 
ATOM     72  F   UNL     1      -4.367 -14.495  -1.252  1.00  0.00    -0.206 F 
ATOM     73  C   UNL     1      -4.535 -15.643   2.180  1.00  0.00     0.006 A 
ENDBRANCH  45  66
BRANCH  57  74
ATOM     74  C   UNL     1       2.597 -16.761  -3.679  1.00  0.00     0.057 A 
ATOM     75  C   UNL     1       2.024 -17.790  -4.435  1.00  0.00     0.134 A 
ATOM     76  C   UNL     1       3.829 -17.008  -3.063  1.00  0.00     0.134 A 
ATOM     77  F   UNL     1       0.837 -17.614  -5.035  1.00  0.00    -0.206 F 
ATOM     78  C   UNL     1       2.647 -19.032  -4.556  1.00  0.00     0.040 A 
ATOM     79  C   UNL     1       4.467 -18.241  -3.188  1.00  0.00     0.040 A 
ATOM     80  F   UNL     1       4.424 -16.058  -2.326  1.00  0.00    -0.206 F 
ATOM     81  C   UNL     1       3.874 -19.259  -3.932  1.00  0.00     0.006 A 
ENDBRANCH  57  74
ENDBRANCH  31  32
ENDBRANCH  24  26
ENDBRANCH  23  24
ENDBRANCH  22  23
ENDBRANCH  21  22
ENDBRANCH   1  21
TORSDOF 18
