REMARK SMILES CC[C@@H](C(=O)OCCOC(=O)c1ccc(-c2c3nc(c(-c4c(F)cccc4F)c4ccc([nH]4)c(-c4c(F)cccc4F)c4nc(c(-c5c(F)cccc5F)c5ccc2[nH]5)C=C4)C=C3)cc1)N1C(=O)/C(=C/C(C)=C/c2ccccc2)SC1=S
REMARK SMILES IDX 7 1 6 2 4 3 5 4 3 5 2 6 1 7 66 8 67 9 81 10 68 11 69 12
REMARK SMILES IDX 80 13 82 14 70 15 71 16 72 17 73 18 74 19 75 20 79 21 76 22
REMARK SMILES IDX 78 23 77 24 8 25 9 26 10 27 11 28 12 29 13 30 65 31 14 32
REMARK SMILES IDX 64 33 15 34 16 35 17 36 58 37 18 38 63 39 57 40 59 41 19 42
REMARK SMILES IDX 62 43 56 44 55 45 20 47 46 48 29 49 45 50 30 51 33 52 44 53
REMARK SMILES IDX 60 54 31 55 32 56 43 58 61 59 34 60 21 61 22 62 27 63 23 64
REMARK SMILES IDX 24 65 26 66 28 67 25 68 47 69 48 70 53 71 49 72 50 73 52 74
REMARK SMILES IDX 54 75 51 76 35 77 36 78 41 79 37 80 38 81 40 82 42 83 39 84
REMARK H PARENT 59 46 33 57
REMARK Flexibility Score: inf
ROOT
ATOM      1  C   UNL     1       0.299   3.931   0.243  1.00  0.00     0.274 C 
ENDROOT
BRANCH   1   2
ATOM      2  O   UNL     1       0.898   2.673   0.622  1.00  0.00    -0.461 OA
BRANCH   2   3
ATOM      3  C   UNL     1       0.891   2.333   1.940  1.00  0.00     0.329 C 
ATOM      4  O   UNL     1       0.417   3.043   2.819  1.00  0.00    -0.250 OA
BRANCH   3   5
ATOM      5  C   UNL     1       1.646   1.002   2.198  1.00  0.00     0.201 C 
BRANCH   5   6
ATOM      6  C   UNL     1       1.121  -0.135   1.288  1.00  0.00     0.034 C 
ATOM      7  C   UNL     1       1.330   0.004  -0.212  1.00  0.00     0.007 C 
ENDBRANCH   5   6
BRANCH   5   8
ATOM      8  N   UNL     1       1.586   0.675   3.679  1.00  0.00    -0.278 N 
ATOM      9  C   UNL     1       0.897  -0.422   4.176  1.00  0.00     0.266 C 
ATOM     10  C   UNL     1       2.228   1.433   4.648  1.00  0.00     0.149 C 
ATOM     11  O   UNL     1       0.363  -1.319   3.537  1.00  0.00    -0.268 OA
ATOM     12  C   UNL     1       0.854  -0.422   5.665  1.00  0.00     0.080 C 
ATOM     13  S   UNL     1       1.801   0.864   6.265  1.00  0.00    -0.054 SA
ATOM     14  S   UNL     1       3.292   2.706   4.441  1.00  0.00    -0.052 S 
ATOM     15  C   UNL     1       0.092  -1.323   6.305  1.00  0.00     0.024 C 
BRANCH  15  16
ATOM     16  C   UNL     1      -0.228  -1.486   7.717  1.00  0.00    -0.049 C 
ATOM     17  C   UNL     1      -0.492  -2.909   8.161  1.00  0.00     0.044 C 
ATOM     18  C   UNL     1      -0.457  -0.440   8.534  1.00  0.00     0.011 C 
BRANCH  18  19
ATOM     19  C   UNL     1      -0.908  -0.564   9.922  1.00  0.00    -0.025 A 
ATOM     20  C   UNL     1      -2.266  -0.440  10.208  1.00  0.00     0.008 A 
ATOM     21  C   UNL     1      -0.004  -0.801  10.962  1.00  0.00     0.008 A 
ATOM     22  C   UNL     1      -2.711  -0.524  11.524  1.00  0.00     0.001 A 
ATOM     23  C   UNL     1      -0.455  -0.869  12.283  1.00  0.00     0.001 A 
ATOM     24  C   UNL     1      -1.810  -0.716  12.565  1.00  0.00     0.000 A 
ENDBRANCH  18  19
ENDBRANCH  15  16
ENDBRANCH   5   8
ENDBRANCH   3   5
ENDBRANCH   2   3
ENDBRANCH   1   2
BRANCH   1  25
ATOM     25  C   UNL     1      -1.210   3.829  -0.023  1.00  0.00     0.275 C 
BRANCH  25  26
ATOM     26  O   UNL     1      -1.966   3.727   1.199  1.00  0.00    -0.458 OA
BRANCH  26  27
ATOM     27  C   UNL     1      -2.264   2.465   1.588  1.00  0.00     0.338 C 
ATOM     28  O   UNL     1      -2.042   1.440   0.958  1.00  0.00    -0.246 OA
BRANCH  27  29
ATOM     29  C   UNL     1      -2.691   2.457   3.003  1.00  0.00     0.060 A 
ATOM     30  C   UNL     1      -2.038   1.557   3.849  1.00  0.00     0.016 A 
ATOM     31  C   UNL     1      -3.690   3.289   3.509  1.00  0.00     0.016 A 
ATOM     32  C   UNL     1      -2.334   1.516   5.206  1.00  0.00     0.010 A 
ATOM     33  C   UNL     1      -4.022   3.215   4.871  1.00  0.00     0.010 A 
ATOM     34  C   UNL     1      -3.338   2.334   5.727  1.00  0.00    -0.014 A 
BRANCH  34  35
ATOM     35  C   UNL     1      -3.734   2.153   7.144  1.00  0.00     0.031 A 
ATOM     36  C   UNL     1      -4.824   1.176   7.474  1.00  0.00     0.074 A 
ATOM     37  C   UNL     1      -3.044   2.743   8.137  1.00  0.00     0.049 A 
ATOM     38  N   UNL     1      -5.331   0.857   8.637  1.00  0.00    -0.248 NA
ATOM     39  C   UNL     1      -5.390   0.426   6.342  1.00  0.00     0.031 C 
ATOM     40  C   UNL     1      -1.840   3.554   7.964  1.00  0.00     0.029 A 
ATOM     41  N   UNL     1      -3.235   2.711   9.497  1.00  0.00    -0.354 N 
ATOM     42  C   UNL     1      -6.271  -0.132   8.380  1.00  0.00     0.074 A 
ATOM     43  C   UNL     1      -6.279  -0.346   6.949  1.00  0.00     0.031 C 
ATOM     44  C   UNL     1      -1.387   3.923   9.175  1.00  0.00     0.029 A 
ATOM     45  C   UNL     1      -2.294   3.419  10.205  1.00  0.00     0.049 A 
ATOM     46  H   UNL     1      -3.977   2.225   9.924  1.00  0.00     0.167 HD
ATOM     47  C   UNL     1      -7.045  -0.809   9.260  1.00  0.00     0.037 A 
ATOM     48  C   UNL     1      -2.184   3.637  11.531  1.00  0.00     0.037 A 
ATOM     49  C   UNL     1      -7.015  -0.619  10.688  1.00  0.00     0.049 A 
ATOM     50  C   UNL     1      -3.183   3.015  12.477  1.00  0.00     0.074 A 
ATOM     51  C   UNL     1      -7.702  -1.325  11.660  1.00  0.00     0.029 A 
ATOM     52  N   UNL     1      -6.273   0.350  11.347  1.00  0.00    -0.354 N 
ATOM     53  N   UNL     1      -4.212   2.244  12.214  1.00  0.00    -0.248 NA
ATOM     54  C   UNL     1      -2.996   3.284  13.912  1.00  0.00     0.031 C 
ATOM     55  C   UNL     1      -7.393  -0.768  12.905  1.00  0.00     0.029 A 
ATOM     56  C   UNL     1      -6.445   0.225  12.718  1.00  0.00     0.049 A 
ATOM     57  H   UNL     1      -5.708   1.026  10.907  1.00  0.00     0.167 HD
ATOM     58  C   UNL     1      -4.733   1.865  13.447  1.00  0.00     0.074 A 
ATOM     59  C   UNL     1      -3.948   2.540  14.457  1.00  0.00     0.031 C 
ATOM     60  C   UNL     1      -5.724   0.978  13.717  1.00  0.00     0.037 A 
BRANCH  47  61
ATOM     61  C   UNL     1      -8.029  -1.794   8.700  1.00  0.00     0.057 A 
ATOM     62  C   UNL     1      -7.640  -3.014   8.131  1.00  0.00     0.134 A 
ATOM     63  C   UNL     1      -9.401  -1.518   8.761  1.00  0.00     0.134 A 
ATOM     64  F   UNL     1      -6.341  -3.336   8.033  1.00  0.00    -0.206 F 
ATOM     65  C   UNL     1      -8.579  -3.910   7.616  1.00  0.00     0.040 A 
ATOM     66  C   UNL     1     -10.350  -2.417   8.275  1.00  0.00     0.040 A 
ATOM     67  F   UNL     1      -9.840  -0.371   9.300  1.00  0.00    -0.206 F 
ATOM     68  C   UNL     1      -9.940  -3.614   7.693  1.00  0.00     0.006 A 
ENDBRANCH  47  61
BRANCH  48  69
ATOM     69  C   UNL     1      -1.081   4.487  12.056  1.00  0.00     0.057 A 
ATOM     70  C   UNL     1      -0.065   3.956  12.860  1.00  0.00     0.134 A 
ATOM     71  C   UNL     1      -1.039   5.862  11.796  1.00  0.00     0.134 A 
ATOM     72  F   UNL     1      -0.059   2.651  13.171  1.00  0.00    -0.206 F 
ATOM     73  C   UNL     1       0.932   4.764  13.412  1.00  0.00     0.040 A 
ATOM     74  C   UNL     1      -0.031   6.677  12.315  1.00  0.00     0.040 A 
ATOM     75  F   UNL     1      -1.980   6.437  11.033  1.00  0.00    -0.206 F 
ATOM     76  C   UNL     1       0.952   6.130  13.136  1.00  0.00     0.006 A 
ENDBRANCH  48  69
BRANCH  60  77
ATOM     77  C   UNL     1      -6.003   0.675  15.164  1.00  0.00     0.057 A 
ATOM     78  C   UNL     1      -6.611   1.603  16.017  1.00  0.00     0.134 A 
ATOM     79  C   UNL     1      -5.683  -0.580  15.703  1.00  0.00     0.134 A 
ATOM     80  F   UNL     1      -6.919   2.832  15.576  1.00  0.00    -0.206 F 
ATOM     81  C   UNL     1      -6.878   1.300  17.355  1.00  0.00     0.040 A 
ATOM     82  C   UNL     1      -5.978  -0.907  17.027  1.00  0.00     0.040 A 
ATOM     83  F   UNL     1      -5.092  -1.517  14.945  1.00  0.00    -0.206 F 
ATOM     84  C   UNL     1      -6.572   0.038  17.859  1.00  0.00     0.006 A 
ENDBRANCH  60  77
ENDBRANCH  34  35
ENDBRANCH  27  29
ENDBRANCH  26  27
ENDBRANCH  25  26
ENDBRANCH   1  25
TORSDOF 15
