REMARK SMILES C[C@@H](Cc1cnn(-c2ccccc2)n1)C(=O)OCCOC(=O)c1ccc(-c2c3nc(c(-c4c(F)cccc4F)c4ccc([nH]4)c(-c4c(F)cccc4F)c4nc(c(-c5c(F)cccc5F)c5ccc2[nH]5)C=C4)C=C3)cc1
REMARK SMILES IDX 18 1 17 2 15 3 16 4 2 5 1 6 3 7 4 8 5 9 14 10 6 11 7 12 8 13
REMARK SMILES IDX 9 14 13 15 10 16 12 17 11 18 19 19 20 20 21 21 22 22 23 23
REMARK SMILES IDX 24 24 76 25 25 26 75 27 26 28 27 29 28 30 69 31 29 32 74 33
REMARK SMILES IDX 68 34 70 35 30 36 73 37 67 38 66 39 31 41 57 42 40 43 56 44
REMARK SMILES IDX 41 45 44 46 55 47 71 48 42 49 43 50 54 52 72 53 45 54 32 55
REMARK SMILES IDX 33 56 38 57 34 58 35 59 37 60 39 61 36 62 58 63 59 64 64 65
REMARK SMILES IDX 60 66 61 67 63 68 65 69 62 70 46 71 47 72 52 73 48 74 49 75
REMARK SMILES IDX 51 76 53 77 50 78
REMARK H PARENT 70 40 44 51
REMARK Flexibility Score: inf
ROOT
ATOM      1  C   UNL     1      -3.065  -1.464   0.579  1.00  0.00     0.274 C 
ENDROOT
BRANCH   1   2
ATOM      2  O   UNL     1      -1.640  -1.299   0.564  1.00  0.00    -0.462 OA
BRANCH   2   3
ATOM      3  C   UNL     1      -0.961  -1.786  -0.504  1.00  0.00     0.309 C 
ATOM      4  O   UNL     1      -1.477  -2.377  -1.447  1.00  0.00    -0.252 OA
BRANCH   3   5
ATOM      5  C   UNL     1       0.542  -1.607  -0.381  1.00  0.00     0.102 C 
ATOM      6  C   UNL     1       1.002  -0.175  -0.108  1.00  0.00     0.020 C 
BRANCH   5   7
ATOM      7  C   UNL     1       1.119  -2.652   0.581  1.00  0.00     0.075 C 
BRANCH   7   8
ATOM      8  C   UNL     1       0.692  -2.571   2.008  1.00  0.00     0.084 A 
ATOM      9  C   UNL     1       0.609  -3.597   2.963  1.00  0.00     0.161 A 
ATOM     10  N   UNL     1       0.338  -1.420   2.584  1.00  0.00    -0.153 NA
ATOM     11  N   UNL     1       0.260  -3.097   4.151  1.00  0.00    -0.157 NA
ATOM     12  N   UNL     1       0.038  -1.789   3.850  1.00  0.00    -0.151 N 
BRANCH  12  13
ATOM     13  C   UNL     1      -0.482  -0.865   4.785  1.00  0.00     0.086 A 
ATOM     14  C   UNL     1      -0.319  -1.095   6.156  1.00  0.00     0.030 A 
ATOM     15  C   UNL     1      -1.160   0.278   4.335  1.00  0.00     0.030 A 
ATOM     16  C   UNL     1      -0.808  -0.164   7.073  1.00  0.00     0.002 A 
ATOM     17  C   UNL     1      -1.691   1.177   5.261  1.00  0.00     0.002 A 
ATOM     18  C   UNL     1      -1.504   0.962   6.627  1.00  0.00     0.000 A 
ENDBRANCH  12  13
ENDBRANCH   7   8
ENDBRANCH   5   7
ENDBRANCH   3   5
ENDBRANCH   2   3
ENDBRANCH   1   2
BRANCH   1  19
ATOM     19  C   UNL     1      -3.769  -0.203   0.106  1.00  0.00     0.275 C 
BRANCH  19  20
ATOM     20  O   UNL     1      -3.529   0.049  -1.279  1.00  0.00    -0.458 OA
BRANCH  20  21
ATOM     21  C   UNL     1      -2.457   0.839  -1.513  1.00  0.00     0.338 C 
ATOM     22  O   UNL     1      -1.581   1.150  -0.727  1.00  0.00    -0.246 OA
BRANCH  21  23
ATOM     23  C   UNL     1      -2.585   1.487  -2.818  1.00  0.00     0.060 A 
ATOM     24  C   UNL     1      -1.457   2.143  -3.320  1.00  0.00     0.016 A 
ATOM     25  C   UNL     1      -3.858   1.672  -3.373  1.00  0.00     0.016 A 
ATOM     26  C   UNL     1      -1.629   3.087  -4.311  1.00  0.00     0.010 A 
ATOM     27  C   UNL     1      -4.030   2.626  -4.351  1.00  0.00     0.010 A 
ATOM     28  C   UNL     1      -2.922   3.359  -4.773  1.00  0.00    -0.014 A 
BRANCH  28  29
ATOM     29  C   UNL     1      -3.064   4.365  -5.805  1.00  0.00     0.031 A 
ATOM     30  C   UNL     1      -2.588   3.933  -7.138  1.00  0.00     0.074 A 
ATOM     31  C   UNL     1      -3.682   5.544  -5.615  1.00  0.00     0.049 A 
ATOM     32  N   UNL     1      -1.624   4.431  -7.835  1.00  0.00    -0.248 NA
ATOM     33  C   UNL     1      -3.194   2.723  -7.715  1.00  0.00     0.031 C 
ATOM     34  C   UNL     1      -4.474   5.973  -4.462  1.00  0.00     0.029 A 
ATOM     35  N   UNL     1      -3.810   6.579  -6.490  1.00  0.00    -0.354 N 
ATOM     36  C   UNL     1      -1.613   3.714  -9.027  1.00  0.00     0.074 A 
ATOM     37  C   UNL     1      -2.490   2.589  -8.838  1.00  0.00     0.031 C 
ATOM     38  C   UNL     1      -5.165   7.087  -4.794  1.00  0.00     0.029 A 
ATOM     39  C   UNL     1      -4.770   7.510  -6.129  1.00  0.00     0.049 A 
ATOM     40  H   UNL     1      -3.267   6.659  -7.307  1.00  0.00     0.167 HD
ATOM     41  C   UNL     1      -1.062   4.234 -10.155  1.00  0.00     0.037 A 
ATOM     42  C   UNL     1      -5.248   8.511  -6.907  1.00  0.00     0.037 A 
ATOM     43  C   UNL     1      -0.141   5.299  -9.848  1.00  0.00     0.049 A 
ATOM     44  C   UNL     1      -4.283   8.736  -8.011  1.00  0.00     0.074 A 
ATOM     45  C   UNL     1       1.007   5.405  -9.087  1.00  0.00     0.029 A 
ATOM     46  N   UNL     1      -0.541   6.588 -10.098  1.00  0.00    -0.354 N 
ATOM     47  N   UNL     1      -3.112   9.287  -7.868  1.00  0.00    -0.248 NA
ATOM     48  C   UNL     1      -4.473   7.995  -9.250  1.00  0.00     0.031 C 
ATOM     49  C   UNL     1       0.970   6.718  -8.534  1.00  0.00     0.029 A 
ATOM     50  C   UNL     1      -0.178   7.346  -9.018  1.00  0.00     0.049 A 
ATOM     51  H   UNL     1      -1.003   6.908 -10.906  1.00  0.00     0.167 HD
ATOM     52  C   UNL     1      -2.294   8.614  -8.762  1.00  0.00     0.074 A 
ATOM     53  C   UNL     1      -3.207   7.929  -9.669  1.00  0.00     0.031 C 
ATOM     54  C   UNL     1      -0.963   8.446  -8.509  1.00  0.00     0.037 A 
BRANCH  41  55
ATOM     55  C   UNL     1      -1.645   4.040 -11.534  1.00  0.00     0.057 A 
ATOM     56  C   UNL     1      -0.948   4.549 -12.645  1.00  0.00     0.134 A 
ATOM     57  C   UNL     1      -2.979   3.659 -11.790  1.00  0.00     0.134 A 
ATOM     58  F   UNL     1       0.327   4.953 -12.533  1.00  0.00    -0.206 F 
ATOM     59  C   UNL     1      -1.560   4.752 -13.887  1.00  0.00     0.040 A 
ATOM     60  C   UNL     1      -3.583   3.807 -13.041  1.00  0.00     0.040 A 
ATOM     61  F   UNL     1      -3.803   3.222 -10.832  1.00  0.00    -0.206 F 
ATOM     62  C   UNL     1      -2.886   4.390 -14.086  1.00  0.00     0.006 A 
ENDBRANCH  41  55
BRANCH  42  63
ATOM     63  C   UNL     1      -6.586   9.142  -6.905  1.00  0.00     0.057 A 
ATOM     64  C   UNL     1      -6.806  10.366  -7.553  1.00  0.00     0.134 A 
ATOM     65  C   UNL     1      -7.736   8.441  -6.505  1.00  0.00     0.134 A 
ATOM     66  F   UNL     1      -5.774  11.094  -8.007  1.00  0.00    -0.206 F 
ATOM     67  C   UNL     1      -8.093  10.850  -7.816  1.00  0.00     0.040 A 
ATOM     68  C   UNL     1      -9.027   8.918  -6.749  1.00  0.00     0.040 A 
ATOM     69  F   UNL     1      -7.649   7.226  -5.944  1.00  0.00    -0.206 F 
ATOM     70  C   UNL     1      -9.210  10.119  -7.422  1.00  0.00     0.006 A 
ENDBRANCH  42  63
BRANCH  54  71
ATOM     71  C   UNL     1      -0.338   9.289  -7.435  1.00  0.00     0.057 A 
ATOM     72  C   UNL     1      -0.717   9.257  -6.085  1.00  0.00     0.134 A 
ATOM     73  C   UNL     1       0.779  10.066  -7.762  1.00  0.00     0.134 A 
ATOM     74  F   UNL     1      -1.706   8.460  -5.657  1.00  0.00    -0.206 F 
ATOM     75  C   UNL     1      -0.045  10.009  -5.116  1.00  0.00     0.040 A 
ATOM     76  C   UNL     1       1.482  10.792  -6.798  1.00  0.00     0.040 A 
ATOM     77  F   UNL     1       1.234  10.100  -9.025  1.00  0.00    -0.206 F 
ATOM     78  C   UNL     1       1.061  10.776  -5.471  1.00  0.00     0.006 A 
ENDBRANCH  54  71
ENDBRANCH  28  29
ENDBRANCH  21  23
ENDBRANCH  20  21
ENDBRANCH  19  20
ENDBRANCH   1  19
TORSDOF 14
