REMARK SMILES CN(Cc1ccncc1)C(=O)c1cccn1CC(=O)OCCOC(=O)c1ccc(-c2c3nc(c(-c4c(F)cccc4F)c4ccc([nH]4)c(-c4c(F)cccc4F)c4nc(c(-c5c(F)cccc5F)c5ccc2[nH]5)C=C4)C=C3)cc1
REMARK SMILES IDX 20 1 18 2 19 3 17 4 16 5 12 6 13 7 14 8 15 9 10 10 11 11
REMARK SMILES IDX 2 12 1 13 3 14 4 15 5 16 9 17 6 18 8 19 7 20 21 21 22 22
REMARK SMILES IDX 23 23 24 24 25 25 26 26 27 27 79 28 28 29 78 30 29 31 30 32
REMARK SMILES IDX 31 33 72 34 32 35 77 36 71 37 73 38 33 39 76 40 70 41 69 42
REMARK SMILES IDX 34 44 60 45 43 46 59 47 44 48 47 49 58 50 74 51 45 52 46 53
REMARK SMILES IDX 57 55 75 56 48 57 35 58 36 59 41 60 37 61 38 62 40 63 42 64
REMARK SMILES IDX 39 65 61 66 62 67 67 68 63 69 64 70 66 71 68 72 65 73 49 74
REMARK SMILES IDX 50 75 55 76 51 77 52 78 54 79 56 80 53 81
REMARK H PARENT 73 43 47 54
REMARK Flexibility Score: inf
ROOT
ATOM      1  O   UNL     1       3.269   4.075   3.488  1.00  0.00    -0.461 OA
ENDROOT
BRANCH   1   2
ATOM      2  C   UNL     1       3.548   3.108   4.405  1.00  0.00     0.326 C 
ATOM      3  O   UNL     1       4.548   3.118   5.120  1.00  0.00    -0.250 OA
BRANCH   2   4
ATOM      4  C   UNL     1       2.598   1.938   4.398  1.00  0.00     0.244 C 
BRANCH   4   5
ATOM      5  N   UNL     1       1.174   2.219   4.237  1.00  0.00    -0.332 N 
ATOM      6  C   UNL     1       0.314   1.665   3.301  1.00  0.00     0.107 A 
ATOM      7  C   UNL     1      -0.967   2.013   3.713  1.00  0.00     0.033 A 
ATOM      8  C   UNL     1      -0.896   2.845   4.837  1.00  0.00     0.020 A 
ATOM      9  C   UNL     1       0.424   2.876   5.176  1.00  0.00     0.087 A 
BRANCH   6  10
ATOM     10  C   UNL     1       0.727   0.754   2.247  1.00  0.00     0.270 C 
ATOM     11  O   UNL     1       1.501  -0.163   2.490  1.00  0.00    -0.267 OA
BRANCH  10  12
ATOM     12  N   UNL     1       0.256   0.948   0.941  1.00  0.00    -0.336 N 
ATOM     13  C   UNL     1       0.739   0.003  -0.050  1.00  0.00     0.147 C 
BRANCH  12  14
ATOM     14  C   UNL     1      -0.498   2.110   0.462  1.00  0.00     0.155 C 
BRANCH  14  15
ATOM     15  C   UNL     1      -1.976   2.068   0.778  1.00  0.00    -0.026 A 
ATOM     16  C   UNL     1      -2.656   3.269   1.022  1.00  0.00     0.025 A 
ATOM     17  C   UNL     1      -2.676   0.867   0.947  1.00  0.00     0.025 A 
ATOM     18  C   UNL     1      -3.951   3.214   1.513  1.00  0.00     0.111 A 
ATOM     19  C   UNL     1      -3.968   0.917   1.450  1.00  0.00     0.111 A 
ATOM     20  N   UNL     1      -4.617   2.063   1.744  1.00  0.00    -0.265 NA
ENDBRANCH  14  15
ENDBRANCH  12  14
ENDBRANCH  10  12
ENDBRANCH   6  10
ENDBRANCH   4   5
ENDBRANCH   2   4
ENDBRANCH   1   2
BRANCH   1  21
ATOM     21  C   UNL     1       4.239   5.143   3.392  1.00  0.00     0.274 C 
BRANCH  21  22
ATOM     22  C   UNL     1       4.000   6.334   4.330  1.00  0.00     0.275 C 
BRANCH  22  23
ATOM     23  O   UNL     1       3.931   5.980   5.717  1.00  0.00    -0.458 OA
BRANCH  23  24
ATOM     24  C   UNL     1       2.685   5.621   6.055  1.00  0.00     0.338 C 
ATOM     25  O   UNL     1       1.734   5.470   5.279  1.00  0.00    -0.246 OA
BRANCH  24  26
ATOM     26  C   UNL     1       2.432   5.646   7.486  1.00  0.00     0.060 A 
ATOM     27  C   UNL     1       1.679   4.585   7.999  1.00  0.00     0.016 A 
ATOM     28  C   UNL     1       2.326   6.940   8.000  1.00  0.00     0.016 A 
ATOM     29  C   UNL     1       0.615   4.865   8.830  1.00  0.00     0.010 A 
ATOM     30  C   UNL     1       1.306   7.215   8.889  1.00  0.00     0.010 A 
ATOM     31  C   UNL     1       0.427   6.184   9.261  1.00  0.00    -0.014 A 
BRANCH  31  32
ATOM     32  C   UNL     1      -0.460   6.379  10.414  1.00  0.00     0.031 A 
ATOM     33  C   UNL     1       0.297   5.922  11.693  1.00  0.00     0.074 A 
ATOM     34  C   UNL     1      -1.705   6.896  10.163  1.00  0.00     0.049 A 
ATOM     35  N   UNL     1      -0.146   5.625  12.873  1.00  0.00    -0.248 NA
ATOM     36  C   UNL     1       1.782   5.709  11.632  1.00  0.00     0.031 C 
ATOM     37  C   UNL     1      -2.231   7.269   8.825  1.00  0.00     0.029 A 
ATOM     38  N   UNL     1      -2.783   7.216  10.963  1.00  0.00    -0.354 N 
ATOM     39  C   UNL     1       0.980   5.465  13.717  1.00  0.00     0.074 A 
ATOM     40  C   UNL     1       2.123   5.379  12.874  1.00  0.00     0.031 C 
ATOM     41  C   UNL     1      -3.521   7.676   8.903  1.00  0.00     0.029 A 
ATOM     42  C   UNL     1      -3.961   7.647  10.285  1.00  0.00     0.049 A 
ATOM     43  H   UNL     1      -2.741   7.150  11.945  1.00  0.00     0.167 HD
ATOM     44  C   UNL     1       0.912   5.601  15.073  1.00  0.00     0.037 A 
ATOM     45  C   UNL     1      -5.200   7.923  10.812  1.00  0.00     0.037 A 
ATOM     46  C   UNL     1      -0.446   5.753  15.462  1.00  0.00     0.049 A 
ATOM     47  C   UNL     1      -4.981   7.915  12.260  1.00  0.00     0.074 A 
ATOM     48  C   UNL     1      -1.498   4.876  15.444  1.00  0.00     0.029 A 
ATOM     49  N   UNL     1      -0.919   7.040  15.528  1.00  0.00    -0.354 N 
ATOM     50  N   UNL     1      -4.364   8.854  12.912  1.00  0.00    -0.248 NA
ATOM     51  C   UNL     1      -5.401   6.739  13.030  1.00  0.00     0.031 C 
ATOM     52  C   UNL     1      -2.561   5.678  14.987  1.00  0.00     0.029 A 
ATOM     53  C   UNL     1      -2.189   7.028  15.019  1.00  0.00     0.049 A 
ATOM     54  H   UNL     1      -0.435   7.824  15.877  1.00  0.00     0.167 HD
ATOM     55  C   UNL     1      -4.015   8.209  14.070  1.00  0.00     0.074 A 
ATOM     56  C   UNL     1      -4.934   7.100  14.222  1.00  0.00     0.031 C 
ATOM     57  C   UNL     1      -2.727   8.258  14.493  1.00  0.00     0.037 A 
BRANCH  44  58
ATOM     58  C   UNL     1       1.962   5.902  16.103  1.00  0.00     0.057 A 
ATOM     59  C   UNL     1       1.597   5.779  17.465  1.00  0.00     0.134 A 
ATOM     60  C   UNL     1       3.115   6.653  15.849  1.00  0.00     0.134 A 
ATOM     61  F   UNL     1       0.546   5.029  17.834  1.00  0.00    -0.206 F 
ATOM     62  C   UNL     1       2.226   6.501  18.479  1.00  0.00     0.040 A 
ATOM     63  C   UNL     1       3.788   7.338  16.869  1.00  0.00     0.040 A 
ATOM     64  F   UNL     1       3.577   6.838  14.606  1.00  0.00    -0.206 F 
ATOM     65  C   UNL     1       3.312   7.307  18.177  1.00  0.00     0.006 A 
ENDBRANCH  44  58
BRANCH  45  66
ATOM     66  C   UNL     1      -6.637   8.174  10.390  1.00  0.00     0.057 A 
ATOM     67  C   UNL     1      -7.113   8.299   9.085  1.00  0.00     0.134 A 
ATOM     68  C   UNL     1      -7.675   8.189  11.374  1.00  0.00     0.134 A 
ATOM     69  F   UNL     1      -6.274   8.426   8.051  1.00  0.00    -0.206 F 
ATOM     70  C   UNL     1      -8.496   8.308   8.782  1.00  0.00     0.040 A 
ATOM     71  C   UNL     1      -9.043   8.139  11.088  1.00  0.00     0.040 A 
ATOM     72  F   UNL     1      -7.413   8.247  12.687  1.00  0.00    -0.206 F 
ATOM     73  C   UNL     1      -9.462   8.177   9.777  1.00  0.00     0.006 A 
ENDBRANCH  45  66
BRANCH  57  74
ATOM     74  C   UNL     1      -1.942   9.463  13.999  1.00  0.00     0.057 A 
ATOM     75  C   UNL     1      -2.378  10.757  14.315  1.00  0.00     0.134 A 
ATOM     76  C   UNL     1      -0.846   9.401  13.125  1.00  0.00     0.134 A 
ATOM     77  F   UNL     1      -3.401  10.931  15.167  1.00  0.00    -0.206 F 
ATOM     78  C   UNL     1      -1.787  11.906  13.771  1.00  0.00     0.040 A 
ATOM     79  C   UNL     1      -0.240  10.538  12.569  1.00  0.00     0.040 A 
ATOM     80  F   UNL     1      -0.315   8.232  12.776  1.00  0.00    -0.206 F 
ATOM     81  C   UNL     1      -0.719  11.801  12.886  1.00  0.00     0.006 A 
ENDBRANCH  57  74
ENDBRANCH  31  32
ENDBRANCH  24  26
ENDBRANCH  23  24
ENDBRANCH  22  23
ENDBRANCH  21  22
ENDBRANCH   1  21
TORSDOF 16
