REMARK SMILES CC(C)C[C@@H](CNC(=O)[C@@H]1CCOC1)C(=O)OCCOC(=O)c1ccc(-c2c3nc(c(-c4c(F)cccc4F)c4ccc([nH]4)c(-c4c(F)cccc4F)c4nc(c(-c5c(F)cccc5F)c5ccc2[nH]5)C=C4)C=C3)cc1
REMARK SMILES IDX 18 1 17 2 15 3 16 4 5 5 4 6 2 7 1 8 3 9 6 10 7 11 8 12 9 14
REMARK SMILES IDX 10 15 11 16 14 17 12 18 13 19 19 20 20 21 21 22 22 23 23 24
REMARK SMILES IDX 24 25 76 26 25 27 75 28 26 29 27 30 28 31 69 32 29 33 74 34
REMARK SMILES IDX 68 35 70 36 30 37 73 38 67 39 66 40 31 42 57 43 40 44 56 45
REMARK SMILES IDX 41 46 44 47 55 48 71 49 42 50 43 51 54 53 72 54 45 55 32 56
REMARK SMILES IDX 33 57 38 58 34 59 35 60 37 61 39 62 36 63 58 64 59 65 64 66
REMARK SMILES IDX 60 67 61 68 63 69 65 70 62 71 46 72 47 73 52 74 48 75 49 76
REMARK SMILES IDX 51 77 53 78 50 79
REMARK H PARENT 7 13 70 41 44 52
REMARK Flexibility Score: inf
ROOT
ATOM      1  C   UNL     1      -5.030   1.346  -1.654  1.00  0.00     0.274 C 
ENDROOT
BRANCH   1   2
ATOM      2  O   UNL     1      -3.597   1.237  -1.756  1.00  0.00    -0.462 OA
BRANCH   2   3
ATOM      3  C   UNL     1      -2.877   1.834  -0.774  1.00  0.00     0.310 C 
ATOM      4  O   UNL     1      -3.358   2.449   0.173  1.00  0.00    -0.252 OA
BRANCH   3   5
ATOM      5  C   UNL     1      -1.377   1.724  -0.976  1.00  0.00     0.118 C 
BRANCH   5   6
ATOM      6  C   UNL     1      -0.936   0.478  -1.765  1.00  0.00     0.020 C 
BRANCH   6   7
ATOM      7  C   UNL     1       0.577   0.165  -1.700  1.00  0.00    -0.017 C 
ATOM      8  C   UNL     1       1.074  -0.074  -0.272  1.00  0.00     0.007 C 
ATOM      9  C   UNL     1       0.888  -1.068  -2.554  1.00  0.00     0.007 C 
ENDBRANCH   6   7
ENDBRANCH   5   6
BRANCH   5  10
ATOM     10  C   UNL     1      -0.838   3.052  -1.511  1.00  0.00     0.131 C 
BRANCH  10  11
ATOM     11  N   UNL     1      -1.361   3.413  -2.816  1.00  0.00    -0.355 N 
ATOM     12  C   UNL     1      -2.274   4.378  -3.139  1.00  0.00     0.225 C 
ATOM     13  H   UNL     1      -1.011   2.890  -3.573  1.00  0.00     0.163 HD
ATOM     14  O   UNL     1      -2.645   4.457  -4.310  1.00  0.00    -0.275 OA
BRANCH  12  15
ATOM     15  C   UNL     1      -2.808   5.290  -2.041  1.00  0.00     0.106 C 
ATOM     16  C   UNL     1      -3.935   6.184  -2.515  1.00  0.00     0.044 C 
ATOM     17  C   UNL     1      -1.755   6.297  -1.603  1.00  0.00     0.173 C 
ATOM     18  C   UNL     1      -3.194   7.377  -3.074  1.00  0.00     0.161 C 
ATOM     19  O   UNL     1      -2.043   7.551  -2.240  1.00  0.00    -0.381 OA
ENDBRANCH  12  15
ENDBRANCH  10  11
ENDBRANCH   5  10
ENDBRANCH   3   5
ENDBRANCH   2   3
ENDBRANCH   1   2
BRANCH   1  20
ATOM     20  C   UNL     1      -5.659   0.082  -1.060  1.00  0.00     0.275 C 
BRANCH  20  21
ATOM     21  O   UNL     1      -5.247  -0.125   0.304  1.00  0.00    -0.458 OA
BRANCH  21  22
ATOM     22  C   UNL     1      -4.197  -0.964   0.461  1.00  0.00     0.338 C 
ATOM     23  O   UNL     1      -3.607  -1.588  -0.403  1.00  0.00    -0.246 OA
BRANCH  22  24
ATOM     24  C   UNL     1      -3.733  -0.917   1.855  1.00  0.00     0.060 A 
ATOM     25  C   UNL     1      -2.477  -0.360   2.102  1.00  0.00     0.016 A 
ATOM     26  C   UNL     1      -4.468  -1.498   2.888  1.00  0.00     0.016 A 
ATOM     27  C   UNL     1      -1.943  -0.375   3.384  1.00  0.00     0.010 A 
ATOM     28  C   UNL     1      -3.927  -1.524   4.178  1.00  0.00     0.010 A 
ATOM     29  C   UNL     1      -2.657  -0.973   4.429  1.00  0.00    -0.014 A 
BRANCH  29  30
ATOM     30  C   UNL     1      -2.024  -1.088   5.762  1.00  0.00     0.031 A 
ATOM     31  C   UNL     1      -1.435  -2.400   6.191  1.00  0.00     0.074 A 
ATOM     32  C   UNL     1      -1.932  -0.009   6.559  1.00  0.00     0.049 A 
ATOM     33  N   UNL     1      -0.890  -2.728   7.334  1.00  0.00    -0.248 NA
ATOM     34  C   UNL     1      -1.457  -3.486   5.198  1.00  0.00     0.031 C 
ATOM     35  C   UNL     1      -2.413   1.331   6.224  1.00  0.00     0.029 A 
ATOM     36  N   UNL     1      -1.399   0.128   7.814  1.00  0.00    -0.354 N 
ATOM     37  C   UNL     1      -0.519  -4.060   7.206  1.00  0.00     0.074 A 
ATOM     38  C   UNL     1      -0.912  -4.484   5.879  1.00  0.00     0.031 C 
ATOM     39  C   UNL     1      -2.151   2.157   7.251  1.00  0.00     0.029 A 
ATOM     40  C   UNL     1      -1.525   1.395   8.328  1.00  0.00     0.049 A 
ATOM     41  H   UNL     1      -0.967  -0.611   8.301  1.00  0.00     0.167 HD
ATOM     42  C   UNL     1       0.095  -4.855   8.113  1.00  0.00     0.037 A 
ATOM     43  C   UNL     1      -1.194   1.877   9.540  1.00  0.00     0.037 A 
ATOM     44  C   UNL     1       0.491  -4.428   9.430  1.00  0.00     0.049 A 
ATOM     45  C   UNL     1      -0.571   0.957  10.553  1.00  0.00     0.074 A 
ATOM     46  C   UNL     1       1.106  -5.163  10.428  1.00  0.00     0.029 A 
ATOM     47  N   UNL     1       0.313  -3.147   9.928  1.00  0.00    -0.354 N 
ATOM     48  N   UNL     1      -0.251  -0.309  10.432  1.00  0.00    -0.248 NA
ATOM     49  C   UNL     1      -0.271   1.530  11.873  1.00  0.00     0.031 C 
ATOM     50  C   UNL     1       1.274  -4.333  11.542  1.00  0.00     0.029 A 
ATOM     51  C   UNL     1       0.796  -3.072  11.223  1.00  0.00     0.049 A 
ATOM     52  H   UNL     1      -0.096  -2.400   9.433  1.00  0.00     0.167 HD
ATOM     53  C   UNL     1       0.302  -0.679  11.651  1.00  0.00     0.074 A 
ATOM     54  C   UNL     1       0.288   0.500  12.492  1.00  0.00     0.031 C 
ATOM     55  C   UNL     1       0.776  -1.887  12.041  1.00  0.00     0.037 A 
BRANCH  42  56
ATOM     56  C   UNL     1       0.349  -6.278   7.718  1.00  0.00     0.057 A 
ATOM     57  C   UNL     1       1.369  -6.625   6.823  1.00  0.00     0.134 A 
ATOM     58  C   UNL     1      -0.423  -7.315   8.255  1.00  0.00     0.134 A 
ATOM     59  F   UNL     1       2.132  -5.675   6.261  1.00  0.00    -0.206 F 
ATOM     60  C   UNL     1       1.601  -7.953   6.463  1.00  0.00     0.040 A 
ATOM     61  C   UNL     1      -0.189  -8.649   7.917  1.00  0.00     0.040 A 
ATOM     62  F   UNL     1      -1.415  -7.049   9.117  1.00  0.00    -0.206 F 
ATOM     63  C   UNL     1       0.823  -8.970   7.015  1.00  0.00     0.006 A 
ENDBRANCH  42  56
BRANCH  43  64
ATOM     64  C   UNL     1      -1.472   3.295   9.876  1.00  0.00     0.057 A 
ATOM     65  C   UNL     1      -0.434   4.220  10.028  1.00  0.00     0.134 A 
ATOM     66  C   UNL     1      -2.781   3.754  10.065  1.00  0.00     0.134 A 
ATOM     67  F   UNL     1       0.842   3.833   9.883  1.00  0.00    -0.206 F 
ATOM     68  C   UNL     1      -0.686   5.550  10.369  1.00  0.00     0.040 A 
ATOM     69  C   UNL     1      -3.049   5.085  10.384  1.00  0.00     0.040 A 
ATOM     70  F   UNL     1      -3.818   2.914   9.934  1.00  0.00    -0.206 F 
ATOM     71  C   UNL     1      -1.998   5.986  10.543  1.00  0.00     0.006 A 
ENDBRANCH  43  64
BRANCH  55  72
ATOM     72  C   UNL     1       1.341  -1.981  13.426  1.00  0.00     0.057 A 
ATOM     73  C   UNL     1       0.514  -2.020  14.555  1.00  0.00     0.134 A 
ATOM     74  C   UNL     1       2.724  -2.063  13.629  1.00  0.00     0.134 A 
ATOM     75  F   UNL     1      -0.818  -1.931  14.426  1.00  0.00    -0.206 F 
ATOM     76  C   UNL     1       1.046  -2.117  15.842  1.00  0.00     0.040 A 
ATOM     77  C   UNL     1       3.266  -2.180  14.909  1.00  0.00     0.040 A 
ATOM     78  F   UNL     1       3.568  -2.037  12.586  1.00  0.00    -0.206 F 
ATOM     79  C   UNL     1       2.426  -2.203  16.020  1.00  0.00     0.006 A 
ENDBRANCH  55  72
ENDBRANCH  29  30
ENDBRANCH  22  24
ENDBRANCH  21  22
ENDBRANCH  20  21
ENDBRANCH   1  20
TORSDOF 16
