REMARK SMILES Nc1cc(C(=O)OCCOC(=O)c2ccc(-c3c4nc(c(-c5c(F)cccc5F)c5ccc([nH]5)c(-c5c(F)cccc5F)c5nc(c(-c6c(F)cccc6F)c6ccc3[nH]6)C=C5)C=C4)cc2)ccc1N1CC2(CCOCC2)C1
REMARK SMILES IDX 9 1 8 2 7 3 5 4 6 5 4 6 2 7 3 8 69 9 68 10 67 11 1 12 70 15
REMARK SMILES IDX 71 16 78 17 72 18 73 19 77 20 74 21 76 22 75 23 10 24 11 25
REMARK SMILES IDX 12 26 13 27 14 28 66 29 15 30 65 31 16 32 17 33 18 34 59 35
REMARK SMILES IDX 19 36 64 37 58 38 60 39 20 40 63 41 57 42 56 43 21 45 47 46
REMARK SMILES IDX 30 47 46 48 31 49 34 50 45 51 61 52 32 53 33 54 44 56 62 57
REMARK SMILES IDX 35 58 22 59 23 60 28 61 24 62 25 63 27 64 29 65 26 66 48 67
REMARK SMILES IDX 49 68 54 69 50 70 51 71 53 72 55 73 52 74 36 75 37 76 42 77
REMARK SMILES IDX 38 78 39 79 41 80 43 81 40 82
REMARK H PARENT 1 13 1 14 60 44 34 55
REMARK Flexibility Score: inf
ROOT
ATOM      1  C   UNL     1      -3.501  -4.259  -1.086  1.00  0.00     0.275 C 
ENDROOT
BRANCH   1   2
ATOM      2  C   UNL     1      -3.895  -3.340   0.070  1.00  0.00     0.275 C 
BRANCH   2   3
ATOM      3  O   UNL     1      -3.213  -2.071  -0.027  1.00  0.00    -0.458 OA
BRANCH   3   4
ATOM      4  C   UNL     1      -2.116  -1.941   0.758  1.00  0.00     0.338 C 
ATOM      5  O   UNL     1      -1.686  -2.764   1.551  1.00  0.00    -0.246 OA
BRANCH   4   6
ATOM      6  C   UNL     1      -1.394  -0.689   0.441  1.00  0.00     0.062 A 
ATOM      7  C   UNL     1       0.786   0.386   0.127  1.00  0.00     0.056 A 
ATOM      8  C   UNL     1       0.004  -0.726   0.461  1.00  0.00     0.043 A 
ATOM      9  C   UNL     1       0.139   1.621  -0.072  1.00  0.00     0.060 A 
ATOM     10  C   UNL     1      -1.274   1.659  -0.050  1.00  0.00     0.029 A 
ATOM     11  C   UNL     1      -2.042   0.509   0.170  1.00  0.00     0.018 A 
BRANCH   7  12
ATOM     12  N   UNL     1       2.167   0.227   0.206  1.00  0.00    -0.397 N 
ATOM     13  H   UNL     1       2.552  -0.667   0.347  1.00  0.00     0.156 HD
ATOM     14  H   UNL     1       2.758   1.010   0.119  1.00  0.00     0.156 HD
ENDBRANCH   7  12
BRANCH   9  15
ATOM     15  N   UNL     1       0.803   2.855  -0.246  1.00  0.00    -0.369 N 
ATOM     16  C   UNL     1       1.965   3.225  -0.985  1.00  0.00     0.125 C 
ATOM     17  C   UNL     1       1.029   3.808   0.806  1.00  0.00     0.125 C 
ATOM     18  C   UNL     1       2.446   4.035   0.244  1.00  0.00     0.010 C 
ATOM     19  C   UNL     1       2.810   5.492  -0.051  1.00  0.00     0.039 C 
ATOM     20  C   UNL     1       3.546   3.402   1.109  1.00  0.00     0.039 C 
ATOM     21  C   UNL     1       4.190   5.528  -0.703  1.00  0.00     0.161 C 
ATOM     22  C   UNL     1       4.884   3.545   0.395  1.00  0.00     0.161 C 
ATOM     23  O   UNL     1       5.165   4.925   0.151  1.00  0.00    -0.381 OA
ENDBRANCH   9  15
ENDBRANCH   4   6
ENDBRANCH   3   4
ENDBRANCH   2   3
ENDBRANCH   1   2
BRANCH   1  24
ATOM     24  O   UNL     1      -2.104  -4.591  -0.991  1.00  0.00    -0.458 OA
BRANCH  24  25
ATOM     25  C   UNL     1      -1.372  -4.403  -2.114  1.00  0.00     0.338 C 
ATOM     26  O   UNL     1      -1.771  -4.041  -3.207  1.00  0.00    -0.246 OA
BRANCH  25  27
ATOM     27  C   UNL     1       0.048  -4.698  -1.844  1.00  0.00     0.060 A 
ATOM     28  C   UNL     1       0.698  -4.069  -0.787  1.00  0.00     0.016 A 
ATOM     29  C   UNL     1       0.773  -5.500  -2.722  1.00  0.00     0.016 A 
ATOM     30  C   UNL     1       2.087  -4.137  -0.673  1.00  0.00     0.010 A 
ATOM     31  C   UNL     1       2.152  -5.665  -2.535  1.00  0.00     0.010 A 
ATOM     32  C   UNL     1       2.839  -4.947  -1.537  1.00  0.00    -0.014 A 
BRANCH  32  33
ATOM     33  C   UNL     1       4.329  -5.015  -1.432  1.00  0.00     0.031 A 
ATOM     34  C   UNL     1       5.193  -4.716  -2.635  1.00  0.00     0.074 A 
ATOM     35  C   UNL     1       4.930  -5.338  -0.268  1.00  0.00     0.049 A 
ATOM     36  N   UNL     1       6.478  -4.914  -2.806  1.00  0.00    -0.248 NA
ATOM     37  C   UNL     1       4.522  -4.131  -3.807  1.00  0.00     0.031 C 
ATOM     38  C   UNL     1       4.246  -5.618   0.996  1.00  0.00     0.029 A 
ATOM     39  N   UNL     1       6.262  -5.481   0.044  1.00  0.00    -0.354 N 
ATOM     40  C   UNL     1       6.750  -4.549  -4.120  1.00  0.00     0.074 A 
ATOM     41  C   UNL     1       5.500  -4.111  -4.702  1.00  0.00     0.031 C 
ATOM     42  C   UNL     1       5.158  -5.850   1.952  1.00  0.00     0.029 A 
ATOM     43  C   UNL     1       6.488  -5.835   1.354  1.00  0.00     0.049 A 
ATOM     44  H   UNL     1       6.986  -5.343  -0.609  1.00  0.00     0.167 HD
ATOM     45  C   UNL     1       7.932  -4.579  -4.783  1.00  0.00     0.037 A 
ATOM     46  C   UNL     1       7.625  -6.158   1.998  1.00  0.00     0.037 A 
ATOM     47  C   UNL     1       9.193  -4.939  -4.188  1.00  0.00     0.049 A 
ATOM     48  C   UNL     1       8.921  -6.194   1.241  1.00  0.00     0.074 A 
ATOM     49  C   UNL     1      10.447  -4.969  -4.776  1.00  0.00     0.029 A 
ATOM     50  N   UNL     1       9.365  -5.309  -2.864  1.00  0.00    -0.354 N 
ATOM     51  N   UNL     1       9.151  -5.907  -0.016  1.00  0.00    -0.248 NA
ATOM     52  C   UNL     1      10.113  -6.624   1.988  1.00  0.00     0.031 C 
ATOM     53  C   UNL     1      11.374  -5.384  -3.814  1.00  0.00     0.029 A 
ATOM     54  C   UNL     1      10.703  -5.576  -2.618  1.00  0.00     0.049 A 
ATOM     55  H   UNL     1       8.645  -5.373  -2.196  1.00  0.00     0.167 HD
ATOM     56  C   UNL     1      10.511  -6.112  -0.209  1.00  0.00     0.074 A 
ATOM     57  C   UNL     1      11.059  -6.526   1.065  1.00  0.00     0.031 C 
ATOM     58  C   UNL     1      11.238  -5.979  -1.345  1.00  0.00     0.037 A 
BRANCH  45  59
ATOM     59  C   UNL     1       7.923  -4.237  -6.245  1.00  0.00     0.057 A 
ATOM     60  C   UNL     1       7.785  -2.923  -6.704  1.00  0.00     0.134 A 
ATOM     61  C   UNL     1       8.116  -5.241  -7.204  1.00  0.00     0.134 A 
ATOM     62  F   UNL     1       7.587  -1.917  -5.839  1.00  0.00    -0.206 F 
ATOM     63  C   UNL     1       7.822  -2.620  -8.068  1.00  0.00     0.040 A 
ATOM     64  C   UNL     1       8.178  -4.948  -8.567  1.00  0.00     0.040 A 
ATOM     65  F   UNL     1       8.263  -6.521  -6.830  1.00  0.00    -0.206 F 
ATOM     66  C   UNL     1       8.027  -3.633  -9.002  1.00  0.00     0.006 A 
ENDBRANCH  45  59
BRANCH  46  67
ATOM     67  C   UNL     1       7.585  -6.524   3.438  1.00  0.00     0.057 A 
ATOM     68  C   UNL     1       8.155  -5.695   4.410  1.00  0.00     0.134 A 
ATOM     69  C   UNL     1       6.984  -7.712   3.873  1.00  0.00     0.134 A 
ATOM     70  F   UNL     1       8.770  -4.558   4.052  1.00  0.00    -0.206 F 
ATOM     71  C   UNL     1       8.136  -6.037   5.764  1.00  0.00     0.040 A 
ATOM     72  C   UNL     1       6.933  -8.053   5.225  1.00  0.00     0.040 A 
ATOM     73  F   UNL     1       6.422  -8.550   2.990  1.00  0.00    -0.206 F 
ATOM     74  C   UNL     1       7.516  -7.216   6.175  1.00  0.00     0.006 A 
ENDBRANCH  46  67
BRANCH  58  75
ATOM     75  C   UNL     1      12.708  -6.251  -1.250  1.00  0.00     0.057 A 
ATOM     76  C   UNL     1      13.211  -7.554  -1.154  1.00  0.00     0.134 A 
ATOM     77  C   UNL     1      13.632  -5.199  -1.278  1.00  0.00     0.134 A 
ATOM     78  F   UNL     1      12.377  -8.603  -1.107  1.00  0.00    -0.206 F 
ATOM     79  C   UNL     1      14.583  -7.800  -1.069  1.00  0.00     0.040 A 
ATOM     80  C   UNL     1      15.005  -5.433  -1.216  1.00  0.00     0.040 A 
ATOM     81  F   UNL     1      13.213  -3.928  -1.375  1.00  0.00    -0.206 F 
ATOM     82  C   UNL     1      15.484  -6.737  -1.105  1.00  0.00     0.006 A 
ENDBRANCH  58  75
ENDBRANCH  32  33
ENDBRANCH  25  27
ENDBRANCH  24  25
ENDBRANCH   1  24
TORSDOF 13
