REMARK SMILES CC(C)[C@H](NC(=O)[C@H](C)NC(=O)C[NH3+])C(=O)OCCOC(=O)c1ccc(-c2c3nc(c(-c4c(F)cccc4F)c4ccc([nH]4)c(-c4c(F)cccc4F)c4nc(c(-c5c(F)cccc5F)c5ccc2[nH]5)C=C4)C=C3)cc1
REMARK SMILES IDX 17 1 15 2 16 3 4 4 2 5 1 6 3 7 5 8 6 9 7 11 8 12 9 13 10 14
REMARK SMILES IDX 11 15 12 17 13 18 14 19 18 23 19 24 20 25 21 26 22 27 23 28
REMARK SMILES IDX 24 29 76 30 25 31 75 32 26 33 27 34 28 35 69 36 29 37 74 38
REMARK SMILES IDX 68 39 70 40 30 41 73 42 67 43 66 44 31 46 57 47 40 48 56 49
REMARK SMILES IDX 41 50 44 51 55 52 71 53 42 54 43 55 54 57 72 58 45 59 32 60
REMARK SMILES IDX 33 61 38 62 34 63 35 64 37 65 39 66 36 67 58 68 59 69 64 70
REMARK SMILES IDX 60 71 61 72 63 73 65 74 62 75 46 76 47 77 52 78 48 79 49 80
REMARK SMILES IDX 51 81 53 82 50 83
REMARK H PARENT 5 10 10 16 14 20 14 21 14 22 70 45 44 56
REMARK Flexibility Score: inf
ROOT
ATOM      1  O   UNL     1      -0.001   5.600  -0.340  1.00  0.00    -0.461 OA
ENDROOT
BRANCH   1   2
ATOM      2  C   UNL     1       1.200   5.166   0.139  1.00  0.00     0.329 C 
ATOM      3  O   UNL     1       2.066   5.893   0.612  1.00  0.00    -0.250 OA
BRANCH   2   4
ATOM      4  C   UNL     1       1.379   3.642  -0.013  1.00  0.00     0.194 C 
BRANCH   4   5
ATOM      5  C   UNL     1       2.496   3.302  -1.028  1.00  0.00     0.017 C 
ATOM      6  C   UNL     1       2.325   4.014  -2.372  1.00  0.00     0.010 C 
ATOM      7  C   UNL     1       3.888   3.575  -0.451  1.00  0.00     0.010 C 
ENDBRANCH   4   5
BRANCH   4   8
ATOM      8  N   UNL     1       0.131   2.956  -0.374  1.00  0.00    -0.341 N 
ATOM      9  C   UNL     1      -0.377   1.767   0.065  1.00  0.00     0.243 C 
ATOM     10  H   UNL     1      -0.426   3.427  -1.035  1.00  0.00     0.164 HD
ATOM     11  O   UNL     1      -1.451   1.386  -0.411  1.00  0.00    -0.273 OA
BRANCH   9  12
ATOM     12  C   UNL     1       0.396   0.907   1.089  1.00  0.00     0.168 C 
ATOM     13  C   UNL     1       1.273  -0.105   0.361  1.00  0.00     0.041 C 
BRANCH  12  14
ATOM     14  N   UNL     1      -0.582   0.198   1.914  1.00  0.00    -0.340 N 
ATOM     15  C   UNL     1      -0.529  -0.088   3.247  1.00  0.00     0.275 C 
ATOM     16  H   UNL     1      -1.387  -0.117   1.443  1.00  0.00     0.164 HD
ATOM     17  O   UNL     1      -1.412  -0.786   3.748  1.00  0.00    -0.268 OA
BRANCH  15  18
ATOM     18  C   UNL     1       0.567   0.538   4.108  1.00  0.00     0.360 C 
BRANCH  18  19
ATOM     19  N   UNL     1       1.918   0.101   3.726  1.00  0.00    -0.350 N 
ATOM     20  H   UNL     1       1.997  -0.908   3.850  1.00  0.00     0.344 HD
ATOM     21  H   UNL     1       2.606   0.571   4.314  1.00  0.00     0.344 HD
ATOM     22  H   UNL     1       2.088   0.338   2.749  1.00  0.00     0.344 HD
ENDBRANCH  18  19
ENDBRANCH  15  18
ENDBRANCH  12  14
ENDBRANCH   9  12
ENDBRANCH   4   8
ENDBRANCH   2   4
ENDBRANCH   1   2
BRANCH   1  23
ATOM     23  C   UNL     1      -0.247   7.015  -0.210  1.00  0.00     0.274 C 
BRANCH  23  24
ATOM     24  C   UNL     1      -1.151   7.295   0.987  1.00  0.00     0.275 C 
BRANCH  24  25
ATOM     25  O   UNL     1      -0.539   6.798   2.192  1.00  0.00    -0.458 OA
BRANCH  25  26
ATOM     26  C   UNL     1      -1.249   5.859   2.855  1.00  0.00     0.338 C 
ATOM     27  O   UNL     1      -2.356   5.424   2.571  1.00  0.00    -0.246 OA
BRANCH  26  28
ATOM     28  C   UNL     1      -0.494   5.366   4.017  1.00  0.00     0.060 A 
ATOM     29  C   UNL     1       0.709   4.693   3.827  1.00  0.00     0.016 A 
ATOM     30  C   UNL     1      -1.083   5.406   5.282  1.00  0.00     0.016 A 
ATOM     31  C   UNL     1       1.259   3.959   4.879  1.00  0.00     0.010 A 
ATOM     32  C   UNL     1      -0.485   4.729   6.353  1.00  0.00     0.010 A 
ATOM     33  C   UNL     1       0.652   3.931   6.148  1.00  0.00    -0.014 A 
BRANCH  33  34
ATOM     34  C   UNL     1       1.130   2.968   7.192  1.00  0.00     0.031 A 
ATOM     35  C   UNL     1       0.189   1.937   7.782  1.00  0.00     0.074 A 
ATOM     36  C   UNL     1       2.429   2.927   7.555  1.00  0.00     0.049 A 
ATOM     37  N   UNL     1       0.406   1.078   8.749  1.00  0.00    -0.248 NA
ATOM     38  C   UNL     1      -1.167   1.857   7.215  1.00  0.00     0.031 C 
ATOM     39  C   UNL     1       3.479   3.815   7.058  1.00  0.00     0.029 A 
ATOM     40  N   UNL     1       3.095   2.068   8.397  1.00  0.00    -0.354 N 
ATOM     41  C   UNL     1      -0.800   0.414   8.952  1.00  0.00     0.074 A 
ATOM     42  C   UNL     1      -1.741   0.952   7.995  1.00  0.00     0.031 C 
ATOM     43  C   UNL     1       4.665   3.400   7.527  1.00  0.00     0.029 A 
ATOM     44  C   UNL     1       4.454   2.269   8.427  1.00  0.00     0.049 A 
ATOM     45  H   UNL     1       2.642   1.375   8.929  1.00  0.00     0.167 HD
ATOM     46  C   UNL     1      -1.105  -0.553   9.851  1.00  0.00     0.037 A 
ATOM     47  C   UNL     1       5.426   1.632   9.108  1.00  0.00     0.037 A 
ATOM     48  C   UNL     1      -0.166  -1.168  10.752  1.00  0.00     0.049 A 
ATOM     49  C   UNL     1       5.075   0.534  10.069  1.00  0.00     0.074 A 
ATOM     50  C   UNL     1      -0.398  -2.141  11.711  1.00  0.00     0.029 A 
ATOM     51  N   UNL     1       1.192  -0.905  10.773  1.00  0.00    -0.354 N 
ATOM     52  N   UNL     1       3.904   0.012  10.333  1.00  0.00    -0.248 NA
ATOM     53  C   UNL     1       6.181  -0.041  10.850  1.00  0.00     0.031 C 
ATOM     54  C   UNL     1       0.822  -2.463  12.316  1.00  0.00     0.029 A 
ATOM     55  C   UNL     1       1.814  -1.705  11.718  1.00  0.00     0.049 A 
ATOM     56  H   UNL     1       1.649  -0.246  10.202  1.00  0.00     0.167 HD
ATOM     57  C   UNL     1       4.128  -0.935  11.324  1.00  0.00     0.074 A 
ATOM     58  C   UNL     1       5.552  -0.948  11.583  1.00  0.00     0.031 C 
ATOM     59  C   UNL     1       3.227  -1.707  11.977  1.00  0.00     0.037 A 
BRANCH  46  60
ATOM     60  C   UNL     1      -2.534  -0.999   9.931  1.00  0.00     0.057 A 
ATOM     61  C   UNL     1      -3.084  -1.892   9.005  1.00  0.00     0.134 A 
ATOM     62  C   UNL     1      -3.351  -0.568  10.984  1.00  0.00     0.134 A 
ATOM     63  F   UNL     1      -2.352  -2.336   7.973  1.00  0.00    -0.206 F 
ATOM     64  C   UNL     1      -4.405  -2.330   9.116  1.00  0.00     0.040 A 
ATOM     65  C   UNL     1      -4.666  -1.014  11.117  1.00  0.00     0.040 A 
ATOM     66  F   UNL     1      -2.877   0.281  11.909  1.00  0.00    -0.206 F 
ATOM     67  C   UNL     1      -5.198  -1.896  10.179  1.00  0.00     0.006 A 
ENDBRANCH  46  60
BRANCH  47  68
ATOM     68  C   UNL     1       6.842   2.031   8.919  1.00  0.00     0.057 A 
ATOM     69  C   UNL     1       7.733   1.200   8.230  1.00  0.00     0.134 A 
ATOM     70  C   UNL     1       7.336   3.239   9.421  1.00  0.00     0.134 A 
ATOM     71  F   UNL     1       7.320   0.019   7.749  1.00  0.00    -0.206 F 
ATOM     72  C   UNL     1       9.070   1.557   8.050  1.00  0.00     0.040 A 
ATOM     73  C   UNL     1       8.664   3.619   9.229  1.00  0.00     0.040 A 
ATOM     74  F   UNL     1       6.528   4.074  10.090  1.00  0.00    -0.206 F 
ATOM     75  C   UNL     1       9.536   2.774   8.545  1.00  0.00     0.006 A 
ENDBRANCH  47  68
BRANCH  59  76
ATOM     76  C   UNL     1       3.756  -2.620  13.040  1.00  0.00     0.057 A 
ATOM     77  C   UNL     1       4.122  -2.132  14.300  1.00  0.00     0.134 A 
ATOM     78  C   UNL     1       3.885  -3.995  12.811  1.00  0.00     0.134 A 
ATOM     79  F   UNL     1       4.032  -0.822  14.574  1.00  0.00    -0.206 F 
ATOM     80  C   UNL     1       4.617  -2.979  15.293  1.00  0.00     0.040 A 
ATOM     81  C   UNL     1       4.365  -4.854  13.801  1.00  0.00     0.040 A 
ATOM     82  F   UNL     1       3.548  -4.522  11.625  1.00  0.00    -0.206 F 
ATOM     83  C   UNL     1       4.737  -4.345  15.044  1.00  0.00     0.006 A 
ENDBRANCH  59  76
ENDBRANCH  33  34
ENDBRANCH  26  28
ENDBRANCH  25  26
ENDBRANCH  24  25
ENDBRANCH  23  24
ENDBRANCH   1  23
TORSDOF 17
