REMARK SMILES C[C@H](CCC(=O)OCCOC(=O)c1ccc(-c2c3nc(c(-c4c(F)cccc4F)c4ccc([nH]4)c(-c4c(F)cccc4F)c4nc(c(-c5c(F)cccc5F)c5ccc2[nH]5)C=C4)C=C3)cc1)NC(=O)N(C)CCc1cccs1
REMARK SMILES IDX 5 1 6 2 4 3 3 4 2 5 1 6 67 7 68 8 69 10 70 11 71 12 72 13
REMARK SMILES IDX 73 14 74 15 75 16 78 17 76 18 77 19 7 20 8 21 9 22 10 23
REMARK SMILES IDX 11 24 12 25 13 26 14 27 66 28 15 29 65 30 16 31 17 32 18 33
REMARK SMILES IDX 59 34 19 35 64 36 58 37 60 38 20 39 63 40 57 41 56 42 21 44
REMARK SMILES IDX 47 45 30 46 46 47 31 48 34 49 45 50 61 51 32 52 33 53 44 55
REMARK SMILES IDX 62 56 35 57 22 58 23 59 28 60 24 61 25 62 27 63 29 64 26 65
REMARK SMILES IDX 48 66 49 67 54 68 50 69 51 70 53 71 55 72 52 73 36 74 37 75
REMARK SMILES IDX 42 76 38 77 39 78 41 79 43 80 40 81
REMARK H PARENT 67 9 60 43 34 54
REMARK Flexibility Score: inf
ROOT
ATOM      1  C   UNL     1       1.838  -2.472  -1.795  1.00  0.00     0.305 C 
ATOM      2  O   UNL     1       2.302  -3.604  -1.815  1.00  0.00    -0.252 OA
ENDROOT
BRANCH   1   3
ATOM      3  C   UNL     1       0.650  -2.082  -0.941  1.00  0.00     0.125 C 
BRANCH   3   4
ATOM      4  C   UNL     1       0.692  -0.663  -0.378  1.00  0.00     0.036 C 
BRANCH   4   5
ATOM      5  C   UNL     1       0.214   0.524  -1.254  1.00  0.00     0.081 C 
ATOM      6  C   UNL     1      -0.062   0.261  -2.732  1.00  0.00     0.031 C 
BRANCH   5   7
ATOM      7  N   UNL     1      -0.970   1.105  -0.618  1.00  0.00    -0.336 N 
ATOM      8  C   UNL     1      -1.585   2.297  -0.558  1.00  0.00     0.317 C 
ATOM      9  H   UNL     1      -1.452   0.432  -0.085  1.00  0.00     0.165 HD
ATOM     10  O   UNL     1      -2.693   2.264  -0.011  1.00  0.00    -0.249 OA
BRANCH   8  11
ATOM     11  N   UNL     1      -1.082   3.445  -1.097  1.00  0.00    -0.328 N 
ATOM     12  C   UNL     1       0.306   3.788  -1.354  1.00  0.00     0.148 C 
BRANCH  11  13
ATOM     13  C   UNL     1      -2.036   4.545  -1.325  1.00  0.00     0.126 C 
BRANCH  13  14
ATOM     14  C   UNL     1      -2.704   4.494  -2.711  1.00  0.00     0.068 C 
BRANCH  14  15
ATOM     15  C   UNL     1      -3.773   3.441  -2.810  1.00  0.00     0.006 A 
ATOM     16  C   UNL     1      -3.647   2.130  -3.224  1.00  0.00     0.015 A 
ATOM     17  S   UNL     1      -5.386   3.797  -2.350  1.00  0.00    -0.149 S 
ATOM     18  C   UNL     1      -4.853   1.391  -3.068  1.00  0.00     0.012 A 
ATOM     19  C   UNL     1      -5.880   2.179  -2.602  1.00  0.00     0.065 A 
ENDBRANCH  14  15
ENDBRANCH  13  14
ENDBRANCH  11  13
ENDBRANCH   8  11
ENDBRANCH   5   7
ENDBRANCH   4   5
ENDBRANCH   3   4
ENDBRANCH   1   3
BRANCH   1  20
ATOM     20  O   UNL     1       2.280  -1.435  -2.543  1.00  0.00    -0.462 OA
BRANCH  20  21
ATOM     21  C   UNL     1       3.384  -1.660  -3.438  1.00  0.00     0.274 C 
BRANCH  21  22
ATOM     22  C   UNL     1       4.586  -0.830  -2.991  1.00  0.00     0.275 C 
BRANCH  22  23
ATOM     23  O   UNL     1       5.085  -1.332  -1.739  1.00  0.00    -0.458 OA
BRANCH  23  24
ATOM     24  C   UNL     1       4.636  -0.695  -0.634  1.00  0.00     0.338 C 
ATOM     25  O   UNL     1       3.966   0.323  -0.576  1.00  0.00    -0.246 OA
BRANCH  24  26
ATOM     26  C   UNL     1       4.970  -1.525   0.530  1.00  0.00     0.060 A 
ATOM     27  C   UNL     1       3.948  -2.225   1.178  1.00  0.00     0.016 A 
ATOM     28  C   UNL     1       6.289  -1.618   0.971  1.00  0.00     0.016 A 
ATOM     29  C   UNL     1       4.243  -3.044   2.264  1.00  0.00     0.010 A 
ATOM     30  C   UNL     1       6.585  -2.449   2.053  1.00  0.00     0.010 A 
ATOM     31  C   UNL     1       5.566  -3.173   2.698  1.00  0.00    -0.014 A 
BRANCH  31  32
ATOM     32  C   UNL     1       5.908  -4.082   3.815  1.00  0.00     0.031 A 
ATOM     33  C   UNL     1       6.354  -3.511   5.127  1.00  0.00     0.074 A 
ATOM     34  C   UNL     1       5.875  -5.414   3.619  1.00  0.00     0.049 A 
ATOM     35  N   UNL     1       6.886  -4.121   6.154  1.00  0.00    -0.248 NA
ATOM     36  C   UNL     1       6.189  -2.060   5.303  1.00  0.00     0.031 C 
ATOM     37  C   UNL     1       5.423  -6.077   2.394  1.00  0.00     0.029 A 
ATOM     38  N   UNL     1       6.262  -6.447   4.434  1.00  0.00    -0.354 N 
ATOM     39  C   UNL     1       7.152  -3.126   7.085  1.00  0.00     0.074 A 
ATOM     40  C   UNL     1       6.723  -1.872   6.503  1.00  0.00     0.031 C 
ATOM     41  C   UNL     1       5.584  -7.403   2.529  1.00  0.00     0.029 A 
ATOM     42  C   UNL     1       6.208  -7.676   3.819  1.00  0.00     0.049 A 
ATOM     43  H   UNL     1       6.550  -6.322   5.367  1.00  0.00     0.167 HD
ATOM     44  C   UNL     1       7.711  -3.257   8.310  1.00  0.00     0.037 A 
ATOM     45  C   UNL     1       6.665  -8.875   4.227  1.00  0.00     0.037 A 
ATOM     46  C   UNL     1       8.110  -4.517   8.881  1.00  0.00     0.049 A 
ATOM     47  C   UNL     1       7.344  -8.977   5.567  1.00  0.00     0.074 A 
ATOM     48  C   UNL     1       8.633  -4.763  10.139  1.00  0.00     0.029 A 
ATOM     49  N   UNL     1       8.043  -5.738   8.228  1.00  0.00    -0.354 N 
ATOM     50  N   UNL     1       7.558  -8.039   6.459  1.00  0.00    -0.248 NA
ATOM     51  C   UNL     1       7.856 -10.299   5.954  1.00  0.00     0.031 C 
ATOM     52  C   UNL     1       8.943  -6.123  10.222  1.00  0.00     0.029 A 
ATOM     53  C   UNL     1       8.558  -6.734   9.039  1.00  0.00     0.049 A 
ATOM     54  H   UNL     1       7.682  -5.876   7.322  1.00  0.00     0.167 HD
ATOM     55  C   UNL     1       8.209  -8.661   7.516  1.00  0.00     0.074 A 
ATOM     56  C   UNL     1       8.335 -10.060   7.166  1.00  0.00     0.031 C 
ATOM     57  C   UNL     1       8.667  -8.123   8.672  1.00  0.00     0.037 A 
BRANCH  44  58
ATOM     58  C   UNL     1       7.965  -2.014   9.109  1.00  0.00     0.057 A 
ATOM     59  C   UNL     1       6.933  -1.294   9.722  1.00  0.00     0.134 A 
ATOM     60  C   UNL     1       9.279  -1.578   9.332  1.00  0.00     0.134 A 
ATOM     61  F   UNL     1       5.653  -1.652   9.539  1.00  0.00    -0.206 F 
ATOM     62  C   UNL     1       7.197  -0.182  10.524  1.00  0.00     0.040 A 
ATOM     63  C   UNL     1       9.557  -0.483  10.150  1.00  0.00     0.040 A 
ATOM     64  F   UNL     1      10.314  -2.225   8.776  1.00  0.00    -0.206 F 
ATOM     65  C   UNL     1       8.513   0.219  10.749  1.00  0.00     0.006 A 
ENDBRANCH  44  58
BRANCH  45  66
ATOM     66  C   UNL     1       6.565 -10.062   3.338  1.00  0.00     0.057 A 
ATOM     67  C   UNL     1       5.775 -11.165   3.681  1.00  0.00     0.134 A 
ATOM     68  C   UNL     1       7.292 -10.141   2.143  1.00  0.00     0.134 A 
ATOM     69  F   UNL     1       5.073 -11.162   4.824  1.00  0.00    -0.206 F 
ATOM     70  C   UNL     1       5.735 -12.312   2.887  1.00  0.00     0.040 A 
ATOM     71  C   UNL     1       7.236 -11.268   1.322  1.00  0.00     0.040 A 
ATOM     72  F   UNL     1       8.069  -9.119   1.752  1.00  0.00    -0.206 F 
ATOM     73  C   UNL     1       6.465 -12.364   1.701  1.00  0.00     0.006 A 
ENDBRANCH  45  66
BRANCH  57  74
ATOM     74  C   UNL     1       9.323  -9.052   9.652  1.00  0.00     0.057 A 
ATOM     75  C   UNL     1      10.597  -9.585   9.422  1.00  0.00     0.134 A 
ATOM     76  C   UNL     1       8.695  -9.370  10.863  1.00  0.00     0.134 A 
ATOM     77  F   UNL     1      11.245  -9.331   8.275  1.00  0.00    -0.206 F 
ATOM     78  C   UNL     1      11.217 -10.416  10.357  1.00  0.00     0.040 A 
ATOM     79  C   UNL     1       9.318 -10.174  11.817  1.00  0.00     0.040 A 
ATOM     80  F   UNL     1       7.478  -8.883  11.148  1.00  0.00    -0.206 F 
ATOM     81  C   UNL     1      10.581 -10.704  11.563  1.00  0.00     0.006 A 
ENDBRANCH  57  74
ENDBRANCH  31  32
ENDBRANCH  24  26
ENDBRANCH  23  24
ENDBRANCH  22  23
ENDBRANCH  21  22
ENDBRANCH  20  21
ENDBRANCH   1  20
TORSDOF 18
