REMARK SMILES O=C(OCCOC(=O)[C@H]1CCC[N@@H+]1Cc1ccccc1[N+](=O)[O-])c1ccc(-c2c3nc(c(-c4c(F)cccc4F)c4ccc([nH]4)c(-c4c(F)cccc4F)c4nc(c(-c5c(F)cccc5F)c5ccc2[nH]5)C=C4)C=C3)cc1
REMARK SMILES IDX 5 1 4 2 3 3 2 4 1 5 24 6 25 7 77 8 26 9 76 10 27 11 28 12
REMARK SMILES IDX 29 13 70 14 30 15 75 16 69 17 71 18 31 19 74 20 68 21 67 22
REMARK SMILES IDX 32 24 58 25 41 26 57 27 42 28 45 29 56 30 72 31 43 32 44 33
REMARK SMILES IDX 55 35 73 36 46 37 33 38 34 39 39 40 35 41 36 42 38 43 40 44
REMARK SMILES IDX 37 45 59 46 60 47 65 48 61 49 62 50 64 51 66 52 63 53 47 54
REMARK SMILES IDX 48 55 53 56 49 57 50 58 52 59 54 60 51 61 6 62 7 63 8 64
REMARK SMILES IDX 9 65 10 66 13 67 11 68 12 69 14 71 15 72 16 73 20 74 17 75
REMARK SMILES IDX 19 76 18 77 21 78 22 79 23 80
REMARK H PARENT 71 23 45 34 13 70
REMARK Flexibility Score: inf
ROOT
ATOM      1  C   UNL     1      -0.904   0.170   4.050  1.00  0.00     0.274 C 
ENDROOT
BRANCH   1   2
ATOM      2  C   UNL     1      -1.792   0.076   2.802  1.00  0.00     0.275 C 
BRANCH   2   3
ATOM      3  O   UNL     1      -1.443  -0.986   1.895  1.00  0.00    -0.458 OA
BRANCH   3   4
ATOM      4  C   UNL     1      -0.617  -0.956   0.822  1.00  0.00     0.338 C 
ATOM      5  O   UNL     1      -0.716  -1.831  -0.036  1.00  0.00    -0.246 OA
BRANCH   4   6
ATOM      6  C   UNL     1       0.533  -0.002   0.708  1.00  0.00     0.060 A 
ATOM      7  C   UNL     1       0.590   1.285   1.246  1.00  0.00     0.016 A 
ATOM      8  C   UNL     1       1.665  -0.469   0.018  1.00  0.00     0.016 A 
ATOM      9  C   UNL     1       1.773   2.024   1.231  1.00  0.00     0.010 A 
ATOM     10  C   UNL     1       2.848   0.279  -0.026  1.00  0.00     0.010 A 
ATOM     11  C   UNL     1       2.917   1.519   0.616  1.00  0.00    -0.014 A 
BRANCH  11  12
ATOM     12  C   UNL     1       4.107   2.391   0.536  1.00  0.00     0.031 A 
ATOM     13  C   UNL     1       4.356   3.113  -0.752  1.00  0.00     0.074 A 
ATOM     14  C   UNL     1       4.862   2.628   1.627  1.00  0.00     0.049 A 
ATOM     15  N   UNL     1       5.222   4.054  -1.016  1.00  0.00    -0.248 NA
ATOM     16  C   UNL     1       3.496   2.743  -1.889  1.00  0.00     0.031 C 
ATOM     17  C   UNL     1       4.679   2.005   2.939  1.00  0.00     0.029 A 
ATOM     18  N   UNL     1       5.927   3.474   1.814  1.00  0.00    -0.354 N 
ATOM     19  C   UNL     1       4.977   4.419  -2.331  1.00  0.00     0.074 A 
ATOM     20  C   UNL     1       3.943   3.547  -2.838  1.00  0.00     0.031 C 
ATOM     21  C   UNL     1       5.601   2.483   3.792  1.00  0.00     0.029 A 
ATOM     22  C   UNL     1       6.432   3.457   3.094  1.00  0.00     0.049 A 
ATOM     23  H   UNL     1       6.295   4.040   1.098  1.00  0.00     0.167 HD
ATOM     24  C   UNL     1       5.537   5.423  -3.042  1.00  0.00     0.037 A 
ATOM     25  C   UNL     1       7.443   4.164   3.636  1.00  0.00     0.037 A 
ATOM     26  C   UNL     1       6.588   6.262  -2.541  1.00  0.00     0.049 A 
ATOM     27  C   UNL     1       8.122   5.206   2.785  1.00  0.00     0.074 A 
ATOM     28  C   UNL     1       7.272   7.271  -3.190  1.00  0.00     0.029 A 
ATOM     29  N   UNL     1       7.114   6.175  -1.260  1.00  0.00    -0.354 N 
ATOM     30  N   UNL     1       7.856   5.566   1.551  1.00  0.00    -0.248 NA
ATOM     31  C   UNL     1       9.223   5.956   3.404  1.00  0.00     0.031 C 
ATOM     32  C   UNL     1       8.244   7.766  -2.314  1.00  0.00     0.029 A 
ATOM     33  C   UNL     1       8.129   7.101  -1.103  1.00  0.00     0.049 A 
ATOM     34  H   UNL     1       6.809   5.547  -0.565  1.00  0.00     0.167 HD
ATOM     35  C   UNL     1       8.735   6.601   1.257  1.00  0.00     0.074 A 
ATOM     36  C   UNL     1       9.521   6.828   2.453  1.00  0.00     0.031 C 
ATOM     37  C   UNL     1       8.888   7.301   0.105  1.00  0.00     0.037 A 
BRANCH  24  38
ATOM     38  C   UNL     1       5.017   5.633  -4.431  1.00  0.00     0.057 A 
ATOM     39  C   UNL     1       3.736   6.153  -4.663  1.00  0.00     0.134 A 
ATOM     40  C   UNL     1       5.784   5.277  -5.545  1.00  0.00     0.134 A 
ATOM     41  F   UNL     1       2.939   6.483  -3.635  1.00  0.00    -0.206 F 
ATOM     42  C   UNL     1       3.226   6.286  -5.955  1.00  0.00     0.040 A 
ATOM     43  C   UNL     1       5.294   5.428  -6.843  1.00  0.00     0.040 A 
ATOM     44  F   UNL     1       7.013   4.763  -5.390  1.00  0.00    -0.206 F 
ATOM     45  C   UNL     1       4.008   5.926  -7.050  1.00  0.00     0.006 A 
ENDBRANCH  24  38
BRANCH  25  46
ATOM     46  C   UNL     1       7.880   3.928   5.040  1.00  0.00     0.057 A 
ATOM     47  C   UNL     1       7.769   4.918   6.025  1.00  0.00     0.134 A 
ATOM     48  C   UNL     1       8.492   2.724   5.413  1.00  0.00     0.134 A 
ATOM     49  F   UNL     1       7.208   6.101   5.732  1.00  0.00    -0.206 F 
ATOM     50  C   UNL     1       8.287   4.739   7.311  1.00  0.00     0.040 A 
ATOM     51  C   UNL     1       8.988   2.519   6.703  1.00  0.00     0.040 A 
ATOM     52  F   UNL     1       8.628   1.728   4.524  1.00  0.00    -0.206 F 
ATOM     53  C   UNL     1       8.900   3.535   7.652  1.00  0.00     0.006 A 
ENDBRANCH  25  46
BRANCH  37  54
ATOM     54  C   UNL     1       9.925   8.384   0.100  1.00  0.00     0.057 A 
ATOM     55  C   UNL     1      11.296   8.095   0.126  1.00  0.00     0.134 A 
ATOM     56  C   UNL     1       9.548   9.731   0.030  1.00  0.00     0.134 A 
ATOM     57  F   UNL     1      11.721   6.825   0.204  1.00  0.00    -0.206 F 
ATOM     58  C   UNL     1      12.254   9.109   0.113  1.00  0.00     0.040 A 
ATOM     59  C   UNL     1      10.496  10.752  -0.017  1.00  0.00     0.040 A 
ATOM     60  F   UNL     1       8.251  10.075  -0.009  1.00  0.00    -0.206 F 
ATOM     61  C   UNL     1      11.854  10.442   0.034  1.00  0.00     0.006 A 
ENDBRANCH  37  54
ENDBRANCH  11  12
ENDBRANCH   4   6
ENDBRANCH   3   4
ENDBRANCH   2   3
ENDBRANCH   1   2
BRANCH   1  62
ATOM     62  O   UNL     1       0.495  -0.025   3.776  1.00  0.00    -0.458 OA
BRANCH  62  63
ATOM     63  C   UNL     1       0.916  -1.325   3.873  1.00  0.00     0.365 C 
ATOM     64  O   UNL     1       0.201  -2.228   4.283  1.00  0.00    -0.245 OA
BRANCH  63  65
ATOM     65  C   UNL     1       2.416  -1.464   3.477  1.00  0.00     0.295 C 
ATOM     66  C   UNL     1       3.227  -1.591   4.755  1.00  0.00     0.083 C 
ATOM     67  N   UNL     1       2.653  -2.745   2.772  1.00  0.00    -0.319 N 
ATOM     68  C   UNL     1       3.168  -3.082   5.079  1.00  0.00     0.068 C 
ATOM     69  C   UNL     1       2.660  -3.770   3.813  1.00  0.00     0.263 C 
ATOM     70  H   UNL     1       1.898  -2.880   2.099  1.00  0.00     0.349 HD
BRANCH  67  71
ATOM     71  C   UNL     1       3.762  -2.827   1.808  1.00  0.00     0.307 C 
BRANCH  71  72
ATOM     72  C   UNL     1       5.178  -2.515   2.256  1.00  0.00     0.084 A 
ATOM     73  C   UNL     1       5.716  -1.243   1.983  1.00  0.00     0.017 A 
ATOM     74  C   UNL     1       6.028  -3.416   2.923  1.00  0.00     0.278 A 
ATOM     75  C   UNL     1       6.989  -0.865   2.428  1.00  0.00     0.001 A 
ATOM     76  C   UNL     1       7.287  -3.033   3.417  1.00  0.00     0.086 A 
ATOM     77  C   UNL     1       7.760  -1.748   3.175  1.00  0.00     0.007 A 
BRANCH  74  78
ATOM     78  N   UNL     1       5.691  -4.824   3.059  1.00  0.00     0.063 N 
ATOM     79  O   UNL     1       5.763  -5.316   4.194  1.00  0.00    -0.258 OA
ATOM     80  O   UNL     1       5.395  -5.441   2.028  1.00  0.00    -0.258 OA
ENDBRANCH  74  78
ENDBRANCH  71  72
ENDBRANCH  67  71
ENDBRANCH  63  65
ENDBRANCH  62  63
ENDBRANCH   1  62
TORSDOF 14
