REMARK SMILES CC[C@](C)(C(=O)OCCOC(=O)c1ccc(-c2c3nc(c(-c4c(F)cccc4F)c4ccc([nH]4)c(-c4c(F)cccc4F)c4nc(c(-c5c(F)cccc5F)c5ccc2[nH]5)C=C4)C=C3)cc1)n1nnnc1-c1ccco1
REMARK SMILES IDX 8 1 7 2 5 3 6 4 3 5 4 6 2 7 1 8 67 9 68 10 71 11 69 12 70 13
REMARK SMILES IDX 72 14 73 15 76 16 74 17 75 18 9 19 10 20 11 21 12 22 13 23
REMARK SMILES IDX 14 24 66 25 15 26 65 27 16 28 17 29 18 30 59 31 19 32 64 33
REMARK SMILES IDX 58 34 60 35 20 36 63 37 57 38 56 39 21 41 47 42 30 43 46 44
REMARK SMILES IDX 31 45 34 46 45 47 61 48 32 49 33 50 44 52 62 53 35 54 22 55
REMARK SMILES IDX 23 56 28 57 24 58 25 59 27 60 29 61 26 62 48 63 49 64 54 65
REMARK SMILES IDX 50 66 51 67 53 68 55 69 52 70 36 71 37 72 42 73 38 74 39 75
REMARK SMILES IDX 41 76 43 77 40 78
REMARK H PARENT 60 40 34 51
REMARK Flexibility Score: inf
ROOT
ATOM      1  C   UNL     1      -1.027   4.993  -1.105  1.00  0.00     0.274 C 
ENDROOT
BRANCH   1   2
ATOM      2  O   UNL     1      -0.501   3.653  -0.992  1.00  0.00    -0.460 OA
BRANCH   2   3
ATOM      3  C   UNL     1       0.397   3.248  -1.942  1.00  0.00     0.334 C 
ATOM      4  O   UNL     1       0.714   3.958  -2.889  1.00  0.00    -0.249 OA
BRANCH   3   5
ATOM      5  C   UNL     1       0.795   1.748  -1.770  1.00  0.00     0.161 C 
ATOM      6  C   UNL     1       0.533   1.323  -0.305  1.00  0.00     0.050 C 
BRANCH   5   7
ATOM      7  C   UNL     1      -0.084   0.994  -2.819  1.00  0.00     0.039 C 
ATOM      8  C   UNL     1      -0.908  -0.179  -2.306  1.00  0.00     0.007 C 
ENDBRANCH   5   7
BRANCH   5   9
ATOM      9  N   UNL     1       2.226   1.539  -2.092  1.00  0.00    -0.205 N 
ATOM     10  N   UNL     1       2.978   2.531  -2.618  1.00  0.00    -0.043 NA
ATOM     11  C   UNL     1       3.022   0.417  -1.999  1.00  0.00     0.218 A 
ATOM     12  N   UNL     1       4.189   2.033  -2.792  1.00  0.00    -0.023 NA
ATOM     13  N   UNL     1       4.235   0.727  -2.409  1.00  0.00    -0.105 NA
BRANCH  11  14
ATOM     14  C   UNL     1       2.656  -0.904  -1.622  1.00  0.00     0.172 A 
ATOM     15  C   UNL     1       2.368  -1.969  -2.458  1.00  0.00     0.054 A 
ATOM     16  O   UNL     1       2.615  -1.338  -0.324  1.00  0.00    -0.461 OA
ATOM     17  C   UNL     1       2.132  -3.094  -1.634  1.00  0.00     0.043 A 
ATOM     18  C   UNL     1       2.309  -2.661  -0.343  1.00  0.00     0.196 A 
ENDBRANCH  11  14
ENDBRANCH   5   9
ENDBRANCH   3   5
ENDBRANCH   2   3
ENDBRANCH   1   2
BRANCH   1  19
ATOM     19  C   UNL     1      -0.666   5.818   0.131  1.00  0.00     0.275 C 
BRANCH  19  20
ATOM     20  O   UNL     1       0.762   5.981   0.233  1.00  0.00    -0.458 OA
BRANCH  20  21
ATOM     21  C   UNL     1       1.376   5.138   1.091  1.00  0.00     0.338 C 
ATOM     22  O   UNL     1       0.850   4.312   1.827  1.00  0.00    -0.246 OA
BRANCH  21  23
ATOM     23  C   UNL     1       2.827   5.196   0.878  1.00  0.00     0.060 A 
ATOM     24  C   UNL     1       3.413   4.099   0.250  1.00  0.00     0.016 A 
ATOM     25  C   UNL     1       3.616   6.248   1.340  1.00  0.00     0.016 A 
ATOM     26  C   UNL     1       4.787   4.041   0.059  1.00  0.00     0.010 A 
ATOM     27  C   UNL     1       5.005   6.187   1.159  1.00  0.00     0.010 A 
ATOM     28  C   UNL     1       5.597   5.080   0.520  1.00  0.00    -0.014 A 
BRANCH  28  29
ATOM     29  C   UNL     1       7.066   4.940   0.403  1.00  0.00     0.031 A 
ATOM     30  C   UNL     1       7.866   4.537   1.605  1.00  0.00     0.074 A 
ATOM     31  C   UNL     1       7.669   5.081  -0.791  1.00  0.00     0.049 A 
ATOM     32  N   UNL     1       9.163   4.426   1.741  1.00  0.00    -0.248 NA
ATOM     33  C   UNL     1       7.101   4.201   2.817  1.00  0.00     0.031 C 
ATOM     34  C   UNL     1       6.987   5.353  -2.056  1.00  0.00     0.029 A 
ATOM     35  N   UNL     1       8.995   4.996  -1.135  1.00  0.00    -0.354 N 
ATOM     36  C   UNL     1       9.371   4.030   3.054  1.00  0.00     0.074 A 
ATOM     37  C   UNL     1       8.069   3.924   3.678  1.00  0.00     0.031 C 
ATOM     38  C   UNL     1       7.901   5.408  -3.040  1.00  0.00     0.029 A 
ATOM     39  C   UNL     1       9.232   5.226  -2.468  1.00  0.00     0.049 A 
ATOM     40  H   UNL     1       9.708   4.790  -0.488  1.00  0.00     0.167 HD
ATOM     41  C   UNL     1      10.544   3.780   3.682  1.00  0.00     0.037 A 
ATOM     42  C   UNL     1      10.395   5.309  -3.142  1.00  0.00     0.037 A 
ATOM     43  C   UNL     1      11.836   3.869   3.054  1.00  0.00     0.049 A 
ATOM     44  C   UNL     1      11.690   5.126  -2.398  1.00  0.00     0.074 A 
ATOM     45  C   UNL     1      13.085   3.663   3.614  1.00  0.00     0.029 A 
ATOM     46  N   UNL     1      12.042   4.185   1.720  1.00  0.00    -0.354 N 
ATOM     47  N   UNL     1      11.885   4.815  -1.140  1.00  0.00    -0.248 NA
ATOM     48  C   UNL     1      12.928   5.325  -3.166  1.00  0.00     0.031 C 
ATOM     49  C   UNL     1      14.049   3.891   2.626  1.00  0.00     0.029 A 
ATOM     50  C   UNL     1      13.399   4.201   1.443  1.00  0.00     0.049 A 
ATOM     51  H   UNL     1      11.330   4.371   1.066  1.00  0.00     0.167 HD
ATOM     52  C   UNL     1      13.262   4.763  -0.969  1.00  0.00     0.074 A 
ATOM     53  C   UNL     1      13.855   5.062  -2.256  1.00  0.00     0.031 C 
ATOM     54  C   UNL     1      13.972   4.496   0.154  1.00  0.00     0.037 A 
BRANCH  41  55
ATOM     55  C   UNL     1      10.480   3.439   5.139  1.00  0.00     0.057 A 
ATOM     56  C   UNL     1      10.059   2.183   5.591  1.00  0.00     0.134 A 
ATOM     57  C   UNL     1      10.854   4.385   6.102  1.00  0.00     0.134 A 
ATOM     58  F   UNL     1       9.670   1.241   4.720  1.00  0.00    -0.206 F 
ATOM     59  C   UNL     1       9.995   1.886   6.954  1.00  0.00     0.040 A 
ATOM     60  C   UNL     1      10.813   4.092   7.466  1.00  0.00     0.040 A 
ATOM     61  F   UNL     1      11.266   5.607   5.733  1.00  0.00    -0.206 F 
ATOM     62  C   UNL     1      10.377   2.841   7.895  1.00  0.00     0.006 A 
ENDBRANCH  41  55
BRANCH  42  63
ATOM     63  C   UNL     1      10.394   5.623  -4.592  1.00  0.00     0.057 A 
ATOM     64  C   UNL     1      10.800   4.678  -5.541  1.00  0.00     0.134 A 
ATOM     65  C   UNL     1      10.014   6.887  -5.061  1.00  0.00     0.134 A 
ATOM     66  F   UNL     1      11.206   3.461  -5.152  1.00  0.00    -0.206 F 
ATOM     67  C   UNL     1      10.836   4.981  -6.904  1.00  0.00     0.040 A 
ATOM     68  C   UNL     1      10.023   7.195  -6.422  1.00  0.00     0.040 A 
ATOM     69  F   UNL     1       9.625   7.840  -4.202  1.00  0.00    -0.206 F 
ATOM     70  C   UNL     1      10.441   6.242  -7.348  1.00  0.00     0.006 A 
ENDBRANCH  42  63
BRANCH  54  71
ATOM     71  C   UNL     1      15.466   4.492   0.035  1.00  0.00     0.057 A 
ATOM     72  C   UNL     1      16.199   5.680  -0.072  1.00  0.00     0.134 A 
ATOM     73  C   UNL     1      16.181   3.288   0.066  1.00  0.00     0.134 A 
ATOM     74  F   UNL     1      15.571   6.864  -0.121  1.00  0.00    -0.206 F 
ATOM     75  C   UNL     1      17.592   5.670  -0.160  1.00  0.00     0.040 A 
ATOM     76  C   UNL     1      17.575   3.267   0.000  1.00  0.00     0.040 A 
ATOM     77  F   UNL     1      15.538   2.116   0.174  1.00  0.00    -0.206 F 
ATOM     78  C   UNL     1      18.284   4.460  -0.118  1.00  0.00     0.006 A 
ENDBRANCH  54  71
ENDBRANCH  28  29
ENDBRANCH  21  23
ENDBRANCH  20  21
ENDBRANCH  19  20
ENDBRANCH   1  19
TORSDOF 14
