REMARK SMILES COC(=O)c1cncc(N2CC[C@H](C(=O)OCCOC(=O)c3ccc(-c4c5nc(c(-c6c(F)cccc6F)c6ccc([nH]6)c(-c6c(F)cccc6F)c6nc(c(-c7c(F)cccc7F)c7ccc4[nH]7)C=C6)C=C5)cc3)C2)n1
REMARK SMILES IDX 17 1 16 2 14 3 15 4 13 5 10 6 11 7 76 8 12 9 9 10 5 11 6 12
REMARK SMILES IDX 77 13 7 14 8 15 3 16 4 17 2 18 1 19 18 20 19 21 20 22 21 23
REMARK SMILES IDX 22 24 23 25 75 26 24 27 74 28 25 29 26 30 27 31 68 32 28 33
REMARK SMILES IDX 73 34 67 35 69 36 29 37 72 38 66 39 65 40 30 42 56 43 39 44
REMARK SMILES IDX 55 45 40 46 43 47 54 48 70 49 41 50 42 51 53 53 71 54 44 55
REMARK SMILES IDX 31 56 32 57 37 58 33 59 34 60 36 61 38 62 35 63 57 64 58 65
REMARK SMILES IDX 63 66 59 67 60 68 62 69 64 70 61 71 45 72 46 73 51 74 47 75
REMARK SMILES IDX 48 76 50 77 52 78 49 79
REMARK H PARENT 69 41 43 52
REMARK Flexibility Score: inf
ROOT
ATOM      1  C   UNL     1       4.333  -8.654   4.946  1.00  0.00     0.274 C 
ENDROOT
BRANCH   1   2
ATOM      2  O   UNL     1       3.912  -7.304   5.220  1.00  0.00    -0.462 OA
BRANCH   2   3
ATOM      3  C   UNL     1       2.982  -7.131   6.191  1.00  0.00     0.310 C 
ATOM      4  O   UNL     1       2.405  -8.037   6.781  1.00  0.00    -0.252 OA
BRANCH   3   5
ATOM      5  C   UNL     1       2.720  -5.681   6.500  1.00  0.00     0.120 C 
ATOM      6  N   UNL     1       1.452  -3.800   5.898  1.00  0.00    -0.354 N 
ATOM      7  C   UNL     1       2.848  -3.365   6.001  1.00  0.00     0.119 C 
ATOM      8  C   UNL     1       1.350  -5.260   5.991  1.00  0.00     0.133 C 
ATOM      9  C   UNL     1       3.651  -4.652   5.871  1.00  0.00     0.038 C 
BRANCH   6  10
ATOM     10  C   UNL     1       0.638  -3.213   4.946  1.00  0.00     0.148 A 
ATOM     11  C   UNL     1       0.360  -2.203   2.893  1.00  0.00     0.169 A 
ATOM     12  C   UNL     1      -1.012  -2.154   3.079  1.00  0.00     0.147 A 
ATOM     13  N   UNL     1       1.199  -2.730   3.820  1.00  0.00    -0.221 NA
ATOM     14  N   UNL     1      -1.606  -2.634   4.197  1.00  0.00    -0.258 NA
ATOM     15  C   UNL     1      -0.750  -3.162   5.111  1.00  0.00     0.157 A 
BRANCH  11  16
ATOM     16  C   UNL     1       0.991  -1.732   1.637  1.00  0.00     0.358 C 
ATOM     17  O   UNL     1       2.002  -2.209   1.147  1.00  0.00    -0.244 OA
BRANCH  16  18
ATOM     18  O   UNL     1       0.294  -0.673   1.147  1.00  0.00    -0.464 OA
ATOM     19  C   UNL     1       0.895  -0.073  -0.002  1.00  0.00     0.282 C 
ENDBRANCH  16  18
ENDBRANCH  11  16
ENDBRANCH   6  10
ENDBRANCH   3   5
ENDBRANCH   2   3
ENDBRANCH   1   2
BRANCH   1  20
ATOM     20  C   UNL     1       5.748  -8.894   5.476  1.00  0.00     0.275 C 
BRANCH  20  21
ATOM     21  O   UNL     1       5.784  -8.867   6.917  1.00  0.00    -0.458 OA
BRANCH  21  22
ATOM     22  C   UNL     1       6.051  -7.656   7.460  1.00  0.00     0.338 C 
ATOM     23  O   UNL     1       6.294  -6.616   6.874  1.00  0.00    -0.246 OA
BRANCH  22  24
ATOM     24  C   UNL     1       5.867  -7.715   8.917  1.00  0.00     0.060 A 
ATOM     25  C   UNL     1       4.868  -6.917   9.477  1.00  0.00     0.016 A 
ATOM     26  C   UNL     1       6.715  -8.464   9.732  1.00  0.00     0.016 A 
ATOM     27  C   UNL     1       4.708  -6.855  10.856  1.00  0.00     0.010 A 
ATOM     28  C   UNL     1       6.558  -8.402  11.121  1.00  0.00     0.010 A 
ATOM     29  C   UNL     1       5.561  -7.588  11.689  1.00  0.00    -0.014 A 
BRANCH  29  30
ATOM     30  C   UNL     1       5.435  -7.446  13.157  1.00  0.00     0.031 A 
ATOM     31  C   UNL     1       6.434  -6.623  13.915  1.00  0.00     0.074 A 
ATOM     32  C   UNL     1       4.400  -8.017  13.798  1.00  0.00     0.049 A 
ATOM     33  N   UNL     1       6.538  -6.430  15.205  1.00  0.00    -0.248 NA
ATOM     34  C   UNL     1       7.452  -5.923  13.116  1.00  0.00     0.031 C 
ATOM     35  C   UNL     1       3.334  -8.791  13.160  1.00  0.00     0.029 A 
ATOM     36  N   UNL     1       4.074  -8.031  15.130  1.00  0.00    -0.354 N 
ATOM     37  C   UNL     1       7.641  -5.605  15.375  1.00  0.00     0.074 A 
ATOM     38  C   UNL     1       8.181  -5.341  14.058  1.00  0.00     0.031 C 
ATOM     39  C   UNL     1       2.470  -9.202  14.101  1.00  0.00     0.029 A 
ATOM     40  C   UNL     1       2.944  -8.758  15.409  1.00  0.00     0.049 A 
ATOM     41  H   UNL     1       4.599  -7.564  15.819  1.00  0.00     0.167 HD
ATOM     42  C   UNL     1       8.155  -5.112  16.527  1.00  0.00     0.037 A 
ATOM     43  C   UNL     1       2.372  -9.055  16.591  1.00  0.00     0.037 A 
ATOM     44  C   UNL     1       7.606  -5.362  17.833  1.00  0.00     0.049 A 
ATOM     45  C   UNL     1       2.994  -8.541  17.859  1.00  0.00     0.074 A 
ATOM     46  C   UNL     1       8.055  -4.906  19.061  1.00  0.00     0.029 A 
ATOM     47  N   UNL     1       6.481  -6.134  18.080  1.00  0.00    -0.354 N 
ATOM     48  N   UNL     1       4.051  -7.782  18.011  1.00  0.00    -0.248 NA
ATOM     49  C   UNL     1       2.348  -8.933  19.119  1.00  0.00     0.031 C 
ATOM     50  C   UNL     1       7.218  -5.429  20.054  1.00  0.00     0.029 A 
ATOM     51  C   UNL     1       6.229  -6.181  19.441  1.00  0.00     0.049 A 
ATOM     52  H   UNL     1       5.941  -6.583  17.390  1.00  0.00     0.167 HD
ATOM     53  C   UNL     1       4.190  -7.592  19.379  1.00  0.00     0.074 A 
ATOM     54  C   UNL     1       3.099  -8.304  20.013  1.00  0.00     0.031 C 
ATOM     55  C   UNL     1       5.136  -6.893  20.051  1.00  0.00     0.037 A 
BRANCH  42  56
ATOM     56  C   UNL     1       9.395  -4.276  16.424  1.00  0.00     0.057 A 
ATOM     57  C   UNL     1       9.361  -2.956  15.956  1.00  0.00     0.134 A 
ATOM     58  C   UNL     1      10.634  -4.792  16.821  1.00  0.00     0.134 A 
ATOM     59  F   UNL     1       8.207  -2.410  15.545  1.00  0.00    -0.206 F 
ATOM     60  C   UNL     1      10.521  -2.184  15.871  1.00  0.00     0.040 A 
ATOM     61  C   UNL     1      11.798  -4.023  16.759  1.00  0.00     0.040 A 
ATOM     62  F   UNL     1      10.734  -6.049  17.279  1.00  0.00    -0.206 F 
ATOM     63  C   UNL     1      11.743  -2.716  16.279  1.00  0.00     0.006 A 
ENDBRANCH  42  56
BRANCH  43  64
ATOM     64  C   UNL     1       1.156  -9.902  16.631  1.00  0.00     0.057 A 
ATOM     65  C   UNL     1      -0.090  -9.366  16.974  1.00  0.00     0.134 A 
ATOM     66  C   UNL     1       1.212 -11.269  16.330  1.00  0.00     0.134 A 
ATOM     67  F   UNL     1      -0.201  -8.068  17.294  1.00  0.00    -0.206 F 
ATOM     68  C   UNL     1      -1.237 -10.160  17.025  1.00  0.00     0.040 A 
ATOM     69  C   UNL     1       0.070 -12.069  16.356  1.00  0.00     0.040 A 
ATOM     70  F   UNL     1       2.377 -11.841  15.995  1.00  0.00    -0.206 F 
ATOM     71  C   UNL     1      -1.159 -11.515  16.709  1.00  0.00     0.006 A 
ENDBRANCH  43  64
BRANCH  55  72
ATOM     72  C   UNL     1       5.016  -6.846  21.544  1.00  0.00     0.057 A 
ATOM     73  C   UNL     1       5.362  -7.943  22.343  1.00  0.00     0.134 A 
ATOM     74  C   UNL     1       4.580  -5.683  22.189  1.00  0.00     0.134 A 
ATOM     75  F   UNL     1       5.773  -9.090  21.783  1.00  0.00    -0.206 F 
ATOM     76  C   UNL     1       5.260  -7.889  23.734  1.00  0.00     0.040 A 
ATOM     77  C   UNL     1       4.493  -5.610  23.579  1.00  0.00     0.040 A 
ATOM     78  F   UNL     1       4.240  -4.597  21.478  1.00  0.00    -0.206 F 
ATOM     79  C   UNL     1       4.830  -6.717  24.356  1.00  0.00     0.006 A 
ENDBRANCH  55  72
ENDBRANCH  29  30
ENDBRANCH  22  24
ENDBRANCH  21  22
ENDBRANCH  20  21
ENDBRANCH   1  20
TORSDOF 14
