REMARK SMILES Cc1cccc(-c2cc(C(=O)OCCOC(=O)c3ccc(-c4c5nc(c(-c6c(F)cccc6F)c6ccc([nH]6)c(-c6c(F)cccc6F)c6nc(c(-c7c(F)cccc7F)c7ccc4[nH]7)C=C6)C=C5)cc3)ccn2)c1
REMARK SMILES IDX 14 1 13 2 12 3 10 4 11 5 9 6 7 7 8 8 74 9 73 10 72 11 6 12
REMARK SMILES IDX 1 13 2 14 3 15 75 16 4 17 5 18 15 19 16 20 17 21 18 22 19 23
REMARK SMILES IDX 71 24 20 25 70 26 21 27 22 28 23 29 64 30 24 31 69 32 63 33
REMARK SMILES IDX 65 34 25 35 68 36 62 37 61 38 26 40 52 41 35 42 51 43 36 44
REMARK SMILES IDX 39 45 50 46 66 47 37 48 38 49 49 51 67 52 40 53 27 54 28 55
REMARK SMILES IDX 33 56 29 57 30 58 32 59 34 60 31 61 53 62 54 63 59 64 55 65
REMARK SMILES IDX 56 66 58 67 60 68 57 69 41 70 42 71 47 72 43 73 44 74 46 75
REMARK SMILES IDX 48 76 45 77
REMARK H PARENT 65 39 39 50
REMARK Flexibility Score: inf
ROOT
ATOM      1  C   UNL     1      -3.023   5.485  -5.606  1.00  0.00     0.275 C 
ENDROOT
BRANCH   1   2
ATOM      2  C   UNL     1      -1.789   4.841  -4.928  1.00  0.00     0.275 C 
BRANCH   2   3
ATOM      3  O   UNL     1      -1.867   4.321  -3.594  1.00  0.00    -0.458 OA
BRANCH   3   4
ATOM      4  C   UNL     1      -2.963   3.648  -3.216  1.00  0.00     0.338 C 
ATOM      5  O   UNL     1      -3.976   3.451  -3.882  1.00  0.00    -0.246 OA
BRANCH   4   6
ATOM      6  C   UNL     1      -2.803   3.218  -1.822  1.00  0.00     0.063 A 
ATOM      7  C   UNL     1      -1.700   1.881  -0.196  1.00  0.00     0.071 A 
ATOM      8  C   UNL     1      -1.714   2.429  -1.471  1.00  0.00     0.044 A 
ATOM      9  N   UNL     1      -2.628   2.187   0.744  1.00  0.00    -0.256 NA
ATOM     10  C   UNL     1      -3.638   3.009   0.387  1.00  0.00     0.112 A 
ATOM     11  C   UNL     1      -3.798   3.502  -0.891  1.00  0.00     0.036 A 
BRANCH   7  12
ATOM     12  C   UNL     1      -0.857   0.714   0.071  1.00  0.00     0.000 A 
ATOM     13  C   UNL     1       2.812  -0.332   0.083  1.00  0.00     0.044 C 
ATOM     14  C   UNL     1       1.315  -0.391   0.125  1.00  0.00    -0.050 A 
ATOM     15  C   UNL     1       0.672  -1.636   0.159  1.00  0.00     0.003 A 
ATOM     16  C   UNL     1       0.544   0.781   0.084  1.00  0.00     0.013 A 
ATOM     17  C   UNL     1      -0.717  -1.715   0.185  1.00  0.00     0.001 A 
ATOM     18  C   UNL     1      -1.474  -0.547   0.151  1.00  0.00     0.010 A 
ENDBRANCH   7  12
ENDBRANCH   4   6
ENDBRANCH   3   4
ENDBRANCH   2   3
ENDBRANCH   1   2
BRANCH   1  19
ATOM     19  O   UNL     1      -4.018   6.354  -4.974  1.00  0.00    -0.458 OA
BRANCH  19  20
ATOM     20  C   UNL     1      -4.227   6.658  -3.676  1.00  0.00     0.338 C 
ATOM     21  O   UNL     1      -5.333   6.772  -3.167  1.00  0.00    -0.246 OA
BRANCH  20  22
ATOM     22  C   UNL     1      -3.023   6.957  -2.910  1.00  0.00     0.060 A 
ATOM     23  C   UNL     1      -2.965   6.631  -1.546  1.00  0.00     0.016 A 
ATOM     24  C   UNL     1      -1.933   7.476  -3.596  1.00  0.00     0.016 A 
ATOM     25  C   UNL     1      -1.758   6.722  -0.876  1.00  0.00     0.010 A 
ATOM     26  C   UNL     1      -0.714   7.422  -2.990  1.00  0.00     0.010 A 
ATOM     27  C   UNL     1      -0.653   7.117  -1.621  1.00  0.00    -0.014 A 
BRANCH  27  28
ATOM     28  C   UNL     1       0.542   7.660  -1.019  1.00  0.00     0.031 A 
ATOM     29  C   UNL     1       1.671   6.793  -0.691  1.00  0.00     0.074 A 
ATOM     30  C   UNL     1       0.506   9.011  -1.078  1.00  0.00     0.049 A 
ATOM     31  N   UNL     1       2.577   7.096   0.164  1.00  0.00    -0.248 NA
ATOM     32  C   UNL     1       1.857   5.462  -1.270  1.00  0.00     0.031 C 
ATOM     33  C   UNL     1       1.540  10.020  -1.019  1.00  0.00     0.029 A 
ATOM     34  N   UNL     1      -0.681   9.759  -1.159  1.00  0.00    -0.354 N 
ATOM     35  C   UNL     1       3.628   6.227  -0.041  1.00  0.00     0.074 A 
ATOM     36  C   UNL     1       3.075   5.139  -0.810  1.00  0.00     0.031 C 
ATOM     37  C   UNL     1       0.956  11.209  -0.754  1.00  0.00     0.029 A 
ATOM     38  C   UNL     1      -0.464  10.966  -0.505  1.00  0.00     0.049 A 
ATOM     39  H   UNL     1      -1.516   9.479  -1.600  1.00  0.00     0.167 HD
ATOM     40  C   UNL     1       4.886   6.657   0.274  1.00  0.00     0.037 A 
ATOM     41  C   UNL     1      -1.118  11.135   0.684  1.00  0.00     0.037 A 
ATOM     42  C   UNL     1       4.809   8.038   0.755  1.00  0.00     0.049 A 
ATOM     43  C   UNL     1      -0.128  11.053   1.822  1.00  0.00     0.074 A 
ATOM     44  C   UNL     1       4.923   9.240   0.073  1.00  0.00     0.029 A 
ATOM     45  N   UNL     1       4.150   8.320   1.946  1.00  0.00    -0.354 N 
ATOM     46  N   UNL     1       0.971  10.345   1.792  1.00  0.00    -0.248 NA
ATOM     47  C   UNL     1      -0.260  11.847   3.037  1.00  0.00     0.031 C 
ATOM     48  C   UNL     1       4.239  10.232   0.824  1.00  0.00     0.029 A 
ATOM     49  C   UNL     1       3.710   9.633   1.955  1.00  0.00     0.049 A 
ATOM     50  H   UNL     1       4.015   7.678   2.680  1.00  0.00     0.167 HD
ATOM     51  C   UNL     1       1.726  10.644   2.892  1.00  0.00     0.074 A 
ATOM     52  C   UNL     1       0.901  11.568   3.654  1.00  0.00     0.031 C 
ATOM     53  C   UNL     1       2.985  10.157   3.100  1.00  0.00     0.037 A 
BRANCH  40  54
ATOM     54  C   UNL     1       6.179   6.009  -0.172  1.00  0.00     0.057 A 
ATOM     55  C   UNL     1       7.345   6.786  -0.347  1.00  0.00     0.134 A 
ATOM     56  C   UNL     1       6.351   4.641  -0.445  1.00  0.00     0.134 A 
ATOM     57  F   UNL     1       7.373   8.094  -0.062  1.00  0.00    -0.206 F 
ATOM     58  C   UNL     1       8.555   6.263  -0.824  1.00  0.00     0.040 A 
ATOM     59  C   UNL     1       7.550   4.109  -0.952  1.00  0.00     0.040 A 
ATOM     60  F   UNL     1       5.387   3.748  -0.190  1.00  0.00    -0.206 F 
ATOM     61  C   UNL     1       8.656   4.922  -1.150  1.00  0.00     0.006 A 
ENDBRANCH  40  54
BRANCH  41  62
ATOM     62  C   UNL     1      -2.517  10.577   0.678  1.00  0.00     0.057 A 
ATOM     63  C   UNL     1      -3.410  11.010  -0.329  1.00  0.00     0.134 A 
ATOM     64  C   UNL     1      -2.910   9.444   1.398  1.00  0.00     0.134 A 
ATOM     65  F   UNL     1      -3.119  12.096  -1.064  1.00  0.00    -0.206 F 
ATOM     66  C   UNL     1      -4.561  10.294  -0.681  1.00  0.00     0.040 A 
ATOM     67  C   UNL     1      -4.079   8.732   1.072  1.00  0.00     0.040 A 
ATOM     68  F   UNL     1      -2.137   8.950   2.374  1.00  0.00    -0.206 F 
ATOM     69  C   UNL     1      -4.887   9.133   0.007  1.00  0.00     0.006 A 
ENDBRANCH  41  62
BRANCH  53  70
ATOM     70  C   UNL     1       3.701  10.207   4.418  1.00  0.00     0.057 A 
ATOM     71  C   UNL     1       3.040  10.142   5.651  1.00  0.00     0.134 A 
ATOM     72  C   UNL     1       5.110  10.124   4.475  1.00  0.00     0.134 A 
ATOM     73  F   UNL     1       1.702  10.092   5.728  1.00  0.00    -0.206 F 
ATOM     74  C   UNL     1       3.731  10.064   6.862  1.00  0.00     0.040 A 
ATOM     75  C   UNL     1       5.806   9.972   5.673  1.00  0.00     0.040 A 
ATOM     76  F   UNL     1       5.868  10.147   3.368  1.00  0.00    -0.206 F 
ATOM     77  C   UNL     1       5.116   9.962   6.875  1.00  0.00     0.006 A 
ENDBRANCH  53  70
ENDBRANCH  27  28
ENDBRANCH  20  22
ENDBRANCH  19  20
ENDBRANCH   1  19
TORSDOF 12
