REMARK SMILES Cc1c(CC(=O)OCCOC(=O)c2ccc(-c3c4nc(c(-c5c(F)cccc5F)c5ccc([nH]5)c(-c5c(F)cccc5F)c5nc(c(-c6c(F)cccc6F)c6ccc3[nH]6)C=C5)C=C4)cc2)c(=O)oc2cc(OCc3c(F)cccc3Cl)ccc12
REMARK SMILES IDX 8 1 7 2 5 3 6 4 4 5 3 6 1 7 2 8 85 9 67 10 70 11 84 12 68 13
REMARK SMILES IDX 69 14 71 15 83 16 72 17 73 18 74 19 75 20 76 21 81 22 77 23
REMARK SMILES IDX 78 24 80 25 82 26 79 27 9 28 10 29 11 30 12 31 13 32 14 33
REMARK SMILES IDX 66 34 15 35 65 36 16 37 17 38 18 39 59 40 19 41 64 42 58 43
REMARK SMILES IDX 60 44 20 45 63 46 57 47 56 48 21 50 47 51 30 52 46 53 31 54
REMARK SMILES IDX 34 55 45 56 61 57 32 58 33 59 44 61 62 62 35 63 22 64 23 65
REMARK SMILES IDX 28 66 24 67 25 68 27 69 29 70 26 71 48 72 49 73 54 74 50 75
REMARK SMILES IDX 51 76 53 77 55 78 52 79 36 80 37 81 42 82 38 83 39 84 41 85
REMARK SMILES IDX 43 86 40 87
REMARK H PARENT 60 49 34 60
REMARK Flexibility Score: inf
ROOT
ATOM      1  C   UNL     1      -3.006  -2.521  -3.407  1.00  0.00     0.274 C 
ENDROOT
BRANCH   1   2
ATOM      2  O   UNL     1      -2.660  -1.845  -2.180  1.00  0.00    -0.462 OA
BRANCH   2   3
ATOM      3  C   UNL     1      -3.526  -2.022  -1.147  1.00  0.00     0.310 C 
ATOM      4  O   UNL     1      -4.554  -2.691  -1.207  1.00  0.00    -0.252 OA
BRANCH   3   5
ATOM      5  C   UNL     1      -3.089  -1.371   0.155  1.00  0.00     0.166 C 
BRANCH   5   6
ATOM      6  C   UNL     1      -1.768  -0.645   0.133  1.00  0.00     0.052 A 
ATOM      7  C   UNL     1      -0.357  -2.498   1.135  1.00  0.00     0.046 C 
ATOM      8  C   UNL     1      -0.578  -1.131   0.549  1.00  0.00    -0.029 A 
ATOM      9  C   UNL     1       0.607  -0.264   0.442  1.00  0.00     0.021 A 
ATOM     10  C   UNL     1      -1.895   0.756  -0.353  1.00  0.00     0.340 A 
ATOM     11  C   UNL     1       0.417   1.095   0.215  1.00  0.00     0.142 A 
ATOM     12  C   UNL     1       1.924  -0.721   0.556  1.00  0.00     0.016 A 
ATOM     13  O   UNL     1      -2.916   1.155  -0.904  1.00  0.00    -0.246 OA
ATOM     14  O   UNL     1      -0.857   1.618  -0.050  1.00  0.00    -0.422 OA
ATOM     15  C   UNL     1       1.476   2.001   0.143  1.00  0.00     0.094 A 
ATOM     16  C   UNL     1       2.997   0.164   0.408  1.00  0.00     0.047 A 
ATOM     17  C   UNL     1       2.779   1.523   0.176  1.00  0.00     0.123 A 
BRANCH  17  18
ATOM     18  O   UNL     1       3.911   2.235  -0.104  1.00  0.00    -0.489 OA
BRANCH  18  19
ATOM     19  C   UNL     1       3.819   3.609  -0.493  1.00  0.00     0.270 C 
BRANCH  19  20
ATOM     20  C   UNL     1       2.997   3.976  -1.713  1.00  0.00     0.044 A 
ATOM     21  C   UNL     1       2.392   5.243  -1.705  1.00  0.00     0.131 A 
ATOM     22  C   UNL     1       2.785   3.170  -2.840  1.00  0.00     0.050 A 
ATOM     23  F   UNL     1       2.617   6.078  -0.679  1.00  0.00    -0.207 F 
ATOM     24  C   UNL     1       1.543   5.671  -2.721  1.00  0.00     0.040 A 
ATOM     25  C   UNL     1       1.904   3.582  -3.852  1.00  0.00     0.021 A 
ATOM     26  Cl  UNL     1       3.583   1.659  -3.082  1.00  0.00    -0.084 Cl
ATOM     27  C   UNL     1       1.276   4.825  -3.790  1.00  0.00     0.005 A 
ENDBRANCH  19  20
ENDBRANCH  18  19
ENDBRANCH  17  18
ENDBRANCH   5   6
ENDBRANCH   3   5
ENDBRANCH   2   3
ENDBRANCH   1   2
BRANCH   1  28
ATOM     28  C   UNL     1      -2.142  -3.766  -3.593  1.00  0.00     0.275 C 
BRANCH  28  29
ATOM     29  O   UNL     1      -2.239  -4.598  -2.424  1.00  0.00    -0.458 OA
BRANCH  29  30
ATOM     30  C   UNL     1      -1.064  -4.995  -1.890  1.00  0.00     0.338 C 
ATOM     31  O   UNL     1       0.058  -4.796  -2.340  1.00  0.00    -0.246 OA
BRANCH  30  32
ATOM     32  C   UNL     1      -1.289  -5.724  -0.628  1.00  0.00     0.060 A 
ATOM     33  C   UNL     1      -2.248  -5.298   0.295  1.00  0.00     0.016 A 
ATOM     34  C   UNL     1      -0.442  -6.788  -0.309  1.00  0.00     0.016 A 
ATOM     35  C   UNL     1      -2.300  -5.879   1.564  1.00  0.00     0.010 A 
ATOM     36  C   UNL     1      -0.561  -7.429   0.926  1.00  0.00     0.010 A 
ATOM     37  C   UNL     1      -1.470  -6.963   1.890  1.00  0.00    -0.014 A 
BRANCH  37  38
ATOM     38  C   UNL     1      -1.547  -7.623   3.222  1.00  0.00     0.031 A 
ATOM     39  C   UNL     1      -0.334  -7.700   4.112  1.00  0.00     0.074 A 
ATOM     40  C   UNL     1      -2.698  -8.196   3.625  1.00  0.00     0.049 A 
ATOM     41  N   UNL     1      -0.149  -8.405   5.201  1.00  0.00    -0.248 NA
ATOM     42  C   UNL     1       0.830  -6.888   3.721  1.00  0.00     0.031 C 
ATOM     43  C   UNL     1      -3.959  -8.185   2.881  1.00  0.00     0.029 A 
ATOM     44  N   UNL     1      -2.991  -8.910   4.761  1.00  0.00    -0.354 N 
ATOM     45  C   UNL     1       1.162  -8.164   5.594  1.00  0.00     0.074 A 
ATOM     46  C   UNL     1       1.728  -7.245   4.629  1.00  0.00     0.031 C 
ATOM     47  C   UNL     1      -4.893  -8.836   3.589  1.00  0.00     0.029 A 
ATOM     48  C   UNL     1      -4.281  -9.379   4.796  1.00  0.00     0.049 A 
ATOM     49  H   UNL     1      -2.338  -9.070   5.481  1.00  0.00     0.167 HD
ATOM     50  C   UNL     1       1.832  -8.667   6.659  1.00  0.00     0.037 A 
ATOM     51  C   UNL     1      -4.897 -10.191   5.674  1.00  0.00     0.037 A 
ATOM     52  C   UNL     1       1.258  -9.541   7.649  1.00  0.00     0.049 A 
ATOM     53  C   UNL     1      -4.130 -10.748   6.835  1.00  0.00     0.074 A 
ATOM     54  C   UNL     1       1.855 -10.075   8.779  1.00  0.00     0.029 A 
ATOM     55  N   UNL     1      -0.050  -9.998   7.635  1.00  0.00    -0.354 N 
ATOM     56  N   UNL     1      -2.879 -10.550   7.167  1.00  0.00    -0.248 NA
ATOM     57  C   UNL     1      -4.856 -11.661   7.730  1.00  0.00     0.031 C 
ATOM     58  C   UNL     1       0.914 -10.875   9.437  1.00  0.00     0.029 A 
ATOM     59  C   UNL     1      -0.276 -10.815   8.732  1.00  0.00     0.049 A 
ATOM     60  H   UNL     1      -0.719  -9.776   6.948  1.00  0.00     0.167 HD
ATOM     61  C   UNL     1      -2.667 -11.307   8.310  1.00  0.00     0.074 A 
ATOM     62  C   UNL     1      -3.923 -11.955   8.625  1.00  0.00     0.031 C 
ATOM     63  C   UNL     1      -1.529 -11.456   9.030  1.00  0.00     0.037 A 
BRANCH  50  64
ATOM     64  C   UNL     1       3.279  -8.302   6.804  1.00  0.00     0.057 A 
ATOM     65  C   UNL     1       3.684  -7.047   7.273  1.00  0.00     0.134 A 
ATOM     66  C   UNL     1       4.279  -9.244   6.524  1.00  0.00     0.134 A 
ATOM     67  F   UNL     1       2.776  -6.099   7.547  1.00  0.00    -0.206 F 
ATOM     68  C   UNL     1       5.034  -6.737   7.448  1.00  0.00     0.040 A 
ATOM     69  C   UNL     1       5.630  -8.951   6.713  1.00  0.00     0.040 A 
ATOM     70  F   UNL     1       3.956 -10.466   6.077  1.00  0.00    -0.206 F 
ATOM     71  C   UNL     1       6.011  -7.693   7.175  1.00  0.00     0.006 A 
ENDBRANCH  50  64
BRANCH  51  72
ATOM     72  C   UNL     1      -6.318 -10.555   5.458  1.00  0.00     0.057 A 
ATOM     73  C   UNL     1      -7.327 -10.020   6.263  1.00  0.00     0.134 A 
ATOM     74  C   UNL     1      -6.699 -11.426   4.429  1.00  0.00     0.134 A 
ATOM     75  F   UNL     1      -7.018  -9.197   7.276  1.00  0.00    -0.206 F 
ATOM     76  C   UNL     1      -8.670 -10.337   6.054  1.00  0.00     0.040 A 
ATOM     77  C   UNL     1      -8.038 -11.735   4.196  1.00  0.00     0.040 A 
ATOM     78  F   UNL     1      -5.774 -11.967   3.623  1.00  0.00    -0.206 F 
ATOM     79  C   UNL     1      -9.028 -11.191   5.012  1.00  0.00     0.006 A 
ENDBRANCH  51  72
BRANCH  63  80
ATOM     80  C   UNL     1      -1.602 -12.340  10.236  1.00  0.00     0.057 A 
ATOM     81  C   UNL     1      -1.600 -13.736  10.122  1.00  0.00     0.134 A 
ATOM     82  C   UNL     1      -1.658 -11.792  11.523  1.00  0.00     0.134 A 
ATOM     83  F   UNL     1      -1.563 -14.319   8.914  1.00  0.00    -0.206 F 
ATOM     84  C   UNL     1      -1.668 -14.557  11.248  1.00  0.00     0.040 A 
ATOM     85  C   UNL     1      -1.710 -12.603  12.657  1.00  0.00     0.040 A 
ATOM     86  F   UNL     1      -1.660 -10.462  11.697  1.00  0.00    -0.206 F 
ATOM     87  C   UNL     1      -1.720 -13.990  12.521  1.00  0.00     0.006 A 
ENDBRANCH  63  80
ENDBRANCH  37  38
ENDBRANCH  30  32
ENDBRANCH  29  30
ENDBRANCH  28  29
ENDBRANCH   1  28
TORSDOF 15
