REMARK SMILES [NH3+][C@H](c1cc(F)c(F)cc1C(=O)OCCOC(=O)c1ccc(-c2c3nc(c(-c4c(F)cccc4F)c4ccc([nH]4)c(-c4c(F)cccc4F)c4nc(c(-c5c(F)cccc5F)c5ccc2[nH]5)C=C4)C=C3)cc1)C(F)(F)F
REMARK SMILES IDX 14 1 13 2 11 3 12 4 10 5 3 6 4 7 5 8 9 9 6 10 7 11 8 12 2 13
REMARK SMILES IDX 1 14 73 18 74 19 75 20 76 21 15 22 16 23 17 24 18 25 19 26
REMARK SMILES IDX 20 27 72 28 21 29 71 30 22 31 23 32 24 33 65 34 25 35 70 36
REMARK SMILES IDX 64 37 66 38 26 39 69 40 63 41 62 42 27 44 53 45 36 46 52 47
REMARK SMILES IDX 37 48 40 49 51 50 67 51 38 52 39 53 50 55 68 56 41 57 28 58
REMARK SMILES IDX 29 59 34 60 30 61 31 62 33 63 35 64 32 65 54 66 55 67 60 68
REMARK SMILES IDX 56 69 57 70 59 71 61 72 58 73 42 74 43 75 48 76 44 77 45 78
REMARK SMILES IDX 47 79 49 80 46 81
REMARK H PARENT 1 15 1 16 1 17 66 43 40 54
REMARK Flexibility Score: inf
ROOT
ATOM      1  C   UNL     1       1.557   1.271   3.784  1.00  0.00     0.275 C 
ENDROOT
BRANCH   1   2
ATOM      2  O   UNL     1       1.311   0.680   2.489  1.00  0.00    -0.458 OA
BRANCH   2   3
ATOM      3  C   UNL     1       2.393   0.348   1.743  1.00  0.00     0.338 C 
ATOM      4  O   UNL     1       3.560   0.427   2.073  1.00  0.00    -0.246 OA
BRANCH   3   5
ATOM      5  C   UNL     1       1.965  -0.231   0.439  1.00  0.00     0.072 A 
ATOM      6  C   UNL     1       0.995   0.357  -0.401  1.00  0.00     0.036 A 
ATOM      7  C   UNL     1       0.677  -0.301  -1.614  1.00  0.00     0.053 A 
ATOM      8  C   UNL     1       1.307  -1.489  -1.977  1.00  0.00     0.159 A 
ATOM      9  C   UNL     1       2.627  -1.401   0.024  1.00  0.00     0.058 A 
ATOM     10  F   UNL     1       0.986  -2.078  -3.136  1.00  0.00    -0.204 F 
ATOM     11  C   UNL     1       2.279  -2.034  -1.161  1.00  0.00     0.159 A 
ATOM     12  F   UNL     1       2.906  -3.165  -1.510  1.00  0.00    -0.204 F 
BRANCH   6  13
ATOM     13  C   UNL     1       0.331   1.696  -0.087  1.00  0.00     0.319 C 
BRANCH  13  14
ATOM     14  N   UNL     1       0.769   2.704  -1.091  1.00  0.00    -0.344 N 
ATOM     15  H   UNL     1       0.328   3.601  -0.887  1.00  0.00     0.345 HD
ATOM     16  H   UNL     1       0.496   2.396  -2.025  1.00  0.00     0.345 HD
ATOM     17  H   UNL     1       1.783   2.807  -1.050  1.00  0.00     0.345 HD
ENDBRANCH  13  14
BRANCH  13  18
ATOM     18  C   UNL     1      -1.210   1.531   0.122  1.00  0.00     0.445 C 
ATOM     19  F   UNL     1      -1.489   0.547   1.006  1.00  0.00    -0.165 F 
ATOM     20  F   UNL     1      -1.764   2.668   0.601  1.00  0.00    -0.165 F 
ATOM     21  F   UNL     1      -1.838   1.229  -1.040  1.00  0.00    -0.165 F 
ENDBRANCH  13  18
ENDBRANCH   6  13
ENDBRANCH   3   5
ENDBRANCH   2   3
ENDBRANCH   1   2
BRANCH   1  22
ATOM     22  C   UNL     1       1.049   0.370   4.911  1.00  0.00     0.275 C 
BRANCH  22  23
ATOM     23  O   UNL     1       1.876  -0.799   5.031  1.00  0.00    -0.458 OA
BRANCH  23  24
ATOM     24  C   UNL     1       1.457  -1.853   4.299  1.00  0.00     0.338 C 
ATOM     25  O   UNL     1       0.451  -1.941   3.614  1.00  0.00    -0.246 OA
BRANCH  24  26
ATOM     26  C   UNL     1       2.489  -2.889   4.302  1.00  0.00     0.060 A 
ATOM     27  C   UNL     1       3.398  -2.883   3.250  1.00  0.00     0.016 A 
ATOM     28  C   UNL     1       2.464  -3.938   5.212  1.00  0.00     0.016 A 
ATOM     29  C   UNL     1       4.206  -3.984   3.014  1.00  0.00     0.010 A 
ATOM     30  C   UNL     1       3.364  -4.994   5.044  1.00  0.00     0.010 A 
ATOM     31  C   UNL     1       4.217  -5.047   3.922  1.00  0.00    -0.014 A 
BRANCH  31  32
ATOM     32  C   UNL     1       5.101  -6.221   3.702  1.00  0.00     0.031 A 
ATOM     33  C   UNL     1       4.505  -7.600   3.633  1.00  0.00     0.074 A 
ATOM     34  C   UNL     1       6.434  -6.056   3.592  1.00  0.00     0.049 A 
ATOM     35  N   UNL     1       5.096  -8.764   3.714  1.00  0.00    -0.248 NA
ATOM     36  C   UNL     1       3.043  -7.679   3.476  1.00  0.00     0.031 C 
ATOM     37  C   UNL     1       7.135  -4.770   3.576  1.00  0.00     0.029 A 
ATOM     38  N   UNL     1       7.443  -6.981   3.490  1.00  0.00    -0.354 N 
ATOM     39  C   UNL     1       4.078  -9.709   3.679  1.00  0.00     0.074 A 
ATOM     40  C   UNL     1       2.830  -8.983   3.579  1.00  0.00     0.031 C 
ATOM     41  C   UNL     1       8.453  -4.985   3.458  1.00  0.00     0.029 A 
ATOM     42  C   UNL     1       8.698  -6.420   3.496  1.00  0.00     0.049 A 
ATOM     43  H   UNL     1       7.284  -7.950   3.419  1.00  0.00     0.167 HD
ATOM     44  C   UNL     1       4.182 -11.058   3.732  1.00  0.00     0.037 A 
ATOM     45  C   UNL     1       9.912  -6.992   3.590  1.00  0.00     0.037 A 
ATOM     46  C   UNL     1       5.437 -11.762   3.791  1.00  0.00     0.049 A 
ATOM     47  C   UNL     1      10.001  -8.485   3.712  1.00  0.00     0.074 A 
ATOM     48  C   UNL     1       5.661 -13.127   3.834  1.00  0.00     0.029 A 
ATOM     49  N   UNL     1       6.684 -11.152   3.807  1.00  0.00    -0.354 N 
ATOM     50  N   UNL     1       9.035  -9.371   3.729  1.00  0.00    -0.248 NA
ATOM     51  C   UNL     1      11.347  -9.059   3.842  1.00  0.00     0.031 C 
ATOM     52  C   UNL     1       7.040 -13.341   3.927  1.00  0.00     0.029 A 
ATOM     53  C   UNL     1       7.679 -12.112   3.877  1.00  0.00     0.049 A 
ATOM     54  H   UNL     1       6.838 -10.180   3.772  1.00  0.00     0.167 HD
ATOM     55  C   UNL     1       9.655 -10.608   3.835  1.00  0.00     0.074 A 
ATOM     56  C   UNL     1      11.082 -10.357   3.874  1.00  0.00     0.031 C 
ATOM     57  C   UNL     1       9.095 -11.841   3.892  1.00  0.00     0.037 A 
BRANCH  44  58
ATOM     58  C   UNL     1       2.910 -11.858   3.772  1.00  0.00     0.057 A 
ATOM     59  C   UNL     1       2.054 -11.964   2.669  1.00  0.00     0.134 A 
ATOM     60  C   UNL     1       2.554 -12.562   4.932  1.00  0.00     0.134 A 
ATOM     61  F   UNL     1       2.326 -11.307   1.531  1.00  0.00    -0.206 F 
ATOM     62  C   UNL     1       0.877 -12.716   2.726  1.00  0.00     0.040 A 
ATOM     63  C   UNL     1       1.397 -13.342   4.990  1.00  0.00     0.040 A 
ATOM     64  F   UNL     1       3.330 -12.512   6.025  1.00  0.00    -0.206 F 
ATOM     65  C   UNL     1       0.551 -13.414   3.887  1.00  0.00     0.006 A 
ENDBRANCH  44  58
BRANCH  45  66
ATOM     66  C   UNL     1      11.132  -6.144   3.620  1.00  0.00     0.057 A 
ATOM     67  C   UNL     1      12.053  -6.166   2.567  1.00  0.00     0.134 A 
ATOM     68  C   UNL     1      11.403  -5.286   4.695  1.00  0.00     0.134 A 
ATOM     69  F   UNL     1      11.860  -6.979   1.519  1.00  0.00    -0.206 F 
ATOM     70  C   UNL     1      13.206  -5.379   2.588  1.00  0.00     0.040 A 
ATOM     71  C   UNL     1      12.535  -4.470   4.714  1.00  0.00     0.040 A 
ATOM     72  F   UNL     1      10.557  -5.211   5.733  1.00  0.00    -0.206 F 
ATOM     73  C   UNL     1      13.445  -4.521   3.660  1.00  0.00     0.006 A 
ENDBRANCH  45  66
BRANCH  57  74
ATOM     74  C   UNL     1      10.027 -13.016   3.931  1.00  0.00     0.057 A 
ATOM     75  C   UNL     1      10.776 -13.336   5.069  1.00  0.00     0.134 A 
ATOM     76  C   UNL     1      10.135 -13.864   2.821  1.00  0.00     0.134 A 
ATOM     77  F   UNL     1      10.729 -12.555   6.158  1.00  0.00    -0.206 F 
ATOM     78  C   UNL     1      11.617 -14.450   5.095  1.00  0.00     0.040 A 
ATOM     79  C   UNL     1      10.949 -14.996   2.846  1.00  0.00     0.040 A 
ATOM     80  F   UNL     1       9.438 -13.616   1.703  1.00  0.00    -0.206 F 
ATOM     81  C   UNL     1      11.697 -15.289   3.984  1.00  0.00     0.006 A 
ENDBRANCH  57  74
ENDBRANCH  31  32
ENDBRANCH  24  26
ENDBRANCH  23  24
ENDBRANCH  22  23
ENDBRANCH   1  22
TORSDOF 14
