REMARK SMILES O=C(OCCOC(=O)c1oc2cccc3c2c1CCC3)c1ccc(-c2c3nc(c(-c4c(F)cccc4F)c4ccc([nH]4)c(-c4c(F)cccc4F)c4nc(c(-c5c(F)cccc5F)c5ccc2[nH]5)C=C4)C=C3)cc1
REMARK SMILES IDX 4 1 3 2 2 3 1 4 21 5 22 6 74 7 23 8 73 9 24 10 25 11 26 12
REMARK SMILES IDX 67 13 27 14 72 15 66 16 68 17 28 18 71 19 65 20 64 21 29 23
REMARK SMILES IDX 55 24 38 25 54 26 39 27 42 28 53 29 69 30 40 31 41 32 52 34
REMARK SMILES IDX 70 35 43 36 30 37 31 38 36 39 32 40 33 41 35 42 37 43 34 44
REMARK SMILES IDX 56 45 57 46 62 47 58 48 59 49 61 50 63 51 60 52 44 53 45 54
REMARK SMILES IDX 50 55 46 56 47 57 49 58 51 59 48 60 5 61 6 62 7 63 8 64 9 65
REMARK SMILES IDX 10 66 17 67 11 68 16 69 18 70 12 71 15 72 19 73 13 74 14 75
REMARK SMILES IDX 20 76
REMARK H PARENT 68 22 42 33
REMARK Flexibility Score: inf
ROOT
ATOM      1  C   UNL     1       4.580  -1.216   0.472  1.00  0.00     0.275 C 
ENDROOT
BRANCH   1   2
ATOM      2  O   UNL     1       3.318  -1.004   1.139  1.00  0.00    -0.458 OA
BRANCH   2   3
ATOM      3  C   UNL     1       2.347  -0.177   0.688  1.00  0.00     0.338 C 
ATOM      4  O   UNL     1       1.227  -0.596   0.423  1.00  0.00    -0.246 OA
BRANCH   3   5
ATOM      5  C   UNL     1       2.576   1.287   0.843  1.00  0.00     0.060 A 
ATOM      6  C   UNL     1       3.823   1.874   1.066  1.00  0.00     0.016 A 
ATOM      7  C   UNL     1       1.428   2.102   0.837  1.00  0.00     0.016 A 
ATOM      8  C   UNL     1       3.910   3.214   1.408  1.00  0.00     0.010 A 
ATOM      9  C   UNL     1       1.509   3.444   1.179  1.00  0.00     0.010 A 
ATOM     10  C   UNL     1       2.746   3.975   1.521  1.00  0.00    -0.014 A 
BRANCH  10  11
ATOM     11  C   UNL     1       2.890   5.369   1.901  1.00  0.00     0.031 A 
ATOM     12  C   UNL     1       3.538   6.207   0.860  1.00  0.00     0.074 A 
ATOM     13  C   UNL     1       2.422   5.864   3.064  1.00  0.00     0.049 A 
ATOM     14  N   UNL     1       4.708   6.755   0.902  1.00  0.00    -0.248 NA
ATOM     15  C   UNL     1       2.873   6.317  -0.446  1.00  0.00     0.031 C 
ATOM     16  C   UNL     1       1.553   5.209   4.043  1.00  0.00     0.029 A 
ATOM     17  N   UNL     1       2.574   7.115   3.582  1.00  0.00    -0.354 N 
ATOM     18  C   UNL     1       4.839   7.462  -0.291  1.00  0.00     0.074 A 
ATOM     19  C   UNL     1       3.773   7.011  -1.144  1.00  0.00     0.031 C 
ATOM     20  C   UNL     1       1.082   6.134   4.913  1.00  0.00     0.029 A 
ATOM     21  C   UNL     1       1.718   7.410   4.636  1.00  0.00     0.049 A 
ATOM     22  H   UNL     1       3.237   7.756   3.238  1.00  0.00     0.167 HD
ATOM     23  C   UNL     1       5.657   8.549  -0.366  1.00  0.00     0.037 A 
ATOM     24  C   UNL     1       1.516   8.634   5.191  1.00  0.00     0.037 A 
ATOM     25  C   UNL     1       6.633   8.531   0.699  1.00  0.00     0.049 A 
ATOM     26  C   UNL     1       2.676   9.488   4.830  1.00  0.00     0.074 A 
ATOM     27  C   UNL     1       7.629   7.662   1.099  1.00  0.00     0.029 A 
ATOM     28  N   UNL     1       6.423   9.367   1.768  1.00  0.00    -0.354 N 
ATOM     29  N   UNL     1       3.877   9.309   5.305  1.00  0.00    -0.248 NA
ATOM     30  C   UNL     1       2.603  10.229   3.580  1.00  0.00     0.031 C 
ATOM     31  C   UNL     1       7.601   7.701   2.526  1.00  0.00     0.029 A 
ATOM     32  C   UNL     1       6.643   8.640   2.908  1.00  0.00     0.049 A 
ATOM     33  H   UNL     1       6.163  10.315   1.724  1.00  0.00     0.167 HD
ATOM     34  C   UNL     1       4.716   9.501   4.217  1.00  0.00     0.074 A 
ATOM     35  C   UNL     1       3.882  10.142   3.201  1.00  0.00     0.031 C 
ATOM     36  C   UNL     1       5.920   8.860   4.135  1.00  0.00     0.037 A 
BRANCH  23  37
ATOM     37  C   UNL     1       5.284   9.833  -1.083  1.00  0.00     0.057 A 
ATOM     38  C   UNL     1       3.979  10.176  -1.492  1.00  0.00     0.134 A 
ATOM     39  C   UNL     1       6.191  10.911  -1.038  1.00  0.00     0.134 A 
ATOM     40  F   UNL     1       2.991   9.283  -1.603  1.00  0.00    -0.206 F 
ATOM     41  C   UNL     1       3.581  11.495  -1.727  1.00  0.00     0.040 A 
ATOM     42  C   UNL     1       5.791  12.239  -1.227  1.00  0.00     0.040 A 
ATOM     43  F   UNL     1       7.475  10.719  -0.699  1.00  0.00    -0.206 F 
ATOM     44  C   UNL     1       4.474  12.537  -1.548  1.00  0.00     0.006 A 
ENDBRANCH  23  37
BRANCH  24  45
ATOM     45  C   UNL     1       0.264   9.204   5.742  1.00  0.00     0.057 A 
ATOM     46  C   UNL     1      -0.994   8.798   5.263  1.00  0.00     0.134 A 
ATOM     47  C   UNL     1       0.271  10.353   6.546  1.00  0.00     0.134 A 
ATOM     48  F   UNL     1      -1.111   7.764   4.418  1.00  0.00    -0.206 F 
ATOM     49  C   UNL     1      -2.171   9.495   5.555  1.00  0.00     0.040 A 
ATOM     50  C   UNL     1      -0.901  11.065   6.843  1.00  0.00     0.040 A 
ATOM     51  F   UNL     1       1.425  10.851   7.013  1.00  0.00    -0.206 F 
ATOM     52  C   UNL     1      -2.127  10.641   6.338  1.00  0.00     0.006 A 
ENDBRANCH  24  45
BRANCH  36  53
ATOM     53  C   UNL     1       6.412   8.143   5.360  1.00  0.00     0.057 A 
ATOM     54  C   UNL     1       7.661   8.491   5.884  1.00  0.00     0.134 A 
ATOM     55  C   UNL     1       5.754   7.056   5.956  1.00  0.00     0.134 A 
ATOM     56  F   UNL     1       8.377   9.480   5.326  1.00  0.00    -0.206 F 
ATOM     57  C   UNL     1       8.223   7.808   6.964  1.00  0.00     0.040 A 
ATOM     58  C   UNL     1       6.290   6.386   7.061  1.00  0.00     0.040 A 
ATOM     59  F   UNL     1       4.606   6.582   5.457  1.00  0.00    -0.206 F 
ATOM     60  C   UNL     1       7.530   6.761   7.566  1.00  0.00     0.006 A 
ENDBRANCH  36  53
ENDBRANCH  10  11
ENDBRANCH   3   5
ENDBRANCH   2   3
ENDBRANCH   1   2
BRANCH   1  61
ATOM     61  C   UNL     1       4.545  -1.392  -1.042  1.00  0.00     0.275 C 
BRANCH  61  62
ATOM     62  O   UNL     1       4.089  -0.205  -1.702  1.00  0.00    -0.456 OA
BRANCH  62  63
ATOM     63  C   UNL     1       2.880  -0.299  -2.330  1.00  0.00     0.374 C 
ATOM     64  O   UNL     1       2.180  -1.304  -2.372  1.00  0.00    -0.242 OA
BRANCH  63  65
ATOM     65  C   UNL     1       2.606   0.946  -2.980  1.00  0.00     0.216 A 
ATOM     66  O   UNL     1       1.673   1.816  -2.447  1.00  0.00    -0.449 OA
ATOM     67  C   UNL     1       3.140   1.483  -4.130  1.00  0.00     0.014 A 
ATOM     68  C   UNL     1       1.626   2.909  -3.269  1.00  0.00     0.135 A 
ATOM     69  C   UNL     1       2.500   2.715  -4.311  1.00  0.00     0.028 A 
ATOM     70  C   UNL     1       4.144   1.028  -5.125  1.00  0.00     0.041 C 
ATOM     71  C   UNL     1       0.855   4.057  -3.156  1.00  0.00     0.048 A 
ATOM     72  C   UNL     1       2.655   3.622  -5.356  1.00  0.00    -0.037 A 
ATOM     73  C   UNL     1       3.856   1.700  -6.499  1.00  0.00     0.010 C 
ATOM     74  C   UNL     1       1.031   5.011  -4.181  1.00  0.00     0.004 A 
ATOM     75  C   UNL     1       1.913   4.802  -5.262  1.00  0.00     0.004 A 
ATOM     76  C   UNL     1       3.635   3.248  -6.437  1.00  0.00     0.036 C 
ENDBRANCH  63  65
ENDBRANCH  62  63
ENDBRANCH  61  62
ENDBRANCH   1  61
TORSDOF 11
