REMARK SMILES COc1ccc2c(c1)C=C(C(=O)OCCOC(=O)c1ccc(-c3c4nc(c(-c5c(F)cccc5F)c5ccc([nH]5)c(-c5c(F)cccc5F)c5nc(c(-c6c(F)cccc6F)c6ccc3[nH]6)C=C5)C=C4)cc1)[C@H](C(F)(F)F)O2
REMARK SMILES IDX 15 1 14 2 13 3 11 4 12 5 10 6 3 7 4 8 8 9 5 10 7 11 6 12
REMARK SMILES IDX 9 13 78 14 73 15 2 16 1 17 74 18 75 19 76 20 77 21 16 22
REMARK SMILES IDX 17 23 18 24 19 25 20 26 72 27 21 28 71 29 22 30 23 31 24 32
REMARK SMILES IDX 65 33 25 34 70 35 64 36 66 37 26 38 69 39 63 40 62 41 27 43
REMARK SMILES IDX 53 44 36 45 52 46 37 47 40 48 51 49 67 50 38 51 39 52 50 54
REMARK SMILES IDX 68 55 41 56 28 57 29 58 34 59 30 60 31 61 33 62 35 63 32 64
REMARK SMILES IDX 54 65 55 66 60 67 56 68 57 69 59 70 61 71 58 72 42 73 43 74
REMARK SMILES IDX 48 75 44 76 45 77 47 78 49 79 46 80
REMARK H PARENT 66 42 40 53
REMARK Flexibility Score: inf
ROOT
ATOM      1  C   UNL     1      -3.227   6.398   7.537  1.00  0.00     0.275 C 
ENDROOT
BRANCH   1   2
ATOM      2  C   UNL     1      -2.746   6.961   6.196  1.00  0.00     0.275 C 
BRANCH   2   3
ATOM      3  O   UNL     1      -1.867   6.043   5.510  1.00  0.00    -0.459 OA
BRANCH   3   4
ATOM      4  C   UNL     1      -0.557   6.404   5.454  1.00  0.00     0.338 C 
ATOM      5  O   UNL     1      -0.084   7.403   5.953  1.00  0.00    -0.246 OA
BRANCH   4   6
ATOM      6  C   UNL     1       0.261   5.396   4.733  1.00  0.00     0.087 C 
ATOM      7  C   UNL     1       0.854   1.838   1.507  1.00  0.00     0.119 A 
ATOM      8  C   UNL     1       2.216   1.809   1.806  1.00  0.00     0.050 A 
ATOM      9  C   UNL     1       0.028   2.781   2.136  1.00  0.00     0.058 A 
ATOM     10  C   UNL     1       2.754   2.736   2.700  1.00  0.00     0.051 A 
ATOM     11  C   UNL     1       0.556   3.693   3.058  1.00  0.00     0.021 A 
ATOM     12  C   UNL     1       1.926   3.670   3.317  1.00  0.00     0.128 A 
ATOM     13  C   UNL     1      -0.279   4.689   3.724  1.00  0.00     0.027 C 
ATOM     14  O   UNL     1       2.533   4.595   4.117  1.00  0.00    -0.475 OA
ATOM     15  C   UNL     1       1.703   5.172   5.164  1.00  0.00     0.316 C 
BRANCH   7  16
ATOM     16  O   UNL     1       0.216   1.029   0.607  1.00  0.00    -0.497 OA
ATOM     17  C   UNL     1       0.961  -0.058   0.070  1.00  0.00     0.278 C 
ENDBRANCH   7  16
BRANCH  15  18
ATOM     18  C   UNL     1       2.491   6.356   5.759  1.00  0.00     0.430 C 
ATOM     19  F   UNL     1       2.058   6.687   6.997  1.00  0.00    -0.167 F 
ATOM     20  F   UNL     1       3.800   6.016   5.917  1.00  0.00    -0.167 F 
ATOM     21  F   UNL     1       2.463   7.452   4.974  1.00  0.00    -0.167 F 
ENDBRANCH  15  18
ENDBRANCH   4   6
ENDBRANCH   3   4
ENDBRANCH   2   3
ENDBRANCH   1   2
BRANCH   1  22
ATOM     22  O   UNL     1      -2.127   6.180   8.438  1.00  0.00    -0.458 OA
BRANCH  22  23
ATOM     23  C   UNL     1      -1.654   4.911   8.460  1.00  0.00     0.338 C 
ATOM     24  O   UNL     1      -2.107   3.948   7.862  1.00  0.00    -0.246 OA
BRANCH  23  25
ATOM     25  C   UNL     1      -0.358   4.871   9.164  1.00  0.00     0.060 A 
ATOM     26  C   UNL     1       0.679   4.184   8.527  1.00  0.00     0.016 A 
ATOM     27  C   UNL     1      -0.147   5.468  10.409  1.00  0.00     0.016 A 
ATOM     28  C   UNL     1       1.951   4.146   9.093  1.00  0.00     0.010 A 
ATOM     29  C   UNL     1       1.118   5.384  11.005  1.00  0.00     0.010 A 
ATOM     30  C   UNL     1       2.175   4.733  10.343  1.00  0.00    -0.014 A 
BRANCH  30  31
ATOM     31  C   UNL     1       3.495   4.560  10.991  1.00  0.00     0.031 A 
ATOM     32  C   UNL     1       3.749   3.335  11.818  1.00  0.00     0.074 A 
ATOM     33  C   UNL     1       4.473   5.465  10.810  1.00  0.00     0.049 A 
ATOM     34  N   UNL     1       4.827   2.982  12.470  1.00  0.00    -0.248 NA
ATOM     35  C   UNL     1       2.641   2.374  11.913  1.00  0.00     0.031 C 
ATOM     36  C   UNL     1       4.373   6.663   9.981  1.00  0.00     0.029 A 
ATOM     37  N   UNL     1       5.746   5.512  11.325  1.00  0.00    -0.354 N 
ATOM     38  C   UNL     1       4.532   1.755  13.047  1.00  0.00     0.074 A 
ATOM     39  C   UNL     1       3.167   1.434  12.683  1.00  0.00     0.031 C 
ATOM     40  C   UNL     1       5.529   7.346  10.066  1.00  0.00     0.029 A 
ATOM     41  C   UNL     1       6.436   6.646  10.975  1.00  0.00     0.049 A 
ATOM     42  H   UNL     1       6.126   4.802  11.890  1.00  0.00     0.167 HD
ATOM     43  C   UNL     1       5.324   0.969  13.814  1.00  0.00     0.037 A 
ATOM     44  C   UNL     1       7.650   7.081  11.367  1.00  0.00     0.037 A 
ATOM     45  C   UNL     1       6.668   1.304  14.205  1.00  0.00     0.049 A 
ATOM     46  C   UNL     1       8.476   6.237  12.302  1.00  0.00     0.074 A 
ATOM     47  C   UNL     1       7.549   0.569  14.979  1.00  0.00     0.029 A 
ATOM     48  N   UNL     1       7.316   2.484  13.873  1.00  0.00    -0.354 N 
ATOM     49  N   UNL     1       8.204   5.062  12.818  1.00  0.00    -0.248 NA
ATOM     50  C   UNL     1       9.782   6.779  12.708  1.00  0.00     0.031 C 
ATOM     51  C   UNL     1       8.708   1.331  15.165  1.00  0.00     0.029 A 
ATOM     52  C   UNL     1       8.573   2.514  14.457  1.00  0.00     0.049 A 
ATOM     53  H   UNL     1       6.940   3.195  13.305  1.00  0.00     0.167 HD
ATOM     54  C   UNL     1       9.309   4.715  13.586  1.00  0.00     0.074 A 
ATOM     55  C   UNL     1      10.262   5.797  13.460  1.00  0.00     0.031 C 
ATOM     56  C   UNL     1       9.515   3.598  14.327  1.00  0.00     0.037 A 
BRANCH  43  57
ATOM     57  C   UNL     1       4.724  -0.307  14.325  1.00  0.00     0.057 A 
ATOM     58  C   UNL     1       4.472  -1.398  13.483  1.00  0.00     0.134 A 
ATOM     59  C   UNL     1       4.392  -0.442  15.678  1.00  0.00     0.134 A 
ATOM     60  F   UNL     1       4.751  -1.327  12.173  1.00  0.00    -0.206 F 
ATOM     61  C   UNL     1       3.882  -2.568  13.966  1.00  0.00     0.040 A 
ATOM     62  C   UNL     1       3.825  -1.615  16.176  1.00  0.00     0.040 A 
ATOM     63  F   UNL     1       4.609   0.565  16.537  1.00  0.00    -0.206 F 
ATOM     64  C   UNL     1       3.560  -2.680  15.317  1.00  0.00     0.006 A 
ENDBRANCH  43  57
BRANCH  44  65
ATOM     65  C   UNL     1       8.145   8.403  10.908  1.00  0.00     0.057 A 
ATOM     66  C   UNL     1       9.230   8.517  10.032  1.00  0.00     0.134 A 
ATOM     67  C   UNL     1       7.555   9.591  11.360  1.00  0.00     0.134 A 
ATOM     68  F   UNL     1       9.857   7.417   9.588  1.00  0.00    -0.206 F 
ATOM     69  C   UNL     1       9.720   9.762   9.632  1.00  0.00     0.040 A 
ATOM     70  C   UNL     1       8.017  10.841  10.949  1.00  0.00     0.040 A 
ATOM     71  F   UNL     1       6.516   9.551  12.207  1.00  0.00    -0.206 F 
ATOM     72  C   UNL     1       9.108  10.929  10.087  1.00  0.00     0.006 A 
ENDBRANCH  44  65
BRANCH  56  73
ATOM     73  C   UNL     1      10.833   3.471  15.039  1.00  0.00     0.057 A 
ATOM     74  C   UNL     1      11.149   4.248  16.160  1.00  0.00     0.134 A 
ATOM     75  C   UNL     1      11.778   2.522  14.625  1.00  0.00     0.134 A 
ATOM     76  F   UNL     1      10.294   5.183  16.603  1.00  0.00    -0.206 F 
ATOM     77  C   UNL     1      12.364   4.100  16.832  1.00  0.00     0.040 A 
ATOM     78  C   UNL     1      12.984   2.346  15.305  1.00  0.00     0.040 A 
ATOM     79  F   UNL     1      11.536   1.737  13.564  1.00  0.00    -0.206 F 
ATOM     80  C   UNL     1      13.282   3.141  16.410  1.00  0.00     0.006 A 
ENDBRANCH  56  73
ENDBRANCH  30  31
ENDBRANCH  23  25
ENDBRANCH  22  23
ENDBRANCH   1  22
TORSDOF 13
