REMARK SMILES CC1(C)[C@H]2CC[C@]1(C)C(=O)N(CC(=O)OCCOC(=O)c1ccc(-c3c4nc(c(-c5c(F)cccc5F)c5ccc([nH]5)c(-c5c(F)cccc5F)c5nc(c(-c6c(F)cccc6F)c6ccc3[nH]6)C=C5)C=C4)cc1)C2=O
REMARK SMILES IDX 17 1 16 2 15 3 13 4 14 5 12 6 11 7 1 8 2 9 4 10 7 11 3 12
REMARK SMILES IDX 5 13 75 14 6 15 9 16 8 17 76 18 10 19 18 20 19 21 20 22
REMARK SMILES IDX 21 23 22 24 74 25 23 26 73 27 24 28 25 29 26 30 67 31 27 32
REMARK SMILES IDX 72 33 66 34 68 35 28 36 71 37 65 38 64 39 29 41 55 42 38 43
REMARK SMILES IDX 54 44 39 45 42 46 53 47 69 48 40 49 41 50 52 52 70 53 43 54
REMARK SMILES IDX 30 55 31 56 36 57 32 58 33 59 35 60 37 61 34 62 56 63 57 64
REMARK SMILES IDX 62 65 58 66 59 67 61 68 63 69 60 70 44 71 45 72 50 73 46 74
REMARK SMILES IDX 47 75 49 76 51 77 48 78
REMARK H PARENT 68 40 42 51
REMARK Flexibility Score: inf
ROOT
ATOM      1  C   UNL     1      -0.648   5.546  -3.436  1.00  0.00     0.275 C 
ENDROOT
BRANCH   1   2
ATOM      2  C   UNL     1      -1.277   5.520  -2.038  1.00  0.00     0.274 C 
BRANCH   2   3
ATOM      3  O   UNL     1      -1.656   4.170  -1.720  1.00  0.00    -0.461 OA
BRANCH   3   4
ATOM      4  C   UNL     1      -2.967   3.871  -1.528  1.00  0.00     0.326 C 
ATOM      5  O   UNL     1      -3.859   4.710  -1.451  1.00  0.00    -0.250 OA
BRANCH   4   6
ATOM      6  C   UNL     1      -3.211   2.368  -1.329  1.00  0.00     0.251 C 
BRANCH   6   7
ATOM      7  N   UNL     1      -2.169   1.480  -1.855  1.00  0.00    -0.271 N 
ATOM      8  C   UNL     1      -0.798  -1.316  -0.909  1.00  0.00     0.013 C 
ATOM      9  C   UNL     1      -0.268  -0.663  -2.200  1.00  0.00    -0.010 C 
ATOM     10  C   UNL     1       0.180   0.794  -2.013  1.00  0.00     0.086 C 
ATOM     11  C   UNL     1      -1.353  -0.413  -3.287  1.00  0.00     0.053 C 
ATOM     12  C   UNL     1       0.941  -1.502  -2.680  1.00  0.00     0.013 C 
ATOM     13  C   UNL     1       0.337   1.329  -3.450  1.00  0.00     0.015 C 
ATOM     14  C   UNL     1      -0.913   1.546  -1.271  1.00  0.00     0.233 C 
ATOM     15  C   UNL     1      -0.628   0.490  -4.305  1.00  0.00     0.018 C 
ATOM     16  C   UNL     1      -2.528   0.442  -2.718  1.00  0.00     0.236 C 
ATOM     17  C   UNL     1      -1.876  -1.688  -3.949  1.00  0.00     0.022 C 
ATOM     18  O   UNL     1      -0.689   2.092  -0.191  1.00  0.00    -0.274 OA
ATOM     19  O   UNL     1      -3.700   0.194  -3.006  1.00  0.00    -0.274 OA
ENDBRANCH   6   7
ENDBRANCH   4   6
ENDBRANCH   3   4
ENDBRANCH   2   3
ENDBRANCH   1   2
BRANCH   1  20
ATOM     20  O   UNL     1      -1.652   5.519  -4.471  1.00  0.00    -0.458 OA
BRANCH  20  21
ATOM     21  C   UNL     1      -2.197   4.305  -4.701  1.00  0.00     0.338 C 
ATOM     22  O   UNL     1      -1.916   3.249  -4.169  1.00  0.00    -0.246 OA
BRANCH  21  23
ATOM     23  C   UNL     1      -3.312   4.383  -5.632  1.00  0.00     0.060 A 
ATOM     24  C   UNL     1      -4.543   3.871  -5.206  1.00  0.00     0.016 A 
ATOM     25  C   UNL     1      -3.117   4.844  -6.932  1.00  0.00     0.016 A 
ATOM     26  C   UNL     1      -5.610   3.845  -6.090  1.00  0.00     0.010 A 
ATOM     27  C   UNL     1      -4.193   4.830  -7.812  1.00  0.00     0.010 A 
ATOM     28  C   UNL     1      -5.443   4.346  -7.388  1.00  0.00    -0.014 A 
BRANCH  28  29
ATOM     29  C   UNL     1      -6.605   4.466  -8.285  1.00  0.00     0.031 A 
ATOM     30  C   UNL     1      -6.755   3.561  -9.463  1.00  0.00     0.074 A 
ATOM     31  C   UNL     1      -7.482   5.455  -8.041  1.00  0.00     0.049 A 
ATOM     32  N   UNL     1      -7.623   3.620 -10.437  1.00  0.00    -0.248 NA
ATOM     33  C   UNL     1      -5.795   2.451  -9.569  1.00  0.00     0.031 C 
ATOM     34  C   UNL     1      -7.415   6.378  -6.904  1.00  0.00     0.029 A 
ATOM     35  N   UNL     1      -8.584   5.865  -8.741  1.00  0.00    -0.354 N 
ATOM     36  C   UNL     1      -7.308   2.567 -11.285  1.00  0.00     0.074 A 
ATOM     37  C   UNL     1      -6.159   1.894 -10.717  1.00  0.00     0.031 C 
ATOM     38  C   UNL     1      -8.427   7.253  -6.990  1.00  0.00     0.029 A 
ATOM     39  C   UNL     1      -9.175   6.984  -8.211  1.00  0.00     0.049 A 
ATOM     40  H   UNL     1      -8.918   5.404  -9.544  1.00  0.00     0.167 HD
ATOM     41  C   UNL     1      -7.929   2.209 -12.433  1.00  0.00     0.037 A 
ATOM     42  C   UNL     1     -10.187   7.733  -8.683  1.00  0.00     0.037 A 
ATOM     43  C   UNL     1      -9.073   2.898 -12.974  1.00  0.00     0.049 A 
ATOM     44  C   UNL     1     -10.833   7.334  -9.976  1.00  0.00     0.074 A 
ATOM     45  C   UNL     1      -9.797   2.607 -14.117  1.00  0.00     0.029 A 
ATOM     46  N   UNL     1      -9.656   4.024 -12.407  1.00  0.00    -0.354 N 
ATOM     47  N   UNL     1     -10.539   6.330 -10.767  1.00  0.00    -0.248 NA
ATOM     48  C   UNL     1     -11.945   8.168 -10.444  1.00  0.00     0.031 C 
ATOM     49  C   UNL     1     -10.791   3.580 -14.263  1.00  0.00     0.029 A 
ATOM     50  C   UNL     1     -10.717   4.452 -13.188  1.00  0.00     0.049 A 
ATOM     51  H   UNL     1      -9.359   4.454 -11.573  1.00  0.00     0.167 HD
ATOM     52  C   UNL     1     -11.443   6.396 -11.816  1.00  0.00     0.074 A 
ATOM     53  C   UNL     1     -12.302   7.535 -11.553  1.00  0.00     0.031 C 
ATOM     54  C   UNL     1     -11.555   5.590 -12.899  1.00  0.00     0.037 A 
BRANCH  41  55
ATOM     55  C   UNL     1      -7.365   1.044 -13.192  1.00  0.00     0.057 A 
ATOM     56  C   UNL     1      -7.495  -0.274 -12.736  1.00  0.00     0.134 A 
ATOM     57  C   UNL     1      -6.704   1.243 -14.411  1.00  0.00     0.134 A 
ATOM     58  F   UNL     1      -8.105  -0.532 -11.570  1.00  0.00    -0.206 F 
ATOM     59  C   UNL     1      -6.971  -1.350 -13.456  1.00  0.00     0.040 A 
ATOM     60  C   UNL     1      -6.196   0.173 -15.151  1.00  0.00     0.040 A 
ATOM     61  F   UNL     1      -6.546   2.479 -14.907  1.00  0.00    -0.206 F 
ATOM     62  C   UNL     1      -6.324  -1.128 -14.670  1.00  0.00     0.006 A 
ENDBRANCH  41  55
BRANCH  42  63
ATOM     63  C   UNL     1     -10.626   8.931  -7.928  1.00  0.00     0.057 A 
ATOM     64  C   UNL     1     -11.848   8.948  -7.250  1.00  0.00     0.134 A 
ATOM     65  C   UNL     1      -9.817  10.070  -7.836  1.00  0.00     0.134 A 
ATOM     66  F   UNL     1     -12.670   7.891  -7.312  1.00  0.00    -0.206 F 
ATOM     67  C   UNL     1     -12.257  10.061  -6.513  1.00  0.00     0.040 A 
ATOM     68  C   UNL     1     -10.201  11.180  -7.083  1.00  0.00     0.040 A 
ATOM     69  F   UNL     1      -8.627  10.109  -8.454  1.00  0.00    -0.206 F 
ATOM     70  C   UNL     1     -11.428  11.178  -6.422  1.00  0.00     0.006 A 
ENDBRANCH  42  63
BRANCH  54  71
ATOM     71  C   UNL     1     -12.666   5.898 -13.857  1.00  0.00     0.057 A 
ATOM     72  C   UNL     1     -12.604   6.989 -14.731  1.00  0.00     0.134 A 
ATOM     73  C   UNL     1     -13.796   5.074 -13.921  1.00  0.00     0.134 A 
ATOM     74  F   UNL     1     -11.555   7.824 -14.705  1.00  0.00    -0.206 F 
ATOM     75  C   UNL     1     -13.640   7.262 -15.625  1.00  0.00     0.040 A 
ATOM     76  C   UNL     1     -14.827   5.323 -14.827  1.00  0.00     0.040 A 
ATOM     77  F   UNL     1     -13.911   4.010 -13.112  1.00  0.00    -0.206 F 
ATOM     78  C   UNL     1     -14.752   6.423 -15.679  1.00  0.00     0.006 A 
ENDBRANCH  54  71
ENDBRANCH  28  29
ENDBRANCH  21  23
ENDBRANCH  20  21
ENDBRANCH   1  20
TORSDOF 12
