REMARK SMILES CCN(c1cccc(C)c1)c1nc(OCC(=O)OCCOC(=O)c2ccc(-c3c4nc(c(-c5c(F)cccc5F)c5ccc([nH]5)c(-c5c(F)cccc5F)c5nc(c(-c6c(F)cccc6F)c6ccc3[nH]6)C=C5)C=C4)cc2)cc(-c2ccc(C)cc2)n1
REMARK SMILES IDX 19 1 18 2 16 3 17 4 15 5 14 6 13 7 11 8 12 9 87 10 79 11
REMARK SMILES IDX 78 12 3 13 2 14 1 15 4 16 5 17 10 18 6 19 8 20 7 21 9 22
REMARK SMILES IDX 80 23 81 24 86 25 82 26 85 27 83 28 84 29 20 30 21 31 22 32
REMARK SMILES IDX 23 33 24 34 25 35 77 36 26 37 76 38 27 39 28 40 29 41 70 42
REMARK SMILES IDX 30 43 75 44 69 45 71 46 31 47 74 48 68 49 67 50 32 52 58 53
REMARK SMILES IDX 41 54 57 55 42 56 45 57 56 58 72 59 43 60 44 61 55 63 73 64
REMARK SMILES IDX 46 65 33 66 34 67 39 68 35 69 36 70 38 71 40 72 37 73 59 74
REMARK SMILES IDX 60 75 65 76 61 77 62 78 64 79 66 80 63 81 47 82 48 83 53 84
REMARK SMILES IDX 49 85 50 86 52 87 54 88 51 89
REMARK H PARENT 71 51 45 62
REMARK Flexibility Score: inf
ROOT
ATOM      1  C   UNL     1       5.755  -2.691  -4.335  1.00  0.00     0.274 C 
ENDROOT
BRANCH   1   2
ATOM      2  O   UNL     1       5.360  -3.907  -3.693  1.00  0.00    -0.460 OA
BRANCH   2   3
ATOM      3  C   UNL     1       4.174  -3.845  -3.030  1.00  0.00     0.344 C 
ATOM      4  O   UNL     1       3.397  -2.909  -3.154  1.00  0.00    -0.248 OA
BRANCH   3   5
ATOM      5  C   UNL     1       4.022  -5.069  -2.098  1.00  0.00     0.353 C 
BRANCH   5   6
ATOM      6  O   UNL     1       4.283  -4.934  -0.698  1.00  0.00    -0.466 OA
BRANCH   6   7
ATOM      7  C   UNL     1       3.655  -3.836  -0.158  1.00  0.00     0.219 A 
ATOM      8  C   UNL     1       1.937  -2.356  -0.230  1.00  0.00     0.233 A 
ATOM      9  N   UNL     1       2.427  -3.559  -0.569  1.00  0.00    -0.177 NA
ATOM     10  N   UNL     1       2.678  -1.399   0.345  1.00  0.00    -0.212 NA
ATOM     11  C   UNL     1       3.877  -1.752   0.824  1.00  0.00     0.080 A 
ATOM     12  C   UNL     1       4.351  -3.042   0.708  1.00  0.00     0.097 A 
BRANCH   8  13
ATOM     13  N   UNL     1       0.554  -2.185  -0.318  1.00  0.00    -0.311 N 
BRANCH  13  14
ATOM     14  C   UNL     1       0.084  -0.917  -0.871  1.00  0.00     0.122 C 
ATOM     15  C   UNL     1       0.416   0.291   0.004  1.00  0.00     0.028 C 
ENDBRANCH  13  14
BRANCH  13  16
ATOM     16  C   UNL     1      -0.331  -3.225   0.004  1.00  0.00     0.044 A 
ATOM     17  C   UNL     1      -1.414  -3.581  -0.800  1.00  0.00     0.026 A 
ATOM     18  C   UNL     1      -0.075  -4.016   1.146  1.00  0.00     0.029 A 
ATOM     19  C   UNL     1      -2.202  -4.693  -0.481  1.00  0.00     0.002 A 
ATOM     20  C   UNL     1      -0.857  -5.127   1.482  1.00  0.00    -0.049 A 
ATOM     21  C   UNL     1      -1.925  -5.462   0.652  1.00  0.00     0.003 A 
ATOM     22  C   UNL     1      -0.511  -5.936   2.696  1.00  0.00     0.044 C 
ENDBRANCH  13  16
ENDBRANCH   8  13
BRANCH  11  23
ATOM     23  C   UNL     1       4.715  -0.658   1.338  1.00  0.00     0.000 A 
ATOM     24  C   UNL     1       5.373   0.206   0.441  1.00  0.00     0.010 A 
ATOM     25  C   UNL     1       4.985  -0.507   2.700  1.00  0.00     0.010 A 
ATOM     26  C   UNL     1       6.387   1.069   0.866  1.00  0.00     0.004 A 
ATOM     27  C   UNL     1       5.952   0.409   3.138  1.00  0.00     0.004 A 
ATOM     28  C   UNL     1       6.702   1.158   2.221  1.00  0.00    -0.051 A 
ATOM     29  C   UNL     1       7.794   2.072   2.690  1.00  0.00     0.044 C 
ENDBRANCH  11  23
ENDBRANCH   6   7
ENDBRANCH   5   6
ENDBRANCH   3   5
ENDBRANCH   2   3
ENDBRANCH   1   2
BRANCH   1  30
ATOM     30  C   UNL     1       6.031  -1.507  -3.374  1.00  0.00     0.275 C 
BRANCH  30  31
ATOM     31  O   UNL     1       5.995  -1.703  -1.921  1.00  0.00    -0.458 OA
BRANCH  31  32
ATOM     32  C   UNL     1       6.800  -2.380  -1.075  1.00  0.00     0.338 C 
ATOM     33  O   UNL     1       6.995  -2.083   0.102  1.00  0.00    -0.246 OA
BRANCH  32  34
ATOM     34  C   UNL     1       7.373  -3.621  -1.510  1.00  0.00     0.060 A 
ATOM     35  C   UNL     1       7.385  -4.777  -0.701  1.00  0.00     0.016 A 
ATOM     36  C   UNL     1       7.992  -3.564  -2.732  1.00  0.00     0.016 A 
ATOM     37  C   UNL     1       8.106  -5.866  -1.138  1.00  0.00     0.010 A 
ATOM     38  C   UNL     1       8.349  -4.723  -3.308  1.00  0.00     0.010 A 
ATOM     39  C   UNL     1       8.614  -5.767  -2.425  1.00  0.00    -0.014 A 
BRANCH  39  40
ATOM     40  C   UNL     1       9.765  -6.477  -2.911  1.00  0.00     0.031 A 
ATOM     41  C   UNL     1       9.486  -7.737  -3.568  1.00  0.00     0.074 A 
ATOM     42  C   UNL     1      10.857  -5.678  -2.991  1.00  0.00     0.049 A 
ATOM     43  N   UNL     1      10.135  -8.827  -3.363  1.00  0.00    -0.248 NA
ATOM     44  C   UNL     1       8.310  -7.899  -4.431  1.00  0.00     0.031 C 
ATOM     45  C   UNL     1      11.996  -5.710  -3.881  1.00  0.00     0.029 A 
ATOM     46  N   UNL     1      11.081  -4.498  -2.292  1.00  0.00    -0.354 N 
ATOM     47  C   UNL     1       9.801  -9.600  -4.450  1.00  0.00     0.074 A 
ATOM     48  C   UNL     1       8.482  -9.155  -4.846  1.00  0.00     0.031 C 
ATOM     49  C   UNL     1      12.902  -4.797  -3.462  1.00  0.00     0.029 A 
ATOM     50  C   UNL     1      12.428  -4.182  -2.227  1.00  0.00     0.049 A 
ATOM     51  H   UNL     1      10.367  -3.951  -1.892  1.00  0.00     0.167 HD
ATOM     52  C   UNL     1      10.805 -10.105  -5.228  1.00  0.00     0.037 A 
ATOM     53  C   UNL     1      13.034  -4.248  -0.999  1.00  0.00     0.037 A 
ATOM     54  C   UNL     1      12.111  -9.537  -4.827  1.00  0.00     0.049 A 
ATOM     55  C   UNL     1      13.570  -5.642  -0.753  1.00  0.00     0.074 A 
ATOM     56  C   UNL     1      12.996  -8.640  -5.405  1.00  0.00     0.029 A 
ATOM     57  N   UNL     1      12.511  -9.623  -3.505  1.00  0.00    -0.354 N 
ATOM     58  N   UNL     1      13.714  -6.542  -1.687  1.00  0.00    -0.248 NA
ATOM     59  C   UNL     1      13.902  -6.156   0.573  1.00  0.00     0.031 C 
ATOM     60  C   UNL     1      13.945  -8.232  -4.410  1.00  0.00     0.029 A 
ATOM     61  C   UNL     1      13.637  -8.874  -3.226  1.00  0.00     0.049 A 
ATOM     62  H   UNL     1      12.041 -10.165  -2.831  1.00  0.00     0.167 HD
ATOM     63  C   UNL     1      14.029  -7.743  -1.125  1.00  0.00     0.074 A 
ATOM     64  C   UNL     1      14.148  -7.447   0.296  1.00  0.00     0.031 C 
ATOM     65  C   UNL     1      14.135  -8.896  -1.853  1.00  0.00     0.037 A 
BRANCH  52  66
ATOM     66  C   UNL     1      10.578 -10.849  -6.525  1.00  0.00     0.057 A 
ATOM     67  C   UNL     1      11.649 -11.099  -7.400  1.00  0.00     0.134 A 
ATOM     68  C   UNL     1       9.355 -11.419  -6.936  1.00  0.00     0.134 A 
ATOM     69  F   UNL     1      12.903 -10.741  -7.098  1.00  0.00    -0.206 F 
ATOM     70  C   UNL     1      11.501 -11.774  -8.617  1.00  0.00     0.040 A 
ATOM     71  C   UNL     1       9.180 -12.054  -8.174  1.00  0.00     0.040 A 
ATOM     72  F   UNL     1       8.284 -11.465  -6.132  1.00  0.00    -0.206 F 
ATOM     73  C   UNL     1      10.258 -12.232  -9.023  1.00  0.00     0.006 A 
ENDBRANCH  52  66
BRANCH  53  74
ATOM     74  C   UNL     1      12.289  -3.413   0.001  1.00  0.00     0.057 A 
ATOM     75  C   UNL     1      12.328  -2.023  -0.218  1.00  0.00     0.134 A 
ATOM     76  C   UNL     1      11.179  -3.923   0.688  1.00  0.00     0.134 A 
ATOM     77  F   UNL     1      13.406  -1.459  -0.782  1.00  0.00    -0.206 F 
ATOM     78  C   UNL     1      11.202  -1.226  -0.023  1.00  0.00     0.040 A 
ATOM     79  C   UNL     1      10.055  -3.125   0.908  1.00  0.00     0.040 A 
ATOM     80  F   UNL     1      11.094  -5.226   0.989  1.00  0.00    -0.206 F 
ATOM     81  C   UNL     1      10.044  -1.794   0.490  1.00  0.00     0.006 A 
ENDBRANCH  53  74
BRANCH  65  82
ATOM     82  C   UNL     1      14.682 -10.179  -1.275  1.00  0.00     0.057 A 
ATOM     83  C   UNL     1      15.679 -10.186  -0.289  1.00  0.00     0.134 A 
ATOM     84  C   UNL     1      14.334 -11.455  -1.769  1.00  0.00     0.134 A 
ATOM     85  F   UNL     1      16.247  -9.050   0.141  1.00  0.00    -0.206 F 
ATOM     86  C   UNL     1      16.179 -11.367   0.267  1.00  0.00     0.040 A 
ATOM     87  C   UNL     1      14.866 -12.639  -1.262  1.00  0.00     0.040 A 
ATOM     88  F   UNL     1      13.471 -11.638  -2.775  1.00  0.00    -0.206 F 
ATOM     89  C   UNL     1      15.767 -12.601  -0.216  1.00  0.00     0.006 A 
ENDBRANCH  65  82
ENDBRANCH  39  40
ENDBRANCH  32  34
ENDBRANCH  31  32
ENDBRANCH  30  31
ENDBRANCH   1  30
TORSDOF 17
