REMARK SMILES CC[C@@H](C)[C@@H](C(=O)OCCOC(=O)c1ccc(-c2c3nc(c(-c4c(F)cccc4F)c4ccc([nH]4)c(-c4c(F)cccc4F)c4nc(c(-c5c(F)cccc5F)c5ccc2[nH]5)C=C4)C=C3)cc1)N1C(=O)/C(=C/c2ccc(O)cc2)SC1=S
REMARK SMILES IDX 9 1 8 2 6 3 7 4 5 5 3 6 4 7 2 8 1 9 68 10 69 11 81 12 70 13
REMARK SMILES IDX 71 14 80 15 82 16 72 17 73 18 74 19 79 20 75 21 78 22 76 23
REMARK SMILES IDX 77 24 10 26 11 27 12 28 13 29 14 30 15 31 67 32 16 33 66 34
REMARK SMILES IDX 17 35 18 36 19 37 60 38 20 39 65 40 59 41 61 42 21 43 64 44
REMARK SMILES IDX 58 45 57 46 22 48 48 49 31 50 47 51 32 52 35 53 46 54 62 55
REMARK SMILES IDX 33 56 34 57 45 59 63 60 36 61 23 62 24 63 29 64 25 65 26 66
REMARK SMILES IDX 28 67 30 68 27 69 49 70 50 71 55 72 51 73 52 74 54 75 56 76
REMARK SMILES IDX 53 77 37 78 38 79 43 80 39 81 40 82 42 83 44 84 41 85
REMARK H PARENT 77 25 61 47 35 58
REMARK Flexibility Score: inf
ROOT
ATOM      1  C   UNL     1       1.084   3.123  -4.185  1.00  0.00     0.274 C 
ENDROOT
BRANCH   1   2
ATOM      2  O   UNL     1       0.393   1.914  -3.786  1.00  0.00    -0.461 OA
BRANCH   2   3
ATOM      3  C   UNL     1       0.649   0.789  -4.511  1.00  0.00     0.329 C 
ATOM      4  O   UNL     1       1.411   0.786  -5.466  1.00  0.00    -0.250 OA
BRANCH   3   5
ATOM      5  C   UNL     1      -0.032  -0.480  -3.895  1.00  0.00     0.204 C 
BRANCH   5   6
ATOM      6  C   UNL     1       0.770  -0.747  -2.528  1.00  0.00     0.020 C 
ATOM      7  C   UNL     1       0.818  -2.179  -1.987  1.00  0.00     0.010 C 
BRANCH   6   8
ATOM      8  C   UNL     1       0.312   0.226  -1.397  1.00  0.00     0.002 C 
ATOM      9  C   UNL     1       0.884  -0.046  -0.007  1.00  0.00     0.004 C 
ENDBRANCH   6   8
ENDBRANCH   5   6
BRANCH   5  10
ATOM     10  N   UNL     1      -0.024  -1.651  -4.860  1.00  0.00    -0.278 N 
ATOM     11  C   UNL     1       0.080  -1.488  -6.234  1.00  0.00     0.267 C 
ATOM     12  C   UNL     1      -0.630  -2.868  -4.645  1.00  0.00     0.149 C 
ATOM     13  O   UNL     1      -0.252  -0.506  -6.884  1.00  0.00    -0.268 OA
ATOM     14  C   UNL     1       0.419  -2.793  -6.882  1.00  0.00     0.081 C 
ATOM     15  S   UNL     1       0.021  -4.049  -5.792  1.00  0.00    -0.054 SA
ATOM     16  S   UNL     1      -1.907  -3.235  -3.632  1.00  0.00    -0.052 S 
ATOM     17  C   UNL     1       0.916  -2.878  -8.123  1.00  0.00     0.029 C 
BRANCH  17  18
ATOM     18  C   UNL     1       1.293  -4.088  -8.869  1.00  0.00    -0.024 A 
ATOM     19  C   UNL     1       2.586  -4.618  -8.776  1.00  0.00     0.012 A 
ATOM     20  C   UNL     1       0.392  -4.667  -9.770  1.00  0.00     0.012 A 
ATOM     21  C   UNL     1       2.990  -5.673  -9.600  1.00  0.00     0.047 A 
ATOM     22  C   UNL     1       0.789  -5.735 -10.585  1.00  0.00     0.047 A 
ATOM     23  C   UNL     1       2.090  -6.219 -10.501  1.00  0.00     0.115 A 
BRANCH  23  24
ATOM     24  O   UNL     1       2.525  -7.239 -11.293  1.00  0.00    -0.508 OA
ATOM     25  H   UNL     1       3.407  -7.547 -11.217  1.00  0.00     0.293 HD
ENDBRANCH  23  24
ENDBRANCH  17  18
ENDBRANCH   5  10
ENDBRANCH   3   5
ENDBRANCH   2   3
ENDBRANCH   1   2
BRANCH   1  26
ATOM     26  C   UNL     1       2.562   3.192  -3.750  1.00  0.00     0.275 C 
BRANCH  26  27
ATOM     27  O   UNL     1       3.422   2.465  -4.651  1.00  0.00    -0.458 OA
BRANCH  27  28
ATOM     28  C   UNL     1       3.926   1.292  -4.185  1.00  0.00     0.338 C 
ATOM     29  O   UNL     1       3.857   0.872  -3.046  1.00  0.00    -0.246 OA
BRANCH  28  30
ATOM     30  C   UNL     1       4.372   0.463  -5.330  1.00  0.00     0.060 A 
ATOM     31  C   UNL     1       3.828  -0.821  -5.434  1.00  0.00     0.016 A 
ATOM     32  C   UNL     1       5.240   0.935  -6.317  1.00  0.00     0.016 A 
ATOM     33  C   UNL     1       4.080  -1.598  -6.559  1.00  0.00     0.010 A 
ATOM     34  C   UNL     1       5.532   0.128  -7.428  1.00  0.00     0.010 A 
ATOM     35  C   UNL     1       4.931  -1.133  -7.569  1.00  0.00    -0.014 A 
BRANCH  35  36
ATOM     36  C   UNL     1       5.183  -1.994  -8.753  1.00  0.00     0.031 A 
ATOM     37  C   UNL     1       6.090  -3.185  -8.631  1.00  0.00     0.074 A 
ATOM     38  C   UNL     1       4.478  -1.817  -9.887  1.00  0.00     0.049 A 
ATOM     39  N   UNL     1       6.388  -4.095  -9.524  1.00  0.00    -0.248 NA
ATOM     40  C   UNL     1       6.704  -3.408  -7.314  1.00  0.00     0.031 C 
ATOM     41  C   UNL     1       3.426  -0.820 -10.075  1.00  0.00     0.029 A 
ATOM     42  N   UNL     1       4.492  -2.517 -11.069  1.00  0.00    -0.354 N 
ATOM     43  C   UNL     1       7.213  -5.003  -8.877  1.00  0.00     0.074 A 
ATOM     44  C   UNL     1       7.363  -4.540  -7.513  1.00  0.00     0.031 C 
ATOM     45  C   UNL     1       2.862  -1.005 -11.282  1.00  0.00     0.029 A 
ATOM     46  C   UNL     1       3.552  -2.090 -11.977  1.00  0.00     0.049 A 
ATOM     47  H   UNL     1       5.117  -3.257 -11.249  1.00  0.00     0.167 HD
ATOM     48  C   UNL     1       7.805  -6.114  -9.376  1.00  0.00     0.037 A 
ATOM     49  C   UNL     1       3.292  -2.517 -13.230  1.00  0.00     0.037 A 
ATOM     50  C   UNL     1       7.701  -6.557 -10.741  1.00  0.00     0.049 A 
ATOM     51  C   UNL     1       4.132  -3.618 -13.825  1.00  0.00     0.074 A 
ATOM     52  C   UNL     1       8.352  -7.612 -11.356  1.00  0.00     0.029 A 
ATOM     53  N   UNL     1       6.901  -5.965 -11.705  1.00  0.00    -0.354 N 
ATOM     54  N   UNL     1       4.993  -4.414 -13.241  1.00  0.00    -0.248 NA
ATOM     55  C   UNL     1       3.993  -3.851 -15.273  1.00  0.00     0.031 C 
ATOM     56  C   UNL     1       7.993  -7.620 -12.709  1.00  0.00     0.029 A 
ATOM     57  C   UNL     1       7.081  -6.600 -12.923  1.00  0.00     0.049 A 
ATOM     58  H   UNL     1       6.294  -5.206 -11.547  1.00  0.00     0.167 HD
ATOM     59  C   UNL     1       5.488  -5.244 -14.241  1.00  0.00     0.074 A 
ATOM     60  C   UNL     1       4.816  -4.873 -15.467  1.00  0.00     0.031 C 
ATOM     61  C   UNL     1       6.426  -6.218 -14.148  1.00  0.00     0.037 A 
BRANCH  48  62
ATOM     62  C   UNL     1       8.695  -6.879  -8.446  1.00  0.00     0.057 A 
ATOM     63  C   UNL     1       8.181  -7.708  -7.442  1.00  0.00     0.134 A 
ATOM     64  C   UNL     1      10.087  -6.780  -8.560  1.00  0.00     0.134 A 
ATOM     65  F   UNL     1       6.856  -7.826  -7.268  1.00  0.00    -0.206 F 
ATOM     66  C   UNL     1       9.025  -8.397  -6.568  1.00  0.00     0.040 A 
ATOM     67  C   UNL     1      10.940  -7.479  -7.706  1.00  0.00     0.040 A 
ATOM     68  F   UNL     1      10.639  -6.000  -9.502  1.00  0.00    -0.206 F 
ATOM     69  C   UNL     1      10.408  -8.286  -6.702  1.00  0.00     0.006 A 
ENDBRANCH  48  62
BRANCH  49  70
ATOM     70  C   UNL     1       2.233  -1.871 -14.051  1.00  0.00     0.057 A 
ATOM     71  C   UNL     1       1.131  -2.600 -14.516  1.00  0.00     0.134 A 
ATOM     72  C   UNL     1       2.330  -0.532 -14.452  1.00  0.00     0.134 A 
ATOM     73  F   UNL     1       0.996  -3.897 -14.201  1.00  0.00    -0.206 F 
ATOM     74  C   UNL     1       0.174  -2.026 -15.356  1.00  0.00     0.040 A 
ATOM     75  C   UNL     1       1.365   0.063 -15.266  1.00  0.00     0.040 A 
ATOM     76  F   UNL     1       3.371   0.219 -14.063  1.00  0.00    -0.206 F 
ATOM     77  C   UNL     1       0.287  -0.688 -15.729  1.00  0.00     0.006 A 
ENDBRANCH  49  70
BRANCH  61  78
ATOM     78  C   UNL     1       6.809  -6.943 -15.406  1.00  0.00     0.057 A 
ATOM     79  C   UNL     1       7.590  -6.329 -16.394  1.00  0.00     0.134 A 
ATOM     80  C   UNL     1       6.462  -8.286 -15.602  1.00  0.00     0.134 A 
ATOM     81  F   UNL     1       7.946  -5.041 -16.275  1.00  0.00    -0.206 F 
ATOM     82  C   UNL     1       8.006  -7.022 -17.533  1.00  0.00     0.040 A 
ATOM     83  C   UNL     1       6.892  -8.996 -16.724  1.00  0.00     0.040 A 
ATOM     84  F   UNL     1       5.720  -8.938 -14.694  1.00  0.00    -0.206 F 
ATOM     85  C   UNL     1       7.666  -8.363 -17.695  1.00  0.00     0.006 A 
ENDBRANCH  61  78
ENDBRANCH  35  36
ENDBRANCH  28  30
ENDBRANCH  27  28
ENDBRANCH  26  27
ENDBRANCH   1  26
TORSDOF 16
