REMARK SMILES COc1ccc(C2=NN(C(=O)CCC(=O)OCCOC(=O)c3ccc(-c4c5nc(c(-c6c(F)cccc6F)c6ccc([nH]6)c(-c6c(F)cccc6F)c6nc(c(-c7c(F)cccc7F)c7ccc4[nH]7)C=C6)C=C5)cc3)[C@H](c3ccc(Cl)cc3Cl)C2)cc1
REMARK SMILES IDX 16 1 14 2 15 3 13 4 12 5 10 6 11 7 9 8 7 9 8 10 85 11 76 12
REMARK SMILES IDX 6 13 3 14 4 15 87 16 5 17 86 18 2 19 1 20 77 21 78 22 83 23
REMARK SMILES IDX 79 24 82 25 84 26 80 27 81 28 17 29 18 30 19 31 20 32 21 33
REMARK SMILES IDX 22 34 23 35 75 36 24 37 74 38 25 39 26 40 27 41 68 42 28 43
REMARK SMILES IDX 73 44 67 45 69 46 29 47 72 48 66 49 65 50 30 52 56 53 39 54
REMARK SMILES IDX 55 55 40 56 43 57 54 58 70 59 41 60 42 61 53 63 71 64 44 65
REMARK SMILES IDX 31 66 32 67 37 68 33 69 34 70 36 71 38 72 35 73 57 74 58 75
REMARK SMILES IDX 63 76 59 77 60 78 62 79 64 80 61 81 45 82 46 83 51 84 47 85
REMARK SMILES IDX 48 86 50 87 52 88 49 89
REMARK H PARENT 69 51 43 62
REMARK Flexibility Score: inf
ROOT
ATOM      1  O   UNL     1       4.893  -7.338   3.518  1.00  0.00    -0.462 OA
ENDROOT
BRANCH   1   2
ATOM      2  C   UNL     1       5.231  -8.652   3.430  1.00  0.00     0.306 C 
ATOM      3  O   UNL     1       6.328  -9.110   3.722  1.00  0.00    -0.252 OA
BRANCH   2   4
ATOM      4  C   UNL     1       4.105  -9.492   2.881  1.00  0.00     0.132 C 
BRANCH   4   5
ATOM      5  C   UNL     1       2.883  -9.560   3.793  1.00  0.00     0.114 C 
BRANCH   5   6
ATOM      6  C   UNL     1       1.721  -8.806   3.175  1.00  0.00     0.243 C 
ATOM      7  O   UNL     1       1.248  -9.242   2.118  1.00  0.00    -0.273 OA
BRANCH   6   8
ATOM      8  N   UNL     1       1.302  -7.612   3.762  1.00  0.00    -0.225 N 
ATOM      9  C   UNL     1       0.921  -5.522   3.374  1.00  0.00     0.071 C 
ATOM     10  N   UNL     1       0.777  -6.693   2.853  1.00  0.00    -0.174 NA
ATOM     11  C   UNL     1       1.390  -5.477   4.781  1.00  0.00     0.091 C 
ATOM     12  C   UNL     1       1.810  -6.932   4.973  1.00  0.00     0.149 C 
BRANCH   9  13
ATOM     13  C   UNL     1       0.725  -4.264   2.667  1.00  0.00    -0.002 A 
ATOM     14  C   UNL     1       0.504  -1.728   1.563  1.00  0.00     0.118 A 
ATOM     15  C   UNL     1      -0.584  -2.307   2.226  1.00  0.00     0.047 A 
ATOM     16  C   UNL     1       1.713  -2.422   1.464  1.00  0.00     0.047 A 
ATOM     17  C   UNL     1      -0.482  -3.583   2.778  1.00  0.00     0.014 A 
ATOM     18  C   UNL     1       1.825  -3.699   2.015  1.00  0.00     0.014 A 
BRANCH  14  19
ATOM     19  O   UNL     1       0.294  -0.461   1.092  1.00  0.00    -0.497 OA
ATOM     20  C   UNL     1       1.033  -0.120  -0.076  1.00  0.00     0.278 C 
ENDBRANCH  14  19
ENDBRANCH   9  13
BRANCH  12  21
ATOM     21  C   UNL     1       1.528  -7.395   6.408  1.00  0.00    -0.004 A 
ATOM     22  C   UNL     1       2.013  -6.523   7.429  1.00  0.00     0.009 A 
ATOM     23  C   UNL     1       1.052  -8.643   6.835  1.00  0.00     0.047 A 
ATOM     24  C   UNL     1       2.116  -6.909   8.766  1.00  0.00     0.021 A 
ATOM     25  C   UNL     1       1.189  -9.045   8.178  1.00  0.00     0.041 A 
ATOM     26  Cl  UNL     1       0.251  -9.770   5.810  1.00  0.00    -0.084 Cl
ATOM     27  C   UNL     1       1.742  -8.191   9.126  1.00  0.00     0.042 A 
ATOM     28  Cl  UNL     1       1.982  -8.726  10.743  1.00  0.00    -0.084 Cl
ENDBRANCH  12  21
ENDBRANCH   6   8
ENDBRANCH   5   6
ENDBRANCH   4   5
ENDBRANCH   2   4
ENDBRANCH   1   2
BRANCH   1  29
ATOM     29  C   UNL     1       5.947  -6.433   3.910  1.00  0.00     0.274 C 
BRANCH  29  30
ATOM     30  C   UNL     1       5.939  -6.098   5.408  1.00  0.00     0.275 C 
BRANCH  30  31
ATOM     31  O   UNL     1       6.418  -7.179   6.233  1.00  0.00    -0.458 OA
BRANCH  31  32
ATOM     32  C   UNL     1       5.452  -8.039   6.613  1.00  0.00     0.338 C 
ATOM     33  O   UNL     1       4.274  -7.970   6.325  1.00  0.00    -0.246 OA
BRANCH  32  34
ATOM     34  C   UNL     1       5.939  -9.182   7.370  1.00  0.00     0.060 A 
ATOM     35  C   UNL     1       5.723 -10.450   6.821  1.00  0.00     0.016 A 
ATOM     36  C   UNL     1       6.454  -9.021   8.656  1.00  0.00     0.016 A 
ATOM     37  C   UNL     1       6.086 -11.575   7.541  1.00  0.00     0.010 A 
ATOM     38  C   UNL     1       6.831 -10.153   9.374  1.00  0.00     0.010 A 
ATOM     39  C   UNL     1       6.675 -11.428   8.805  1.00  0.00    -0.014 A 
BRANCH  39  40
ATOM     40  C   UNL     1       7.298 -12.606   9.435  1.00  0.00     0.031 A 
ATOM     41  C   UNL     1       6.642 -13.336  10.559  1.00  0.00     0.074 A 
ATOM     42  C   UNL     1       8.486 -12.999   8.940  1.00  0.00     0.049 A 
ATOM     43  N   UNL     1       7.058 -14.400  11.194  1.00  0.00    -0.248 NA
ATOM     44  C   UNL     1       5.359 -12.804  11.038  1.00  0.00     0.031 C 
ATOM     45  C   UNL     1       9.197 -12.334   7.842  1.00  0.00     0.029 A 
ATOM     46  N   UNL     1       9.297 -14.047   9.277  1.00  0.00    -0.354 N 
ATOM     47  C   UNL     1       6.093 -14.669  12.152  1.00  0.00     0.074 A 
ATOM     48  C   UNL     1       5.077 -13.643  12.027  1.00  0.00     0.031 C 
ATOM     49  C   UNL     1      10.327 -13.005   7.582  1.00  0.00     0.029 A 
ATOM     50  C   UNL     1      10.434 -14.121   8.512  1.00  0.00     0.049 A 
ATOM     51  H   UNL     1       9.086 -14.684   9.997  1.00  0.00     0.167 HD
ATOM     52  C   UNL     1       6.067 -15.684  13.048  1.00  0.00     0.037 A 
ATOM     53  C   UNL     1      11.453 -14.995   8.561  1.00  0.00     0.037 A 
ATOM     54  C   UNL     1       7.097 -16.688  13.159  1.00  0.00     0.049 A 
ATOM     55  C   UNL     1      11.398 -16.102   9.568  1.00  0.00     0.074 A 
ATOM     56  C   UNL     1       7.163 -17.769  14.021  1.00  0.00     0.029 A 
ATOM     57  N   UNL     1       8.248 -16.727  12.383  1.00  0.00    -0.354 N 
ATOM     58  N   UNL     1      10.466 -16.364  10.452  1.00  0.00    -0.248 NA
ATOM     59  C   UNL     1      12.532 -17.032   9.586  1.00  0.00     0.031 C 
ATOM     60  C   UNL     1       8.371 -18.440  13.790  1.00  0.00     0.029 A 
ATOM     61  C   UNL     1       9.040 -17.800  12.759  1.00  0.00     0.049 A 
ATOM     62  H   UNL     1       8.469 -16.086  11.669  1.00  0.00     0.167 HD
ATOM     63  C   UNL     1      10.897 -17.492  11.133  1.00  0.00     0.074 A 
ATOM     64  C   UNL     1      12.162 -17.879  10.537  1.00  0.00     0.031 C 
ATOM     65  C   UNL     1      10.306 -18.145  12.163  1.00  0.00     0.037 A 
BRANCH  52  66
ATOM     66  C   UNL     1       4.903 -15.744  13.991  1.00  0.00     0.057 A 
ATOM     67  C   UNL     1       3.631 -16.151  13.568  1.00  0.00     0.134 A 
ATOM     68  C   UNL     1       5.061 -15.421  15.344  1.00  0.00     0.134 A 
ATOM     69  F   UNL     1       3.409 -16.462  12.282  1.00  0.00    -0.206 F 
ATOM     70  C   UNL     1       2.554 -16.218  14.454  1.00  0.00     0.040 A 
ATOM     71  C   UNL     1       3.997 -15.502  16.244  1.00  0.00     0.040 A 
ATOM     72  F   UNL     1       6.253 -15.025  15.815  1.00  0.00    -0.206 F 
ATOM     73  C   UNL     1       2.737 -15.898  15.799  1.00  0.00     0.006 A 
ENDBRANCH  52  66
BRANCH  53  74
ATOM     74  C   UNL     1      12.585 -14.852   7.617  1.00  0.00     0.057 A 
ATOM     75  C   UNL     1      12.756 -15.746   6.555  1.00  0.00     0.134 A 
ATOM     76  C   UNL     1      13.495 -13.793   7.727  1.00  0.00     0.134 A 
ATOM     77  F   UNL     1      11.921 -16.784   6.406  1.00  0.00    -0.206 F 
ATOM     78  C   UNL     1      13.796 -15.597   5.638  1.00  0.00     0.040 A 
ATOM     79  C   UNL     1      14.527 -13.620   6.804  1.00  0.00     0.040 A 
ATOM     80  F   UNL     1      13.374 -12.896   8.717  1.00  0.00    -0.206 F 
ATOM     81  C   UNL     1      14.681 -14.526   5.758  1.00  0.00     0.006 A 
ENDBRANCH  53  74
BRANCH  65  82
ATOM     82  C   UNL     1      11.040 -19.335  12.700  1.00  0.00     0.057 A 
ATOM     83  C   UNL     1      12.188 -19.189  13.490  1.00  0.00     0.134 A 
ATOM     84  C   UNL     1      10.604 -20.634  12.418  1.00  0.00     0.134 A 
ATOM     85  F   UNL     1      12.664 -17.968  13.777  1.00  0.00    -0.206 F 
ATOM     86  C   UNL     1      12.893 -20.297  13.959  1.00  0.00     0.040 A 
ATOM     87  C   UNL     1      11.288 -21.750  12.900  1.00  0.00     0.040 A 
ATOM     88  F   UNL     1       9.510 -20.839  11.668  1.00  0.00    -0.206 F 
ATOM     89  C   UNL     1      12.441 -21.583  13.666  1.00  0.00     0.006 A 
ENDBRANCH  65  82
ENDBRANCH  39  40
ENDBRANCH  32  34
ENDBRANCH  31  32
ENDBRANCH  30  31
ENDBRANCH  29  30
ENDBRANCH   1  29
TORSDOF 17
