REMARK SMILES COCCNC(=O)c1cccc(NC(=O)[C@@H]2CCCC[C@H]2C(=O)OCCOC(=O)c2ccc(-c3c4nc(c(-c5c(F)cccc5F)c5ccc([nH]5)c(-c5c(F)cccc5F)c5nc(c(-c6c(F)cccc6F)c6ccc3[nH]6)C=C5)C=C4)cc2)c1
REMARK SMILES IDX 22 1 23 2 21 3 16 4 17 5 18 6 20 7 19 8 14 9 13 10 15 12
REMARK SMILES IDX 12 13 8 14 9 15 84 16 10 17 11 18 6 19 5 20 7 22 4 23 3 24
REMARK SMILES IDX 2 25 1 26 24 27 25 28 26 29 27 30 28 31 29 32 30 33 31 34
REMARK SMILES IDX 83 35 32 36 82 37 33 38 34 39 35 40 76 41 36 42 81 43 75 44
REMARK SMILES IDX 77 45 37 46 80 47 74 48 73 49 38 51 64 52 47 53 63 54 48 55
REMARK SMILES IDX 51 56 62 57 78 58 49 59 50 60 61 62 79 63 52 64 39 65 40 66
REMARK SMILES IDX 45 67 41 68 42 69 44 70 46 71 43 72 65 73 66 74 71 75 67 76
REMARK SMILES IDX 68 77 70 78 72 79 69 80 53 81 54 82 59 83 55 84 56 85 58 86
REMARK SMILES IDX 60 87 57 88
REMARK H PARENT 13 11 5 21 77 50 51 61
REMARK Flexibility Score: inf
ROOT
ATOM      1  C   UNL     1       2.741   1.955  -9.923  1.00  0.00     0.309 C 
ATOM      2  O   UNL     1       2.942   3.048  -9.402  1.00  0.00    -0.252 OA
ENDROOT
BRANCH   1   3
ATOM      3  C   UNL     1       3.429   0.698  -9.411  1.00  0.00     0.111 C 
ATOM      4  C   UNL     1       2.657  -0.621  -9.615  1.00  0.00     0.093 C 
ATOM      5  C   UNL     1       3.479  -1.922  -9.616  1.00  0.00     0.014 C 
ATOM      6  C   UNL     1       4.867  -1.797 -10.229  1.00  0.00     0.001 C 
ATOM      7  C   UNL     1       4.826   0.695 -10.044  1.00  0.00     0.016 C 
ATOM      8  C   UNL     1       5.617  -0.568  -9.746  1.00  0.00     0.001 C 
BRANCH   4   9
ATOM      9  C   UNL     1       1.454  -0.809  -8.691  1.00  0.00     0.228 C 
ATOM     10  N   UNL     1       1.431  -0.683  -7.337  1.00  0.00    -0.326 N 
ATOM     11  H   UNL     1       0.513  -0.759  -6.987  1.00  0.00     0.169 HD
ATOM     12  O   UNL     1       0.376  -1.141  -9.206  1.00  0.00    -0.274 OA
BRANCH  10  13
ATOM     13  C   UNL     1       2.356  -0.475  -6.297  1.00  0.00     0.041 A 
ATOM     14  C   UNL     1       2.679   0.237  -3.987  1.00  0.00     0.041 A 
ATOM     15  C   UNL     1       4.063   0.210  -4.155  1.00  0.00     0.014 A 
ATOM     16  C   UNL     1       1.831  -0.105  -5.052  1.00  0.00     0.040 A 
ATOM     17  C   UNL     1       4.591  -0.231  -5.359  1.00  0.00     0.003 A 
ATOM     18  C   UNL     1       3.737  -0.590  -6.406  1.00  0.00     0.026 A 
BRANCH  14  19
ATOM     19  C   UNL     1       2.149   0.833  -2.746  1.00  0.00     0.251 C 
ATOM     20  N   UNL     1       1.063   0.290  -2.119  1.00  0.00    -0.350 N 
ATOM     21  H   UNL     1       0.524   0.917  -1.584  1.00  0.00     0.163 HD
ATOM     22  O   UNL     1       2.689   1.845  -2.310  1.00  0.00    -0.269 OA
BRANCH  20  23
ATOM     23  C   UNL     1       0.592  -1.089  -2.133  1.00  0.00     0.144 C 
BRANCH  23  24
ATOM     24  C   UNL     1       1.328  -1.968  -1.114  1.00  0.00     0.181 C 
BRANCH  24  25
ATOM     25  O   UNL     1       0.810  -1.879   0.214  1.00  0.00    -0.383 OA
ATOM     26  C   UNL     1       1.078  -0.643   0.865  1.00  0.00     0.194 C 
ENDBRANCH  24  25
ENDBRANCH  23  24
ENDBRANCH  20  23
ENDBRANCH  14  19
ENDBRANCH  10  13
ENDBRANCH   4   9
ENDBRANCH   1   3
BRANCH   1  27
ATOM     27  O   UNL     1       2.014   1.763 -11.051  1.00  0.00    -0.462 OA
BRANCH  27  28
ATOM     28  C   UNL     1       1.503   2.963 -11.665  1.00  0.00     0.274 C 
BRANCH  28  29
ATOM     29  C   UNL     1       0.085   3.284 -11.199  1.00  0.00     0.275 C 
BRANCH  29  30
ATOM     30  O   UNL     1       0.056   3.503  -9.777  1.00  0.00    -0.458 OA
BRANCH  30  31
ATOM     31  C   UNL     1      -0.683   2.616  -9.073  1.00  0.00     0.338 C 
ATOM     32  O   UNL     1      -1.347   1.693  -9.507  1.00  0.00    -0.246 OA
BRANCH  31  33
ATOM     33  C   UNL     1      -0.644   2.938  -7.638  1.00  0.00     0.060 A 
ATOM     34  C   UNL     1       0.543   2.855  -6.915  1.00  0.00     0.016 A 
ATOM     35  C   UNL     1      -1.851   3.184  -6.979  1.00  0.00     0.016 A 
ATOM     36  C   UNL     1       0.503   2.942  -5.521  1.00  0.00     0.010 A 
ATOM     37  C   UNL     1      -1.874   3.330  -5.588  1.00  0.00     0.010 A 
ATOM     38  C   UNL     1      -0.705   3.154  -4.832  1.00  0.00    -0.014 A 
BRANCH  38  39
ATOM     39  C   UNL     1      -0.750   3.109  -3.337  1.00  0.00     0.031 A 
ATOM     40  C   UNL     1      -1.606   2.088  -2.618  1.00  0.00     0.074 A 
ATOM     41  C   UNL     1       0.041   3.914  -2.599  1.00  0.00     0.049 A 
ATOM     42  N   UNL     1      -1.773   1.907  -1.328  1.00  0.00    -0.248 NA
ATOM     43  C   UNL     1      -2.354   1.131  -3.448  1.00  0.00     0.031 C 
ATOM     44  C   UNL     1       0.983   4.895  -3.137  1.00  0.00     0.029 A 
ATOM     45  N   UNL     1       0.225   3.991  -1.237  1.00  0.00    -0.354 N 
ATOM     46  C   UNL     1      -2.677   0.859  -1.198  1.00  0.00     0.074 A 
ATOM     47  C   UNL     1      -3.025   0.438  -2.538  1.00  0.00     0.031 C 
ATOM     48  C   UNL     1       1.719   5.393  -2.133  1.00  0.00     0.029 A 
ATOM     49  C   UNL     1       1.241   4.841  -0.869  1.00  0.00     0.049 A 
ATOM     50  H   UNL     1      -0.319   3.487  -0.590  1.00  0.00     0.167 HD
ATOM     51  C   UNL     1      -3.163   0.282  -0.073  1.00  0.00     0.037 A 
ATOM     52  C   UNL     1       1.731   5.159   0.345  1.00  0.00     0.037 A 
ATOM     53  C   UNL     1      -2.802   0.653   1.270  1.00  0.00     0.049 A 
ATOM     54  C   UNL     1       1.111   4.567   1.577  1.00  0.00     0.074 A 
ATOM     55  C   UNL     1      -3.243   0.103   2.463  1.00  0.00     0.029 A 
ATOM     56  N   UNL     1      -1.911   1.658   1.602  1.00  0.00    -0.354 N 
ATOM     57  N   UNL     1       0.203   3.629   1.680  1.00  0.00    -0.248 NA
ATOM     58  C   UNL     1       1.558   5.116   2.867  1.00  0.00     0.031 C 
ATOM     59  C   UNL     1      -2.631   0.788   3.518  1.00  0.00     0.029 A 
ATOM     60  C   UNL     1      -1.783   1.740   2.980  1.00  0.00     0.049 A 
ATOM     61  H   UNL     1      -1.438   2.231   0.956  1.00  0.00     0.167 HD
ATOM     62  C   UNL     1      -0.038   3.485   3.041  1.00  0.00     0.074 A 
ATOM     63  C   UNL     1       0.845   4.402   3.727  1.00  0.00     0.031 C 
ATOM     64  C   UNL     1      -0.925   2.671   3.662  1.00  0.00     0.037 A 
BRANCH  51  65
ATOM     65  C   UNL     1      -4.160  -0.827  -0.237  1.00  0.00     0.057 A 
ATOM     66  C   UNL     1      -3.771  -2.123  -0.595  1.00  0.00     0.134 A 
ATOM     67  C   UNL     1      -5.516  -0.607   0.037  1.00  0.00     0.134 A 
ATOM     68  F   UNL     1      -2.491  -2.391  -0.892  1.00  0.00    -0.206 F 
ATOM     69  C   UNL     1      -4.698  -3.163  -0.679  1.00  0.00     0.040 A 
ATOM     70  C   UNL     1      -6.450  -1.642  -0.030  1.00  0.00     0.040 A 
ATOM     71  F   UNL     1      -5.950   0.613   0.389  1.00  0.00    -0.206 F 
ATOM     72  C   UNL     1      -6.041  -2.925  -0.388  1.00  0.00     0.006 A 
ENDBRANCH  51  65
BRANCH  52  73
ATOM     73  C   UNL     1       2.850   6.128   0.464  1.00  0.00     0.057 A 
ATOM     74  C   UNL     1       4.107   5.730   0.933  1.00  0.00     0.134 A 
ATOM     75  C   UNL     1       2.684   7.478   0.130  1.00  0.00     0.134 A 
ATOM     76  F   UNL     1       4.317   4.460   1.311  1.00  0.00    -0.206 F 
ATOM     77  C   UNL     1       5.158   6.639   1.064  1.00  0.00     0.040 A 
ATOM     78  C   UNL     1       3.733   8.391   0.229  1.00  0.00     0.040 A 
ATOM     79  F   UNL     1       1.499   7.926  -0.310  1.00  0.00    -0.206 F 
ATOM     80  C   UNL     1       4.975   7.973   0.702  1.00  0.00     0.006 A 
ENDBRANCH  52  73
BRANCH  64  81
ATOM     81  C   UNL     1      -0.994   2.746   5.157  1.00  0.00     0.057 A 
ATOM     82  C   UNL     1      -1.611   3.824   5.805  1.00  0.00     0.134 A 
ATOM     83  C   UNL     1      -0.459   1.729   5.957  1.00  0.00     0.134 A 
ATOM     84  F   UNL     1      -2.128   4.838   5.094  1.00  0.00    -0.206 F 
ATOM     85  C   UNL     1      -1.678   3.896   7.197  1.00  0.00     0.040 A 
ATOM     86  C   UNL     1      -0.538   1.780   7.349  1.00  0.00     0.040 A 
ATOM     87  F   UNL     1       0.142   0.668   5.397  1.00  0.00    -0.206 F 
ATOM     88  C   UNL     1      -1.145   2.868   7.973  1.00  0.00     0.006 A 
ENDBRANCH  64  81
ENDBRANCH  38  39
ENDBRANCH  31  33
ENDBRANCH  30  31
ENDBRANCH  29  30
ENDBRANCH  28  29
ENDBRANCH  27  28
ENDBRANCH   1  27
TORSDOF 17
