REMARK SMILES CC(C)(C)OC(=O)N1C[C@H](Cc2ccccc2)[C@H](C(=O)OCCOC(=O)c2ccc(-c3c4nc(c(-c5c(F)cccc5F)c5ccc([nH]5)c(-c5c(F)cccc5F)c5nc(c(-c6c(F)cccc6F)c6ccc3[nH]6)C=C5)C=C4)cc2)C1
REMARK SMILES IDX 22 1 21 2 19 3 20 4 18 5 8 6 9 7 81 8 10 9 6 10 7 11 5 12
REMARK SMILES IDX 2 13 1 14 3 15 4 16 11 17 12 18 13 19 17 20 14 21 16 22
REMARK SMILES IDX 15 23 23 24 24 25 25 26 26 27 27 28 28 29 80 30 29 31 79 32
REMARK SMILES IDX 30 33 31 34 32 35 73 36 33 37 78 38 72 39 74 40 34 41 77 42
REMARK SMILES IDX 71 43 70 44 35 46 61 47 44 48 60 49 45 50 48 51 59 52 75 53
REMARK SMILES IDX 46 54 47 55 58 57 76 58 49 59 36 60 37 61 42 62 38 63 39 64
REMARK SMILES IDX 41 65 43 66 40 67 62 68 63 69 68 70 64 71 65 72 67 73 69 74
REMARK SMILES IDX 66 75 50 76 51 77 56 78 52 79 53 80 55 81 57 82 54 83
REMARK H PARENT 74 45 48 56
REMARK Flexibility Score: inf
ROOT
ATOM      1  C   UNL     1      -1.271  -8.344  -1.952  1.00  0.00     0.274 C 
ENDROOT
BRANCH   1   2
ATOM      2  O   UNL     1      -0.466  -7.383  -1.240  1.00  0.00    -0.462 OA
BRANCH   2   3
ATOM      3  C   UNL     1      -0.194  -7.655   0.055  1.00  0.00     0.311 C 
ATOM      4  O   UNL     1      -0.683  -8.587   0.683  1.00  0.00    -0.252 OA
BRANCH   3   5
ATOM      5  C   UNL     1       0.749  -6.669   0.703  1.00  0.00     0.124 C 
ATOM      6  N   UNL     1       0.826  -4.414   1.341  1.00  0.00    -0.307 N 
ATOM      7  C   UNL     1       2.132  -4.726   0.791  1.00  0.00     0.128 C 
ATOM      8  C   UNL     1      -0.042  -5.565   1.377  1.00  0.00     0.138 C 
ATOM      9  C   UNL     1       1.894  -5.970  -0.078  1.00  0.00     0.029 C 
BRANCH   6  10
ATOM     10  C   UNL     1       0.363  -3.186   1.723  1.00  0.00     0.410 C 
ATOM     11  O   UNL     1      -0.639  -3.042   2.412  1.00  0.00    -0.224 OA
BRANCH  10  12
ATOM     12  O   UNL     1       1.075  -2.186   1.155  1.00  0.00    -0.444 OA
BRANCH  12  13
ATOM     13  C   UNL     1       0.610  -0.815   1.225  1.00  0.00     0.106 C 
ATOM     14  C   UNL     1       1.369  -0.091   0.104  1.00  0.00     0.056 C 
ATOM     15  C   UNL     1       0.999  -0.224   2.580  1.00  0.00     0.056 C 
ATOM     16  C   UNL     1      -0.894  -0.663   0.946  1.00  0.00     0.056 C 
ENDBRANCH  12  13
ENDBRANCH  10  12
ENDBRANCH   6  10
BRANCH   9  17
ATOM     17  C   UNL     1       1.648  -5.562  -1.543  1.00  0.00     0.042 C 
BRANCH  17  18
ATOM     18  C   UNL     1       2.865  -4.924  -2.187  1.00  0.00    -0.048 A 
ATOM     19  C   UNL     1       2.844  -3.580  -2.580  1.00  0.00     0.004 A 
ATOM     20  C   UNL     1       4.032  -5.674  -2.398  1.00  0.00     0.004 A 
ATOM     21  C   UNL     1       3.973  -2.994  -3.157  1.00  0.00     0.000 A 
ATOM     22  C   UNL     1       5.162  -5.085  -2.970  1.00  0.00     0.000 A 
ATOM     23  C   UNL     1       5.132  -3.745  -3.348  1.00  0.00     0.000 A 
ENDBRANCH  17  18
ENDBRANCH   9  17
ENDBRANCH   3   5
ENDBRANCH   2   3
ENDBRANCH   1   2
BRANCH   1  24
ATOM     24  C   UNL     1      -0.403  -9.359  -2.707  1.00  0.00     0.275 C 
BRANCH  24  25
ATOM     25  O   UNL     1       0.284 -10.255  -1.809  1.00  0.00    -0.458 OA
BRANCH  25  26
ATOM     26  C   UNL     1       1.541  -9.883  -1.475  1.00  0.00     0.338 C 
ATOM     27  O   UNL     1       2.159  -8.915  -1.888  1.00  0.00    -0.246 OA
BRANCH  26  28
ATOM     28  C   UNL     1       2.045 -10.712  -0.367  1.00  0.00     0.060 A 
ATOM     29  C   UNL     1       2.450 -10.042   0.789  1.00  0.00     0.016 A 
ATOM     30  C   UNL     1       2.200 -12.095  -0.472  1.00  0.00     0.016 A 
ATOM     31  C   UNL     1       3.001 -10.742   1.853  1.00  0.00     0.010 A 
ATOM     32  C   UNL     1       2.771 -12.802   0.596  1.00  0.00     0.010 A 
ATOM     33  C   UNL     1       3.180 -12.126   1.760  1.00  0.00    -0.014 A 
BRANCH  33  34
ATOM     34  C   UNL     1       3.862 -12.818   2.878  1.00  0.00     0.031 A 
ATOM     35  C   UNL     1       5.312 -13.184   2.758  1.00  0.00     0.074 A 
ATOM     36  C   UNL     1       3.206 -13.014   4.036  1.00  0.00     0.049 A 
ATOM     37  N   UNL     1       6.099 -13.746   3.640  1.00  0.00    -0.248 NA
ATOM     38  C   UNL     1       5.966 -12.871   1.478  1.00  0.00     0.031 C 
ATOM     39  C   UNL     1       1.812 -12.647   4.287  1.00  0.00     0.029 A 
ATOM     40  N   UNL     1       3.634 -13.547   5.225  1.00  0.00    -0.354 N 
ATOM     41  C   UNL     1       7.336 -13.865   3.021  1.00  0.00     0.074 A 
ATOM     42  C   UNL     1       7.192 -13.333   1.682  1.00  0.00     0.031 C 
ATOM     43  C   UNL     1       1.505 -12.947   5.560  1.00  0.00     0.029 A 
ATOM     44  C   UNL     1       2.668 -13.557   6.200  1.00  0.00     0.049 A 
ATOM     45  H   UNL     1       4.546 -13.889   5.366  1.00  0.00     0.167 HD
ATOM     46  C   UNL     1       8.487 -14.368   3.526  1.00  0.00     0.037 A 
ATOM     47  C   UNL     1       2.714 -14.014   7.466  1.00  0.00     0.037 A 
ATOM     48  C   UNL     1       8.632 -14.885   4.862  1.00  0.00     0.049 A 
ATOM     49  C   UNL     1       3.994 -14.604   7.987  1.00  0.00     0.074 A 
ATOM     50  C   UNL     1       9.758 -15.420   5.464  1.00  0.00     0.029 A 
ATOM     51  N   UNL     1       7.616 -14.928   5.805  1.00  0.00    -0.354 N 
ATOM     52  N   UNL     1       5.153 -14.726   7.387  1.00  0.00    -0.248 NA
ATOM     53  C   UNL     1       3.970 -15.124   9.361  1.00  0.00     0.031 C 
ATOM     54  C   UNL     1       9.414 -15.817   6.761  1.00  0.00     0.029 A 
ATOM     55  C   UNL     1       8.084 -15.494   6.980  1.00  0.00     0.049 A 
ATOM     56  H   UNL     1       6.698 -14.603   5.662  1.00  0.00     0.167 HD
ATOM     57  C   UNL     1       5.998 -15.325   8.311  1.00  0.00     0.074 A 
ATOM     58  C   UNL     1       5.225 -15.520   9.521  1.00  0.00     0.031 C 
ATOM     59  C   UNL     1       7.297 -15.687   8.170  1.00  0.00     0.037 A 
BRANCH  46  60
ATOM     60  C   UNL     1       9.675 -14.413   2.612  1.00  0.00     0.057 A 
ATOM     61  C   UNL     1      10.396 -13.260   2.278  1.00  0.00     0.134 A 
ATOM     62  C   UNL     1      10.116 -15.630   2.079  1.00  0.00     0.134 A 
ATOM     63  F   UNL     1      10.014 -12.060   2.742  1.00  0.00    -0.206 F 
ATOM     64  C   UNL     1      11.504 -13.314   1.429  1.00  0.00     0.040 A 
ATOM     65  C   UNL     1      11.234 -15.700   1.246  1.00  0.00     0.040 A 
ATOM     66  F   UNL     1       9.470 -16.771   2.361  1.00  0.00    -0.206 F 
ATOM     67  C   UNL     1      11.928 -14.538   0.915  1.00  0.00     0.006 A 
ENDBRANCH  46  60
BRANCH  47  68
ATOM     68  C   UNL     1       1.506 -13.941   8.324  1.00  0.00     0.057 A 
ATOM     69  C   UNL     1       1.442 -13.070   9.416  1.00  0.00     0.134 A 
ATOM     70  C   UNL     1       0.391 -14.751   8.075  1.00  0.00     0.134 A 
ATOM     71  F   UNL     1       2.488 -12.288   9.719  1.00  0.00    -0.206 F 
ATOM     72  C   UNL     1       0.315 -13.013  10.238  1.00  0.00     0.040 A 
ATOM     73  C   UNL     1      -0.751 -14.687   8.874  1.00  0.00     0.040 A 
ATOM     74  F   UNL     1       0.393 -15.607   7.043  1.00  0.00    -0.206 F 
ATOM     75  C   UNL     1      -0.788 -13.819   9.963  1.00  0.00     0.006 A 
ENDBRANCH  47  68
BRANCH  59  76
ATOM     76  C   UNL     1       7.957 -16.318   9.360  1.00  0.00     0.057 A 
ATOM     77  C   UNL     1       7.667 -17.632   9.749  1.00  0.00     0.134 A 
ATOM     78  C   UNL     1       8.897 -15.609  10.117  1.00  0.00     0.134 A 
ATOM     79  F   UNL     1       6.764 -18.358   9.073  1.00  0.00    -0.206 F 
ATOM     80  C   UNL     1       8.271 -18.209  10.867  1.00  0.00     0.040 A 
ATOM     81  C   UNL     1       9.524 -16.183  11.223  1.00  0.00     0.040 A 
ATOM     82  F   UNL     1       9.224 -14.349   9.792  1.00  0.00    -0.206 F 
ATOM     83  C   UNL     1       9.206 -17.485  11.605  1.00  0.00     0.006 A 
ENDBRANCH  59  76
ENDBRANCH  33  34
ENDBRANCH  26  28
ENDBRANCH  25  26
ENDBRANCH  24  25
ENDBRANCH   1  24
TORSDOF 16
