REMARK SMILES Cc1csc(CSCC[C@H]([NH3+])C(=O)OCCOC(=O)c2ccc(-c3c4nc(c(-c5c(F)cccc5F)c5ccc([nH]5)c(-c5c(F)cccc5F)c5nc(c(-c6c(F)cccc6F)c6ccc3[nH]6)C=C5)C=C4)cc2)n1
REMARK SMILES IDX 14 1 12 2 13 3 10 4 9 5 8 6 7 7 6 8 5 9 1 10 2 11 3 12 74 13
REMARK SMILES IDX 4 14 11 15 15 19 16 20 17 21 18 22 19 23 20 24 21 25 73 26
REMARK SMILES IDX 22 27 72 28 23 29 24 30 25 31 66 32 26 33 71 34 65 35 67 36
REMARK SMILES IDX 27 37 70 38 64 39 63 40 28 42 54 43 37 44 53 45 38 46 41 47
REMARK SMILES IDX 52 48 68 49 39 50 40 51 51 53 69 54 42 55 29 56 30 57 35 58
REMARK SMILES IDX 31 59 32 60 34 61 36 62 33 63 55 64 56 65 61 66 57 67 58 68
REMARK SMILES IDX 60 69 62 70 59 71 43 72 44 73 49 74 45 75 46 76 48 77 50 78
REMARK SMILES IDX 47 79
REMARK H PARENT 11 16 11 17 11 18 67 41 41 52
REMARK Flexibility Score: inf
ROOT
ATOM      1  O   UNL     1       5.503   0.970  -2.192  1.00  0.00    -0.458 OA
ENDROOT
BRANCH   1   2
ATOM      2  C   UNL     1       4.585   0.797  -1.201  1.00  0.00     0.364 C 
ATOM      3  O   UNL     1       4.861   0.490  -0.049  1.00  0.00    -0.245 OA
BRANCH   2   4
ATOM      4  C   UNL     1       3.146   1.021  -1.700  1.00  0.00     0.292 C 
BRANCH   4   5
ATOM      5  C   UNL     1       2.224  -0.190  -1.490  1.00  0.00     0.088 C 
BRANCH   5   6
ATOM      6  C   UNL     1       2.349  -1.392  -2.431  1.00  0.00     0.077 C 
BRANCH   6   7
ATOM      7  S   UNL     1       3.302  -2.839  -1.848  1.00  0.00    -0.154 SA
BRANCH   7   8
ATOM      8  C   UNL     1       5.036  -2.400  -2.148  1.00  0.00     0.137 C 
BRANCH   8   9
ATOM      9  C   UNL     1       5.495  -2.273  -3.575  1.00  0.00     0.103 A 
ATOM     10  C   UNL     1       7.727  -3.397  -6.175  1.00  0.00     0.067 C 
ATOM     11  C   UNL     1       6.759  -2.610  -5.377  1.00  0.00     0.049 A 
ATOM     12  C   UNL     1       6.169  -1.422  -5.753  1.00  0.00     0.090 A 
ATOM     13  N   UNL     1       6.384  -3.077  -4.127  1.00  0.00    -0.246 NA
ATOM     14  S   UNL     1       5.050  -0.939  -4.570  1.00  0.00    -0.126 S 
ENDBRANCH   8   9
ENDBRANCH   7   8
ENDBRANCH   6   7
ENDBRANCH   5   6
ENDBRANCH   4   5
BRANCH   4  15
ATOM     15  N   UNL     1       3.075   1.575  -3.072  1.00  0.00    -0.346 N 
ATOM     16  H   UNL     1       3.436   0.888  -3.735  1.00  0.00     0.345 HD
ATOM     17  H   UNL     1       3.634   2.426  -3.125  1.00  0.00     0.345 HD
ATOM     18  H   UNL     1       2.105   1.791  -3.302  1.00  0.00     0.345 HD
ENDBRANCH   4  15
ENDBRANCH   2   4
ENDBRANCH   1   2
BRANCH   1  19
ATOM     19  C   UNL     1       6.905   0.791  -1.889  1.00  0.00     0.274 C 
BRANCH  19  20
ATOM     20  C   UNL     1       7.698   2.009  -2.367  1.00  0.00     0.275 C 
BRANCH  20  21
ATOM     21  O   UNL     1       7.450   3.110  -1.479  1.00  0.00    -0.458 OA
BRANCH  21  22
ATOM     22  C   UNL     1       6.289   3.764  -1.710  1.00  0.00     0.338 C 
ATOM     23  O   UNL     1       5.589   3.704  -2.710  1.00  0.00    -0.246 OA
BRANCH  22  24
ATOM     24  C   UNL     1       5.840   4.355  -0.441  1.00  0.00     0.060 A 
ATOM     25  C   UNL     1       4.490   4.195  -0.113  1.00  0.00     0.016 A 
ATOM     26  C   UNL     1       6.710   5.024   0.421  1.00  0.00     0.016 A 
ATOM     27  C   UNL     1       3.997   4.710   1.074  1.00  0.00     0.010 A 
ATOM     28  C   UNL     1       6.211   5.561   1.608  1.00  0.00     0.010 A 
ATOM     29  C   UNL     1       4.848   5.425   1.922  1.00  0.00    -0.014 A 
BRANCH  29  30
ATOM     30  C   UNL     1       4.249   6.163   3.051  1.00  0.00     0.031 A 
ATOM     31  C   UNL     1       4.013   7.636   2.894  1.00  0.00     0.074 A 
ATOM     32  C   UNL     1       3.847   5.501   4.149  1.00  0.00     0.049 A 
ATOM     33  N   UNL     1       3.481   8.485   3.732  1.00  0.00    -0.248 NA
ATOM     34  C   UNL     1       4.433   8.236   1.615  1.00  0.00     0.031 C 
ATOM     35  C   UNL     1       3.981   4.060   4.364  1.00  0.00     0.029 A 
ATOM     36  N   UNL     1       3.227   5.955   5.282  1.00  0.00    -0.354 N 
ATOM     37  C   UNL     1       3.520   9.718   3.093  1.00  0.00     0.074 A 
ATOM     38  C   UNL     1       4.147   9.515   1.807  1.00  0.00     0.031 C 
ATOM     39  C   UNL     1       3.445   3.745   5.556  1.00  0.00     0.029 A 
ATOM     40  C   UNL     1       2.968   4.966   6.199  1.00  0.00     0.049 A 
ATOM     41  H   UNL     1       2.991   6.900   5.426  1.00  0.00     0.167 HD
ATOM     42  C   UNL     1       3.066  10.909   3.544  1.00  0.00     0.037 A 
ATOM     43  C   UNL     1       2.418   5.051   7.424  1.00  0.00     0.037 A 
ATOM     44  C   UNL     1       2.429  11.087   4.822  1.00  0.00     0.049 A 
ATOM     45  C   UNL     1       1.973   6.402   7.918  1.00  0.00     0.074 A 
ATOM     46  C   UNL     1       1.912  12.244   5.376  1.00  0.00     0.029 A 
ATOM     47  N   UNL     1       2.226  10.073   5.748  1.00  0.00    -0.354 N 
ATOM     48  N   UNL     1       1.999   7.562   7.303  1.00  0.00    -0.248 NA
ATOM     49  C   UNL     1       1.418   6.455   9.276  1.00  0.00     0.031 C 
ATOM     50  C   UNL     1       1.451  11.941   6.662  1.00  0.00     0.029 A 
ATOM     51  C   UNL     1       1.619  10.583   6.883  1.00  0.00     0.049 A 
ATOM     52  H   UNL     1       2.477   9.130   5.617  1.00  0.00     0.167 HD
ATOM     53  C   UNL     1       1.436   8.474   8.186  1.00  0.00     0.074 A 
ATOM     54  C   UNL     1       1.055   7.725   9.367  1.00  0.00     0.031 C 
ATOM     55  C   UNL     1       1.251   9.811   8.043  1.00  0.00     0.037 A 
BRANCH  42  56
ATOM     56  C   UNL     1       3.282  12.112   2.673  1.00  0.00     0.057 A 
ATOM     57  C   UNL     1       2.582  12.308   1.475  1.00  0.00     0.134 A 
ATOM     58  C   UNL     1       4.193  13.106   3.056  1.00  0.00     0.134 A 
ATOM     59  F   UNL     1       1.712  11.385   1.037  1.00  0.00    -0.206 F 
ATOM     60  C   UNL     1       2.793  13.438   0.682  1.00  0.00     0.040 A 
ATOM     61  C   UNL     1       4.391  14.253   2.286  1.00  0.00     0.040 A 
ATOM     62  F   UNL     1       4.900  12.981   4.189  1.00  0.00    -0.206 F 
ATOM     63  C   UNL     1       3.693  14.419   1.092  1.00  0.00     0.006 A 
ENDBRANCH  42  56
BRANCH  43  64
ATOM     64  C   UNL     1       2.265   3.841   8.272  1.00  0.00     0.057 A 
ATOM     65  C   UNL     1       1.001   3.362   8.636  1.00  0.00     0.134 A 
ATOM     66  C   UNL     1       3.380   3.160   8.779  1.00  0.00     0.134 A 
ATOM     67  F   UNL     1      -0.106   3.981   8.201  1.00  0.00    -0.206 F 
ATOM     68  C   UNL     1       0.850   2.273   9.497  1.00  0.00     0.040 A 
ATOM     69  C   UNL     1       3.243   2.050   9.615  1.00  0.00     0.040 A 
ATOM     70  F   UNL     1       4.620   3.564   8.469  1.00  0.00    -0.206 F 
ATOM     71  C   UNL     1       1.974   1.611   9.986  1.00  0.00     0.006 A 
ENDBRANCH  43  64
BRANCH  55  72
ATOM     72  C   UNL     1       0.572  10.524   9.177  1.00  0.00     0.057 A 
ATOM     73  C   UNL     1       1.190  10.698  10.422  1.00  0.00     0.134 A 
ATOM     74  C   UNL     1      -0.722  11.038   9.019  1.00  0.00     0.134 A 
ATOM     75  F   UNL     1       2.424  10.220  10.642  1.00  0.00    -0.206 F 
ATOM     76  C   UNL     1       0.527  11.314  11.484  1.00  0.00     0.040 A 
ATOM     77  C   UNL     1      -1.380  11.689  10.062  1.00  0.00     0.040 A 
ATOM     78  F   UNL     1      -1.365  10.920   7.848  1.00  0.00    -0.206 F 
ATOM     79  C   UNL     1      -0.761  11.815  11.304  1.00  0.00     0.006 A 
ENDBRANCH  55  72
ENDBRANCH  29  30
ENDBRANCH  22  24
ENDBRANCH  21  22
ENDBRANCH  20  21
ENDBRANCH  19  20
ENDBRANCH   1  19
TORSDOF 17
