REMARK SMILES [NH3+]C[C@H]1CC[C@@H](C(=O)N[C@H](C(=O)OCCOC(=O)c2ccc(-c3c4nc(c(-c5c(F)cccc5F)c5ccc([nH]5)c(-c5c(F)cccc5F)c5nc(c(-c6c(F)cccc6F)c6ccc3[nH]6)C=C5)C=C4)cc2)C2CCCCC2)O1
REMARK SMILES IDX 14 1 13 2 11 3 12 4 10 5 9 6 7 7 8 8 6 10 3 11 4 12 79 13
REMARK SMILES IDX 5 14 2 15 1 16 73 20 74 21 78 22 75 23 77 24 76 25 15 26
REMARK SMILES IDX 16 27 17 28 18 29 19 30 20 31 72 32 21 33 71 34 22 35 23 36
REMARK SMILES IDX 24 37 65 38 25 39 70 40 64 41 66 42 26 43 69 44 63 45 62 46
REMARK SMILES IDX 27 48 53 49 36 50 52 51 37 52 40 53 51 54 67 55 38 56 39 57
REMARK SMILES IDX 50 59 68 60 41 61 28 62 29 63 34 64 30 65 31 66 33 67 35 68
REMARK SMILES IDX 32 69 54 70 55 71 60 72 56 73 57 74 59 75 61 76 58 77 42 78
REMARK SMILES IDX 43 79 48 80 44 81 45 82 47 83 49 84 46 85
REMARK H PARENT 9 9 1 17 1 18 1 19 66 47 40 58
REMARK Flexibility Score: inf
ROOT
ATOM      1  C   UNL     1       3.584  -5.094   4.722  1.00  0.00     0.274 C 
ENDROOT
BRANCH   1   2
ATOM      2  O   UNL     1       2.889  -3.829   4.728  1.00  0.00    -0.461 OA
BRANCH   2   3
ATOM      3  C   UNL     1       1.546  -3.911   4.945  1.00  0.00     0.329 C 
ATOM      4  O   UNL     1       0.958  -4.958   5.197  1.00  0.00    -0.250 OA
BRANCH   3   5
ATOM      5  C   UNL     1       0.837  -2.551   4.767  1.00  0.00     0.195 C 
BRANCH   5   6
ATOM      6  N   UNL     1      -0.585  -2.878   4.558  1.00  0.00    -0.340 N 
ATOM      7  C   UNL     1      -1.203  -3.388   3.451  1.00  0.00     0.249 C 
ATOM      8  O   UNL     1      -2.365  -3.786   3.579  1.00  0.00    -0.272 OA
ATOM      9  H   UNL     1      -1.175  -2.704   5.326  1.00  0.00     0.164 HD
BRANCH   7  10
ATOM     10  C   UNL     1      -0.474  -3.514   2.096  1.00  0.00     0.207 C 
ATOM     11  C   UNL     1       1.573  -2.958   1.119  1.00  0.00     0.174 C 
ATOM     12  C   UNL     1       1.661  -4.439   1.441  1.00  0.00     0.041 C 
ATOM     13  O   UNL     1       0.427  -2.448   1.811  1.00  0.00    -0.359 OA
ATOM     14  C   UNL     1       0.279  -4.825   1.920  1.00  0.00     0.045 C 
BRANCH  11  15
ATOM     15  C   UNL     1       2.808  -2.138   1.541  1.00  0.00     0.291 C 
BRANCH  15  16
ATOM     16  N   UNL     1       4.053  -2.489   0.869  1.00  0.00    -0.355 N 
ATOM     17  H   UNL     1       4.806  -1.894   1.215  1.00  0.00     0.344 HD
ATOM     18  H   UNL     1       3.946  -2.352  -0.137  1.00  0.00     0.344 HD
ATOM     19  H   UNL     1       4.277  -3.466   1.057  1.00  0.00     0.344 HD
ENDBRANCH  15  16
ENDBRANCH  11  15
ENDBRANCH   7  10
ENDBRANCH   5   6
BRANCH   5  20
ATOM     20  C   UNL     1       1.002  -1.541   5.934  1.00  0.00     0.023 C 
ATOM     21  C   UNL     1       2.474  -1.331   6.336  1.00  0.00     0.006 C 
ATOM     22  C   UNL     1       0.366  -0.184   5.553  1.00  0.00     0.006 C 
ATOM     23  C   UNL     1       2.642  -0.266   7.418  1.00  0.00     0.000 C 
ATOM     24  C   UNL     1       0.550   0.878   6.637  1.00  0.00     0.000 C 
ATOM     25  C   UNL     1       2.017   1.059   7.005  1.00  0.00     0.000 C 
ENDBRANCH   5  20
ENDBRANCH   3   5
ENDBRANCH   2   3
ENDBRANCH   1   2
BRANCH   1  26
ATOM     26  C   UNL     1       4.115  -5.465   6.104  1.00  0.00     0.275 C 
BRANCH  26  27
ATOM     27  O   UNL     1       3.029  -5.520   7.041  1.00  0.00    -0.458 OA
BRANCH  27  28
ATOM     28  C   UNL     1       3.194  -4.827   8.187  1.00  0.00     0.338 C 
ATOM     29  O   UNL     1       4.200  -4.250   8.570  1.00  0.00    -0.246 OA
BRANCH  28  30
ATOM     30  C   UNL     1       1.934  -4.839   8.947  1.00  0.00     0.060 A 
ATOM     31  C   UNL     1       0.763  -4.341   8.372  1.00  0.00     0.016 A 
ATOM     32  C   UNL     1       1.936  -5.256  10.274  1.00  0.00     0.016 A 
ATOM     33  C   UNL     1      -0.402  -4.220   9.116  1.00  0.00     0.010 A 
ATOM     34  C   UNL     1       0.753  -5.190  11.010  1.00  0.00     0.010 A 
ATOM     35  C   UNL     1      -0.417  -4.655  10.441  1.00  0.00    -0.014 A 
BRANCH  35  36
ATOM     36  C   UNL     1      -1.634  -4.502  11.265  1.00  0.00     0.031 A 
ATOM     37  C   UNL     1      -1.612  -3.549  12.420  1.00  0.00     0.074 A 
ATOM     38  C   UNL     1      -2.735  -5.224  10.990  1.00  0.00     0.049 A 
ATOM     39  N   UNL     1      -2.437  -3.449  13.427  1.00  0.00    -0.248 NA
ATOM     40  C   UNL     1      -0.502  -2.582  12.446  1.00  0.00     0.031 C 
ATOM     41  C   UNL     1      -2.906  -6.109   9.837  1.00  0.00     0.029 A 
ATOM     42  N   UNL     1      -3.914  -5.340  11.680  1.00  0.00    -0.354 N 
ATOM     43  C   UNL     1      -1.921  -2.444  14.233  1.00  0.00     0.074 A 
ATOM     44  C   UNL     1      -0.716  -1.960  13.596  1.00  0.00     0.031 C 
ATOM     45  C   UNL     1      -4.116  -6.687   9.905  1.00  0.00     0.029 A 
ATOM     46  C   UNL     1      -4.766  -6.273  11.143  1.00  0.00     0.049 A 
ATOM     47  H   UNL     1      -4.128  -4.807  12.479  1.00  0.00     0.167 HD
ATOM     48  C   UNL     1      -2.411  -1.983  15.408  1.00  0.00     0.037 A 
ATOM     49  C   UNL     1      -5.912  -6.781  11.632  1.00  0.00     0.037 A 
ATOM     50  C   UNL     1      -3.623  -2.467  16.012  1.00  0.00     0.049 A 
ATOM     51  C   UNL     1      -6.396  -6.312  12.975  1.00  0.00     0.074 A 
ATOM     52  C   UNL     1      -4.204  -2.093  17.211  1.00  0.00     0.029 A 
ATOM     53  N   UNL     1      -4.449  -3.430  15.449  1.00  0.00    -0.354 N 
ATOM     54  N   UNL     1      -5.867  -5.421  13.779  1.00  0.00    -0.248 NA
ATOM     55  C   UNL     1      -7.622  -6.936  13.490  1.00  0.00     0.031 C 
ATOM     56  C   UNL     1      -5.367  -2.851  17.386  1.00  0.00     0.029 A 
ATOM     57  C   UNL     1      -5.530  -3.670  16.279  1.00  0.00     0.049 A 
ATOM     58  H   UNL     1      -4.288  -3.877  14.587  1.00  0.00     0.167 HD
ATOM     59  C   UNL     1      -6.703  -5.362  14.885  1.00  0.00     0.074 A 
ATOM     60  C   UNL     1      -7.782  -6.300  14.642  1.00  0.00     0.031 C 
ATOM     61  C   UNL     1      -6.591  -4.603  16.003  1.00  0.00     0.037 A 
BRANCH  48  62
ATOM     62  C   UNL     1      -1.607  -0.942  16.126  1.00  0.00     0.057 A 
ATOM     63  C   UNL     1      -1.546   0.386  15.687  1.00  0.00     0.134 A 
ATOM     64  C   UNL     1      -0.887  -1.276  17.280  1.00  0.00     0.134 A 
ATOM     65  F   UNL     1      -2.195   0.765  14.575  1.00  0.00    -0.206 F 
ATOM     66  C   UNL     1      -0.781   1.341  16.359  1.00  0.00     0.040 A 
ATOM     67  C   UNL     1      -0.136  -0.325  17.973  1.00  0.00     0.040 A 
ATOM     68  F   UNL     1      -0.901  -2.531  17.753  1.00  0.00    -0.206 F 
ATOM     69  C   UNL     1      -0.077   0.988  17.509  1.00  0.00     0.006 A 
ENDBRANCH  48  62
BRANCH  49  70
ATOM     70  C   UNL     1      -6.644  -7.828  10.877  1.00  0.00     0.057 A 
ATOM     71  C   UNL     1      -7.884  -7.558  10.289  1.00  0.00     0.134 A 
ATOM     72  C   UNL     1      -6.125  -9.120  10.725  1.00  0.00     0.134 A 
ATOM     73  F   UNL     1      -8.444  -6.346  10.421  1.00  0.00    -0.206 F 
ATOM     74  C   UNL     1      -8.588  -8.537   9.585  1.00  0.00     0.040 A 
ATOM     75  C   UNL     1      -6.806 -10.101  10.003  1.00  0.00     0.040 A 
ATOM     76  F   UNL     1      -4.941  -9.443  11.266  1.00  0.00    -0.206 F 
ATOM     77  C   UNL     1      -8.044  -9.812   9.435  1.00  0.00     0.006 A 
ENDBRANCH  49  70
BRANCH  61  78
ATOM     78  C   UNL     1      -7.684  -4.733  17.019  1.00  0.00     0.057 A 
ATOM     79  C   UNL     1      -7.771  -5.840  17.870  1.00  0.00     0.134 A 
ATOM     80  C   UNL     1      -8.639  -3.720  17.167  1.00  0.00     0.134 A 
ATOM     81  F   UNL     1      -6.893  -6.850  17.765  1.00  0.00    -0.206 F 
ATOM     82  C   UNL     1      -8.784  -5.945  18.823  1.00  0.00     0.040 A 
ATOM     83  C   UNL     1      -9.643  -3.803  18.131  1.00  0.00     0.040 A 
ATOM     84  F   UNL     1      -8.603  -2.630  16.384  1.00  0.00    -0.206 F 
ATOM     85  C   UNL     1      -9.720  -4.920  18.959  1.00  0.00     0.006 A 
ENDBRANCH  61  78
ENDBRANCH  35  36
ENDBRANCH  28  30
ENDBRANCH  27  28
ENDBRANCH  26  27
ENDBRANCH   1  26
TORSDOF 16
