REMARK SMILES O=C(OCCOC(=O)c1cc(-c2ccn(C(F)F)c(=O)c2)ccc1O)c1ccc(-c2c3nc(c(-c4c(F)cccc4F)c4ccc([nH]4)c(-c4c(F)cccc4F)c4nc(c(-c5c(F)cccc5F)c5ccc2[nH]5)C=C4)C=C3)cc1
REMARK SMILES IDX 4 1 3 2 2 3 1 4 26 5 27 6 79 7 28 8 78 9 29 10 30 11 31 12
REMARK SMILES IDX 72 13 32 14 77 15 71 16 73 17 33 18 76 19 70 20 69 21 34 23
REMARK SMILES IDX 60 24 43 25 59 26 44 27 47 28 58 29 74 30 45 31 46 32 57 34
REMARK SMILES IDX 75 35 48 36 35 37 36 38 41 39 37 40 38 41 40 42 42 43 39 44
REMARK SMILES IDX 61 45 62 46 67 47 63 48 64 49 66 50 68 51 65 52 49 53 50 54
REMARK SMILES IDX 55 55 51 56 52 57 54 58 56 59 53 60 5 61 6 62 7 63 8 64 9 65
REMARK SMILES IDX 10 66 24 67 11 68 23 69 22 70 25 71 12 73 13 74 21 75 14 76
REMARK SMILES IDX 19 77 15 78 20 79 16 80 17 81 18 82
REMARK H PARENT 73 22 47 33 25 72
REMARK Flexibility Score: inf
ROOT
ATOM      1  C   UNL     1       4.052   1.573   0.032  1.00  0.00     0.275 C 
ENDROOT
BRANCH   1   2
ATOM      2  O   UNL     1       3.013   0.884  -0.678  1.00  0.00    -0.458 OA
BRANCH   2   3
ATOM      3  C   UNL     1       3.030  -0.408  -1.088  1.00  0.00     0.338 C 
ATOM      4  O   UNL     1       2.325  -0.766  -2.028  1.00  0.00    -0.246 OA
BRANCH   3   5
ATOM      5  C   UNL     1       3.684  -1.458  -0.257  1.00  0.00     0.060 A 
ATOM      6  C   UNL     1       2.919  -2.603  -0.012  1.00  0.00     0.016 A 
ATOM      7  C   UNL     1       4.979  -1.403   0.264  1.00  0.00     0.016 A 
ATOM      8  C   UNL     1       3.386  -3.608   0.837  1.00  0.00     0.010 A 
ATOM      9  C   UNL     1       5.457  -2.414   1.109  1.00  0.00     0.010 A 
ATOM     10  C   UNL     1       4.656  -3.515   1.419  1.00  0.00    -0.014 A 
BRANCH  10  11
ATOM     11  C   UNL     1       5.197  -4.674   2.163  1.00  0.00     0.031 A 
ATOM     12  C   UNL     1       5.377  -4.678   3.650  1.00  0.00     0.074 A 
ATOM     13  C   UNL     1       5.526  -5.761   1.444  1.00  0.00     0.049 A 
ATOM     14  N   UNL     1       5.580  -5.693   4.451  1.00  0.00    -0.248 NA
ATOM     15  C   UNL     1       5.311  -3.383   4.332  1.00  0.00     0.031 C 
ATOM     16  C   UNL     1       5.439  -5.857  -0.015  1.00  0.00     0.029 A 
ATOM     17  N   UNL     1       5.989  -6.985   1.838  1.00  0.00    -0.354 N 
ATOM     18  C   UNL     1       5.577  -5.170   5.738  1.00  0.00     0.074 A 
ATOM     19  C   UNL     1       5.413  -3.738   5.607  1.00  0.00     0.031 C 
ATOM     20  C   UNL     1       5.815  -7.086  -0.393  1.00  0.00     0.029 A 
ATOM     21  C   UNL     1       6.192  -7.847   0.791  1.00  0.00     0.049 A 
ATOM     22  H   UNL     1       6.160  -7.224   2.777  1.00  0.00     0.167 HD
ATOM     23  C   UNL     1       5.700  -5.829   6.916  1.00  0.00     0.037 A 
ATOM     24  C   UNL     1       6.634  -9.115   0.788  1.00  0.00     0.037 A 
ATOM     25  C   UNL     1       6.041  -7.226   7.021  1.00  0.00     0.049 A 
ATOM     26  C   UNL     1       6.925  -9.779   2.098  1.00  0.00     0.074 A 
ATOM     27  C   UNL     1       6.215  -7.998   8.158  1.00  0.00     0.029 A 
ATOM     28  N   UNL     1       6.337  -8.044   5.939  1.00  0.00    -0.354 N 
ATOM     29  N   UNL     1       6.762  -9.317   3.314  1.00  0.00    -0.248 NA
ATOM     30  C   UNL     1       7.455 -11.144   2.031  1.00  0.00     0.031 C 
ATOM     31  C   UNL     1       6.704  -9.251   7.764  1.00  0.00     0.029 A 
ATOM     32  C   UNL     1       6.768  -9.285   6.380  1.00  0.00     0.049 A 
ATOM     33  H   UNL     1       6.253  -7.780   4.994  1.00  0.00     0.167 HD
ATOM     34  C   UNL     1       7.154 -10.341   4.163  1.00  0.00     0.074 A 
ATOM     35  C   UNL     1       7.538 -11.455   3.316  1.00  0.00     0.031 C 
ATOM     36  C   UNL     1       7.191 -10.363   5.520  1.00  0.00     0.037 A 
BRANCH  23  37
ATOM     37  C   UNL     1       5.510  -5.031   8.176  1.00  0.00     0.057 A 
ATOM     38  C   UNL     1       6.587  -4.745   9.024  1.00  0.00     0.134 A 
ATOM     39  C   UNL     1       4.244  -4.573   8.568  1.00  0.00     0.134 A 
ATOM     40  F   UNL     1       7.826  -5.153   8.711  1.00  0.00    -0.206 F 
ATOM     41  C   UNL     1       6.413  -4.035  10.214  1.00  0.00     0.040 A 
ATOM     42  C   UNL     1       4.059  -3.847   9.748  1.00  0.00     0.040 A 
ATOM     43  F   UNL     1       3.168  -4.803   7.799  1.00  0.00    -0.206 F 
ATOM     44  C   UNL     1       5.147  -3.580  10.578  1.00  0.00     0.006 A 
ENDBRANCH  23  37
BRANCH  24  45
ATOM     45  C   UNL     1       6.789  -9.822  -0.503  1.00  0.00     0.057 A 
ATOM     46  C   UNL     1       7.766  -9.437  -1.431  1.00  0.00     0.134 A 
ATOM     47  C   UNL     1       5.926 -10.860  -0.864  1.00  0.00     0.134 A 
ATOM     48  F   UNL     1       8.614  -8.438  -1.145  1.00  0.00    -0.206 F 
ATOM     49  C   UNL     1       7.862 -10.043  -2.682  1.00  0.00     0.040 A 
ATOM     50  C   UNL     1       6.027 -11.493  -2.103  1.00  0.00     0.040 A 
ATOM     51  F   UNL     1       4.980 -11.280  -0.011  1.00  0.00    -0.206 F 
ATOM     52  C   UNL     1       6.992 -11.077  -3.020  1.00  0.00     0.006 A 
ENDBRANCH  24  45
BRANCH  36  53
ATOM     53  C   UNL     1       7.678 -11.637   6.145  1.00  0.00     0.057 A 
ATOM     54  C   UNL     1       6.793 -12.491   6.814  1.00  0.00     0.134 A 
ATOM     55  C   UNL     1       9.016 -12.045   6.041  1.00  0.00     0.134 A 
ATOM     56  F   UNL     1       5.501 -12.158   6.958  1.00  0.00    -0.206 F 
ATOM     57  C   UNL     1       7.215 -13.713   7.338  1.00  0.00     0.040 A 
ATOM     58  C   UNL     1       9.443 -13.279   6.532  1.00  0.00     0.040 A 
ATOM     59  F   UNL     1       9.912 -11.280   5.397  1.00  0.00    -0.206 F 
ATOM     60  C   UNL     1       8.540 -14.117   7.182  1.00  0.00     0.006 A 
ENDBRANCH  36  53
ENDBRANCH  10  11
ENDBRANCH   3   5
ENDBRANCH   2   3
ENDBRANCH   1   2
BRANCH   1  61
ATOM     61  C   UNL     1       3.854   1.658   1.549  1.00  0.00     0.275 C 
BRANCH  61  62
ATOM     62  O   UNL     1       3.368   0.453   2.164  1.00  0.00    -0.458 OA
BRANCH  62  63
ATOM     63  C   UNL     1       2.011   0.326   2.206  1.00  0.00     0.342 C 
ATOM     64  O   UNL     1       1.194   1.128   1.792  1.00  0.00    -0.246 OA
BRANCH  63  65
ATOM     65  C   UNL     1       1.660  -0.988   2.788  1.00  0.00     0.102 A 
ATOM     66  C   UNL     1       0.658  -1.747   2.154  1.00  0.00     0.028 A 
ATOM     67  C   UNL     1       2.297  -1.490   3.928  1.00  0.00     0.130 A 
ATOM     68  C   UNL     1       0.348  -3.033   2.619  1.00  0.00    -0.017 A 
ATOM     69  C   UNL     1       1.957  -2.747   4.420  1.00  0.00     0.048 A 
ATOM     70  C   UNL     1       1.007  -3.524   3.756  1.00  0.00     0.012 A 
BRANCH  67  71
ATOM     71  O   UNL     1       3.267  -0.814   4.617  1.00  0.00    -0.507 OA
ATOM     72  H   UNL     1       3.537   0.037   4.333  1.00  0.00     0.293 HD
ENDBRANCH  67  71
BRANCH  68  73
ATOM     73  C   UNL     1      -0.655  -3.897   1.964  1.00  0.00    -0.011 A 
ATOM     74  C   UNL     1      -1.925  -4.200   2.594  1.00  0.00     0.027 A 
ATOM     75  C   UNL     1      -0.352  -4.507   0.804  1.00  0.00     0.080 A 
ATOM     76  C   UNL     1      -2.758  -5.099   2.058  1.00  0.00     0.095 A 
ATOM     77  C   UNL     1      -1.275  -5.500   0.183  1.00  0.00     0.255 A 
ATOM     78  N   UNL     1      -2.444  -5.750   0.879  1.00  0.00    -0.258 N 
ATOM     79  O   UNL     1      -0.936  -6.036  -0.867  1.00  0.00    -0.269 OA
BRANCH  78  80
ATOM     80  C   UNL     1      -3.326  -6.751   0.337  1.00  0.00     0.451 C 
ATOM     81  F   UNL     1      -3.719  -6.433  -0.920  1.00  0.00    -0.185 F 
ATOM     82  F   UNL     1      -2.717  -7.961   0.292  1.00  0.00    -0.185 F 
ENDBRANCH  78  80
ENDBRANCH  68  73
ENDBRANCH  63  65
ENDBRANCH  62  63
ENDBRANCH  61  62
ENDBRANCH   1  61
TORSDOF 14
