REMARK SMILES N#C[C@H]1CN(C(=O)[C@H]([NH3+])CC(=O)OCCOC(=O)c2ccc(-c3c4nc(c(-c5c(F)cccc5F)c5ccc([nH]5)c(-c5c(F)cccc5F)c5nc(c(-c6c(F)cccc6F)c6ccc3[nH]6)C=C5)C=C4)cc2)CCO1
REMARK SMILES IDX 14 1 13 2 11 3 12 4 10 5 8 6 6 7 7 8 5 9 3 10 4 11 75 12
REMARK SMILES IDX 74 13 73 14 2 15 1 16 9 17 15 21 16 22 17 23 18 24 19 25
REMARK SMILES IDX 20 26 72 27 21 28 71 29 22 30 23 31 24 32 65 33 25 34 70 35
REMARK SMILES IDX 64 36 66 37 26 38 69 39 63 40 62 41 27 43 53 44 36 45 52 46
REMARK SMILES IDX 37 47 40 48 51 49 67 50 38 51 39 52 50 54 68 55 41 56 28 57
REMARK SMILES IDX 29 58 34 59 30 60 31 61 33 62 35 63 32 64 54 65 55 66 60 67
REMARK SMILES IDX 56 68 57 69 59 70 61 71 58 72 42 73 43 74 48 75 44 76 45 77
REMARK SMILES IDX 47 78 49 79 46 80
REMARK H PARENT 9 18 9 19 9 20 66 42 40 53
REMARK Flexibility Score: inf
ROOT
ATOM      1  C   UNL     1       5.985   2.882  -5.522  1.00  0.00     0.274 C 
ENDROOT
BRANCH   1   2
ATOM      2  O   UNL     1       5.140   2.586  -4.396  1.00  0.00    -0.462 OA
BRANCH   2   3
ATOM      3  C   UNL     1       5.110   3.524  -3.421  1.00  0.00     0.312 C 
ATOM      4  O   UNL     1       5.801   4.536  -3.395  1.00  0.00    -0.252 OA
BRANCH   3   5
ATOM      5  C   UNL     1       4.232   3.139  -2.263  1.00  0.00     0.198 C 
BRANCH   5   6
ATOM      6  C   UNL     1       2.945   2.368  -2.571  1.00  0.00     0.282 C 
BRANCH   6   7
ATOM      7  C   UNL     1       1.994   2.417  -1.341  1.00  0.00     0.281 C 
ATOM      8  O   UNL     1       0.950   3.072  -1.401  1.00  0.00    -0.268 OA
BRANCH   7   9
ATOM      9  N   UNL     1       2.352   1.751  -0.172  1.00  0.00    -0.332 N 
ATOM     10  C   UNL     1       4.358   2.089   1.172  1.00  0.00     0.240 C 
ATOM     11  C   UNL     1       3.657   1.162   0.159  1.00  0.00     0.167 C 
ATOM     12  O   UNL     1       3.556   2.149   2.375  1.00  0.00    -0.360 OA
ATOM     13  C   UNL     1       2.245   2.688   2.099  1.00  0.00     0.183 C 
ATOM     14  C   UNL     1       1.502   1.880   1.018  1.00  0.00     0.148 C 
BRANCH  10  15
ATOM     15  C   UNL     1       5.721   1.603   1.448  1.00  0.00     0.096 C 
ATOM     16  N   UNL     1       6.808   1.232   1.593  1.00  0.00    -0.195 NA
ENDBRANCH  10  15
ENDBRANCH   7   9
ENDBRANCH   6   7
BRANCH   6  17
ATOM     17  N   UNL     1       3.102   0.977  -3.022  1.00  0.00    -0.347 N 
ATOM     18  H   UNL     1       3.498   0.417  -2.267  1.00  0.00     0.345 HD
ATOM     19  H   UNL     1       3.727   0.949  -3.828  1.00  0.00     0.345 HD
ATOM     20  H   UNL     1       2.192   0.599  -3.284  1.00  0.00     0.345 HD
ENDBRANCH   6  17
ENDBRANCH   5   6
ENDBRANCH   3   5
ENDBRANCH   2   3
ENDBRANCH   1   2
BRANCH   1  21
ATOM     21  C   UNL     1       5.218   3.602  -6.636  1.00  0.00     0.275 C 
BRANCH  21  22
ATOM     22  O   UNL     1       4.801   4.926  -6.244  1.00  0.00    -0.458 OA
BRANCH  22  23
ATOM     23  C   UNL     1       3.542   5.001  -5.752  1.00  0.00     0.338 C 
ATOM     24  O   UNL     1       2.742   4.087  -5.640  1.00  0.00    -0.246 OA
BRANCH  23  25
ATOM     25  C   UNL     1       3.270   6.335  -5.200  1.00  0.00     0.060 A 
ATOM     26  C   UNL     1       3.152   6.451  -3.814  1.00  0.00     0.016 A 
ATOM     27  C   UNL     1       2.980   7.422  -6.023  1.00  0.00     0.016 A 
ATOM     28  C   UNL     1       2.729   7.641  -3.239  1.00  0.00     0.010 A 
ATOM     29  C   UNL     1       2.581   8.633  -5.442  1.00  0.00     0.010 A 
ATOM     30  C   UNL     1       2.442   8.747  -4.046  1.00  0.00    -0.014 A 
BRANCH  30  31
ATOM     31  C   UNL     1       1.984  10.003  -3.401  1.00  0.00     0.031 A 
ATOM     32  C   UNL     1       0.581  10.499  -3.605  1.00  0.00     0.074 A 
ATOM     33  C   UNL     1       2.826  10.667  -2.586  1.00  0.00     0.049 A 
ATOM     34  N   UNL     1       0.019  11.594  -3.159  1.00  0.00    -0.248 NA
ATOM     35  C   UNL     1      -0.305   9.658  -4.423  1.00  0.00     0.031 C 
ATOM     36  C   UNL     1       4.198  10.259  -2.277  1.00  0.00     0.029 A 
ATOM     37  N   UNL     1       2.650  11.817  -1.859  1.00  0.00    -0.354 N 
ATOM     38  C   UNL     1      -1.277  11.587  -3.659  1.00  0.00     0.074 A 
ATOM     39  C   UNL     1      -1.410  10.391  -4.465  1.00  0.00     0.031 C 
ATOM     40  C   UNL     1       4.731  11.131  -1.409  1.00  0.00     0.029 A 
ATOM     41  C   UNL     1       3.766  12.194  -1.153  1.00  0.00     0.049 A 
ATOM     42  H   UNL     1       1.806  12.323  -1.845  1.00  0.00     0.167 HD
ATOM     43  C   UNL     1      -2.265  12.493  -3.459  1.00  0.00     0.037 A 
ATOM     44  C   UNL     1       3.999  13.290  -0.408  1.00  0.00     0.037 A 
ATOM     45  C   UNL     1      -2.124  13.676  -2.645  1.00  0.00     0.049 A 
ATOM     46  C   UNL     1       2.906  14.309  -0.254  1.00  0.00     0.074 A 
ATOM     47  C   UNL     1      -3.068  14.650  -2.368  1.00  0.00     0.029 A 
ATOM     48  N   UNL     1      -0.964  14.047  -1.979  1.00  0.00    -0.354 N 
ATOM     49  N   UNL     1       1.685  14.293  -0.732  1.00  0.00    -0.248 NA
ATOM     50  C   UNL     1       3.224  15.499   0.543  1.00  0.00     0.031 C 
ATOM     51  C   UNL     1      -2.462  15.639  -1.586  1.00  0.00     0.029 A 
ATOM     52  C   UNL     1      -1.160  15.249  -1.317  1.00  0.00     0.049 A 
ATOM     53  H   UNL     1      -0.125  13.532  -1.978  1.00  0.00     0.167 HD
ATOM     54  C   UNL     1       1.082  15.457  -0.275  1.00  0.00     0.074 A 
ATOM     55  C   UNL     1       2.065  16.140   0.542  1.00  0.00     0.031 C 
ATOM     56  C   UNL     1      -0.170  15.921  -0.512  1.00  0.00     0.037 A 
BRANCH  43  57
ATOM     57  C   UNL     1      -3.573  12.263  -4.163  1.00  0.00     0.057 A 
ATOM     58  C   UNL     1      -4.441  11.222  -3.808  1.00  0.00     0.134 A 
ATOM     59  C   UNL     1      -3.985  13.119  -5.194  1.00  0.00     0.134 A 
ATOM     60  F   UNL     1      -4.106  10.358  -2.838  1.00  0.00    -0.206 F 
ATOM     61  C   UNL     1      -5.656  11.025  -4.470  1.00  0.00     0.040 A 
ATOM     62  C   UNL     1      -5.210  12.951  -5.841  1.00  0.00     0.040 A 
ATOM     63  F   UNL     1      -3.208  14.142  -5.582  1.00  0.00    -0.206 F 
ATOM     64  C   UNL     1      -6.047  11.896  -5.485  1.00  0.00     0.006 A 
ENDBRANCH  43  57
BRANCH  44  65
ATOM     65  C   UNL     1       5.327  13.493   0.226  1.00  0.00     0.057 A 
ATOM     66  C   UNL     1       5.479  13.484   1.617  1.00  0.00     0.134 A 
ATOM     67  C   UNL     1       6.476  13.714  -0.546  1.00  0.00     0.134 A 
ATOM     68  F   UNL     1       4.415  13.297   2.411  1.00  0.00    -0.206 F 
ATOM     69  C   UNL     1       6.718  13.710   2.219  1.00  0.00     0.040 A 
ATOM     70  C   UNL     1       7.726  13.909   0.042  1.00  0.00     0.040 A 
ATOM     71  F   UNL     1       6.401  13.730  -1.885  1.00  0.00    -0.206 F 
ATOM     72  C   UNL     1       7.848  13.917   1.429  1.00  0.00     0.006 A 
ENDBRANCH  44  65
BRANCH  56  73
ATOM     73  C   UNL     1      -0.550  17.213   0.156  1.00  0.00     0.057 A 
ATOM     74  C   UNL     1       0.026  18.438  -0.207  1.00  0.00     0.134 A 
ATOM     75  C   UNL     1      -1.501  17.229   1.185  1.00  0.00     0.134 A 
ATOM     76  F   UNL     1       0.954  18.492  -1.175  1.00  0.00    -0.206 F 
ATOM     77  C   UNL     1      -0.294  19.622   0.459  1.00  0.00     0.040 A 
ATOM     78  C   UNL     1      -1.857  18.413   1.833  1.00  0.00     0.040 A 
ATOM     79  F   UNL     1      -2.103  16.096   1.577  1.00  0.00    -0.206 F 
ATOM     80  C   UNL     1      -1.242  19.612   1.480  1.00  0.00     0.006 A 
ENDBRANCH  56  73
ENDBRANCH  30  31
ENDBRANCH  23  25
ENDBRANCH  22  23
ENDBRANCH  21  22
ENDBRANCH   1  21
TORSDOF 16
