REMARK SMILES CC1(C)CN(CC(=O)OCCOC(=O)c2ccc(-c3c4nc(c(-c5c(F)cccc5F)c5ccc([nH]5)c(-c5c(F)cccc5F)c5nc(c(-c6c(F)cccc6F)c6ccc3[nH]6)C=C5)C=C4)cc2)c2ccc(S(=O)(=O)N3CCCCC3)cc21
REMARK SMILES IDX 10 1 9 2 7 3 8 4 6 5 5 6 1 7 2 8 3 9 4 10 83 11 69 12 82 13
REMARK SMILES IDX 70 14 72 15 71 16 73 17 74 18 75 19 76 20 77 21 81 22 78 23
REMARK SMILES IDX 80 24 79 25 11 26 12 27 13 28 14 29 15 30 16 31 68 32 17 33
REMARK SMILES IDX 67 34 18 35 19 36 20 37 61 38 21 39 66 40 60 41 62 42 22 43
REMARK SMILES IDX 65 44 59 45 58 46 23 48 49 49 32 50 48 51 33 52 36 53 47 54
REMARK SMILES IDX 63 55 34 56 35 57 46 59 64 60 37 61 24 62 25 63 30 64 26 65
REMARK SMILES IDX 27 66 29 67 31 68 28 69 50 70 51 71 56 72 52 73 53 74 55 75
REMARK SMILES IDX 57 76 54 77 38 78 39 79 44 80 40 81 41 82 43 83 45 84 42 85
REMARK H PARENT 62 47 36 58
REMARK Flexibility Score: inf
ROOT
ATOM      1  C   UNL     1       1.937   3.562   4.749  1.00  0.00     0.274 C 
ENDROOT
BRANCH   1   2
ATOM      2  O   UNL     1       1.163   3.149   3.601  1.00  0.00    -0.461 OA
BRANCH   2   3
ATOM      3  C   UNL     1      -0.166   3.424   3.662  1.00  0.00     0.325 C 
ATOM      4  O   UNL     1      -0.720   3.932   4.637  1.00  0.00    -0.250 OA
BRANCH   3   5
ATOM      5  C   UNL     1      -0.968   3.064   2.414  1.00  0.00     0.239 C 
BRANCH   5   6
ATOM      6  N   UNL     1      -0.242   2.525   1.277  1.00  0.00    -0.359 N 
ATOM      7  C   UNL     1       1.442  -0.227  -0.352  1.00  0.00     0.018 C 
ATOM      8  C   UNL     1       0.419   0.910  -0.418  1.00  0.00     0.009 C 
ATOM      9  C   UNL     1      -0.602   0.675  -1.544  1.00  0.00     0.018 C 
ATOM     10  C   UNL     1      -0.303   1.104   0.948  1.00  0.00     0.128 C 
ATOM     11  C   UNL     1       1.030   2.276  -0.623  1.00  0.00    -0.016 A 
ATOM     12  C   UNL     1       0.522   3.162   0.331  1.00  0.00     0.041 A 
ATOM     13  C   UNL     1       1.855   2.697  -1.662  1.00  0.00     0.028 A 
ATOM     14  C   UNL     1       0.787   4.509   0.193  1.00  0.00     0.027 A 
ATOM     15  C   UNL     1       2.140   4.062  -1.781  1.00  0.00     0.083 A 
ATOM     16  C   UNL     1       1.596   4.966  -0.862  1.00  0.00     0.024 A 
BRANCH  15  17
ATOM     17  S   UNL     1       3.147   4.534  -3.176  1.00  0.00     0.243 S 
ATOM     18  O   UNL     1       4.440   3.919  -2.962  1.00  0.00    -0.207 OA
ATOM     19  O   UNL     1       2.361   4.220  -4.354  1.00  0.00    -0.207 OA
BRANCH  17  20
ATOM     20  N   UNL     1       3.371   6.220  -3.150  1.00  0.00    -0.198 NA
ATOM     21  C   UNL     1       2.228   7.070  -3.550  1.00  0.00     0.102 C 
ATOM     22  C   UNL     1       4.273   6.768  -2.111  1.00  0.00     0.102 C 
ATOM     23  C   UNL     1       2.690   8.486  -3.884  1.00  0.00     0.017 C 
ATOM     24  C   UNL     1       4.722   8.178  -2.479  1.00  0.00     0.017 C 
ATOM     25  C   UNL     1       3.526   9.079  -2.757  1.00  0.00     0.003 C 
ENDBRANCH  17  20
ENDBRANCH  15  17
ENDBRANCH   5   6
ENDBRANCH   3   5
ENDBRANCH   2   3
ENDBRANCH   1   2
BRANCH   1  26
ATOM     26  C   UNL     1       2.595   4.917   4.500  1.00  0.00     0.275 C 
BRANCH  26  27
ATOM     27  O   UNL     1       1.581   5.897   4.217  1.00  0.00    -0.458 OA
BRANCH  27  28
ATOM     28  C   UNL     1       1.691   6.522   3.026  1.00  0.00     0.338 C 
ATOM     29  O   UNL     1       2.585   6.428   2.205  1.00  0.00    -0.246 OA
BRANCH  28  30
ATOM     30  C   UNL     1       0.544   7.426   2.841  1.00  0.00     0.060 A 
ATOM     31  C   UNL     1       0.808   8.769   2.588  1.00  0.00     0.016 A 
ATOM     32  C   UNL     1      -0.768   6.946   2.823  1.00  0.00     0.016 A 
ATOM     33  C   UNL     1      -0.254   9.643   2.374  1.00  0.00     0.010 A 
ATOM     34  C   UNL     1      -1.823   7.805   2.517  1.00  0.00     0.010 A 
ATOM     35  C   UNL     1      -1.578   9.170   2.332  1.00  0.00    -0.014 A 
BRANCH  35  36
ATOM     36  C   UNL     1      -2.690  10.132   2.140  1.00  0.00     0.031 A 
ATOM     37  C   UNL     1      -3.657  10.405   3.257  1.00  0.00     0.074 A 
ATOM     38  C   UNL     1      -2.790  10.801   0.976  1.00  0.00     0.049 A 
ATOM     39  N   UNL     1      -4.580  11.330   3.340  1.00  0.00    -0.248 NA
ATOM     40  C   UNL     1      -3.589   9.521   4.431  1.00  0.00     0.031 C 
ATOM     41  C   UNL     1      -1.945  10.583  -0.199  1.00  0.00     0.029 A 
ATOM     42  N   UNL     1      -3.628  11.820   0.602  1.00  0.00    -0.354 N 
ATOM     43  C   UNL     1      -5.186  11.149   4.577  1.00  0.00     0.074 A 
ATOM     44  C   UNL     1      -4.581   9.981   5.177  1.00  0.00     0.031 C 
ATOM     45  C   UNL     1      -2.269  11.480  -1.144  1.00  0.00     0.029 A 
ATOM     46  C   UNL     1      -3.359  12.317  -0.650  1.00  0.00     0.049 A 
ATOM     47  H   UNL     1      -4.352  12.161   1.175  1.00  0.00     0.167 HD
ATOM     48  C   UNL     1      -6.137  11.905   5.175  1.00  0.00     0.037 A 
ATOM     49  C   UNL     1      -3.916  13.347  -1.314  1.00  0.00     0.037 A 
ATOM     50  C   UNL     1      -6.744  13.062   4.570  1.00  0.00     0.049 A 
ATOM     51  C   UNL     1      -4.994  14.153  -0.643  1.00  0.00     0.074 A 
ATOM     52  C   UNL     1      -7.686  13.922   5.104  1.00  0.00     0.029 A 
ATOM     53  N   UNL     1      -6.475  13.509   3.285  1.00  0.00    -0.354 N 
ATOM     54  N   UNL     1      -5.491  14.029   0.565  1.00  0.00    -0.248 NA
ATOM     55  C   UNL     1      -5.580  15.249  -1.425  1.00  0.00     0.031 C 
ATOM     56  C   UNL     1      -8.027  14.859   4.122  1.00  0.00     0.029 A 
ATOM     57  C   UNL     1      -7.257  14.615   2.995  1.00  0.00     0.049 A 
ATOM     58  H   UNL     1      -5.825  13.100   2.669  1.00  0.00     0.167 HD
ATOM     59  C   UNL     1      -6.431  15.044   0.695  1.00  0.00     0.074 A 
ATOM     60  C   UNL     1      -6.417  15.786  -0.549  1.00  0.00     0.031 C 
ATOM     61  C   UNL     1      -7.234  15.337   1.748  1.00  0.00     0.037 A 
BRANCH  48  62
ATOM     62  C   UNL     1      -6.572  11.493   6.552  1.00  0.00     0.057 A 
ATOM     63  C   UNL     1      -7.857  10.984   6.778  1.00  0.00     0.134 A 
ATOM     64  C   UNL     1      -5.717  11.599   7.659  1.00  0.00     0.134 A 
ATOM     65  F   UNL     1      -8.729  10.861   5.766  1.00  0.00    -0.206 F 
ATOM     66  C   UNL     1      -8.271  10.586   8.050  1.00  0.00     0.040 A 
ATOM     67  C   UNL     1      -6.110  11.176   8.930  1.00  0.00     0.040 A 
ATOM     68  F   UNL     1      -4.468  12.066   7.511  1.00  0.00    -0.206 F 
ATOM     69  C   UNL     1      -7.393  10.672   9.129  1.00  0.00     0.006 A 
ENDBRANCH  48  62
BRANCH  49  70
ATOM     70  C   UNL     1      -3.444  13.696  -2.677  1.00  0.00     0.057 A 
ATOM     71  C   UNL     1      -3.696  12.860  -3.771  1.00  0.00     0.134 A 
ATOM     72  C   UNL     1      -2.742  14.883  -2.920  1.00  0.00     0.134 A 
ATOM     73  F   UNL     1      -4.356  11.705  -3.603  1.00  0.00    -0.206 F 
ATOM     74  C   UNL     1      -3.265  13.189  -5.057  1.00  0.00     0.040 A 
ATOM     75  C   UNL     1      -2.327  15.237  -4.205  1.00  0.00     0.040 A 
ATOM     76  F   UNL     1      -2.483  15.732  -1.915  1.00  0.00    -0.206 F 
ATOM     77  C   UNL     1      -2.586  14.386  -5.278  1.00  0.00     0.006 A 
ENDBRANCH  49  70
BRANCH  61  78
ATOM     78  C   UNL     1      -8.145  16.521   1.601  1.00  0.00     0.057 A 
ATOM     79  C   UNL     1      -7.917  17.691   2.337  1.00  0.00     0.134 A 
ATOM     80  C   UNL     1      -9.257  16.499   0.749  1.00  0.00     0.134 A 
ATOM     81  F   UNL     1      -6.876  17.776   3.178  1.00  0.00    -0.206 F 
ATOM     82  C   UNL     1      -8.761  18.797   2.229  1.00  0.00     0.040 A 
ATOM     83  C   UNL     1     -10.091  17.609   0.610  1.00  0.00     0.040 A 
ATOM     84  F   UNL     1      -9.523  15.414   0.006  1.00  0.00    -0.206 F 
ATOM     85  C   UNL     1      -9.847  18.761   1.357  1.00  0.00     0.006 A 
ENDBRANCH  61  78
ENDBRANCH  35  36
ENDBRANCH  28  30
ENDBRANCH  27  28
ENDBRANCH  26  27
ENDBRANCH   1  26
TORSDOF 14
