REMARK SMILES CN(C)S(=O)(=O)c1ccc(-n2c(CCC(=O)OCCOC(=O)c3ccc(-c4c5nc(c(-c6c(F)cccc6F)c6ccc([nH]6)c(-c6c(F)cccc6F)c6nc(c(-c7c(F)cccc7F)c7ccc4[nH]7)C=C6)C=C5)cc3)ccc2-c2ccc(F)cc2)cc1
REMARK SMILES IDX 17 1 15 2 16 3 14 4 13 5 12 6 11 7 79 8 77 9 78 10 10 11
REMARK SMILES IDX 7 12 8 13 88 14 9 15 87 16 4 17 5 18 6 19 2 20 1 21 3 22
REMARK SMILES IDX 80 23 81 24 86 25 82 26 85 27 83 28 84 29 18 30 19 31 20 32
REMARK SMILES IDX 21 33 22 34 23 35 24 36 76 37 25 38 75 39 26 40 27 41 28 42
REMARK SMILES IDX 69 43 29 44 74 45 68 46 70 47 30 48 73 49 67 50 66 51 31 53
REMARK SMILES IDX 57 54 40 55 56 56 41 57 44 58 55 59 71 60 42 61 43 62 54 64
REMARK SMILES IDX 72 65 45 66 32 67 33 68 38 69 34 70 35 71 37 72 39 73 36 74
REMARK SMILES IDX 58 75 59 76 64 77 60 78 61 79 63 80 65 81 62 82 46 83 47 84
REMARK SMILES IDX 52 85 48 86 49 87 51 88 53 89 50 90
REMARK H PARENT 70 52 44 63
REMARK Flexibility Score: inf
ROOT
ATOM      1  O   UNL     1      -2.933   6.110   2.521  1.00  0.00    -0.462 OA
ENDROOT
BRANCH   1   2
ATOM      2  C   UNL     1      -3.523   6.009   3.747  1.00  0.00     0.306 C 
ATOM      3  O   UNL     1      -4.062   4.988   4.160  1.00  0.00    -0.252 OA
BRANCH   2   4
ATOM      4  C   UNL     1      -3.384   7.260   4.607  1.00  0.00     0.129 C 
BRANCH   4   5
ATOM      5  C   UNL     1      -1.987   7.864   4.828  1.00  0.00     0.066 C 
BRANCH   5   6
ATOM      6  C   UNL     1      -1.452   8.550   3.619  1.00  0.00     0.024 A 
ATOM      7  N   UNL     1      -0.790   7.953   2.546  1.00  0.00    -0.314 N 
ATOM      8  C   UNL     1      -0.830   8.885   1.491  1.00  0.00     0.053 A 
ATOM      9  C   UNL     1      -1.551   9.906   3.357  1.00  0.00     0.024 A 
ATOM     10  C   UNL     1      -1.161  10.115   2.026  1.00  0.00     0.029 A 
BRANCH   7  11
ATOM     11  C   UNL     1      -0.302   6.610   2.441  1.00  0.00     0.046 A 
ATOM     12  C   UNL     1       0.766   3.195   1.859  1.00  0.00     0.082 A 
ATOM     13  C   UNL     1       1.272   4.492   0.729  1.00  0.00     0.024 A 
ATOM     14  C   UNL     1      -0.263   3.562   3.279  1.00  0.00     0.024 A 
ATOM     15  C   UNL     1       0.757   6.199   1.009  1.00  0.00     0.028 A 
ATOM     16  C   UNL     1      -0.751   5.274   3.618  1.00  0.00     0.028 A 
BRANCH  12  17
ATOM     17  S   UNL     1       1.409   1.573   1.647  1.00  0.00     0.242 S 
ATOM     18  O   UNL     1       0.919   0.761   2.739  1.00  0.00    -0.207 OA
ATOM     19  O   UNL     1       2.827   1.713   1.392  1.00  0.00    -0.207 OA
BRANCH  17  20
ATOM     20  N   UNL     1       0.654   1.026   0.211  1.00  0.00    -0.204 NA
ATOM     21  C   UNL     1       1.260  -0.228  -0.303  1.00  0.00     0.124 C 
ATOM     22  C   UNL     1      -0.821   0.911   0.264  1.00  0.00     0.124 C 
ENDBRANCH  17  20
ENDBRANCH  12  17
ENDBRANCH   7  11
BRANCH   8  23
ATOM     23  C   UNL     1      -0.757   8.580   0.058  1.00  0.00    -0.001 A 
ATOM     24  C   UNL     1       0.279   9.086  -0.740  1.00  0.00     0.013 A 
ATOM     25  C   UNL     1      -1.745   7.772  -0.529  1.00  0.00     0.013 A 
ATOM     26  C   UNL     1       0.363   8.725  -2.088  1.00  0.00     0.040 A 
ATOM     27  C   UNL     1      -1.658   7.410  -1.873  1.00  0.00     0.040 A 
ATOM     28  C   UNL     1      -0.599   7.883  -2.637  1.00  0.00     0.123 A 
ATOM     29  F   UNL     1      -0.506   7.522  -3.924  1.00  0.00    -0.207 F 
ENDBRANCH   8  23
ENDBRANCH   5   6
ENDBRANCH   4   5
ENDBRANCH   2   4
ENDBRANCH   1   2
BRANCH   1  30
ATOM     30  C   UNL     1      -2.493   4.862   1.916  1.00  0.00     0.274 C 
BRANCH  30  31
ATOM     31  C   UNL     1      -0.902   4.766   1.425  1.00  0.00     0.275 C 
BRANCH  31  32
ATOM     32  O   UNL     1       0.770   5.005   2.545  1.00  0.00    -0.458 OA
BRANCH  32  33
ATOM     33  C   UNL     1       1.885   5.610   3.119  1.00  0.00     0.338 C 
ATOM     34  O   UNL     1       2.398   6.707   2.886  1.00  0.00    -0.246 OA
BRANCH  33  35
ATOM     35  C   UNL     1       2.374   4.886   4.279  1.00  0.00     0.060 A 
ATOM     36  C   UNL     1       2.156   5.535   5.505  1.00  0.00     0.016 A 
ATOM     37  C   UNL     1       3.460   4.055   4.025  1.00  0.00     0.016 A 
ATOM     38  C   UNL     1       3.174   5.534   6.426  1.00  0.00     0.010 A 
ATOM     39  C   UNL     1       4.482   4.069   4.939  1.00  0.00     0.010 A 
ATOM     40  C   UNL     1       4.359   4.880   6.080  1.00  0.00    -0.014 A 
BRANCH  40  41
ATOM     41  C   UNL     1       5.538   5.058   6.924  1.00  0.00     0.031 A 
ATOM     42  C   UNL     1       5.641   3.969   7.975  1.00  0.00     0.074 A 
ATOM     43  C   UNL     1       6.337   6.106   6.566  1.00  0.00     0.049 A 
ATOM     44  N   UNL     1       6.459   3.851   8.971  1.00  0.00    -0.248 NA
ATOM     45  C   UNL     1       4.670   2.838   7.926  1.00  0.00     0.031 C 
ATOM     46  C   UNL     1       6.021   7.074   5.489  1.00  0.00     0.029 A 
ATOM     47  N   UNL     1       7.558   6.572   7.000  1.00  0.00    -0.354 N 
ATOM     48  C   UNL     1       6.259   2.569   9.507  1.00  0.00     0.074 A 
ATOM     49  C   UNL     1       5.083   2.030   8.898  1.00  0.00     0.031 C 
ATOM     50  C   UNL     1       6.972   8.024   5.403  1.00  0.00     0.029 A 
ATOM     51  C   UNL     1       8.014   7.759   6.373  1.00  0.00     0.049 A 
ATOM     52  H   UNL     1       8.078   6.112   7.698  1.00  0.00     0.167 HD
ATOM     53  C   UNL     1       7.154   1.963  10.330  1.00  0.00     0.037 A 
ATOM     54  C   UNL     1       9.141   8.489   6.638  1.00  0.00     0.037 A 
ATOM     55  C   UNL     1       8.213   2.848  10.678  1.00  0.00     0.049 A 
ATOM     56  C   UNL     1       9.911   7.673   7.593  1.00  0.00     0.074 A 
ATOM     57  C   UNL     1       8.286   3.902  11.549  1.00  0.00     0.029 A 
ATOM     58  N   UNL     1       9.298   2.891   9.840  1.00  0.00    -0.354 N 
ATOM     59  N   UNL     1      10.547   6.579   7.291  1.00  0.00    -0.248 NA
ATOM     60  C   UNL     1       9.883   8.035   9.013  1.00  0.00     0.031 C 
ATOM     61  C   UNL     1       9.249   4.769  10.987  1.00  0.00     0.029 A 
ATOM     62  C   UNL     1       9.779   4.182   9.835  1.00  0.00     0.049 A 
ATOM     63  H   UNL     1       9.668   2.133   9.332  1.00  0.00     0.167 HD
ATOM     64  C   UNL     1      10.699   5.966   8.514  1.00  0.00     0.074 A 
ATOM     65  C   UNL     1      10.550   6.999   9.513  1.00  0.00     0.031 C 
ATOM     66  C   UNL     1      10.464   4.636   8.646  1.00  0.00     0.037 A 
BRANCH  53  67
ATOM     67  C   UNL     1       7.252   0.526  10.725  1.00  0.00     0.057 A 
ATOM     68  C   UNL     1       7.892   0.202  11.937  1.00  0.00     0.134 A 
ATOM     69  C   UNL     1       7.025  -0.536   9.841  1.00  0.00     0.134 A 
ATOM     70  F   UNL     1       8.125   1.143  12.866  1.00  0.00    -0.206 F 
ATOM     71  C   UNL     1       8.367  -1.081  12.211  1.00  0.00     0.040 A 
ATOM     72  C   UNL     1       7.461  -1.837  10.124  1.00  0.00     0.040 A 
ATOM     73  F   UNL     1       6.456  -0.340   8.644  1.00  0.00    -0.206 F 
ATOM     74  C   UNL     1       8.166  -2.103  11.294  1.00  0.00     0.006 A 
ENDBRANCH  53  67
BRANCH  54  75
ATOM     75  C   UNL     1       9.701   9.848   6.280  1.00  0.00     0.057 A 
ATOM     76  C   UNL     1       9.153  10.763   5.374  1.00  0.00     0.134 A 
ATOM     77  C   UNL     1      10.841  10.348   6.967  1.00  0.00     0.134 A 
ATOM     78  F   UNL     1       8.149  10.434   4.558  1.00  0.00    -0.206 F 
ATOM     79  C   UNL     1       9.622  12.086   5.246  1.00  0.00     0.040 A 
ATOM     80  C   UNL     1      11.298  11.669   6.876  1.00  0.00     0.040 A 
ATOM     81  F   UNL     1      11.571   9.575   7.783  1.00  0.00    -0.206 F 
ATOM     82  C   UNL     1      10.672  12.556   6.024  1.00  0.00     0.006 A 
ENDBRANCH  54  75
BRANCH  66  83
ATOM     83  C   UNL     1      10.580   3.865   7.351  1.00  0.00     0.057 A 
ATOM     84  C   UNL     1      11.832   3.665   6.761  1.00  0.00     0.134 A 
ATOM     85  C   UNL     1       9.476   3.410   6.613  1.00  0.00     0.134 A 
ATOM     86  F   UNL     1      12.946   4.068   7.393  1.00  0.00    -0.206 F 
ATOM     87  C   UNL     1      11.976   3.051   5.510  1.00  0.00     0.040 A 
ATOM     88  C   UNL     1       9.599   2.787   5.367  1.00  0.00     0.040 A 
ATOM     89  F   UNL     1       8.237   3.559   7.081  1.00  0.00    -0.206 F 
ATOM     90  C   UNL     1      10.857   2.610   4.807  1.00  0.00     0.006 A 
ENDBRANCH  66  83
ENDBRANCH  40  41
ENDBRANCH  33  35
ENDBRANCH  32  33
ENDBRANCH  31  32
ENDBRANCH  30  31
ENDBRANCH   1  30
TORSDOF 17
