REMARK SMILES Cc1nc2cc(S(=O)(=O)N3CCC(C(=O)OCCOC(=O)c4ccc(-c5c6nc(c(-c7c(F)cccc7F)c7ccc([nH]7)c(-c7c(F)cccc7F)c7nc(c(-c8c(F)cccc8F)c8ccc5[nH]8)C=C7)C=C6)cc4)CC3)ccc2n1C1CCCC1
REMARK SMILES IDX 17 1 16 2 14 3 15 4 13 5 10 6 11 7 77 8 12 9 76 10 7 11 8 12
REMARK SMILES IDX 9 13 6 14 1 15 2 16 3 17 81 18 4 19 80 20 5 21 79 22 78 23
REMARK SMILES IDX 82 24 83 25 86 26 84 27 85 28 18 29 19 30 20 31 21 32 22 33
REMARK SMILES IDX 23 34 75 35 24 36 74 37 25 38 26 39 27 40 68 41 28 42 73 43
REMARK SMILES IDX 67 44 69 45 29 46 72 47 66 48 65 49 30 51 56 52 39 53 55 54
REMARK SMILES IDX 40 55 43 56 54 57 70 58 41 59 42 60 53 62 71 63 44 64 31 65
REMARK SMILES IDX 32 66 37 67 33 68 34 69 36 70 38 71 35 72 57 73 58 74 63 75
REMARK SMILES IDX 59 76 60 77 62 78 64 79 61 80 45 81 46 82 51 83 47 84 48 85
REMARK SMILES IDX 50 86 52 87 49 88
REMARK H PARENT 69 50 43 61
REMARK Flexibility Score: inf
ROOT
ATOM      1  C   UNL     1      -0.471  13.653   3.543  1.00  0.00     0.274 C 
ENDROOT
BRANCH   1   2
ATOM      2  O   UNL     1      -0.763  12.256   3.754  1.00  0.00    -0.462 OA
BRANCH   2   3
ATOM      3  C   UNL     1      -1.256  11.579   2.688  1.00  0.00     0.309 C 
ATOM      4  O   UNL     1      -1.576  12.087   1.619  1.00  0.00    -0.252 OA
BRANCH   3   5
ATOM      5  C   UNL     1      -1.294  10.084   2.910  1.00  0.00     0.102 C 
ATOM      6  N   UNL     1      -1.890   7.400   3.722  1.00  0.00    -0.198 NA
ATOM      7  C   UNL     1      -0.611   8.012   4.164  1.00  0.00     0.103 C 
ATOM      8  C   UNL     1      -2.546   7.993   2.538  1.00  0.00     0.103 C 
ATOM      9  C   UNL     1      -0.694   9.542   4.203  1.00  0.00     0.032 C 
ATOM     10  C   UNL     1      -2.682   9.503   2.709  1.00  0.00     0.032 C 
BRANCH   6  11
ATOM     11  S   UNL     1      -2.094   5.716   3.936  1.00  0.00     0.243 S 
ATOM     12  O   UNL     1      -3.477   5.415   3.643  1.00  0.00    -0.207 OA
ATOM     13  O   UNL     1      -1.501   5.373   5.215  1.00  0.00    -0.207 OA
BRANCH  11  14
ATOM     14  C   UNL     1      -1.130   4.859   2.702  1.00  0.00     0.085 A 
ATOM     15  C   UNL     1       0.837  -0.119   0.006  1.00  0.00     0.088 C 
ATOM     16  C   UNL     1       0.428   1.207   0.539  1.00  0.00     0.106 A 
ATOM     17  N   UNL     1      -0.457   1.389   1.498  1.00  0.00    -0.233 NA
ATOM     18  N   UNL     1       0.935   2.414   0.099  1.00  0.00    -0.325 N 
ATOM     19  C   UNL     1      -0.509   2.739   1.718  1.00  0.00     0.090 A 
ATOM     20  C   UNL     1       0.359   3.411   0.863  1.00  0.00     0.068 A 
ATOM     21  C   UNL     1      -1.271   3.462   2.649  1.00  0.00     0.052 A 
ATOM     22  C   UNL     1       0.506   4.802   0.900  1.00  0.00     0.030 A 
ATOM     23  C   UNL     1      -0.260   5.509   1.832  1.00  0.00     0.024 A 
BRANCH  18  24
ATOM     24  C   UNL     1       1.915   2.590  -0.957  1.00  0.00     0.089 C 
ATOM     25  C   UNL     1       1.474   3.503  -2.101  1.00  0.00     0.025 C 
ATOM     26  C   UNL     1       3.245   3.179  -0.483  1.00  0.00     0.025 C 
ATOM     27  C   UNL     1       2.774   3.920  -2.770  1.00  0.00     0.002 C 
ATOM     28  C   UNL     1       3.873   3.811  -1.719  1.00  0.00     0.002 C 
ENDBRANCH  18  24
ENDBRANCH  11  14
ENDBRANCH   6  11
ENDBRANCH   3   5
ENDBRANCH   2   3
ENDBRANCH   1   2
BRANCH   1  29
ATOM     29  C   UNL     1       1.043  13.846   3.413  1.00  0.00     0.275 C 
BRANCH  29  30
ATOM     30  O   UNL     1       1.484  13.255   2.178  1.00  0.00    -0.458 OA
BRANCH  30  31
ATOM     31  C   UNL     1       2.186  12.099   2.270  1.00  0.00     0.338 C 
ATOM     32  O   UNL     1       2.777  11.674   3.248  1.00  0.00    -0.246 OA
BRANCH  31  33
ATOM     33  C   UNL     1       1.827  11.265   1.098  1.00  0.00     0.060 A 
ATOM     34  C   UNL     1       1.401  11.833  -0.104  1.00  0.00     0.016 A 
ATOM     35  C   UNL     1       1.694   9.886   1.305  1.00  0.00     0.016 A 
ATOM     36  C   UNL     1       0.678  11.056  -1.007  1.00  0.00     0.010 A 
ATOM     37  C   UNL     1       0.966   9.116   0.397  1.00  0.00     0.010 A 
ATOM     38  C   UNL     1       0.377   9.714  -0.718  1.00  0.00    -0.014 A 
BRANCH  38  39
ATOM     39  C   UNL     1      -0.263   8.900  -1.761  1.00  0.00     0.031 A 
ATOM     40  C   UNL     1       0.705   8.607  -2.839  1.00  0.00     0.074 A 
ATOM     41  C   UNL     1      -1.518   8.402  -1.857  1.00  0.00     0.049 A 
ATOM     42  N   UNL     1       0.746   9.196  -3.984  1.00  0.00    -0.248 NA
ATOM     43  C   UNL     1       1.854   7.740  -2.558  1.00  0.00     0.031 C 
ATOM     44  C   UNL     1      -2.593   8.401  -0.876  1.00  0.00     0.029 A 
ATOM     45  N   UNL     1      -2.095   7.735  -2.910  1.00  0.00    -0.354 N 
ATOM     46  C   UNL     1       1.830   8.655  -4.654  1.00  0.00     0.074 A 
ATOM     47  C   UNL     1       2.559   7.879  -3.683  1.00  0.00     0.031 C 
ATOM     48  C   UNL     1      -3.595   7.573  -1.269  1.00  0.00     0.029 A 
ATOM     49  C   UNL     1      -3.329   7.141  -2.632  1.00  0.00     0.049 A 
ATOM     50  H   UNL     1      -1.670   7.679  -3.796  1.00  0.00     0.167 HD
ATOM     51  C   UNL     1       1.901   8.732  -6.008  1.00  0.00     0.037 A 
ATOM     52  C   UNL     1      -4.111   6.411  -3.475  1.00  0.00     0.037 A 
ATOM     53  C   UNL     1       0.966   9.706  -6.519  1.00  0.00     0.049 A 
ATOM     54  C   UNL     1      -3.748   6.804  -4.851  1.00  0.00     0.074 A 
ATOM     55  C   UNL     1       0.805  11.072  -6.412  1.00  0.00     0.029 A 
ATOM     56  N   UNL     1      -0.226   9.218  -6.989  1.00  0.00    -0.354 N 
ATOM     57  N   UNL     1      -4.040   7.958  -5.373  1.00  0.00    -0.248 NA
ATOM     58  C   UNL     1      -2.705   6.053  -5.526  1.00  0.00     0.031 C 
ATOM     59  C   UNL     1      -0.606  11.287  -6.418  1.00  0.00     0.029 A 
ATOM     60  C   UNL     1      -1.230  10.050  -6.577  1.00  0.00     0.049 A 
ATOM     61  H   UNL     1      -0.340   8.405  -7.533  1.00  0.00     0.167 HD
ATOM     62  C   UNL     1      -2.924   8.286  -6.121  1.00  0.00     0.074 A 
ATOM     63  C   UNL     1      -2.192   7.030  -6.277  1.00  0.00     0.031 C 
ATOM     64  C   UNL     1      -2.570   9.593  -6.292  1.00  0.00     0.037 A 
BRANCH  51  65
ATOM     65  C   UNL     1       2.469   7.651  -6.890  1.00  0.00     0.057 A 
ATOM     66  C   UNL     1       2.618   6.309  -6.495  1.00  0.00     0.134 A 
ATOM     67  C   UNL     1       2.539   7.879  -8.276  1.00  0.00     0.134 A 
ATOM     68  F   UNL     1       2.522   5.923  -5.220  1.00  0.00    -0.206 F 
ATOM     69  C   UNL     1       2.764   5.262  -7.407  1.00  0.00     0.040 A 
ATOM     70  C   UNL     1       2.635   6.834  -9.200  1.00  0.00     0.040 A 
ATOM     71  F   UNL     1       2.414   9.117  -8.777  1.00  0.00    -0.206 F 
ATOM     72  C   UNL     1       2.732   5.518  -8.767  1.00  0.00     0.006 A 
ENDBRANCH  51  65
BRANCH  52  73
ATOM     73  C   UNL     1      -5.028   5.267  -3.247  1.00  0.00     0.057 A 
ATOM     74  C   UNL     1      -4.757   4.328  -2.241  1.00  0.00     0.134 A 
ATOM     75  C   UNL     1      -5.976   4.874  -4.212  1.00  0.00     0.134 A 
ATOM     76  F   UNL     1      -3.819   4.575  -1.315  1.00  0.00    -0.206 F 
ATOM     77  C   UNL     1      -5.358   3.062  -2.215  1.00  0.00     0.040 A 
ATOM     78  C   UNL     1      -6.585   3.610  -4.198  1.00  0.00     0.040 A 
ATOM     79  F   UNL     1      -6.276   5.678  -5.242  1.00  0.00    -0.206 F 
ATOM     80  C   UNL     1      -6.263   2.692  -3.205  1.00  0.00     0.006 A 
ENDBRANCH  52  73
BRANCH  64  81
ATOM     81  C   UNL     1      -3.600  10.636  -5.959  1.00  0.00     0.057 A 
ATOM     82  C   UNL     1      -3.997  11.518  -6.970  1.00  0.00     0.134 A 
ATOM     83  C   UNL     1      -4.135  10.856  -4.680  1.00  0.00     0.134 A 
ATOM     84  F   UNL     1      -3.491  11.398  -8.208  1.00  0.00    -0.206 F 
ATOM     85  C   UNL     1      -4.892  12.562  -6.732  1.00  0.00     0.040 A 
ATOM     86  C   UNL     1      -5.060  11.877  -4.436  1.00  0.00     0.040 A 
ATOM     87  F   UNL     1      -3.749  10.120  -3.628  1.00  0.00    -0.206 F 
ATOM     88  C   UNL     1      -5.438  12.736  -5.463  1.00  0.00     0.006 A 
ENDBRANCH  64  81
ENDBRANCH  38  39
ENDBRANCH  31  33
ENDBRANCH  30  31
ENDBRANCH  29  30
ENDBRANCH   1  29
TORSDOF 14
