REMARK SMILES CS(=O)(=O)c1ccc(C(=O)N2C[C@@H](C(=O)OCCOC(=O)c3ccc(-c4c5nc(c(-c6c(F)cccc6F)c6ccc([nH]6)c(-c6c(F)cccc6F)c6nc(c(-c7c(F)cccc7F)c7ccc4[nH]7)C=C6)C=C5)cc3)[C@H](c3ccncc3)C2)cc1
REMARK SMILES IDX 17 1 16 2 14 3 15 4 13 5 11 6 12 7 83 8 76 9 9 10 10 11 8 12
REMARK SMILES IDX 5 13 6 14 85 15 7 16 84 17 2 18 1 19 3 20 4 21 77 22 78 23
REMARK SMILES IDX 82 24 79 25 81 26 80 27 18 28 19 29 20 30 21 31 22 32 23 33
REMARK SMILES IDX 75 34 24 35 74 36 25 37 26 38 27 39 68 40 28 41 73 42 67 43
REMARK SMILES IDX 69 44 29 45 72 46 66 47 65 48 30 50 56 51 39 52 55 53 40 54
REMARK SMILES IDX 43 55 54 56 70 57 41 58 42 59 53 61 71 62 44 63 31 64 32 65
REMARK SMILES IDX 37 66 33 67 34 68 36 69 38 70 35 71 57 72 58 73 63 74 59 75
REMARK SMILES IDX 60 76 62 77 64 78 61 79 45 80 46 81 51 82 47 83 48 84 50 85
REMARK SMILES IDX 52 86 49 87
REMARK H PARENT 69 49 43 60
REMARK Flexibility Score: inf
ROOT
ATOM      1  C   UNL     1      -1.085  10.118   4.651  1.00  0.00     0.274 C 
ENDROOT
BRANCH   1   2
ATOM      2  O   UNL     1       0.064   9.332   4.272  1.00  0.00    -0.462 OA
BRANCH   2   3
ATOM      3  C   UNL     1       0.904   8.965   5.280  1.00  0.00     0.311 C 
ATOM      4  O   UNL     1       0.773   9.277   6.455  1.00  0.00    -0.252 OA
BRANCH   3   5
ATOM      5  C   UNL     1       2.018   8.105   4.739  1.00  0.00     0.128 C 
ATOM      6  N   UNL     1       2.636   5.835   4.892  1.00  0.00    -0.337 N 
ATOM      7  C   UNL     1       1.534   6.686   4.497  1.00  0.00     0.135 C 
ATOM      8  C   UNL     1       3.354   6.480   5.976  1.00  0.00     0.129 C 
ATOM      9  C   UNL     1       3.217   7.991   5.722  1.00  0.00     0.055 C 
BRANCH   6  10
ATOM     10  C   UNL     1       2.865   4.493   4.620  1.00  0.00     0.253 C 
ATOM     11  O   UNL     1       3.648   3.830   5.301  1.00  0.00    -0.269 OA
BRANCH  10  12
ATOM     12  C   UNL     1       2.173   3.793   3.500  1.00  0.00     0.040 A 
ATOM     13  C   UNL     1       0.930   2.351   1.436  1.00  0.00     0.067 A 
ATOM     14  C   UNL     1       1.335   1.684   2.591  1.00  0.00     0.021 A 
ATOM     15  C   UNL     1       1.175   3.718   1.288  1.00  0.00     0.021 A 
ATOM     16  C   UNL     1       1.961   2.408   3.614  1.00  0.00     0.015 A 
ATOM     17  C   UNL     1       1.827   4.423   2.303  1.00  0.00     0.015 A 
BRANCH  13  18
ATOM     18  S   UNL     1       0.160   1.482   0.090  1.00  0.00     0.175 S 
ATOM     19  C   UNL     1       0.969  -0.091  -0.005  1.00  0.00     0.163 C 
ATOM     20  O   UNL     1       0.499   2.201  -1.124  1.00  0.00    -0.224 OA
ATOM     21  O   UNL     1      -1.220   1.264   0.474  1.00  0.00    -0.224 OA
ENDBRANCH  13  18
ENDBRANCH  10  12
ENDBRANCH   6  10
BRANCH   9  22
ATOM     22  C   UNL     1       4.412   8.733   5.140  1.00  0.00    -0.039 A 
ATOM     23  C   UNL     1       4.299  10.117   4.927  1.00  0.00     0.024 A 
ATOM     24  C   UNL     1       5.617   8.124   4.785  1.00  0.00     0.024 A 
ATOM     25  C   UNL     1       5.351  10.804   4.344  1.00  0.00     0.111 A 
ATOM     26  C   UNL     1       6.623   8.902   4.226  1.00  0.00     0.111 A 
ATOM     27  N   UNL     1       6.513  10.225   3.986  1.00  0.00    -0.265 NA
ENDBRANCH   9  22
ENDBRANCH   3   5
ENDBRANCH   2   3
ENDBRANCH   1   2
BRANCH   1  28
ATOM     28  C   UNL     1      -2.337   9.247   4.622  1.00  0.00     0.275 C 
BRANCH  28  29
ATOM     29  O   UNL     1      -2.190   8.180   5.579  1.00  0.00    -0.458 OA
BRANCH  29  30
ATOM     30  C   UNL     1      -2.321   6.924   5.096  1.00  0.00     0.338 C 
ATOM     31  O   UNL     1      -2.652   6.609   3.962  1.00  0.00    -0.246 OA
BRANCH  30  32
ATOM     32  C   UNL     1      -1.903   5.924   6.106  1.00  0.00     0.060 A 
ATOM     33  C   UNL     1      -0.865   6.201   6.995  1.00  0.00     0.016 A 
ATOM     34  C   UNL     1      -2.420   4.629   6.038  1.00  0.00     0.016 A 
ATOM     35  C   UNL     1      -0.244   5.157   7.682  1.00  0.00     0.010 A 
ATOM     36  C   UNL     1      -1.897   3.621   6.858  1.00  0.00     0.010 A 
ATOM     37  C   UNL     1      -0.768   3.854   7.661  1.00  0.00    -0.014 A 
BRANCH  37  38
ATOM     38  C   UNL     1      -0.151   2.757   8.475  1.00  0.00     0.031 A 
ATOM     39  C   UNL     1       0.192   1.416   7.864  1.00  0.00     0.074 A 
ATOM     40  C   UNL     1       0.104   2.945   9.788  1.00  0.00     0.049 A 
ATOM     41  N   UNL     1       0.548   0.298   8.452  1.00  0.00    -0.248 NA
ATOM     42  C   UNL     1       0.115   1.312   6.400  1.00  0.00     0.031 C 
ATOM     43  C   UNL     1      -0.132   4.183  10.534  1.00  0.00     0.029 A 
ATOM     44  N   UNL     1       0.614   2.088  10.735  1.00  0.00    -0.354 N 
ATOM     45  C   UNL     1       0.710  -0.639   7.437  1.00  0.00     0.074 A 
ATOM     46  C   UNL     1       0.394   0.032   6.195  1.00  0.00     0.031 C 
ATOM     47  C   UNL     1       0.273   4.023  11.800  1.00  0.00     0.029 A 
ATOM     48  C   UNL     1       0.670   2.636  11.994  1.00  0.00     0.049 A 
ATOM     49  H   UNL     1       0.909   1.171  10.531  1.00  0.00     0.167 HD
ATOM     50  C   UNL     1       1.085  -1.939   7.525  1.00  0.00     0.037 A 
ATOM     51  C   UNL     1       0.930   2.085  13.194  1.00  0.00     0.037 A 
ATOM     52  C   UNL     1       1.406  -2.616   8.756  1.00  0.00     0.049 A 
ATOM     53  C   UNL     1       1.216   0.618  13.287  1.00  0.00     0.074 A 
ATOM     54  C   UNL     1       1.793  -3.933   8.943  1.00  0.00     0.029 A 
ATOM     55  N   UNL     1       1.372  -2.030  10.012  1.00  0.00    -0.354 N 
ATOM     56  N   UNL     1       1.317  -0.265  12.326  1.00  0.00    -0.248 NA
ATOM     57  C   UNL     1       1.392   0.066  14.637  1.00  0.00     0.031 C 
ATOM     58  C   UNL     1       1.941  -4.157  10.317  1.00  0.00     0.029 A 
ATOM     59  C   UNL     1       1.694  -2.968  10.980  1.00  0.00     0.049 A 
ATOM     60  H   UNL     1       1.152  -1.087  10.189  1.00  0.00     0.167 HD
ATOM     61  C   UNL     1       1.572  -1.477  12.952  1.00  0.00     0.074 A 
ATOM     62  C   UNL     1       1.631  -1.211  14.374  1.00  0.00     0.031 C 
ATOM     63  C   UNL     1       1.737  -2.701  12.394  1.00  0.00     0.037 A 
BRANCH  50  64
ATOM     64  C   UNL     1       1.137  -2.742   6.255  1.00  0.00     0.057 A 
ATOM     65  C   UNL     1       2.169  -2.591   5.320  1.00  0.00     0.134 A 
ATOM     66  C   UNL     1       0.175  -3.728   5.999  1.00  0.00     0.134 A 
ATOM     67  F   UNL     1       3.112  -1.653   5.493  1.00  0.00    -0.206 F 
ATOM     68  C   UNL     1       2.237  -3.386   4.173  1.00  0.00     0.040 A 
ATOM     69  C   UNL     1       0.242  -4.540   4.866  1.00  0.00     0.040 A 
ATOM     70  F   UNL     1      -0.838  -3.929   6.856  1.00  0.00    -0.206 F 
ATOM     71  C   UNL     1       1.276  -4.370   3.948  1.00  0.00     0.006 A 
ENDBRANCH  50  64
BRANCH  51  72
ATOM     72  C   UNL     1       0.836   2.925  14.415  1.00  0.00     0.057 A 
ATOM     73  C   UNL     1       1.973   3.260  15.156  1.00  0.00     0.134 A 
ATOM     74  C   UNL     1      -0.394   3.441  14.847  1.00  0.00     0.134 A 
ATOM     75  F   UNL     1       3.173   2.773  14.808  1.00  0.00    -0.206 F 
ATOM     76  C   UNL     1       1.893   4.085  16.279  1.00  0.00     0.040 A 
ATOM     77  C   UNL     1      -0.484   4.293  15.947  1.00  0.00     0.040 A 
ATOM     78  F   UNL     1      -1.521   3.156  14.178  1.00  0.00    -0.206 F 
ATOM     79  C   UNL     1       0.663   4.615  16.668  1.00  0.00     0.006 A 
ENDBRANCH  51  72
BRANCH  63  80
ATOM     80  C   UNL     1       2.014  -3.839  13.329  1.00  0.00     0.057 A 
ATOM     81  C   UNL     1       1.013  -4.381  14.145  1.00  0.00     0.134 A 
ATOM     82  C   UNL     1       3.294  -4.400  13.414  1.00  0.00     0.134 A 
ATOM     83  F   UNL     1      -0.230  -3.876  14.123  1.00  0.00    -0.206 F 
ATOM     84  C   UNL     1       1.282  -5.426  15.031  1.00  0.00     0.040 A 
ATOM     85  C   UNL     1       3.570  -5.459  14.278  1.00  0.00     0.040 A 
ATOM     86  F   UNL     1       4.296  -3.929  12.656  1.00  0.00    -0.206 F 
ATOM     87  C   UNL     1       2.563  -5.970  15.096  1.00  0.00     0.006 A 
ENDBRANCH  63  80
ENDBRANCH  37  38
ENDBRANCH  30  32
ENDBRANCH  29  30
ENDBRANCH  28  29
ENDBRANCH   1  28
TORSDOF 15
