REMARK SMILES CC1=C(CC(=O)OCCOC(=O)c2ccc(-c3c4nc(c(-c5c(F)cccc5F)c5ccc([nH]5)c(-c5c(F)cccc5F)c5nc(c(-c6c(F)cccc6F)c6ccc3[nH]6)C=C5)C=C4)cc2)c2cc(F)ccc2/C1=C\c1cccc(OCc2ccccc2)c1
REMARK SMILES IDX 7 1 5 2 6 3 4 4 3 5 1 6 2 7 74 8 67 9 73 10 75 11 68 12
REMARK SMILES IDX 72 13 69 14 71 15 70 16 76 17 77 18 89 19 78 20 80 21 79 22
REMARK SMILES IDX 81 23 82 24 83 25 84 26 88 27 85 28 87 29 86 30 8 31 9 32
REMARK SMILES IDX 10 33 11 34 12 35 13 36 14 37 66 38 15 39 65 40 16 41 17 42
REMARK SMILES IDX 18 43 59 44 19 45 64 46 58 47 60 48 20 49 63 50 57 51 56 52
REMARK SMILES IDX 21 54 47 55 30 56 46 57 31 58 34 59 45 60 61 61 32 62 33 63
REMARK SMILES IDX 44 65 62 66 35 67 22 68 23 69 28 70 24 71 25 72 27 73 29 74
REMARK SMILES IDX 26 75 48 76 49 77 54 78 50 79 51 80 53 81 55 82 52 83 36 84
REMARK SMILES IDX 37 85 42 86 38 87 39 88 41 89 43 90 40 91
REMARK H PARENT 60 53 34 64
REMARK Flexibility Score: inf
ROOT
ATOM      1  O   UNL     1      -2.597  -0.134  -1.986  1.00  0.00    -0.462 OA
ENDROOT
BRANCH   1   2
ATOM      2  C   UNL     1      -1.761  -1.117  -2.412  1.00  0.00     0.310 C 
ATOM      3  O   UNL     1      -2.126  -2.230  -2.781  1.00  0.00    -0.252 OA
BRANCH   2   4
ATOM      4  C   UNL     1      -0.289  -0.727  -2.426  1.00  0.00     0.159 C 
BRANCH   4   5
ATOM      5  C   UNL     1       0.043   0.663  -2.001  1.00  0.00    -0.025 C 
ATOM      6  C   UNL     1       0.676   0.276   0.440  1.00  0.00     0.045 C 
ATOM      7  C   UNL     1       0.452   1.095  -0.787  1.00  0.00    -0.039 C 
ATOM      8  C   UNL     1       0.690   2.545  -0.839  1.00  0.00    -0.014 C 
ATOM      9  C   UNL     1       0.053   1.819  -2.916  1.00  0.00    -0.011 A 
ATOM     10  C   UNL     1       0.415   2.983  -2.218  1.00  0.00    -0.010 A 
ATOM     11  C   UNL     1       1.113   3.278   0.204  1.00  0.00     0.017 C 
ATOM     12  C   UNL     1      -0.192   1.873  -4.279  1.00  0.00     0.048 A 
ATOM     13  C   UNL     1       0.481   4.211  -2.870  1.00  0.00     0.012 A 
ATOM     14  C   UNL     1      -0.129   3.105  -4.925  1.00  0.00     0.123 A 
ATOM     15  C   UNL     1       0.193   4.270  -4.234  1.00  0.00     0.040 A 
ATOM     16  F   UNL     1      -0.360   3.167  -6.243  1.00  0.00    -0.207 F 
BRANCH  11  17
ATOM     17  C   UNL     1       1.414   4.706   0.163  1.00  0.00    -0.021 A 
ATOM     18  C   UNL     1       0.395   5.654   0.292  1.00  0.00     0.008 A 
ATOM     19  C   UNL     1       2.737   5.116  -0.039  1.00  0.00     0.054 A 
ATOM     20  C   UNL     1       0.695   7.010   0.183  1.00  0.00     0.004 A 
ATOM     21  C   UNL     1       3.046   6.474  -0.082  1.00  0.00     0.120 A 
ATOM     22  C   UNL     1       2.016   7.415  -0.007  1.00  0.00     0.046 A 
BRANCH  21  23
ATOM     23  O   UNL     1       4.307   7.006  -0.110  1.00  0.00    -0.489 OA
BRANCH  23  24
ATOM     24  C   UNL     1       5.426   6.138   0.113  1.00  0.00     0.265 C 
BRANCH  24  25
ATOM     25  C   UNL     1       5.556   5.522   1.497  1.00  0.00    -0.011 A 
ATOM     26  C   UNL     1       6.574   4.581   1.724  1.00  0.00     0.007 A 
ATOM     27  C   UNL     1       4.690   5.830   2.558  1.00  0.00     0.007 A 
ATOM     28  C   UNL     1       6.689   3.935   2.957  1.00  0.00     0.000 A 
ATOM     29  C   UNL     1       4.787   5.164   3.780  1.00  0.00     0.000 A 
ATOM     30  C   UNL     1       5.784   4.214   3.979  1.00  0.00     0.000 A 
ENDBRANCH  24  25
ENDBRANCH  23  24
ENDBRANCH  21  23
ENDBRANCH  11  17
ENDBRANCH   4   5
ENDBRANCH   2   4
ENDBRANCH   1   2
BRANCH   1  31
ATOM     31  C   UNL     1      -4.006  -0.439  -2.034  1.00  0.00     0.274 C 
BRANCH  31  32
ATOM     32  C   UNL     1      -4.647   0.186  -3.271  1.00  0.00     0.275 C 
BRANCH  32  33
ATOM     33  O   UNL     1      -3.975  -0.293  -4.448  1.00  0.00    -0.458 OA
BRANCH  33  34
ATOM     34  C   UNL     1      -3.502   0.664  -5.278  1.00  0.00     0.338 C 
ATOM     35  O   UNL     1      -3.653   1.869  -5.186  1.00  0.00    -0.246 OA
BRANCH  34  36
ATOM     36  C   UNL     1      -2.756   0.029  -6.380  1.00  0.00     0.060 A 
ATOM     37  C   UNL     1      -3.017   0.439  -7.687  1.00  0.00     0.016 A 
ATOM     38  C   UNL     1      -1.736  -0.891  -6.122  1.00  0.00     0.016 A 
ATOM     39  C   UNL     1      -2.282  -0.109  -8.738  1.00  0.00     0.010 A 
ATOM     40  C   UNL     1      -0.934  -1.355  -7.162  1.00  0.00     0.010 A 
ATOM     41  C   UNL     1      -1.226  -1.001  -8.486  1.00  0.00    -0.014 A 
BRANCH  41  42
ATOM     42  C   UNL     1      -0.461  -1.599  -9.609  1.00  0.00     0.031 A 
ATOM     43  C   UNL     1      -0.528  -3.081  -9.864  1.00  0.00     0.074 A 
ATOM     44  C   UNL     1       0.293  -0.813 -10.402  1.00  0.00     0.049 A 
ATOM     45  N   UNL     1       0.012  -3.779 -10.831  1.00  0.00    -0.248 NA
ATOM     46  C   UNL     1      -1.283  -3.891  -8.893  1.00  0.00     0.031 C 
ATOM     47  C   UNL     1       0.495   0.626 -10.224  1.00  0.00     0.029 A 
ATOM     48  N   UNL     1       1.024  -1.116 -11.522  1.00  0.00    -0.354 N 
ATOM     49  C   UNL     1      -0.336  -5.101 -10.583  1.00  0.00     0.074 A 
ATOM     50  C   UNL     1      -1.074  -5.119  -9.341  1.00  0.00     0.031 C 
ATOM     51  C   UNL     1       1.266   1.087 -11.222  1.00  0.00     0.029 A 
ATOM     52  C   UNL     1       1.630  -0.025 -12.095  1.00  0.00     0.049 A 
ATOM     53  H   UNL     1       1.107  -2.029 -11.882  1.00  0.00     0.167 HD
ATOM     54  C   UNL     1      -0.096  -6.198 -11.339  1.00  0.00     0.037 A 
ATOM     55  C   UNL     1       2.387   0.068 -13.205  1.00  0.00     0.037 A 
ATOM     56  C   UNL     1       0.616  -6.179 -12.588  1.00  0.00     0.049 A 
ATOM     57  C   UNL     1       2.651  -1.166 -14.022  1.00  0.00     0.074 A 
ATOM     58  C   UNL     1       0.837  -7.220 -13.472  1.00  0.00     0.029 A 
ATOM     59  N   UNL     1       1.229  -5.058 -13.124  1.00  0.00    -0.354 N 
ATOM     60  N   UNL     1       2.226  -2.391 -13.831  1.00  0.00    -0.248 NA
ATOM     61  C   UNL     1       3.498  -1.002 -15.213  1.00  0.00     0.031 C 
ATOM     62  C   UNL     1       1.622  -6.737 -14.525  1.00  0.00     0.029 A 
ATOM     63  C   UNL     1       1.860  -5.388 -14.312  1.00  0.00     0.049 A 
ATOM     64  H   UNL     1       1.218  -4.160 -12.721  1.00  0.00     0.167 HD
ATOM     65  C   UNL     1       2.744  -3.142 -14.878  1.00  0.00     0.074 A 
ATOM     66  C   UNL     1       3.495  -2.229 -15.715  1.00  0.00     0.031 C 
ATOM     67  C   UNL     1       2.614  -4.468 -15.123  1.00  0.00     0.037 A 
BRANCH  54  68
ATOM     68  C   UNL     1      -0.624  -7.507 -10.831  1.00  0.00     0.057 A 
ATOM     69  C   UNL     1       0.244  -8.492 -10.346  1.00  0.00     0.134 A 
ATOM     70  C   UNL     1      -1.996  -7.795 -10.828  1.00  0.00     0.134 A 
ATOM     71  F   UNL     1       1.569  -8.283 -10.325  1.00  0.00    -0.206 F 
ATOM     72  C   UNL     1      -0.234  -9.714  -9.868  1.00  0.00     0.040 A 
ATOM     73  C   UNL     1      -2.488  -9.003 -10.330  1.00  0.00     0.040 A 
ATOM     74  F   UNL     1      -2.882  -6.888 -11.266  1.00  0.00    -0.206 F 
ATOM     75  C   UNL     1      -1.604  -9.968  -9.852  1.00  0.00     0.006 A 
ENDBRANCH  54  68
BRANCH  55  76
ATOM     76  C   UNL     1       2.934   1.382 -13.624  1.00  0.00     0.057 A 
ATOM     77  C   UNL     1       3.975   1.996 -12.919  1.00  0.00     0.134 A 
ATOM     78  C   UNL     1       2.434   2.047 -14.749  1.00  0.00     0.134 A 
ATOM     79  F   UNL     1       4.496   1.408 -11.832  1.00  0.00    -0.206 F 
ATOM     80  C   UNL     1       4.498   3.228 -13.315  1.00  0.00     0.040 A 
ATOM     81  C   UNL     1       2.961   3.270 -15.168  1.00  0.00     0.040 A 
ATOM     82  F   UNL     1       1.450   1.498 -15.476  1.00  0.00    -0.206 F 
ATOM     83  C   UNL     1       3.994   3.865 -14.447  1.00  0.00     0.006 A 
ENDBRANCH  55  76
BRANCH  67  84
ATOM     84  C   UNL     1       3.303  -5.007 -16.340  1.00  0.00     0.057 A 
ATOM     85  C   UNL     1       2.571  -5.384 -17.472  1.00  0.00     0.134 A 
ATOM     86  C   UNL     1       4.691  -5.184 -16.374  1.00  0.00     0.134 A 
ATOM     87  F   UNL     1       1.237  -5.245 -17.500  1.00  0.00    -0.206 F 
ATOM     88  C   UNL     1       3.197  -5.924 -18.596  1.00  0.00     0.040 A 
ATOM     89  C   UNL     1       5.331  -5.703 -17.501  1.00  0.00     0.040 A 
ATOM     90  F   UNL     1       5.448  -4.828 -15.325  1.00  0.00    -0.206 F 
ATOM     91  C   UNL     1       4.582  -6.080 -18.614  1.00  0.00     0.006 A 
ENDBRANCH  67  84
ENDBRANCH  41  42
ENDBRANCH  34  36
ENDBRANCH  33  34
ENDBRANCH  32  33
ENDBRANCH  31  32
ENDBRANCH   1  31
TORSDOF 16
