REMARK SMILES CC(C)[C@@H](CC(=O)OCCOC(=O)c1ccc(-c2c3nc(c(-c4c(F)cccc4F)c4ccc([nH]4)c(-c4c(F)cccc4F)c4nc(c(-c5c(F)cccc5F)c5ccc2[nH]5)C=C4)C=C3)cc1)NC(=O)OCc1ccccc1
REMARK SMILES IDX 8 1 6 2 7 3 5 4 4 5 2 6 1 7 3 8 68 9 69 10 70 12 71 13 72 14
REMARK SMILES IDX 73 15 74 16 78 17 75 18 77 19 76 20 9 21 10 22 11 23 12 24
REMARK SMILES IDX 13 25 14 26 15 27 67 28 16 29 66 30 17 31 18 32 19 33 60 34
REMARK SMILES IDX 20 35 65 36 59 37 61 38 21 39 64 40 58 41 57 42 22 44 48 45
REMARK SMILES IDX 31 46 47 47 32 48 35 49 46 50 62 51 33 52 34 53 45 55 63 56
REMARK SMILES IDX 36 57 23 58 24 59 29 60 25 61 26 62 28 63 30 64 27 65 49 66
REMARK SMILES IDX 50 67 55 68 51 69 52 70 54 71 56 72 53 73 37 74 38 75 43 76
REMARK SMILES IDX 39 77 40 78 42 79 44 80 41 81
REMARK H PARENT 68 11 61 43 35 54
REMARK Flexibility Score: inf
ROOT
ATOM      1  O   UNL     1       0.073  -2.339  -1.911  1.00  0.00    -0.462 OA
ENDROOT
BRANCH   1   2
ATOM      2  C   UNL     1      -0.960  -1.482  -2.081  1.00  0.00     0.308 C 
ATOM      3  O   UNL     1      -1.590  -1.357  -3.127  1.00  0.00    -0.252 OA
BRANCH   2   4
ATOM      4  C   UNL     1      -1.259  -0.620  -0.874  1.00  0.00     0.148 C 
BRANCH   4   5
ATOM      5  C   UNL     1      -0.799  -1.073   0.520  1.00  0.00     0.099 C 
BRANCH   5   6
ATOM      6  C   UNL     1       0.739  -1.134   0.739  1.00  0.00     0.006 C 
ATOM      7  C   UNL     1       1.448   0.137   0.264  1.00  0.00     0.009 C 
ATOM      8  C   UNL     1       1.077  -1.375   2.218  1.00  0.00     0.009 C 
ENDBRANCH   5   6
BRANCH   5   9
ATOM      9  N   UNL     1      -1.413  -2.339   0.915  1.00  0.00    -0.318 N 
ATOM     10  C   UNL     1      -2.184  -2.589   2.011  1.00  0.00     0.407 C 
ATOM     11  H   UNL     1      -1.252  -3.104   0.316  1.00  0.00     0.167 HD
ATOM     12  O   UNL     1      -2.367  -3.736   2.407  1.00  0.00    -0.225 OA
BRANCH  10  13
ATOM     13  O   UNL     1      -2.677  -1.472   2.598  1.00  0.00    -0.445 OA
BRANCH  13  14
ATOM     14  C   UNL     1      -3.357  -1.692   3.842  1.00  0.00     0.270 C 
BRANCH  14  15
ATOM     15  C   UNL     1      -4.776  -2.176   3.670  1.00  0.00    -0.011 A 
ATOM     16  C   UNL     1      -5.807  -1.284   3.344  1.00  0.00     0.007 A 
ATOM     17  C   UNL     1      -5.083  -3.535   3.835  1.00  0.00     0.007 A 
ATOM     18  C   UNL     1      -7.117  -1.743   3.201  1.00  0.00     0.000 A 
ATOM     19  C   UNL     1      -6.392  -3.992   3.691  1.00  0.00     0.000 A 
ATOM     20  C   UNL     1      -7.407  -3.094   3.376  1.00  0.00     0.000 A 
ENDBRANCH  14  15
ENDBRANCH  13  14
ENDBRANCH  10  13
ENDBRANCH   5   9
ENDBRANCH   4   5
ENDBRANCH   2   4
ENDBRANCH   1   2
BRANCH   1  21
ATOM     21  C   UNL     1       0.431  -3.159  -3.043  1.00  0.00     0.274 C 
BRANCH  21  22
ATOM     22  C   UNL     1      -0.058  -4.599  -2.876  1.00  0.00     0.275 C 
BRANCH  22  23
ATOM     23  O   UNL     1      -1.496  -4.667  -2.844  1.00  0.00    -0.458 OA
BRANCH  23  24
ATOM     24  C   UNL     1      -2.027  -4.657  -1.600  1.00  0.00     0.338 C 
ATOM     25  O   UNL     1      -1.413  -4.636  -0.546  1.00  0.00    -0.246 OA
BRANCH  24  26
ATOM     26  C   UNL     1      -3.488  -4.526  -1.683  1.00  0.00     0.060 A 
ATOM     27  C   UNL     1      -4.060  -3.275  -1.445  1.00  0.00     0.016 A 
ATOM     28  C   UNL     1      -4.295  -5.641  -1.907  1.00  0.00     0.016 A 
ATOM     29  C   UNL     1      -5.444  -3.127  -1.423  1.00  0.00     0.010 A 
ATOM     30  C   UNL     1      -5.686  -5.487  -1.910  1.00  0.00     0.010 A 
ATOM     31  C   UNL     1      -6.270  -4.232  -1.659  1.00  0.00    -0.014 A 
BRANCH  31  32
ATOM     32  C   UNL     1      -7.745  -4.073  -1.627  1.00  0.00     0.031 A 
ATOM     33  C   UNL     1      -8.547  -4.678  -0.511  1.00  0.00     0.074 A 
ATOM     34  C   UNL     1      -8.364  -3.385  -2.604  1.00  0.00     0.049 A 
ATOM     35  N   UNL     1      -9.846  -4.701  -0.344  1.00  0.00    -0.248 NA
ATOM     36  C   UNL     1      -7.792  -5.350   0.557  1.00  0.00     0.031 C 
ATOM     37  C   UNL     1      -7.696  -2.730  -3.731  1.00  0.00     0.029 A 
ATOM     38  N   UNL     1      -9.697  -3.136  -2.816  1.00  0.00    -0.354 N 
ATOM     39  C   UNL     1     -10.062  -5.379   0.849  1.00  0.00     0.074 A 
ATOM     40  C   UNL     1      -8.766  -5.793   1.341  1.00  0.00     0.031 C 
ATOM     41  C   UNL     1      -8.624  -2.169  -4.523  1.00  0.00     0.029 A 
ATOM     42  C   UNL     1      -9.949  -2.462  -3.986  1.00  0.00     0.049 A 
ATOM     43  H   UNL     1     -10.404  -3.415  -2.191  1.00  0.00     0.167 HD
ATOM     44  C   UNL     1     -11.232  -5.617   1.486  1.00  0.00     0.037 A 
ATOM     45  C   UNL     1     -11.117  -2.148  -4.578  1.00  0.00     0.037 A 
ATOM     46  C   UNL     1     -12.523  -5.225   0.990  1.00  0.00     0.049 A 
ATOM     47  C   UNL     1     -12.408  -2.528  -3.908  1.00  0.00     0.074 A 
ATOM     48  C   UNL     1     -13.765  -5.420   1.569  1.00  0.00     0.029 A 
ATOM     49  N   UNL     1     -12.738  -4.574  -0.215  1.00  0.00    -0.354 N 
ATOM     50  N   UNL     1     -12.597  -3.131  -2.759  1.00  0.00    -0.248 NA
ATOM     51  C   UNL     1     -13.648  -2.188  -4.619  1.00  0.00     0.031 C 
ATOM     52  C   UNL     1     -14.736  -4.928   0.690  1.00  0.00     0.029 A 
ATOM     53  C   UNL     1     -14.096  -4.389  -0.415  1.00  0.00     0.049 A 
ATOM     54  H   UNL     1     -12.031  -4.286  -0.836  1.00  0.00     0.167 HD
ATOM     55  C   UNL     1     -13.973  -3.220  -2.598  1.00  0.00     0.074 A 
ATOM     56  C   UNL     1     -14.572  -2.600  -3.762  1.00  0.00     0.031 C 
ATOM     57  C   UNL     1     -14.677  -3.765  -1.576  1.00  0.00     0.037 A 
BRANCH  44  58
ATOM     58  C   UNL     1     -11.165  -6.348   2.792  1.00  0.00     0.057 A 
ATOM     59  C   UNL     1     -10.785  -5.700   3.973  1.00  0.00     0.134 A 
ATOM     60  C   UNL     1     -11.506  -7.702   2.875  1.00  0.00     0.134 A 
ATOM     61  F   UNL     1     -10.466  -4.398   3.961  1.00  0.00    -0.206 F 
ATOM     62  C   UNL     1     -10.712  -6.382   5.189  1.00  0.00     0.040 A 
ATOM     63  C   UNL     1     -11.460  -8.390   4.089  1.00  0.00     0.040 A 
ATOM     64  F   UNL     1     -11.894  -8.375   1.782  1.00  0.00    -0.206 F 
ATOM     65  C   UNL     1     -11.054  -7.732   5.249  1.00  0.00     0.006 A 
ENDBRANCH  44  58
BRANCH  45  66
ATOM     66  C   UNL     1     -11.117  -1.465  -5.896  1.00  0.00     0.057 A 
ATOM     67  C   UNL     1     -11.547  -0.141  -6.029  1.00  0.00     0.134 A 
ATOM     68  C   UNL     1     -10.691  -2.126  -7.055  1.00  0.00     0.134 A 
ATOM     69  F   UNL     1     -11.989   0.537  -4.960  1.00  0.00    -0.206 F 
ATOM     70  C   UNL     1     -11.566   0.499  -7.270  1.00  0.00     0.040 A 
ATOM     71  C   UNL     1     -10.681  -1.491  -8.297  1.00  0.00     0.040 A 
ATOM     72  F   UNL     1     -10.267  -3.397  -6.994  1.00  0.00    -0.206 F 
ATOM     73  C   UNL     1     -11.126  -0.175  -8.408  1.00  0.00     0.006 A 
ENDBRANCH  45  66
BRANCH  57  74
ATOM     74  C   UNL     1     -16.173  -3.689  -1.655  1.00  0.00     0.057 A 
ATOM     75  C   UNL     1     -16.907  -4.492  -2.536  1.00  0.00     0.134 A 
ATOM     76  C   UNL     1     -16.888  -2.829  -0.812  1.00  0.00     0.134 A 
ATOM     77  F   UNL     1     -16.280  -5.326  -3.380  1.00  0.00    -0.206 F 
ATOM     78  C   UNL     1     -18.300  -4.431  -2.588  1.00  0.00     0.040 A 
ATOM     79  C   UNL     1     -18.282  -2.777  -0.837  1.00  0.00     0.040 A 
ATOM     80  F   UNL     1     -16.245  -2.039   0.061  1.00  0.00    -0.206 F 
ATOM     81  C   UNL     1     -18.992  -3.576  -1.731  1.00  0.00     0.006 A 
ENDBRANCH  57  74
ENDBRANCH  31  32
ENDBRANCH  24  26
ENDBRANCH  23  24
ENDBRANCH  22  23
ENDBRANCH  21  22
ENDBRANCH   1  21
TORSDOF 17
