REMARK SMILES CC1(C)CCCC[C@H]1NC(=O)Nc1ccccc1C(=O)OCCOC(=O)c1ccc(-c2c3nc(c(-c4c(F)cccc4F)c4ccc([nH]4)c(-c4c(F)cccc4F)c4nc(c(-c5c(F)cccc5F)c5ccc2[nH]5)C=C4)C=C3)cc1
REMARK SMILES IDX 22 1 21 2 19 3 20 4 18 5 13 6 14 7 15 8 17 9 16 10 12 11
REMARK SMILES IDX 9 12 10 13 11 15 8 17 1 18 2 19 3 20 4 21 5 22 7 23 6 24
REMARK SMILES IDX 23 25 24 26 25 27 26 28 27 29 28 30 80 31 29 32 79 33 30 34
REMARK SMILES IDX 31 35 32 36 73 37 33 38 78 39 72 40 74 41 34 42 77 43 71 44
REMARK SMILES IDX 70 45 35 47 61 48 44 49 60 50 45 51 48 52 59 53 75 54 46 55
REMARK SMILES IDX 47 56 58 58 76 59 49 60 36 61 37 62 42 63 38 64 39 65 41 66
REMARK SMILES IDX 43 67 40 68 62 69 63 70 68 71 64 72 65 73 67 74 69 75 66 76
REMARK SMILES IDX 50 77 51 78 56 79 52 80 53 81 55 82 57 83 54 84
REMARK H PARENT 9 14 12 16 74 46 48 57
REMARK Flexibility Score: inf
ROOT
ATOM      1  C   UNL     1      -4.457  -0.674   0.299  1.00  0.00     0.275 C 
ENDROOT
BRANCH   1   2
ATOM      2  O   UNL     1      -4.278  -0.393   1.706  1.00  0.00    -0.458 OA
BRANCH   2   3
ATOM      3  C   UNL     1      -3.415   0.617   1.935  1.00  0.00     0.340 C 
ATOM      4  O   UNL     1      -3.013   1.406   1.100  1.00  0.00    -0.246 OA
BRANCH   3   5
ATOM      5  C   UNL     1      -2.910   0.732   3.304  1.00  0.00     0.083 A 
ATOM      6  C   UNL     1      -2.089  -0.232   3.900  1.00  0.00     0.057 A 
ATOM      7  C   UNL     1      -1.608   0.017   5.198  1.00  0.00     0.027 A 
ATOM      8  C   UNL     1      -1.805   1.255   5.818  1.00  0.00     0.002 A 
ATOM      9  C   UNL     1      -3.132   1.965   3.949  1.00  0.00     0.018 A 
ATOM     10  C   UNL     1      -2.552   2.239   5.185  1.00  0.00     0.001 A 
BRANCH   6  11
ATOM     11  N   UNL     1      -1.685  -1.451   3.326  1.00  0.00    -0.307 N 
ATOM     12  N   UNL     1      -0.908  -1.068   1.113  1.00  0.00    -0.335 N 
ATOM     13  C   UNL     1      -1.461  -1.857   2.058  1.00  0.00     0.319 C 
ATOM     14  H   UNL     1      -0.952  -1.454   0.209  1.00  0.00     0.165 HD
ATOM     15  O   UNL     1      -1.650  -3.042   1.775  1.00  0.00    -0.248 OA
ATOM     16  H   UNL     1      -1.533  -2.160   3.991  1.00  0.00     0.171 HD
BRANCH  12  17
ATOM     17  C   UNL     1      -0.255   0.243   1.153  1.00  0.00     0.089 C 
ATOM     18  C   UNL     1       2.077  -0.501   0.338  1.00  0.00     0.013 C 
ATOM     19  C   UNL     1       1.277   0.212   1.448  1.00  0.00    -0.015 C 
ATOM     20  C   UNL     1       1.578  -0.512   2.774  1.00  0.00     0.013 C 
ATOM     21  C   UNL     1       1.748   1.690   1.585  1.00  0.00     0.008 C 
ATOM     22  C   UNL     1       1.356   2.597   0.411  1.00  0.00     0.001 C 
ATOM     23  C   UNL     1      -0.508   1.009  -0.163  1.00  0.00     0.025 C 
ATOM     24  C   UNL     1      -0.112   2.470   0.018  1.00  0.00     0.002 C 
ENDBRANCH  12  17
ENDBRANCH   6  11
ENDBRANCH   3   5
ENDBRANCH   2   3
ENDBRANCH   1   2
BRANCH   1  25
ATOM     25  C   UNL     1      -5.480   0.215  -0.431  1.00  0.00     0.275 C 
BRANCH  25  26
ATOM     26  O   UNL     1      -5.021   1.569  -0.641  1.00  0.00    -0.458 OA
BRANCH  26  27
ATOM     27  C   UNL     1      -5.579   2.509   0.158  1.00  0.00     0.338 C 
ATOM     28  O   UNL     1      -6.469   2.346   0.978  1.00  0.00    -0.246 OA
BRANCH  27  29
ATOM     29  C   UNL     1      -4.925   3.820  -0.024  1.00  0.00     0.060 A 
ATOM     30  C   UNL     1      -3.859   4.156   0.813  1.00  0.00     0.016 A 
ATOM     31  C   UNL     1      -5.477   4.791  -0.857  1.00  0.00     0.016 A 
ATOM     32  C   UNL     1      -3.345   5.440   0.850  1.00  0.00     0.010 A 
ATOM     33  C   UNL     1      -4.955   6.093  -0.834  1.00  0.00     0.010 A 
ATOM     34  C   UNL     1      -3.903   6.425   0.040  1.00  0.00    -0.014 A 
BRANCH  34  35
ATOM     35  C   UNL     1      -3.464   7.820   0.247  1.00  0.00     0.031 A 
ATOM     36  C   UNL     1      -4.378   8.765   0.968  1.00  0.00     0.074 A 
ATOM     37  C   UNL     1      -2.219   8.199  -0.093  1.00  0.00     0.049 A 
ATOM     38  N   UNL     1      -4.267  10.055   1.142  1.00  0.00    -0.248 NA
ATOM     39  C   UNL     1      -5.574   8.172   1.588  1.00  0.00     0.031 C 
ATOM     40  C   UNL     1      -1.191   7.321  -0.656  1.00  0.00     0.029 A 
ATOM     41  N   UNL     1      -1.603   9.419   0.000  1.00  0.00    -0.354 N 
ATOM     42  C   UNL     1      -5.400  10.435   1.849  1.00  0.00     0.074 A 
ATOM     43  C   UNL     1      -6.180   9.241   2.083  1.00  0.00     0.031 C 
ATOM     44  C   UNL     1      -0.072   8.034  -0.860  1.00  0.00     0.029 A 
ATOM     45  C   UNL     1      -0.332   9.429  -0.518  1.00  0.00     0.049 A 
ATOM     46  H   UNL     1      -2.030  10.211   0.399  1.00  0.00     0.167 HD
ATOM     47  C   UNL     1      -5.756  11.678   2.250  1.00  0.00     0.037 A 
ATOM     48  C   UNL     1       0.502  10.461  -0.743  1.00  0.00     0.037 A 
ATOM     49  C   UNL     1      -4.951  12.849   2.024  1.00  0.00     0.049 A 
ATOM     50  C   UNL     1       0.038  11.848  -0.393  1.00  0.00     0.074 A 
ATOM     51  C   UNL     1      -5.227  14.165   2.346  1.00  0.00     0.029 A 
ATOM     52  N   UNL     1      -3.701  12.835   1.421  1.00  0.00    -0.354 N 
ATOM     53  N   UNL     1      -1.076  12.226   0.188  1.00  0.00    -0.248 NA
ATOM     54  C   UNL     1       0.934  12.956  -0.752  1.00  0.00     0.031 C 
ATOM     55  C   UNL     1      -4.160  14.953   1.900  1.00  0.00     0.029 A 
ATOM     56  C   UNL     1      -3.200  14.122   1.342  1.00  0.00     0.049 A 
ATOM     57  H   UNL     1      -3.240  12.028   1.097  1.00  0.00     0.167 HD
ATOM     58  C   UNL     1      -1.012  13.609   0.275  1.00  0.00     0.074 A 
ATOM     59  C   UNL     1       0.261  14.003  -0.295  1.00  0.00     0.031 C 
ATOM     60  C   UNL     1      -1.925  14.480   0.774  1.00  0.00     0.037 A 
BRANCH  47  61
ATOM     61  C   UNL     1      -7.097  11.830   2.902  1.00  0.00     0.057 A 
ATOM     62  C   UNL     1      -7.354  11.387   4.205  1.00  0.00     0.134 A 
ATOM     63  C   UNL     1      -8.155  12.424   2.201  1.00  0.00     0.134 A 
ATOM     64  F   UNL     1      -6.392  10.788   4.922  1.00  0.00    -0.206 F 
ATOM     65  C   UNL     1      -8.623  11.507   4.779  1.00  0.00     0.040 A 
ATOM     66  C   UNL     1      -9.420  12.571   2.772  1.00  0.00     0.040 A 
ATOM     67  F   UNL     1      -7.977  12.868   0.947  1.00  0.00    -0.206 F 
ATOM     68  C   UNL     1      -9.658  12.105   4.062  1.00  0.00     0.006 A 
ENDBRANCH  47  61
BRANCH  48  69
ATOM     69  C   UNL     1       1.815  10.233  -1.399  1.00  0.00     0.057 A 
ATOM     70  C   UNL     1       3.018  10.455  -0.721  1.00  0.00     0.134 A 
ATOM     71  C   UNL     1       1.897   9.801  -2.730  1.00  0.00     0.134 A 
ATOM     72  F   UNL     1       3.008  10.894   0.546  1.00  0.00    -0.206 F 
ATOM     73  C   UNL     1       4.254  10.267  -1.344  1.00  0.00     0.040 A 
ATOM     74  C   UNL     1       3.124   9.581  -3.356  1.00  0.00     0.040 A 
ATOM     75  F   UNL     1       0.781   9.573  -3.438  1.00  0.00    -0.206 F 
ATOM     76  C   UNL     1       4.309   9.822  -2.664  1.00  0.00     0.006 A 
ENDBRANCH  48  69
BRANCH  60  77
ATOM     77  C   UNL     1      -1.560  15.933   0.750  1.00  0.00     0.057 A 
ATOM     78  C   UNL     1      -1.573  16.676  -0.437  1.00  0.00     0.134 A 
ATOM     79  C   UNL     1      -1.235  16.605   1.935  1.00  0.00     0.134 A 
ATOM     80  F   UNL     1      -1.862  16.085  -1.606  1.00  0.00    -0.206 F 
ATOM     81  C   UNL     1      -1.256  18.035  -0.447  1.00  0.00     0.040 A 
ATOM     82  C   UNL     1      -0.941  17.968   1.941  1.00  0.00     0.040 A 
ATOM     83  F   UNL     1      -1.213  15.949   3.105  1.00  0.00    -0.206 F 
ATOM     84  C   UNL     1      -0.947  18.686   0.747  1.00  0.00     0.006 A 
ENDBRANCH  60  77
ENDBRANCH  34  35
ENDBRANCH  27  29
ENDBRANCH  26  27
ENDBRANCH  25  26
ENDBRANCH   1  25
TORSDOF 13
