REMARK SMILES CC(C)c1ccc([C@]2(C(=O)OCCOC(=O)c3ccc(-c4c5nc(c(-c6c(F)cccc6F)c6ccc([nH]6)c(-c6c(F)cccc6F)c6nc(c(-c7c(F)cccc7F)c7ccc4[nH]7)C=C6)C=C5)cc3)CCC[C@@H]2C)cc1
REMARK SMILES IDX 12 1 11 2 9 3 10 4 8 5 71 6 74 7 72 8 73 9 75 10 7 11 4 12
REMARK SMILES IDX 5 13 77 14 6 15 76 16 2 17 1 18 3 19 13 20 14 21 15 22 16 23
REMARK SMILES IDX 17 24 18 25 70 26 19 27 69 28 20 29 21 30 22 31 63 32 23 33
REMARK SMILES IDX 68 34 62 35 64 36 24 37 67 38 61 39 60 40 25 42 51 43 34 44
REMARK SMILES IDX 50 45 35 46 38 47 49 48 65 49 36 50 37 51 48 53 66 54 39 55
REMARK SMILES IDX 26 56 27 57 32 58 28 59 29 60 31 61 33 62 30 63 52 64 53 65
REMARK SMILES IDX 58 66 54 67 55 68 57 69 59 70 56 71 40 72 41 73 46 74 42 75
REMARK SMILES IDX 43 76 45 77 47 78 44 79
REMARK H PARENT 64 41 38 52
REMARK Flexibility Score: inf
ROOT
ATOM      1  C   UNL     1      -7.218  -2.882   1.975  1.00  0.00     0.274 C 
ENDROOT
BRANCH   1   2
ATOM      2  O   UNL     1      -6.776  -2.417   0.684  1.00  0.00    -0.461 OA
BRANCH   2   3
ATOM      3  C   UNL     1      -5.824  -1.442   0.661  1.00  0.00     0.316 C 
ATOM      4  O   UNL     1      -5.320  -0.960   1.671  1.00  0.00    -0.251 OA
BRANCH   3   5
ATOM      5  C   UNL     1      -5.514  -0.943  -0.784  1.00  0.00     0.095 C 
ATOM      6  C   UNL     1      -6.228  -1.793  -1.869  1.00  0.00     0.024 C 
ATOM      7  C   UNL     1      -6.248   0.430  -0.955  1.00  0.00     0.008 C 
ATOM      8  C   UNL     1      -7.668  -1.279  -1.956  1.00  0.00     0.002 C 
ATOM      9  C   UNL     1      -7.715   0.018  -1.153  1.00  0.00     0.005 C 
ATOM     10  C   UNL     1      -5.793   1.280  -2.151  1.00  0.00     0.009 C 
BRANCH   5  11
ATOM     11  C   UNL     1      -3.987  -0.867  -0.967  1.00  0.00    -0.030 A 
ATOM     12  C   UNL     1      -1.148  -0.635  -1.333  1.00  0.00    -0.045 A 
ATOM     13  C   UNL     1      -1.857   0.266  -0.529  1.00  0.00     0.004 A 
ATOM     14  C   UNL     1      -1.886  -1.671  -1.927  1.00  0.00     0.004 A 
ATOM     15  C   UNL     1      -3.242   0.146  -0.342  1.00  0.00     0.005 A 
ATOM     16  C   UNL     1      -3.272  -1.797  -1.734  1.00  0.00     0.005 A 
BRANCH  12  17
ATOM     17  C   UNL     1       0.346  -0.478  -1.625  1.00  0.00     0.013 C 
ATOM     18  C   UNL     1       1.072   0.548  -0.739  1.00  0.00     0.012 C 
ATOM     19  C   UNL     1       1.121  -1.798  -1.533  1.00  0.00     0.012 C 
ENDBRANCH  12  17
ENDBRANCH   5  11
ENDBRANCH   3   5
ENDBRANCH   2   3
ENDBRANCH   1   2
BRANCH   1  20
ATOM     20  C   UNL     1      -6.761  -4.319   2.194  1.00  0.00     0.275 C 
BRANCH  20  21
ATOM     21  O   UNL     1      -5.328  -4.342   2.301  1.00  0.00    -0.458 OA
BRANCH  21  22
ATOM     22  C   UNL     1      -4.671  -4.983   1.313  1.00  0.00     0.338 C 
ATOM     23  O   UNL     1      -5.144  -5.625   0.386  1.00  0.00    -0.246 OA
BRANCH  22  24
ATOM     24  C   UNL     1      -3.228  -4.785   1.497  1.00  0.00     0.060 A 
ATOM     25  C   UNL     1      -2.699  -3.503   1.372  1.00  0.00     0.016 A 
ATOM     26  C   UNL     1      -2.387  -5.884   1.675  1.00  0.00     0.016 A 
ATOM     27  C   UNL     1      -1.318  -3.330   1.340  1.00  0.00     0.010 A 
ATOM     28  C   UNL     1      -1.001  -5.694   1.721  1.00  0.00     0.010 A 
ATOM     29  C   UNL     1      -0.448  -4.420   1.509  1.00  0.00    -0.014 A 
BRANCH  29  30
ATOM     30  C   UNL     1       1.022  -4.223   1.355  1.00  0.00     0.031 A 
ATOM     31  C   UNL     1       1.762  -4.901   0.227  1.00  0.00     0.074 A 
ATOM     32  C   UNL     1       1.680  -3.325   2.117  1.00  0.00     0.049 A 
ATOM     33  N   UNL     1       3.044  -4.900  -0.041  1.00  0.00    -0.248 NA
ATOM     34  C   UNL     1       0.953  -5.668  -0.735  1.00  0.00     0.031 C 
ATOM     35  C   UNL     1       1.079  -2.507   3.170  1.00  0.00     0.029 A 
ATOM     36  N   UNL     1       2.986  -2.902   2.074  1.00  0.00    -0.354 N 
ATOM     37  C   UNL     1       3.201  -5.707  -1.161  1.00  0.00     0.074 A 
ATOM     38  C   UNL     1       1.882  -6.172  -1.534  1.00  0.00     0.031 C 
ATOM     39  C   UNL     1       1.985  -1.617   3.604  1.00  0.00     0.029 A 
ATOM     40  C   UNL     1       3.255  -1.859   2.928  1.00  0.00     0.049 A 
ATOM     41  H   UNL     1       3.665  -3.307   1.487  1.00  0.00     0.167 HD
ATOM     42  C   UNL     1       4.338  -6.036  -1.818  1.00  0.00     0.037 A 
ATOM     43  C   UNL     1       4.398  -1.183   3.155  1.00  0.00     0.037 A 
ATOM     44  C   UNL     1       5.646  -5.530  -1.494  1.00  0.00     0.049 A 
ATOM     45  C   UNL     1       5.656  -1.597   2.447  1.00  0.00     0.074 A 
ATOM     46  C   UNL     1       6.865  -5.861  -2.061  1.00  0.00     0.029 A 
ATOM     47  N   UNL     1       5.898  -4.558  -0.541  1.00  0.00    -0.354 N 
ATOM     48  N   UNL     1       5.816  -2.481   1.494  1.00  0.00    -0.248 NA
ATOM     49  C   UNL     1       6.902  -0.947   2.882  1.00  0.00     0.031 C 
ATOM     50  C   UNL     1       7.859  -5.097  -1.438  1.00  0.00     0.029 A 
ATOM     51  C   UNL     1       7.253  -4.275  -0.503  1.00  0.00     0.049 A 
ATOM     52  H   UNL     1       5.215  -4.131   0.025  1.00  0.00     0.167 HD
ATOM     53  C   UNL     1       7.178  -2.509   1.229  1.00  0.00     0.074 A 
ATOM     54  C   UNL     1       7.796  -1.523   2.090  1.00  0.00     0.031 C 
ATOM     55  C   UNL     1       7.858  -3.301   0.366  1.00  0.00     0.037 A 
BRANCH  42  56
ATOM     56  C   UNL     1       4.227  -7.030  -2.932  1.00  0.00     0.057 A 
ATOM     57  C   UNL     1       3.771  -6.673  -4.205  1.00  0.00     0.134 A 
ATOM     58  C   UNL     1       4.622  -8.360  -2.731  1.00  0.00     0.134 A 
ATOM     59  F   UNL     1       3.362  -5.420  -4.454  1.00  0.00    -0.206 F 
ATOM     60  C   UNL     1       3.701  -7.608  -5.240  1.00  0.00     0.040 A 
ATOM     61  C   UNL     1       4.573  -9.298  -3.762  1.00  0.00     0.040 A 
ATOM     62  F   UNL     1       5.070  -8.763  -1.533  1.00  0.00    -0.206 F 
ATOM     63  C   UNL     1       4.110  -8.923  -5.021  1.00  0.00     0.006 A 
ENDBRANCH  42  56
BRANCH  43  64
ATOM     64  C   UNL     1       4.419  -0.060   4.126  1.00  0.00     0.057 A 
ATOM     65  C   UNL     1       4.612   1.257   3.695  1.00  0.00     0.134 A 
ATOM     66  C   UNL     1       4.261  -0.274   5.500  1.00  0.00     0.134 A 
ATOM     67  F   UNL     1       4.800   1.522   2.393  1.00  0.00    -0.206 F 
ATOM     68  C   UNL     1       4.648   2.322   4.596  1.00  0.00     0.040 A 
ATOM     69  C   UNL     1       4.270   0.783   6.410  1.00  0.00     0.040 A 
ATOM     70  F   UNL     1       4.082  -1.515   5.976  1.00  0.00    -0.206 F 
ATOM     71  C   UNL     1       4.468   2.087   5.958  1.00  0.00     0.006 A 
ENDBRANCH  43  64
BRANCH  55  72
ATOM     72  C   UNL     1       9.347  -3.149   0.328  1.00  0.00     0.057 A 
ATOM     73  C   UNL     1      10.156  -3.688   1.337  1.00  0.00     0.134 A 
ATOM     74  C   UNL     1       9.980  -2.495  -0.734  1.00  0.00     0.134 A 
ATOM     75  F   UNL     1       9.606  -4.316   2.386  1.00  0.00    -0.206 F 
ATOM     76  C   UNL     1      11.546  -3.567   1.297  1.00  0.00     0.040 A 
ATOM     77  C   UNL     1      11.370  -2.382  -0.793  1.00  0.00     0.040 A 
ATOM     78  F   UNL     1       9.261  -1.963  -1.733  1.00  0.00    -0.206 F 
ATOM     79  C   UNL     1      12.157  -2.916   0.227  1.00  0.00     0.006 A 
ENDBRANCH  55  72
ENDBRANCH  29  30
ENDBRANCH  22  24
ENDBRANCH  21  22
ENDBRANCH  20  21
ENDBRANCH   1  20
TORSDOF 13
