REMARK SMILES CCc1cc2c(-c3ccccc3)cc(=O)oc2cc1OCC(=O)OCCOC(=O)c1ccc(-c2c3nc(c(-c4c(F)cccc4F)c4ccc([nH]4)c(-c4c(F)cccc4F)c4nc(c(-c5c(F)cccc5F)c5ccc2[nH]5)C=C4)C=C3)cc1
REMARK SMILES IDX 25 1 24 2 22 3 23 4 21 5 20 6 19 7 3 8 4 9 5 10 18 11 6 12
REMARK SMILES IDX 17 13 13 14 16 15 14 16 15 17 2 18 1 19 7 20 8 21 12 22 9 23
REMARK SMILES IDX 11 24 10 25 26 26 27 27 28 28 29 29 30 30 31 31 83 32 32 33
REMARK SMILES IDX 82 34 33 35 34 36 35 37 76 38 36 39 81 40 75 41 77 42 37 43
REMARK SMILES IDX 80 44 74 45 73 46 38 48 64 49 47 50 63 51 48 52 51 53 62 54
REMARK SMILES IDX 78 55 49 56 50 57 61 59 79 60 52 61 39 62 40 63 45 64 41 65
REMARK SMILES IDX 42 66 44 67 46 68 43 69 65 70 66 71 71 72 67 73 68 74 70 75
REMARK SMILES IDX 72 76 69 77 53 78 54 79 59 80 55 81 56 82 58 83 60 84 57 85
REMARK H PARENT 77 47 51 58
REMARK Flexibility Score: inf
ROOT
ATOM      1  C   UNL     1       5.316  -2.567   4.046  1.00  0.00     0.274 C 
ENDROOT
BRANCH   1   2
ATOM      2  O   UNL     1       3.950  -2.540   3.583  1.00  0.00    -0.460 OA
BRANCH   2   3
ATOM      3  C   UNL     1       3.079  -3.330   4.265  1.00  0.00     0.344 C 
ATOM      4  O   UNL     1       3.383  -4.066   5.200  1.00  0.00    -0.248 OA
BRANCH   3   5
ATOM      5  C   UNL     1       1.645  -3.238   3.744  1.00  0.00     0.351 C 
BRANCH   5   6
ATOM      6  O   UNL     1       1.326  -2.321   2.715  1.00  0.00    -0.481 OA
BRANCH   6   7
ATOM      7  C   UNL     1       1.142  -0.997   3.005  1.00  0.00     0.127 A 
ATOM      8  C   UNL     1       0.894  -0.154   1.903  1.00  0.00    -0.005 A 
ATOM      9  C   UNL     1       0.741   1.232   2.119  1.00  0.00     0.020 A 
ATOM     10  C   UNL     1       0.840   1.792   3.398  1.00  0.00     0.026 A 
ATOM     11  C   UNL     1       1.190  -0.449   4.285  1.00  0.00     0.094 A 
ATOM     12  C   UNL     1       0.739   3.239   3.650  1.00  0.00    -0.000 A 
ATOM     13  C   UNL     1       1.053   0.929   4.463  1.00  0.00     0.142 A 
ATOM     14  C   UNL     1       0.899   3.670   4.911  1.00  0.00     0.103 A 
ATOM     15  O   UNL     1       1.151   1.412   5.781  1.00  0.00    -0.423 OA
ATOM     16  C   UNL     1       1.133   2.770   6.046  1.00  0.00     0.336 A 
ATOM     17  O   UNL     1       1.255   3.218   7.181  1.00  0.00    -0.246 OA
BRANCH   8  18
ATOM     18  C   UNL     1       0.702  -0.742   0.517  1.00  0.00     0.036 C 
ATOM     19  C   UNL     1       1.248   0.093  -0.634  1.00  0.00     0.009 C 
ENDBRANCH   8  18
BRANCH  12  20
ATOM     20  C   UNL     1       0.458   4.273   2.636  1.00  0.00    -0.017 A 
ATOM     21  C   UNL     1      -0.818   4.357   2.064  1.00  0.00     0.009 A 
ATOM     22  C   UNL     1       1.456   5.167   2.228  1.00  0.00     0.009 A 
ATOM     23  C   UNL     1      -1.088   5.316   1.087  1.00  0.00     0.001 A 
ATOM     24  C   UNL     1       1.181   6.128   1.254  1.00  0.00     0.001 A 
ATOM     25  C   UNL     1      -0.089   6.199   0.682  1.00  0.00     0.000 A 
ENDBRANCH  12  20
ENDBRANCH   6   7
ENDBRANCH   5   6
ENDBRANCH   3   5
ENDBRANCH   2   3
ENDBRANCH   1   2
BRANCH   1  26
ATOM     26  C   UNL     1       5.597  -1.385   4.971  1.00  0.00     0.275 C 
BRANCH  26  27
ATOM     27  O   UNL     1       4.682  -1.419   6.079  1.00  0.00    -0.458 OA
BRANCH  27  28
ATOM     28  C   UNL     1       4.276  -0.213   6.533  1.00  0.00     0.338 C 
ATOM     29  O   UNL     1       4.680   0.879   6.155  1.00  0.00    -0.246 OA
BRANCH  28  30
ATOM     30  C   UNL     1       3.217  -0.376   7.558  1.00  0.00     0.060 A 
ATOM     31  C   UNL     1       2.352  -1.476   7.556  1.00  0.00     0.016 A 
ATOM     32  C   UNL     1       3.009   0.662   8.469  1.00  0.00     0.016 A 
ATOM     33  C   UNL     1       1.235  -1.492   8.394  1.00  0.00     0.010 A 
ATOM     34  C   UNL     1       1.939   0.604   9.365  1.00  0.00     0.010 A 
ATOM     35  C   UNL     1       1.025  -0.460   9.321  1.00  0.00    -0.014 A 
BRANCH  35  36
ATOM     36  C   UNL     1      -0.119  -0.492  10.270  1.00  0.00     0.031 A 
ATOM     37  C   UNL     1      -1.156   0.600  10.265  1.00  0.00     0.074 A 
ATOM     38  C   UNL     1      -0.202  -1.483  11.177  1.00  0.00     0.049 A 
ATOM     39  N   UNL     1      -2.095   0.855  11.142  1.00  0.00    -0.248 NA
ATOM     40  C   UNL     1      -1.134   1.527   9.125  1.00  0.00     0.031 C 
ATOM     41  C   UNL     1       0.712  -2.622  11.277  1.00  0.00     0.029 A 
ATOM     42  N   UNL     1      -1.091  -1.679  12.204  1.00  0.00    -0.354 N 
ATOM     43  C   UNL     1      -2.752   1.989  10.677  1.00  0.00     0.074 A 
ATOM     44  C   UNL     1      -2.102   2.376   9.443  1.00  0.00     0.031 C 
ATOM     45  C   UNL     1       0.334  -3.401  12.301  1.00  0.00     0.029 A 
ATOM     46  C   UNL     1      -0.798  -2.777  12.976  1.00  0.00     0.049 A 
ATOM     47  H   UNL     1      -1.863  -1.092  12.372  1.00  0.00     0.167 HD
ATOM     48  C   UNL     1      -3.798   2.647  11.232  1.00  0.00     0.037 A 
ATOM     49  C   UNL     1      -1.341  -3.208  14.128  1.00  0.00     0.037 A 
ATOM     50  C   UNL     1      -4.452   2.256  12.454  1.00  0.00     0.049 A 
ATOM     51  C   UNL     1      -2.451  -2.424  14.761  1.00  0.00     0.074 A 
ATOM     52  C   UNL     1      -5.517   2.863  13.098  1.00  0.00     0.029 A 
ATOM     53  N   UNL     1      -4.103   1.151  13.215  1.00  0.00    -0.354 N 
ATOM     54  N   UNL     1      -3.032  -1.328  14.338  1.00  0.00    -0.248 NA
ATOM     55  C   UNL     1      -2.966  -2.926  16.042  1.00  0.00     0.031 C 
ATOM     56  C   UNL     1      -5.798   2.138  14.262  1.00  0.00     0.029 A 
ATOM     57  C   UNL     1      -4.927   1.063  14.325  1.00  0.00     0.049 A 
ATOM     58  H   UNL     1      -3.377   0.522  12.998  1.00  0.00     0.167 HD
ATOM     59  C   UNL     1      -3.989  -1.016  15.293  1.00  0.00     0.074 A 
ATOM     60  C   UNL     1      -3.920  -2.045  16.310  1.00  0.00     0.031 C 
ATOM     61  C   UNL     1      -4.846   0.033  15.326  1.00  0.00     0.037 A 
BRANCH  48  62
ATOM     62  C   UNL     1      -4.301   3.874  10.531  1.00  0.00     0.057 A 
ATOM     63  C   UNL     1      -5.094   3.791   9.380  1.00  0.00     0.134 A 
ATOM     64  C   UNL     1      -4.045   5.149  11.052  1.00  0.00     0.134 A 
ATOM     65  F   UNL     1      -5.368   2.600   8.828  1.00  0.00    -0.206 F 
ATOM     66  C   UNL     1      -5.610   4.935   8.768  1.00  0.00     0.040 A 
ATOM     67  C   UNL     1      -4.570   6.298  10.457  1.00  0.00     0.040 A 
ATOM     68  F   UNL     1      -3.300   5.297  12.157  1.00  0.00    -0.206 F 
ATOM     69  C   UNL     1      -5.354   6.193   9.311  1.00  0.00     0.006 A 
ENDBRANCH  48  62
BRANCH  49  70
ATOM     70  C   UNL     1      -0.804  -4.426  14.780  1.00  0.00     0.057 A 
ATOM     71  C   UNL     1      -1.535  -5.618  14.789  1.00  0.00     0.134 A 
ATOM     72  C   UNL     1       0.455  -4.431  15.392  1.00  0.00     0.134 A 
ATOM     73  F   UNL     1      -2.756  -5.665  14.237  1.00  0.00    -0.206 F 
ATOM     74  C   UNL     1      -1.035  -6.773  15.390  1.00  0.00     0.040 A 
ATOM     75  C   UNL     1       0.977  -5.584  15.976  1.00  0.00     0.040 A 
ATOM     76  F   UNL     1       1.203  -3.318  15.411  1.00  0.00    -0.206 F 
ATOM     77  C   UNL     1       0.229  -6.760  15.979  1.00  0.00     0.006 A 
ENDBRANCH  49  70
BRANCH  61  78
ATOM     78  C   UNL     1      -5.793   0.094  16.483  1.00  0.00     0.057 A 
ATOM     79  C   UNL     1      -5.375   0.508  17.753  1.00  0.00     0.134 A 
ATOM     80  C   UNL     1      -7.138  -0.258  16.323  1.00  0.00     0.134 A 
ATOM     81  F   UNL     1      -4.093   0.841  17.972  1.00  0.00    -0.206 F 
ATOM     82  C   UNL     1      -6.260   0.551  18.831  1.00  0.00     0.040 A 
ATOM     83  C   UNL     1      -8.037  -0.202  17.389  1.00  0.00     0.040 A 
ATOM     84  F   UNL     1      -7.600  -0.660  15.129  1.00  0.00    -0.206 F 
ATOM     85  C   UNL     1      -7.596   0.198  18.649  1.00  0.00     0.006 A 
ENDBRANCH  61  78
ENDBRANCH  35  36
ENDBRANCH  28  30
ENDBRANCH  27  28
ENDBRANCH  26  27
ENDBRANCH   1  26
TORSDOF 15
