REMARK SMILES CCC(C)(C)c1ccc(O[C@H](F)C(=O)OCCOC(=O)c2ccc(-c3c4nc(c(-c5c(F)cccc5F)c5ccc([nH]5)c(-c5c(F)cccc5F)c5nc(c(-c6c(F)cccc6F)c6ccc3[nH]6)C=C5)C=C4)cc2)cc1
REMARK SMILES IDX 16 1 15 2 13 3 14 4 11 5 12 6 10 7 9 8 6 9 7 10 76 11 8 12
REMARK SMILES IDX 75 13 3 14 4 15 5 16 2 17 1 18 17 19 18 20 19 21 20 22 21 23
REMARK SMILES IDX 22 24 74 25 23 26 73 27 24 28 25 29 26 30 67 31 27 32 72 33
REMARK SMILES IDX 66 34 68 35 28 36 71 37 65 38 64 39 29 41 55 42 38 43 54 44
REMARK SMILES IDX 39 45 42 46 53 47 69 48 40 49 41 50 52 52 70 53 43 54 30 55
REMARK SMILES IDX 31 56 36 57 32 58 33 59 35 60 37 61 34 62 56 63 57 64 62 65
REMARK SMILES IDX 58 66 59 67 61 68 63 69 60 70 44 71 45 72 50 73 46 74 47 75
REMARK SMILES IDX 49 76 51 77 48 78
REMARK H PARENT 68 40 42 51
REMARK Flexibility Score: inf
ROOT
ATOM      1  C   UNL     1       5.620   2.313   0.814  1.00  0.00     0.274 C 
ENDROOT
BRANCH   1   2
ATOM      2  O   UNL     1       5.512   1.551  -0.399  1.00  0.00    -0.457 OA
BRANCH   2   3
ATOM      3  C   UNL     1       6.574   1.585  -1.259  1.00  0.00     0.381 C 
ATOM      4  O   UNL     1       7.551   2.314  -1.127  1.00  0.00    -0.244 OA
BRANCH   3   5
ATOM      5  C   UNL     1       6.423   0.504  -2.331  1.00  0.00     0.461 C 
ATOM      6  F   UNL     1       5.131   0.073  -2.442  1.00  0.00    -0.189 F 
BRANCH   5   7
ATOM      7  O   UNL     1       6.857   0.997  -3.597  1.00  0.00    -0.451 OA
BRANCH   7   8
ATOM      8  C   UNL     1       6.577   0.194  -4.667  1.00  0.00     0.123 A 
ATOM      9  C   UNL     1       5.781  -1.233  -6.980  1.00  0.00    -0.042 A 
ATOM     10  C   UNL     1       5.985  -1.886  -5.754  1.00  0.00     0.008 A 
ATOM     11  C   UNL     1       6.098   0.136  -7.038  1.00  0.00     0.008 A 
ATOM     12  C   UNL     1       6.380  -1.183  -4.611  1.00  0.00     0.047 A 
ATOM     13  C   UNL     1       6.483   0.842  -5.894  1.00  0.00     0.047 A 
BRANCH   9  14
ATOM     14  C   UNL     1       5.225  -1.972  -8.211  1.00  0.00    -0.011 C 
ATOM     15  C   UNL     1       4.530  -3.309  -7.853  1.00  0.00     0.016 C 
ATOM     16  C   UNL     1       6.414  -2.302  -9.139  1.00  0.00     0.016 C 
BRANCH  14  17
ATOM     17  C   UNL     1       4.202  -1.104  -9.014  1.00  0.00     0.008 C 
ATOM     18  C   UNL     1       2.979  -0.643  -8.223  1.00  0.00     0.005 C 
ENDBRANCH  14  17
ENDBRANCH   9  14
ENDBRANCH   7   8
ENDBRANCH   5   7
ENDBRANCH   3   5
ENDBRANCH   2   3
ENDBRANCH   1   2
BRANCH   1  19
ATOM     19  C   UNL     1       6.002   1.395   1.980  1.00  0.00     0.275 C 
BRANCH  19  20
ATOM     20  O   UNL     1       7.406   1.067   1.968  1.00  0.00    -0.458 OA
BRANCH  20  21
ATOM     21  C   UNL     1       7.754   0.004   1.207  1.00  0.00     0.338 C 
ATOM     22  O   UNL     1       7.014  -0.709   0.549  1.00  0.00    -0.246 OA
BRANCH  21  23
ATOM     23  C   UNL     1       9.220  -0.117   1.150  1.00  0.00     0.060 A 
ATOM     24  C   UNL     1       9.819  -0.255  -0.107  1.00  0.00     0.016 A 
ATOM     25  C   UNL     1       9.992  -0.162   2.313  1.00  0.00     0.016 A 
ATOM     26  C   UNL     1      11.192  -0.455  -0.205  1.00  0.00     0.010 A 
ATOM     27  C   UNL     1      11.372  -0.352   2.212  1.00  0.00     0.010 A 
ATOM     28  C   UNL     1      11.978  -0.512   0.954  1.00  0.00    -0.014 A 
BRANCH  28  29
ATOM     29  C   UNL     1      13.433  -0.766   0.842  1.00  0.00     0.031 A 
ATOM     30  C   UNL     1      13.994  -2.102   1.230  1.00  0.00     0.074 A 
ATOM     31  C   UNL     1      14.243   0.203   0.381  1.00  0.00     0.049 A 
ATOM     32  N   UNL     1      15.241  -2.497   1.266  1.00  0.00    -0.248 NA
ATOM     33  C   UNL     1      13.023  -3.130   1.635  1.00  0.00     0.031 C 
ATOM     34  C   UNL     1      13.808   1.531  -0.050  1.00  0.00     0.029 A 
ATOM     35  N   UNL     1      15.603   0.220   0.206  1.00  0.00    -0.354 N 
ATOM     36  C   UNL     1      15.208  -3.812   1.710  1.00  0.00     0.074 A 
ATOM     37  C   UNL     1      13.819  -4.141   1.952  1.00  0.00     0.031 C 
ATOM     38  C   UNL     1      14.882   2.238  -0.436  1.00  0.00     0.029 A 
ATOM     39  C   UNL     1      16.081   1.427  -0.241  1.00  0.00     0.049 A 
ATOM     40  H   UNL     1      16.181  -0.557   0.383  1.00  0.00     0.167 HD
ATOM     41  C   UNL     1      16.243  -4.667   1.893  1.00  0.00     0.037 A 
ATOM     42  C   UNL     1      17.345   1.842  -0.442  1.00  0.00     0.037 A 
ATOM     43  C   UNL     1      17.622  -4.335   1.643  1.00  0.00     0.049 A 
ATOM     44  C   UNL     1      18.480   0.891  -0.190  1.00  0.00     0.074 A 
ATOM     45  C   UNL     1      18.742  -5.137   1.782  1.00  0.00     0.029 A 
ATOM     46  N   UNL     1      18.069  -3.097   1.206  1.00  0.00    -0.354 N 
ATOM     47  N   UNL     1      18.438  -0.353   0.222  1.00  0.00    -0.248 NA
ATOM     48  C   UNL     1      19.837   1.400  -0.430  1.00  0.00     0.031 C 
ATOM     49  C   UNL     1      19.870  -4.371   1.467  1.00  0.00     0.029 A 
ATOM     50  C   UNL     1      19.450  -3.105   1.091  1.00  0.00     0.049 A 
ATOM     51  H   UNL     1      17.491  -2.326   1.007  1.00  0.00     0.167 HD
ATOM     52  C   UNL     1      19.758  -0.780   0.279  1.00  0.00     0.074 A 
ATOM     53  C   UNL     1      20.576   0.333  -0.158  1.00  0.00     0.031 C 
ATOM     54  C   UNL     1      20.248  -1.985   0.660  1.00  0.00     0.037 A 
BRANCH  41  55
ATOM     55  C   UNL     1      15.918  -6.035   2.415  1.00  0.00     0.057 A 
ATOM     56  C   UNL     1      15.287  -7.001   1.621  1.00  0.00     0.134 A 
ATOM     57  C   UNL     1      16.249  -6.393   3.728  1.00  0.00     0.134 A 
ATOM     58  F   UNL     1      14.929  -6.717   0.360  1.00  0.00    -0.206 F 
ATOM     59  C   UNL     1      14.973  -8.266   2.123  1.00  0.00     0.040 A 
ATOM     60  C   UNL     1      15.962  -7.662   4.234  1.00  0.00     0.040 A 
ATOM     61  F   UNL     1      16.858  -5.516   4.540  1.00  0.00    -0.206 F 
ATOM     62  C   UNL     1      15.315  -8.600   3.432  1.00  0.00     0.006 A 
ENDBRANCH  41  55
BRANCH  42  63
ATOM     63  C   UNL     1      17.596   3.235  -0.883  1.00  0.00     0.057 A 
ATOM     64  C   UNL     1      18.042   3.520  -2.178  1.00  0.00     0.134 A 
ATOM     65  C   UNL     1      17.376   4.318  -0.022  1.00  0.00     0.134 A 
ATOM     66  F   UNL     1      18.291   2.523  -3.040  1.00  0.00    -0.206 F 
ATOM     67  C   UNL     1      18.267   4.831  -2.600  1.00  0.00     0.040 A 
ATOM     68  C   UNL     1      17.573   5.635  -0.438  1.00  0.00     0.040 A 
ATOM     69  F   UNL     1      16.944   4.109   1.231  1.00  0.00    -0.206 F 
ATOM     70  C   UNL     1      18.025   5.894  -1.730  1.00  0.00     0.006 A 
ENDBRANCH  42  63
BRANCH  54  71
ATOM     71  C   UNL     1      21.736  -2.164   0.604  1.00  0.00     0.057 A 
ATOM     72  C   UNL     1      22.585  -1.573   1.549  1.00  0.00     0.134 A 
ATOM     73  C   UNL     1      22.323  -2.962  -0.385  1.00  0.00     0.134 A 
ATOM     74  F   UNL     1      22.085  -0.785   2.513  1.00  0.00    -0.206 F 
ATOM     75  C   UNL     1      23.968  -1.754   1.499  1.00  0.00     0.040 A 
ATOM     76  C   UNL     1      23.702  -3.169  -0.432  1.00  0.00     0.040 A 
ATOM     77  F   UNL     1      21.565  -3.562  -1.316  1.00  0.00    -0.206 F 
ATOM     78  C   UNL     1      24.529  -2.560   0.510  1.00  0.00     0.006 A 
ENDBRANCH  54  71
ENDBRANCH  28  29
ENDBRANCH  21  23
ENDBRANCH  20  21
ENDBRANCH  19  20
ENDBRANCH   1  19
TORSDOF 15
