REMARK SMILES Cc1ccc(C(=O)OCCOC(=O)c2ccc(-c3c4nc(c(-c5c(F)cccc5F)c5ccc([nH]5)c(-c5c(F)cccc5F)c5nc(c(-c6c(F)cccc6F)c6ccc3[nH]6)C=C5)C=C4)cc2)cc1NC(=O)c1ccc(Br)o1
REMARK SMILES IDX 9 1 8 2 6 3 7 4 5 5 1 6 2 7 3 8 69 9 4 10 68 11 70 12 71 13
REMARK SMILES IDX 72 15 73 16 74 17 78 18 75 19 76 20 77 21 10 22 11 23 12 24
REMARK SMILES IDX 13 25 14 26 15 27 67 28 16 29 66 30 17 31 18 32 19 33 60 34
REMARK SMILES IDX 20 35 65 36 59 37 61 38 21 39 64 40 58 41 57 42 22 44 48 45
REMARK SMILES IDX 31 46 47 47 32 48 35 49 46 50 62 51 33 52 34 53 45 55 63 56
REMARK SMILES IDX 36 57 23 58 24 59 29 60 25 61 26 62 28 63 30 64 27 65 49 66
REMARK SMILES IDX 50 67 55 68 51 69 52 70 54 71 56 72 53 73 37 74 38 75 43 76
REMARK SMILES IDX 39 77 40 78 42 79 44 80 41 81
REMARK H PARENT 70 14 61 43 35 54
REMARK Flexibility Score: inf
ROOT
ATOM      1  C   UNL     1      -4.589   1.565  -2.297  1.00  0.00     0.275 C 
ENDROOT
BRANCH   1   2
ATOM      2  O   UNL     1      -3.288   0.976  -2.441  1.00  0.00    -0.458 OA
BRANCH   2   3
ATOM      3  C   UNL     1      -2.559   1.068  -1.308  1.00  0.00     0.338 C 
ATOM      4  O   UNL     1      -2.933   1.522  -0.235  1.00  0.00    -0.246 OA
BRANCH   3   5
ATOM      5  C   UNL     1      -1.136   0.775  -1.474  1.00  0.00     0.062 A 
ATOM      6  C   UNL     1       2.884   0.527   0.004  1.00  0.00     0.046 C 
ATOM      7  C   UNL     1       1.499   0.690  -0.562  1.00  0.00    -0.027 A 
ATOM      8  C   UNL     1       0.757  -0.500  -0.759  1.00  0.00     0.006 A 
ATOM      9  C   UNL     1       0.890   1.929  -0.839  1.00  0.00     0.045 A 
ATOM     10  C   UNL     1      -0.579  -0.457  -1.161  1.00  0.00     0.016 A 
ATOM     11  C   UNL     1      -0.367   1.930  -1.428  1.00  0.00     0.042 A 
BRANCH   9  12
ATOM     12  N   UNL     1       1.497   3.155  -0.496  1.00  0.00    -0.319 N 
ATOM     13  C   UNL     1       0.943   4.422  -0.324  1.00  0.00     0.291 C 
ATOM     14  H   UNL     1       2.470   3.108  -0.355  1.00  0.00     0.170 HD
ATOM     15  O   UNL     1       1.720   5.376  -0.262  1.00  0.00    -0.265 OA
BRANCH  13  16
ATOM     16  C   UNL     1      -0.488   4.581  -0.136  1.00  0.00     0.193 A 
ATOM     17  C   UNL     1      -1.356   4.083   0.819  1.00  0.00     0.057 A 
ATOM     18  O   UNL     1      -1.202   5.302  -1.060  1.00  0.00    -0.444 OA
ATOM     19  C   UNL     1      -2.660   4.500   0.446  1.00  0.00     0.059 A 
ATOM     20  C   UNL     1      -2.516   5.217  -0.716  1.00  0.00     0.170 A 
ATOM     21  Br  UNL     1      -3.932   5.917  -1.709  1.00  0.00    -0.008 Br
ENDBRANCH  13  16
ENDBRANCH   9  12
ENDBRANCH   3   5
ENDBRANCH   2   3
ENDBRANCH   1   2
BRANCH   1  22
ATOM     22  C   UNL     1      -5.706   0.739  -2.940  1.00  0.00     0.275 C 
BRANCH  22  23
ATOM     23  O   UNL     1      -5.603  -0.714  -2.963  1.00  0.00    -0.458 OA
BRANCH  23  24
ATOM     24  C   UNL     1      -4.962  -1.533  -2.101  1.00  0.00     0.338 C 
ATOM     25  O   UNL     1      -4.468  -2.602  -2.458  1.00  0.00    -0.246 OA
BRANCH  24  26
ATOM     26  C   UNL     1      -4.869  -1.123  -0.697  1.00  0.00     0.060 A 
ATOM     27  C   UNL     1      -3.752  -1.533   0.056  1.00  0.00     0.016 A 
ATOM     28  C   UNL     1      -5.842  -0.290  -0.155  1.00  0.00     0.016 A 
ATOM     29  C   UNL     1      -3.565  -1.052   1.340  1.00  0.00     0.010 A 
ATOM     30  C   UNL     1      -5.594   0.305   1.050  1.00  0.00     0.010 A 
ATOM     31  C   UNL     1      -4.504  -0.145   1.816  1.00  0.00    -0.014 A 
BRANCH  31  32
ATOM     32  C   UNL     1      -4.707   0.085   3.231  1.00  0.00     0.031 A 
ATOM     33  C   UNL     1      -4.043   1.205   3.898  1.00  0.00     0.074 A 
ATOM     34  C   UNL     1      -5.748  -0.674   3.640  1.00  0.00     0.049 A 
ATOM     35  N   UNL     1      -3.852   1.325   5.161  1.00  0.00    -0.248 NA
ATOM     36  C   UNL     1      -3.450   2.307   3.147  1.00  0.00     0.031 C 
ATOM     37  C   UNL     1      -6.667  -0.586   4.751  1.00  0.00     0.029 A 
ATOM     38  N   UNL     1      -6.105  -1.887   3.018  1.00  0.00    -0.354 N 
ATOM     39  C   UNL     1      -3.577   2.665   5.384  1.00  0.00     0.074 A 
ATOM     40  C   UNL     1      -3.122   3.169   4.116  1.00  0.00     0.031 C 
ATOM     41  C   UNL     1      -7.213  -1.808   4.942  1.00  0.00     0.029 A 
ATOM     42  C   UNL     1      -6.549  -2.736   4.026  1.00  0.00     0.049 A 
ATOM     43  H   UNL     1      -6.051  -2.094   2.057  1.00  0.00     0.167 HD
ATOM     44  C   UNL     1      -4.046   3.237   6.534  1.00  0.00     0.037 A 
ATOM     45  C   UNL     1      -5.694  -3.743   4.378  1.00  0.00     0.037 A 
ATOM     46  C   UNL     1      -4.754   2.212   7.303  1.00  0.00     0.049 A 
ATOM     47  C   UNL     1      -5.130  -3.453   5.750  1.00  0.00     0.074 A 
ATOM     48  C   UNL     1      -6.101   1.886   7.350  1.00  0.00     0.029 A 
ATOM     49  N   UNL     1      -4.062   1.098   7.766  1.00  0.00    -0.354 N 
ATOM     50  N   UNL     1      -4.834  -2.259   6.196  1.00  0.00    -0.248 NA
ATOM     51  C   UNL     1      -5.006  -4.492   6.763  1.00  0.00     0.031 C 
ATOM     52  C   UNL     1      -6.204   0.529   7.753  1.00  0.00     0.029 A 
ATOM     53  C   UNL     1      -4.924   0.026   7.920  1.00  0.00     0.049 A 
ATOM     54  H   UNL     1      -3.096   1.076   7.958  1.00  0.00     0.167 HD
ATOM     55  C   UNL     1      -4.601  -2.339   7.545  1.00  0.00     0.074 A 
ATOM     56  C   UNL     1      -4.684  -3.760   7.842  1.00  0.00     0.031 C 
ATOM     57  C   UNL     1      -4.420  -1.260   8.364  1.00  0.00     0.037 A 
BRANCH  44  58
ATOM     58  C   UNL     1      -4.226   4.724   6.786  1.00  0.00     0.057 A 
ATOM     59  C   UNL     1      -5.189   5.176   7.718  1.00  0.00     0.134 A 
ATOM     60  C   UNL     1      -3.523   5.762   6.149  1.00  0.00     0.134 A 
ATOM     61  F   UNL     1      -5.883   4.324   8.485  1.00  0.00    -0.206 F 
ATOM     62  C   UNL     1      -5.491   6.528   7.926  1.00  0.00     0.040 A 
ATOM     63  C   UNL     1      -3.831   7.123   6.331  1.00  0.00     0.040 A 
ATOM     64  F   UNL     1      -2.472   5.520   5.358  1.00  0.00    -0.206 F 
ATOM     65  C   UNL     1      -4.827   7.511   7.214  1.00  0.00     0.006 A 
ENDBRANCH  44  58
BRANCH  45  66
ATOM     66  C   UNL     1      -4.947  -4.349   3.216  1.00  0.00     0.057 A 
ATOM     67  C   UNL     1      -5.681  -4.784   2.087  1.00  0.00     0.134 A 
ATOM     68  C   UNL     1      -3.560  -4.287   3.051  1.00  0.00     0.134 A 
ATOM     69  F   UNL     1      -7.020  -4.885   2.151  1.00  0.00    -0.206 F 
ATOM     70  C   UNL     1      -5.087  -5.037   0.844  1.00  0.00     0.040 A 
ATOM     71  C   UNL     1      -2.948  -4.566   1.813  1.00  0.00     0.040 A 
ATOM     72  F   UNL     1      -2.767  -3.885   4.053  1.00  0.00    -0.206 F 
ATOM     73  C   UNL     1      -3.713  -4.913   0.699  1.00  0.00     0.006 A 
ENDBRANCH  45  66
BRANCH  57  74
ATOM     74  C   UNL     1      -3.816  -1.335   9.739  1.00  0.00     0.057 A 
ATOM     75  C   UNL     1      -2.879  -2.307  10.111  1.00  0.00     0.134 A 
ATOM     76  C   UNL     1      -4.013  -0.292  10.673  1.00  0.00     0.134 A 
ATOM     77  F   UNL     1      -2.505  -3.283   9.271  1.00  0.00    -0.206 F 
ATOM     78  C   UNL     1      -2.234  -2.284  11.350  1.00  0.00     0.040 A 
ATOM     79  C   UNL     1      -3.317  -0.219  11.878  1.00  0.00     0.040 A 
ATOM     80  F   UNL     1      -4.859   0.723  10.440  1.00  0.00    -0.206 F 
ATOM     81  C   UNL     1      -2.439  -1.230  12.230  1.00  0.00     0.006 A 
ENDBRANCH  57  74
ENDBRANCH  31  32
ENDBRANCH  24  26
ENDBRANCH  23  24
ENDBRANCH  22  23
ENDBRANCH   1  22
TORSDOF 13
