REMARK SMILES O=C(OCCOC(=O)c1cc(-c2cccc(Cl)c2)ccc1Cl)c1ccc(-c2c3nc(c(-c4c(F)cccc4F)c4ccc([nH]4)c(-c4c(F)cccc4F)c4nc(c(-c5c(F)cccc5F)c5ccc2[nH]5)C=C4)C=C3)cc1
REMARK SMILES IDX 4 1 3 2 2 3 1 4 23 5 24 6 76 7 25 8 75 9 26 10 27 11 28 12
REMARK SMILES IDX 69 13 29 14 74 15 68 16 70 17 30 18 73 19 67 20 66 21 31 23
REMARK SMILES IDX 57 24 40 25 56 26 41 27 44 28 55 29 71 30 42 31 43 32 54 34
REMARK SMILES IDX 72 35 45 36 32 37 33 38 38 39 34 40 35 41 37 42 39 43 36 44
REMARK SMILES IDX 58 45 59 46 64 47 60 48 61 49 63 50 65 51 62 52 46 53 47 54
REMARK SMILES IDX 52 55 48 56 49 57 51 58 53 59 50 60 5 61 6 62 7 63 8 64 9 65
REMARK SMILES IDX 10 66 21 67 11 68 20 69 22 70 19 71 12 72 13 73 18 74 14 75
REMARK SMILES IDX 16 76 15 77 17 78
REMARK H PARENT 70 22 44 33
REMARK Flexibility Score: inf
ROOT
ATOM      1  C   UNL     1       4.058   1.468  -0.653  1.00  0.00     0.275 C 
ENDROOT
BRANCH   1   2
ATOM      2  O   UNL     1       2.981   0.582  -1.002  1.00  0.00    -0.458 OA
BRANCH   2   3
ATOM      3  C   UNL     1       2.774  -0.717  -0.691  1.00  0.00     0.338 C 
ATOM      4  O   UNL     1       1.765  -1.266  -1.133  1.00  0.00    -0.246 OA
BRANCH   3   5
ATOM      5  C   UNL     1       3.637  -1.519   0.240  1.00  0.00     0.060 A 
ATOM      6  C   UNL     1       4.939  -1.219   0.635  1.00  0.00     0.016 A 
ATOM      7  C   UNL     1       3.049  -2.678   0.783  1.00  0.00     0.016 A 
ATOM      8  C   UNL     1       5.599  -1.988   1.593  1.00  0.00     0.010 A 
ATOM      9  C   UNL     1       3.691  -3.441   1.764  1.00  0.00     0.010 A 
ATOM     10  C   UNL     1       4.976  -3.091   2.176  1.00  0.00    -0.014 A 
BRANCH  10  11
ATOM     11  C   UNL     1       5.755  -3.912   3.126  1.00  0.00     0.031 A 
ATOM     12  C   UNL     1       6.338  -5.202   2.646  1.00  0.00     0.074 A 
ATOM     13  C   UNL     1       6.048  -3.430   4.348  1.00  0.00     0.049 A 
ATOM     14  N   UNL     1       7.177  -5.998   3.251  1.00  0.00    -0.248 NA
ATOM     15  C   UNL     1       5.963  -5.632   1.288  1.00  0.00     0.031 C 
ATOM     16  C   UNL     1       5.605  -2.136   4.859  1.00  0.00     0.029 A 
ATOM     17  N   UNL     1       6.799  -3.943   5.372  1.00  0.00    -0.354 N 
ATOM     18  C   UNL     1       7.473  -6.990   2.329  1.00  0.00     0.074 A 
ATOM     19  C   UNL     1       6.668  -6.744   1.154  1.00  0.00     0.031 C 
ATOM     20  C   UNL     1       6.056  -1.966   6.111  1.00  0.00     0.029 A 
ATOM     21  C   UNL     1       6.836  -3.138   6.486  1.00  0.00     0.049 A 
ATOM     22  H   UNL     1       7.269  -4.807   5.315  1.00  0.00     0.167 HD
ATOM     23  C   UNL     1       8.370  -7.994   2.445  1.00  0.00     0.037 A 
ATOM     24  C   UNL     1       7.441  -3.326   7.673  1.00  0.00     0.037 A 
ATOM     25  C   UNL     1       9.131  -8.246   3.637  1.00  0.00     0.049 A 
ATOM     26  C   UNL     1       8.320  -4.536   7.825  1.00  0.00     0.074 A 
ATOM     27  C   UNL     1      10.020  -9.272   3.895  1.00  0.00     0.029 A 
ATOM     28  N   UNL     1       9.077  -7.461   4.783  1.00  0.00    -0.354 N 
ATOM     29  N   UNL     1       8.605  -5.463   6.941  1.00  0.00    -0.248 NA
ATOM     30  C   UNL     1       8.989  -4.712   9.119  1.00  0.00     0.031 C 
ATOM     31  C   UNL     1      10.466  -9.136   5.215  1.00  0.00     0.029 A 
ATOM     32  C   UNL     1       9.899  -7.994   5.761  1.00  0.00     0.049 A 
ATOM     33  H   UNL     1       8.534  -6.646   4.884  1.00  0.00     0.167 HD
ATOM     34  C   UNL     1       9.511  -6.313   7.557  1.00  0.00     0.074 A 
ATOM     35  C   UNL     1       9.744  -5.775   8.883  1.00  0.00     0.031 C 
ATOM     36  C   UNL     1      10.100  -7.435   7.074  1.00  0.00     0.037 A 
BRANCH  23  37
ATOM     37  C   UNL     1       8.538  -8.889   1.254  1.00  0.00     0.057 A 
ATOM     38  C   UNL     1       9.164  -8.443   0.081  1.00  0.00     0.134 A 
ATOM     39  C   UNL     1       8.045 -10.198   1.266  1.00  0.00     0.134 A 
ATOM     40  F   UNL     1       9.632  -7.188  -0.006  1.00  0.00    -0.206 F 
ATOM     41  C   UNL     1       9.273  -9.261  -1.045  1.00  0.00     0.040 A 
ATOM     42  C   UNL     1       8.168 -11.033   0.155  1.00  0.00     0.040 A 
ATOM     43  F   UNL     1       7.426 -10.682   2.353  1.00  0.00    -0.206 F 
ATOM     44  C   UNL     1       8.777 -10.563  -1.007  1.00  0.00     0.006 A 
ENDBRANCH  23  37
BRANCH  24  45
ATOM     45  C   UNL     1       7.239  -2.367   8.792  1.00  0.00     0.057 A 
ATOM     46  C   UNL     1       8.289  -1.603   9.316  1.00  0.00     0.134 A 
ATOM     47  C   UNL     1       5.984  -2.228   9.400  1.00  0.00     0.134 A 
ATOM     48  F   UNL     1       9.518  -1.693   8.789  1.00  0.00    -0.206 F 
ATOM     49  C   UNL     1       8.109  -0.771  10.425  1.00  0.00     0.040 A 
ATOM     50  C   UNL     1       5.783  -1.380  10.491  1.00  0.00     0.040 A 
ATOM     51  F   UNL     1       4.928  -2.919   8.942  1.00  0.00    -0.206 F 
ATOM     52  C   UNL     1       6.853  -0.659  11.016  1.00  0.00     0.006 A 
ENDBRANCH  24  45
BRANCH  36  53
ATOM     53  C   UNL     1      11.064  -8.132   7.989  1.00  0.00     0.057 A 
ATOM     54  C   UNL     1      10.635  -8.810   9.136  1.00  0.00     0.134 A 
ATOM     55  C   UNL     1      12.436  -8.136   7.707  1.00  0.00     0.134 A 
ATOM     56  F   UNL     1       9.335  -8.830   9.469  1.00  0.00    -0.206 F 
ATOM     57  C   UNL     1      11.540  -9.436   9.992  1.00  0.00     0.040 A 
ATOM     58  C   UNL     1      13.347  -8.788   8.536  1.00  0.00     0.040 A 
ATOM     59  F   UNL     1      12.910  -7.513   6.617  1.00  0.00    -0.206 F 
ATOM     60  C   UNL     1      12.901  -9.432   9.688  1.00  0.00     0.006 A 
ENDBRANCH  36  53
ENDBRANCH  10  11
ENDBRANCH   3   5
ENDBRANCH   2   3
ENDBRANCH   1   2
BRANCH   1  61
ATOM     61  C   UNL     1       3.957   2.074   0.750  1.00  0.00     0.275 C 
BRANCH  61  62
ATOM     62  O   UNL     1       3.553   1.131   1.756  1.00  0.00    -0.458 OA
BRANCH  62  63
ATOM     63  C   UNL     1       2.235   1.140   2.086  1.00  0.00     0.339 C 
ATOM     64  O   UNL     1       1.363   1.836   1.594  1.00  0.00    -0.246 OA
BRANCH  63  65
ATOM     65  C   UNL     1       1.962   0.070   3.066  1.00  0.00     0.079 A 
ATOM     66  C   UNL     1       0.983  -0.890   2.740  1.00  0.00     0.026 A 
ATOM     67  C   UNL     1       2.620   0.007   4.296  1.00  0.00     0.055 A 
ATOM     68  C   UNL     1       0.701  -1.954   3.614  1.00  0.00    -0.017 A 
ATOM     69  C   UNL     1       2.360  -1.059   5.160  1.00  0.00     0.022 A 
ATOM     70  Cl  UNL     1       3.727   1.221   4.833  1.00  0.00    -0.083 Cl
ATOM     71  C   UNL     1       1.429  -2.040   4.811  1.00  0.00     0.010 A 
BRANCH  68  72
ATOM     72  C   UNL     1      -0.369  -2.925   3.347  1.00  0.00    -0.017 A 
ATOM     73  C   UNL     1      -1.536  -2.902   4.131  1.00  0.00     0.009 A 
ATOM     74  C   UNL     1      -0.261  -3.914   2.360  1.00  0.00     0.029 A 
ATOM     75  C   UNL     1      -2.560  -3.831   3.936  1.00  0.00     0.002 A 
ATOM     76  C   UNL     1      -1.286  -4.844   2.166  1.00  0.00     0.041 A 
ATOM     77  C   UNL     1      -2.435  -4.806   2.950  1.00  0.00     0.020 A 
ATOM     78  Cl  UNL     1      -1.119  -6.058   0.957  1.00  0.00    -0.084 Cl
ENDBRANCH  68  72
ENDBRANCH  63  65
ENDBRANCH  62  63
ENDBRANCH  61  62
ENDBRANCH   1  61
TORSDOF 12
