REMARK SMILES CCCc1cc(-n2ccc(C(=O)OCCOC(=O)c3ccc(-c4c5nc(c(-c6c(F)cccc6F)c6ccc([nH]6)c(-c6c(F)cccc6F)c6nc(c(-c7c(F)cccc7F)c7ccc4[nH]7)C=C6)C=C5)cc3)n2)nc(-c2ccc(C(F)(F)F)cc2)n1
REMARK SMILES IDX 14 1 13 2 11 3 12 4 10 5 7 6 8 7 73 8 9 9 6 10 4 11 5 12
REMARK SMILES IDX 86 13 75 14 74 15 3 16 2 17 1 18 76 19 77 20 85 21 78 22
REMARK SMILES IDX 84 23 79 24 80 25 81 26 82 27 83 28 15 29 16 30 17 31 18 32
REMARK SMILES IDX 19 33 20 34 72 35 21 36 71 37 22 38 23 39 24 40 65 41 25 42
REMARK SMILES IDX 70 43 64 44 66 45 26 46 69 47 63 48 62 49 27 51 53 52 36 53
REMARK SMILES IDX 52 54 37 55 40 56 51 57 67 58 38 59 39 60 50 62 68 63 41 64
REMARK SMILES IDX 28 65 29 66 34 67 30 68 31 69 33 70 35 71 32 72 54 73 55 74
REMARK SMILES IDX 60 75 56 76 57 77 59 78 61 79 58 80 42 81 43 82 48 83 44 84
REMARK SMILES IDX 45 85 47 86 49 87 46 88
REMARK H PARENT 66 50 40 61
REMARK Flexibility Score: inf
ROOT
ATOM      1  C   UNL     1      -2.726   6.379  -4.920  1.00  0.00     0.275 C 
ENDROOT
BRANCH   1   2
ATOM      2  O   UNL     1      -2.470   5.942  -3.577  1.00  0.00    -0.457 OA
BRANCH   2   3
ATOM      3  C   UNL     1      -3.570   5.710  -2.796  1.00  0.00     0.358 C 
ATOM      4  O   UNL     1      -4.721   6.008  -3.117  1.00  0.00    -0.244 OA
BRANCH   3   5
ATOM      5  C   UNL     1      -3.264   4.913  -1.603  1.00  0.00     0.170 A 
ATOM      6  N   UNL     1      -2.139   3.977  -0.038  1.00  0.00    -0.222 N 
ATOM      7  C   UNL     1      -3.344   3.310  -0.070  1.00  0.00     0.118 A 
ATOM      8  N   UNL     1      -2.107   5.003  -0.926  1.00  0.00    -0.159 NA
ATOM      9  C   UNL     1      -4.107   3.925  -1.031  1.00  0.00     0.058 A 
BRANCH   6  10
ATOM     10  C   UNL     1      -1.011   3.684   0.780  1.00  0.00     0.157 A 
ATOM     11  C   UNL     1       0.405   2.150   1.859  1.00  0.00     0.047 A 
ATOM     12  C   UNL     1      -0.773   2.380   1.173  1.00  0.00     0.073 A 
ATOM     13  N   UNL     1       1.210   3.163   2.248  1.00  0.00    -0.233 NA
ATOM     14  C   UNL     1       0.849   4.409   1.891  1.00  0.00     0.161 A 
ATOM     15  N   UNL     1      -0.208   4.709   1.129  1.00  0.00    -0.209 NA
BRANCH  11  16
ATOM     16  C   UNL     1       0.855   0.763   2.253  1.00  0.00     0.056 C 
BRANCH  16  17
ATOM     17  C   UNL     1       0.523  -0.378   1.282  1.00  0.00     0.003 C 
ATOM     18  C   UNL     1       1.123  -0.197  -0.106  1.00  0.00     0.004 C 
ENDBRANCH  16  17
ENDBRANCH  11  16
BRANCH  14  19
ATOM     19  C   UNL     1       1.551   5.534   2.511  1.00  0.00     0.019 A 
ATOM     20  C   UNL     1       2.946   5.659   2.460  1.00  0.00     0.012 A 
ATOM     21  C   UNL     1       0.822   6.524   3.196  1.00  0.00     0.012 A 
ATOM     22  C   UNL     1       3.590   6.744   3.067  1.00  0.00     0.014 A 
ATOM     23  C   UNL     1       1.462   7.598   3.818  1.00  0.00     0.014 A 
ATOM     24  C   UNL     1       2.855   7.720   3.758  1.00  0.00     0.056 A 
BRANCH  24  25
ATOM     25  C   UNL     1       3.561   8.878   4.418  1.00  0.00     0.416 C 
ATOM     26  F   UNL     1       4.489   8.471   5.329  1.00  0.00    -0.166 F 
ATOM     27  F   UNL     1       4.230   9.659   3.526  1.00  0.00    -0.166 F 
ATOM     28  F   UNL     1       2.724   9.716   5.093  1.00  0.00    -0.166 F 
ENDBRANCH  24  25
ENDBRANCH  14  19
ENDBRANCH   6  10
ENDBRANCH   3   5
ENDBRANCH   2   3
ENDBRANCH   1   2
BRANCH   1  29
ATOM     29  C   UNL     1      -2.930   5.201  -5.866  1.00  0.00     0.275 C 
BRANCH  29  30
ATOM     30  O   UNL     1      -4.201   4.575  -5.675  1.00  0.00    -0.458 OA
BRANCH  30  31
ATOM     31  C   UNL     1      -4.194   3.473  -4.895  1.00  0.00     0.338 C 
ATOM     32  O   UNL     1      -3.330   3.134  -4.104  1.00  0.00    -0.246 OA
BRANCH  31  33
ATOM     33  C   UNL     1      -5.302   2.594  -5.292  1.00  0.00     0.060 A 
ATOM     34  C   UNL     1      -5.461   1.398  -4.585  1.00  0.00     0.016 A 
ATOM     35  C   UNL     1      -5.996   2.837  -6.487  1.00  0.00     0.016 A 
ATOM     36  C   UNL     1      -6.207   0.385  -5.153  1.00  0.00     0.010 A 
ATOM     37  C   UNL     1      -6.734   1.823  -7.055  1.00  0.00     0.010 A 
ATOM     38  C   UNL     1      -6.777   0.587  -6.416  1.00  0.00    -0.014 A 
BRANCH  38  39
ATOM     39  C   UNL     1      -7.500  -0.515  -7.019  1.00  0.00     0.031 A 
ATOM     40  C   UNL     1      -8.768  -0.859  -6.330  1.00  0.00     0.074 A 
ATOM     41  C   UNL     1      -7.128  -1.076  -8.185  1.00  0.00     0.049 A 
ATOM     42  N   UNL     1      -9.100  -1.980  -5.781  1.00  0.00    -0.248 NA
ATOM     43  C   UNL     1      -9.746   0.224  -6.129  1.00  0.00     0.031 C 
ATOM     44  C   UNL     1      -6.088  -0.637  -9.118  1.00  0.00     0.029 A 
ATOM     45  N   UNL     1      -7.703  -2.119  -8.838  1.00  0.00    -0.354 N 
ATOM     46  C   UNL     1     -10.401  -1.804  -5.319  1.00  0.00     0.074 A 
ATOM     47  C   UNL     1     -10.692  -0.399  -5.428  1.00  0.00     0.031 C 
ATOM     48  C   UNL     1      -6.269  -1.259 -10.306  1.00  0.00     0.029 A 
ATOM     49  C   UNL     1      -7.351  -2.221 -10.175  1.00  0.00     0.049 A 
ATOM     50  H   UNL     1      -8.318  -2.750  -8.399  1.00  0.00     0.167 HD
ATOM     51  C   UNL     1     -11.222  -2.863  -5.086  1.00  0.00     0.037 A 
ATOM     52  C   UNL     1      -7.977  -2.982 -11.107  1.00  0.00     0.037 A 
ATOM     53  C   UNL     1     -10.479  -4.084  -4.915  1.00  0.00     0.049 A 
ATOM     54  C   UNL     1      -8.775  -4.007 -10.384  1.00  0.00     0.074 A 
ATOM     55  C   UNL     1      -9.486  -4.497  -4.046  1.00  0.00     0.029 A 
ATOM     56  N   UNL     1     -10.461  -4.989  -5.947  1.00  0.00    -0.354 N 
ATOM     57  N   UNL     1      -8.257  -5.000  -9.717  1.00  0.00    -0.248 NA
ATOM     58  C   UNL     1     -10.147  -3.667 -10.030  1.00  0.00     0.031 C 
ATOM     59  C   UNL     1      -8.609  -5.290  -4.842  1.00  0.00     0.029 A 
ATOM     60  C   UNL     1      -9.151  -5.352  -6.125  1.00  0.00     0.049 A 
ATOM     61  H   UNL     1     -11.237  -5.313  -6.460  1.00  0.00     0.167 HD
ATOM     62  C   UNL     1      -9.058  -5.127  -8.591  1.00  0.00     0.074 A 
ATOM     63  C   UNL     1     -10.254  -4.339  -8.881  1.00  0.00     0.031 C 
ATOM     64  C   UNL     1      -8.562  -5.616  -7.416  1.00  0.00     0.037 A 
BRANCH  51  65
ATOM     65  C   UNL     1     -12.700  -2.846  -5.374  1.00  0.00     0.057 A 
ATOM     66  C   UNL     1     -13.496  -3.927  -4.957  1.00  0.00     0.134 A 
ATOM     67  C   UNL     1     -13.312  -1.969  -6.294  1.00  0.00     0.134 A 
ATOM     68  F   UNL     1     -13.020  -4.841  -4.098  1.00  0.00    -0.206 F 
ATOM     69  C   UNL     1     -14.775  -4.158  -5.476  1.00  0.00     0.040 A 
ATOM     70  C   UNL     1     -14.608  -2.161  -6.777  1.00  0.00     0.040 A 
ATOM     71  F   UNL     1     -12.658  -0.943  -6.853  1.00  0.00    -0.206 F 
ATOM     72  C   UNL     1     -15.332  -3.278  -6.395  1.00  0.00     0.006 A 
ENDBRANCH  51  65
BRANCH  52  73
ATOM     73  C   UNL     1      -8.186  -2.692 -12.545  1.00  0.00     0.057 A 
ATOM     74  C   UNL     1      -8.638  -3.689 -13.423  1.00  0.00     0.134 A 
ATOM     75  C   UNL     1      -8.213  -1.378 -13.045  1.00  0.00     0.134 A 
ATOM     76  F   UNL     1      -8.689  -4.970 -13.030  1.00  0.00    -0.206 F 
ATOM     77  C   UNL     1      -9.116  -3.394 -14.707  1.00  0.00     0.040 A 
ATOM     78  C   UNL     1      -8.677  -1.071 -14.328  1.00  0.00     0.040 A 
ATOM     79  F   UNL     1      -7.877  -0.333 -12.275  1.00  0.00    -0.206 F 
ATOM     80  C   UNL     1      -9.146  -2.079 -15.159  1.00  0.00     0.006 A 
ENDBRANCH  52  73
BRANCH  64  81
ATOM     81  C   UNL     1      -7.189  -6.226  -7.422  1.00  0.00     0.057 A 
ATOM     82  C   UNL     1      -6.021  -5.519  -7.745  1.00  0.00     0.134 A 
ATOM     83  C   UNL     1      -7.024  -7.523  -6.924  1.00  0.00     0.134 A 
ATOM     84  F   UNL     1      -6.067  -4.237  -8.125  1.00  0.00    -0.206 F 
ATOM     85  C   UNL     1      -4.752  -6.094  -7.624  1.00  0.00     0.040 A 
ATOM     86  C   UNL     1      -5.761  -8.097  -6.765  1.00  0.00     0.040 A 
ATOM     87  F   UNL     1      -8.091  -8.239  -6.535  1.00  0.00    -0.206 F 
ATOM     88  C   UNL     1      -4.619  -7.386  -7.125  1.00  0.00     0.006 A 
ENDBRANCH  64  81
ENDBRANCH  38  39
ENDBRANCH  31  33
ENDBRANCH  30  31
ENDBRANCH  29  30
ENDBRANCH   1  29
TORSDOF 16
