REMARK SMILES CC[C@@H](C)CN(CC)S(=O)(=O)c1cc(C(=O)OCCOC(=O)c2ccc(-c3c4nc(c(-c5c(F)cccc5F)c5ccc([nH]5)c(-c5c(F)cccc5F)c5nc(c(-c6c(F)cccc6F)c6ccc3[nH]6)C=C5)C=C4)cc2)n(C)c1
REMARK SMILES IDX 17 1 15 2 16 3 14 4 12 5 13 6 79 7 77 8 78 9 9 10 10 11
REMARK SMILES IDX 11 12 6 13 5 14 3 15 4 16 2 17 1 18 7 19 8 20 18 21 19 22
REMARK SMILES IDX 20 23 21 24 22 25 23 26 24 27 76 28 25 29 75 30 26 31 27 32
REMARK SMILES IDX 28 33 69 34 29 35 74 36 68 37 70 38 30 39 73 40 67 41 66 42
REMARK SMILES IDX 31 44 57 45 40 46 56 47 41 48 44 49 55 50 71 51 42 52 43 53
REMARK SMILES IDX 54 55 72 56 45 57 32 58 33 59 38 60 34 61 35 62 37 63 39 64
REMARK SMILES IDX 36 65 58 66 59 67 64 68 60 69 61 70 63 71 65 72 62 73 46 74
REMARK SMILES IDX 47 75 52 76 48 77 49 78 51 79 53 80 50 81
REMARK H PARENT 70 43 44 54
REMARK Flexibility Score: inf
ROOT
ATOM      1  O   UNL     1       2.094  -5.245  -8.139  1.00  0.00    -0.457 OA
ENDROOT
BRANCH   1   2
ATOM      2  C   UNL     1       0.984  -5.232  -7.357  1.00  0.00     0.355 C 
ATOM      3  O   UNL     1       0.085  -6.068  -7.416  1.00  0.00    -0.244 OA
BRANCH   2   4
ATOM      4  C   UNL     1       1.054  -4.186  -6.352  1.00  0.00     0.128 A 
ATOM      5  C   UNL     1       0.749  -3.048  -4.387  1.00  0.00     0.101 A 
ATOM      6  C   UNL     1       0.362  -4.182  -5.137  1.00  0.00     0.057 A 
ATOM      7  C   UNL     1       1.630  -2.343  -5.183  1.00  0.00     0.107 A 
ATOM      8  N   UNL     1       1.747  -2.989  -6.392  1.00  0.00    -0.344 N 
ATOM      9  C   UNL     1       2.349  -2.346  -7.542  1.00  0.00     0.150 C 
BRANCH   5  10
ATOM     10  S   UNL     1       0.117  -2.523  -2.850  1.00  0.00     0.244 S 
ATOM     11  O   UNL     1      -1.311  -2.767  -2.970  1.00  0.00    -0.207 OA
ATOM     12  O   UNL     1       0.618  -1.179  -2.761  1.00  0.00    -0.207 OA
BRANCH  10  13
ATOM     13  N   UNL     1       0.723  -3.470  -1.532  1.00  0.00    -0.198 NA
BRANCH  13  14
ATOM     14  C   UNL     1       0.239  -3.065  -0.155  1.00  0.00     0.105 C 
BRANCH  14  15
ATOM     15  C   UNL     1       1.060  -1.998   0.603  1.00  0.00     0.001 C 
ATOM     16  C   UNL     1       0.631  -2.043   2.081  1.00  0.00     0.009 C 
BRANCH  15  17
ATOM     17  C   UNL     1       0.873  -0.600  -0.004  1.00  0.00     0.001 C 
ATOM     18  C   UNL     1       1.172   0.606   0.870  1.00  0.00     0.004 C 
ENDBRANCH  15  17
ENDBRANCH  14  15
ENDBRANCH  13  14
BRANCH  13  19
ATOM     19  C   UNL     1       0.537  -4.953  -1.697  1.00  0.00     0.099 C 
ATOM     20  C   UNL     1      -0.919  -5.408  -1.600  1.00  0.00     0.022 C 
ENDBRANCH  13  19
ENDBRANCH  10  13
ENDBRANCH   5  10
ENDBRANCH   2   4
ENDBRANCH   1   2
BRANCH   1  21
ATOM     21  C   UNL     1       2.224  -6.332  -9.077  1.00  0.00     0.275 C 
BRANCH  21  22
ATOM     22  C   UNL     1       3.269  -7.340  -8.599  1.00  0.00     0.275 C 
BRANCH  22  23
ATOM     23  O   UNL     1       2.801  -8.031  -7.425  1.00  0.00    -0.458 OA
BRANCH  23  24
ATOM     24  C   UNL     1       3.368  -7.637  -6.263  1.00  0.00     0.338 C 
ATOM     25  O   UNL     1       4.250  -6.811  -6.104  1.00  0.00    -0.246 OA
BRANCH  24  26
ATOM     26  C   UNL     1       2.683  -8.282  -5.134  1.00  0.00     0.060 A 
ATOM     27  C   UNL     1       1.546  -7.664  -4.639  1.00  0.00     0.016 A 
ATOM     28  C   UNL     1       3.244  -9.360  -4.452  1.00  0.00     0.016 A 
ATOM     29  C   UNL     1       1.031  -8.046  -3.406  1.00  0.00     0.010 A 
ATOM     30  C   UNL     1       2.673  -9.785  -3.238  1.00  0.00     0.010 A 
ATOM     31  C   UNL     1       1.598  -9.087  -2.658  1.00  0.00    -0.014 A 
BRANCH  31  32
ATOM     32  C   UNL     1       1.136  -9.335  -1.250  1.00  0.00     0.031 A 
ATOM     33  C   UNL     1       2.129  -9.324  -0.104  1.00  0.00     0.074 A 
ATOM     34  C   UNL     1      -0.174  -9.474  -0.950  1.00  0.00     0.049 A 
ATOM     35  N   UNL     1       1.948  -9.638   1.157  1.00  0.00    -0.248 NA
ATOM     36  C   UNL     1       3.507  -8.918  -0.418  1.00  0.00     0.031 C 
ATOM     37  C   UNL     1      -1.275  -9.444  -1.914  1.00  0.00     0.029 A 
ATOM     38  N   UNL     1      -0.808  -9.632   0.262  1.00  0.00    -0.354 N 
ATOM     39  C   UNL     1       3.199  -9.547   1.760  1.00  0.00     0.074 A 
ATOM     40  C   UNL     1       4.130  -9.146   0.729  1.00  0.00     0.031 C 
ATOM     41  C   UNL     1      -2.442  -9.496  -1.255  1.00  0.00     0.029 A 
ATOM     42  C   UNL     1      -2.179  -9.691   0.166  1.00  0.00     0.049 A 
ATOM     43  H   UNL     1      -0.325  -9.698   1.117  1.00  0.00     0.167 HD
ATOM     44  C   UNL     1       3.546  -9.775   3.052  1.00  0.00     0.037 A 
ATOM     45  C   UNL     1      -3.126  -9.923   1.098  1.00  0.00     0.037 A 
ATOM     46  C   UNL     1       2.616 -10.097   4.105  1.00  0.00     0.049 A 
ATOM     47  C   UNL     1      -2.717 -10.203   2.518  1.00  0.00     0.074 A 
ATOM     48  C   UNL     1       2.879 -10.335   5.445  1.00  0.00     0.029 A 
ATOM     49  N   UNL     1       1.244 -10.203   3.947  1.00  0.00    -0.354 N 
ATOM     50  N   UNL     1      -1.521 -10.195   3.052  1.00  0.00    -0.248 NA
ATOM     51  C   UNL     1      -3.792 -10.553   3.458  1.00  0.00     0.031 C 
ATOM     52  C   UNL     1       1.672 -10.629   6.087  1.00  0.00     0.029 A 
ATOM     53  C   UNL     1       0.649 -10.515   5.160  1.00  0.00     0.049 A 
ATOM     54  H   UNL     1       0.761 -10.076   3.098  1.00  0.00     0.167 HD
ATOM     55  C   UNL     1      -1.701 -10.524   4.391  1.00  0.00     0.074 A 
ATOM     56  C   UNL     1      -3.123 -10.697   4.593  1.00  0.00     0.031 C 
ATOM     57  C   UNL     1      -0.768 -10.678   5.362  1.00  0.00     0.037 A 
BRANCH  44  58
ATOM     58  C   UNL     1       5.009  -9.730   3.400  1.00  0.00     0.057 A 
ATOM     59  C   UNL     1       5.739  -8.536   3.441  1.00  0.00     0.134 A 
ATOM     60  C   UNL     1       5.688 -10.910   3.740  1.00  0.00     0.134 A 
ATOM     61  F   UNL     1       5.156  -7.372   3.118  1.00  0.00    -0.206 F 
ATOM     62  C   UNL     1       7.095  -8.520   3.777  1.00  0.00     0.040 A 
ATOM     63  C   UNL     1       7.034 -10.902   4.108  1.00  0.00     0.040 A 
ATOM     64  F   UNL     1       5.048 -12.089   3.733  1.00  0.00    -0.206 F 
ATOM     65  C   UNL     1       7.744  -9.705   4.120  1.00  0.00     0.006 A 
ENDBRANCH  44  58
BRANCH  45  66
ATOM     66  C   UNL     1      -4.562  -9.966   0.711  1.00  0.00     0.057 A 
ATOM     67  C   UNL     1      -5.477  -9.025   1.199  1.00  0.00     0.134 A 
ATOM     68  C   UNL     1      -5.060 -10.964  -0.137  1.00  0.00     0.134 A 
ATOM     69  F   UNL     1      -5.072  -8.063   2.041  1.00  0.00    -0.206 F 
ATOM     70  C   UNL     1      -6.833  -9.083   0.870  1.00  0.00     0.040 A 
ATOM     71  C   UNL     1      -6.405 -11.013  -0.503  1.00  0.00     0.040 A 
ATOM     72  F   UNL     1      -4.239 -11.901  -0.635  1.00  0.00    -0.206 F 
ATOM     73  C   UNL     1      -7.298 -10.075   0.008  1.00  0.00     0.006 A 
ENDBRANCH  45  66
BRANCH  57  74
ATOM     74  C   UNL     1      -1.260 -11.004   6.743  1.00  0.00     0.057 A 
ATOM     75  C   UNL     1      -1.808 -12.253   7.063  1.00  0.00     0.134 A 
ATOM     76  C   UNL     1      -1.174 -10.055   7.771  1.00  0.00     0.134 A 
ATOM     77  F   UNL     1      -1.932 -13.202   6.123  1.00  0.00    -0.206 F 
ATOM     78  C   UNL     1      -2.284 -12.535   8.346  1.00  0.00     0.040 A 
ATOM     79  C   UNL     1      -1.619 -10.336   9.064  1.00  0.00     0.040 A 
ATOM     80  F   UNL     1      -0.651  -8.842   7.537  1.00  0.00    -0.206 F 
ATOM     81  C   UNL     1      -2.185 -11.575   9.352  1.00  0.00     0.006 A 
ENDBRANCH  57  74
ENDBRANCH  31  32
ENDBRANCH  24  26
ENDBRANCH  23  24
ENDBRANCH  22  23
ENDBRANCH  21  22
ENDBRANCH   1  21
TORSDOF 17
