REMARK SMILES Cc1ccccc1OC1(C(=O)OCCOC(=O)c2ccc(-c3c4nc(c(-c5c(F)cccc5F)c5ccc([nH]5)c(-c5c(F)cccc5F)c5nc(c(-c6c(F)cccc6F)c6ccc3[nH]6)C=C5)C=C4)cc2)CCN(C(=O)[C@H]2CCCCO2)CC1
REMARK SMILES IDX 13 1 12 2 10 3 11 4 9 5 72 6 84 7 73 8 83 9 74 10 75 11
REMARK SMILES IDX 76 12 8 13 7 14 1 15 2 16 3 17 4 18 6 19 5 20 77 21 78 22
REMARK SMILES IDX 82 23 79 24 81 25 80 26 14 27 15 28 16 29 17 30 18 31 19 32
REMARK SMILES IDX 71 33 20 34 70 35 21 36 22 37 23 38 64 39 24 40 69 41 63 42
REMARK SMILES IDX 65 43 25 44 68 45 62 46 61 47 26 49 52 50 35 51 51 52 36 53
REMARK SMILES IDX 39 54 50 55 66 56 37 57 38 58 49 60 67 61 40 62 27 63 28 64
REMARK SMILES IDX 33 65 29 66 30 67 32 68 34 69 31 70 53 71 54 72 59 73 55 74
REMARK SMILES IDX 56 75 58 76 60 77 57 78 41 79 42 80 47 81 43 82 44 83 46 84
REMARK SMILES IDX 48 85 45 86
REMARK H PARENT 65 48 39 59
REMARK Flexibility Score: inf
ROOT
ATOM      1  C   UNL     1       9.156  -6.409  -3.111  1.00  0.00     0.274 C 
ENDROOT
BRANCH   1   2
ATOM      2  O   UNL     1       8.071  -6.615  -2.190  1.00  0.00    -0.459 OA
BRANCH   2   3
ATOM      3  C   UNL     1       7.313  -5.483  -2.025  1.00  0.00     0.350 C 
ATOM      4  O   UNL     1       7.554  -4.446  -2.643  1.00  0.00    -0.247 OA
BRANCH   3   5
ATOM      5  C   UNL     1       6.284  -5.561  -0.837  1.00  0.00     0.209 C 
ATOM      6  C   UNL     1       7.241  -5.400   0.342  1.00  0.00     0.082 C 
ATOM      7  C   UNL     1       5.275  -4.433  -1.136  1.00  0.00     0.082 C 
ATOM      8  C   UNL     1       7.339  -3.994   0.894  1.00  0.00     0.124 C 
ATOM      9  C   UNL     1       5.030  -3.451  -0.017  1.00  0.00     0.124 C 
ATOM     10  N   UNL     1       6.126  -3.182   0.903  1.00  0.00    -0.340 N 
ATOM     11  C   UNL     1       6.097  -2.151   1.854  1.00  0.00     0.251 C 
ATOM     12  O   UNL     1       7.038  -2.009   2.643  1.00  0.00    -0.272 OA
BRANCH   5  13
ATOM     13  O   UNL     1       5.627  -6.843  -0.729  1.00  0.00    -0.475 OA
BRANCH  13  14
ATOM     14  C   UNL     1       4.473  -7.126  -0.025  1.00  0.00     0.123 A 
ATOM     15  C   UNL     1       4.610  -5.808   2.254  1.00  0.00     0.048 C 
ATOM     16  C   UNL     1       3.972  -6.676   1.214  1.00  0.00    -0.009 A 
ATOM     17  C   UNL     1       2.730  -7.186   1.691  1.00  0.00     0.007 A 
ATOM     18  C   UNL     1       2.012  -8.159   1.017  1.00  0.00     0.001 A 
ATOM     19  C   UNL     1       3.726  -8.137  -0.671  1.00  0.00     0.047 A 
ATOM     20  C   UNL     1       2.522  -8.650  -0.167  1.00  0.00     0.004 A 
ENDBRANCH  13  14
ENDBRANCH   5  13
BRANCH  11  21
ATOM     21  C   UNL     1       4.878  -1.194   1.893  1.00  0.00     0.207 C 
ATOM     22  C   UNL     1       3.666  -1.876   2.542  1.00  0.00     0.042 C 
ATOM     23  O   UNL     1       5.267  -0.039   2.652  1.00  0.00    -0.368 OA
ATOM     24  C   UNL     1       2.540  -0.892   2.834  1.00  0.00     0.006 C 
ATOM     25  C   UNL     1       4.235   0.922   2.810  1.00  0.00     0.161 C 
ATOM     26  C   UNL     1       3.074   0.319   3.581  1.00  0.00     0.029 C 
ENDBRANCH  11  21
ENDBRANCH   3   5
ENDBRANCH   2   3
ENDBRANCH   1   2
BRANCH   1  27
ATOM     27  C   UNL     1       9.765  -7.698  -3.674  1.00  0.00     0.275 C 
BRANCH  27  28
ATOM     28  O   UNL     1       8.975  -8.916  -3.653  1.00  0.00    -0.458 OA
BRANCH  28  29
ATOM     29  C   UNL     1       7.676  -9.089  -3.979  1.00  0.00     0.338 C 
ATOM     30  O   UNL     1       7.070 -10.135  -3.741  1.00  0.00    -0.246 OA
BRANCH  29  31
ATOM     31  C   UNL     1       6.967  -7.961  -4.586  1.00  0.00     0.060 A 
ATOM     32  C   UNL     1       5.750  -7.558  -4.020  1.00  0.00     0.016 A 
ATOM     33  C   UNL     1       7.538  -7.261  -5.643  1.00  0.00     0.016 A 
ATOM     34  C   UNL     1       5.125  -6.397  -4.458  1.00  0.00     0.010 A 
ATOM     35  C   UNL     1       6.974  -6.061  -6.017  1.00  0.00     0.010 A 
ATOM     36  C   UNL     1       5.756  -5.647  -5.450  1.00  0.00    -0.014 A 
BRANCH  36  37
ATOM     37  C   UNL     1       5.051  -4.634  -6.220  1.00  0.00     0.031 A 
ATOM     38  C   UNL     1       4.848  -3.249  -5.768  1.00  0.00     0.074 A 
ATOM     39  C   UNL     1       4.623  -5.107  -7.408  1.00  0.00     0.049 A 
ATOM     40  N   UNL     1       3.827  -2.527  -6.087  1.00  0.00    -0.248 NA
ATOM     41  C   UNL     1       5.773  -2.563  -4.873  1.00  0.00     0.031 C 
ATOM     42  C   UNL     1       4.080  -4.416  -8.559  1.00  0.00     0.029 A 
ATOM     43  N   UNL     1       4.460  -6.468  -7.705  1.00  0.00    -0.354 N 
ATOM     44  C   UNL     1       4.098  -1.228  -5.700  1.00  0.00     0.074 A 
ATOM     45  C   UNL     1       5.255  -1.328  -4.841  1.00  0.00     0.031 C 
ATOM     46  C   UNL     1       3.411  -5.314  -9.309  1.00  0.00     0.029 A 
ATOM     47  C   UNL     1       3.364  -6.566  -8.555  1.00  0.00     0.049 A 
ATOM     48  H   UNL     1       5.015  -7.211  -7.376  1.00  0.00     0.167 HD
ATOM     49  C   UNL     1       3.440  -0.193  -6.304  1.00  0.00     0.037 A 
ATOM     50  C   UNL     1       2.230  -7.173  -8.098  1.00  0.00     0.037 A 
ATOM     51  C   UNL     1       2.554  -0.711  -7.340  1.00  0.00     0.049 A 
ATOM     52  C   UNL     1       1.074  -6.211  -8.103  1.00  0.00     0.074 A 
ATOM     53  C   UNL     1       2.796  -0.943  -8.685  1.00  0.00     0.029 A 
ATOM     54  N   UNL     1       1.404  -1.413  -7.010  1.00  0.00    -0.354 N 
ATOM     55  N   UNL     1       1.182  -4.938  -7.833  1.00  0.00    -0.248 NA
ATOM     56  C   UNL     1      -0.274  -6.608  -8.490  1.00  0.00     0.031 C 
ATOM     57  C   UNL     1       1.835  -1.871  -9.144  1.00  0.00     0.029 A 
ATOM     58  C   UNL     1       0.988  -2.169  -8.090  1.00  0.00     0.049 A 
ATOM     59  H   UNL     1       0.951  -1.378  -6.137  1.00  0.00     0.167 HD
ATOM     60  C   UNL     1      -0.022  -4.336  -8.088  1.00  0.00     0.074 A 
ATOM     61  C   UNL     1      -0.906  -5.424  -8.468  1.00  0.00     0.031 C 
ATOM     62  C   UNL     1      -0.208  -2.986  -8.023  1.00  0.00     0.037 A 
BRANCH  49  63
ATOM     63  C   UNL     1       3.871   1.261  -6.251  1.00  0.00     0.057 A 
ATOM     64  C   UNL     1       3.638   2.124  -7.345  1.00  0.00     0.134 A 
ATOM     65  C   UNL     1       4.551   1.864  -5.181  1.00  0.00     0.134 A 
ATOM     66  F   UNL     1       2.891   1.751  -8.393  1.00  0.00    -0.206 F 
ATOM     67  C   UNL     1       4.156   3.424  -7.425  1.00  0.00     0.040 A 
ATOM     68  C   UNL     1       5.107   3.153  -5.259  1.00  0.00     0.040 A 
ATOM     69  F   UNL     1       4.668   1.250  -3.996  1.00  0.00    -0.206 F 
ATOM     70  C   UNL     1       4.929   3.931  -6.395  1.00  0.00     0.006 A 
ENDBRANCH  49  63
BRANCH  50  71
ATOM     71  C   UNL     1       2.433  -8.251  -7.076  1.00  0.00     0.057 A 
ATOM     72  C   UNL     1       3.314  -9.318  -7.355  1.00  0.00     0.134 A 
ATOM     73  C   UNL     1       1.976  -8.159  -5.757  1.00  0.00     0.134 A 
ATOM     74  F   UNL     1       3.796  -9.486  -8.598  1.00  0.00    -0.206 F 
ATOM     75  C   UNL     1       3.781 -10.188  -6.364  1.00  0.00     0.040 A 
ATOM     76  C   UNL     1       2.424  -9.037  -4.756  1.00  0.00     0.040 A 
ATOM     77  F   UNL     1       1.133  -7.184  -5.390  1.00  0.00    -0.206 F 
ATOM     78  C   UNL     1       3.348 -10.038  -5.052  1.00  0.00     0.006 A 
ENDBRANCH  50  71
BRANCH  62  79
ATOM     79  C   UNL     1      -1.545  -2.302  -8.028  1.00  0.00     0.057 A 
ATOM     80  C   UNL     1      -2.701  -2.873  -7.480  1.00  0.00     0.134 A 
ATOM     81  C   UNL     1      -1.667  -0.955  -8.435  1.00  0.00     0.134 A 
ATOM     82  F   UNL     1      -2.692  -4.107  -6.955  1.00  0.00    -0.206 F 
ATOM     83  C   UNL     1      -3.910  -2.176  -7.395  1.00  0.00     0.040 A 
ATOM     84  C   UNL     1      -2.853  -0.232  -8.301  1.00  0.00     0.040 A 
ATOM     85  F   UNL     1      -0.633  -0.274  -8.952  1.00  0.00    -0.206 F 
ATOM     86  C   UNL     1      -3.985  -0.847  -7.792  1.00  0.00     0.006 A 
ENDBRANCH  62  79
ENDBRANCH  36  37
ENDBRANCH  29  31
ENDBRANCH  28  29
ENDBRANCH  27  28
ENDBRANCH   1  27
TORSDOF 14
