REMARK SMILES CC1=C(C)C[C@@H](C(=O)OCCOC(=O)c2ccc(-c3c4nc(c(-c5c(F)cccc5F)c5ccc([nH]5)c(-c5c(F)cccc5F)c5nc(c(-c6c(F)cccc6F)c6ccc3[nH]6)C=C5)C=C4)cc2)[C@@H](C(=O)N2CCN(c3cccc(C(F)(F)F)c3)CC2)C1
REMARK SMILES IDX 10 1 9 2 7 3 8 4 6 5 1 6 2 7 3 8 88 9 4 10 5 11 69 12 70 13
REMARK SMILES IDX 71 14 72 15 73 16 87 17 74 18 86 19 75 20 76 21 77 22 85 23
REMARK SMILES IDX 78 24 80 25 79 26 81 27 82 28 83 29 84 30 11 31 12 32 13 33
REMARK SMILES IDX 14 34 15 35 16 36 68 37 17 38 67 39 18 40 19 41 20 42 61 43
REMARK SMILES IDX 21 44 66 45 60 46 62 47 22 48 65 49 59 50 58 51 23 53 49 54
REMARK SMILES IDX 32 55 48 56 33 57 36 58 47 59 63 60 34 61 35 62 46 64 64 65
REMARK SMILES IDX 37 66 24 67 25 68 30 69 26 70 27 71 29 72 31 73 28 74 50 75
REMARK SMILES IDX 51 76 56 77 52 78 53 79 55 80 57 81 54 82 38 83 39 84 44 85
REMARK SMILES IDX 40 86 41 87 43 88 45 89 42 90
REMARK H PARENT 62 52 36 63
REMARK Flexibility Score: inf
ROOT
ATOM      1  C   UNL     1       1.714   4.314   4.338  1.00  0.00     0.274 C 
ENDROOT
BRANCH   1   2
ATOM      2  O   UNL     1       1.502   3.911   2.969  1.00  0.00    -0.462 OA
BRANCH   2   3
ATOM      3  C   UNL     1       0.223   3.925   2.554  1.00  0.00     0.310 C 
ATOM      4  O   UNL     1      -0.718   4.261   3.274  1.00  0.00    -0.252 OA
BRANCH   3   5
ATOM      5  C   UNL     1      -0.024   3.559   1.094  1.00  0.00     0.116 C 
ATOM      6  C   UNL     1       1.083  -0.557  -0.056  1.00  0.00     0.039 C 
ATOM      7  C   UNL     1       0.505   0.809   0.209  1.00  0.00    -0.074 C 
ATOM      8  C   UNL     1      -0.597   1.062   0.940  1.00  0.00    -0.073 C 
ATOM      9  C   UNL     1       1.245   1.917  -0.496  1.00  0.00     0.045 C 
ATOM     10  C   UNL     1      -1.462   0.025   1.608  1.00  0.00     0.039 C 
ATOM     11  C   UNL     1      -1.112   2.470   1.066  1.00  0.00     0.046 C 
ATOM     12  C   UNL     1       1.075   3.362   0.036  1.00  0.00     0.097 C 
BRANCH  12  13
ATOM     13  C   UNL     1       2.486   3.881   0.332  1.00  0.00     0.227 C 
ATOM     14  O   UNL     1       3.243   3.240   1.065  1.00  0.00    -0.275 OA
ATOM     15  N   UNL     1       2.951   4.947  -0.422  1.00  0.00    -0.339 N 
ATOM     16  C   UNL     1       4.405   5.129  -0.541  1.00  0.00     0.141 C 
ATOM     17  C   UNL     1       2.162   6.092  -0.914  1.00  0.00     0.141 C 
ATOM     18  C   UNL     1       4.809   5.482  -1.985  1.00  0.00     0.138 C 
ATOM     19  C   UNL     1       2.578   6.562  -2.325  1.00  0.00     0.138 C 
ATOM     20  N   UNL     1       4.035   6.640  -2.438  1.00  0.00    -0.368 N 
BRANCH  20  21
ATOM     21  C   UNL     1       4.676   7.706  -3.021  1.00  0.00     0.037 A 
ATOM     22  C   UNL     1       5.383   7.561  -4.220  1.00  0.00     0.026 A 
ATOM     23  C   UNL     1       4.702   8.952  -2.384  1.00  0.00     0.039 A 
ATOM     24  C   UNL     1       6.096   8.628  -4.772  1.00  0.00     0.003 A 
ATOM     25  C   UNL     1       5.440  10.028  -2.906  1.00  0.00     0.058 A 
ATOM     26  C   UNL     1       6.131   9.855  -4.114  1.00  0.00     0.013 A 
BRANCH  25  27
ATOM     27  C   UNL     1       5.531  11.339  -2.169  1.00  0.00     0.416 C 
ATOM     28  F   UNL     1       6.806  11.635  -1.791  1.00  0.00    -0.166 F 
ATOM     29  F   UNL     1       5.114  12.393  -2.926  1.00  0.00    -0.166 F 
ATOM     30  F   UNL     1       4.785  11.384  -1.030  1.00  0.00    -0.166 F 
ENDBRANCH  25  27
ENDBRANCH  20  21
ENDBRANCH  12  13
ENDBRANCH   3   5
ENDBRANCH   2   3
ENDBRANCH   1   2
BRANCH   1  31
ATOM     31  C   UNL     1       2.055   5.801   4.442  1.00  0.00     0.275 C 
BRANCH  31  32
ATOM     32  O   UNL     1       1.038   6.609   3.818  1.00  0.00    -0.458 OA
BRANCH  32  33
ATOM     33  C   UNL     1       1.429   7.260   2.703  1.00  0.00     0.338 C 
ATOM     34  O   UNL     1       2.548   7.279   2.206  1.00  0.00    -0.246 OA
BRANCH  33  35
ATOM     35  C   UNL     1       0.316   8.012   2.106  1.00  0.00     0.060 A 
ATOM     36  C   UNL     1      -0.786   7.350   1.564  1.00  0.00     0.016 A 
ATOM     37  C   UNL     1       0.445   9.393   1.961  1.00  0.00     0.016 A 
ATOM     38  C   UNL     1      -1.736   8.061   0.831  1.00  0.00     0.010 A 
ATOM     39  C   UNL     1      -0.548  10.116   1.296  1.00  0.00     0.010 A 
ATOM     40  C   UNL     1      -1.642   9.456   0.715  1.00  0.00    -0.014 A 
BRANCH  40  41
ATOM     41  C   UNL     1      -2.724  10.236   0.063  1.00  0.00     0.031 A 
ATOM     42  C   UNL     1      -2.471  11.018  -1.194  1.00  0.00     0.074 A 
ATOM     43  C   UNL     1      -3.940  10.269   0.642  1.00  0.00     0.049 A 
ATOM     44  N   UNL     1      -3.251  11.877  -1.800  1.00  0.00    -0.248 NA
ATOM     45  C   UNL     1      -1.174  10.812  -1.856  1.00  0.00     0.031 C 
ATOM     46  C   UNL     1      -4.319   9.538   1.853  1.00  0.00     0.029 A 
ATOM     47  N   UNL     1      -5.077  10.955   0.298  1.00  0.00    -0.354 N 
ATOM     48  C   UNL     1      -2.534  12.336  -2.897  1.00  0.00     0.074 A 
ATOM     49  C   UNL     1      -1.254  11.658  -2.876  1.00  0.00     0.031 C 
ATOM     50  C   UNL     1      -5.599   9.807   2.147  1.00  0.00     0.029 A 
ATOM     51  C   UNL     1      -6.108  10.781   1.189  1.00  0.00     0.049 A 
ATOM     52  H   UNL     1      -5.148  11.517  -0.507  1.00  0.00     0.167 HD
ATOM     53  C   UNL     1      -2.910  13.244  -3.829  1.00  0.00     0.037 A 
ATOM     54  C   UNL     1      -7.314  11.373   1.261  1.00  0.00     0.037 A 
ATOM     55  C   UNL     1      -4.189  13.906  -3.856  1.00  0.00     0.049 A 
ATOM     56  C   UNL     1      -7.684  12.412   0.247  1.00  0.00     0.074 A 
ATOM     57  C   UNL     1      -4.668  14.825  -4.776  1.00  0.00     0.029 A 
ATOM     58  N   UNL     1      -5.193  13.722  -2.918  1.00  0.00    -0.354 N 
ATOM     59  N   UNL     1      -6.988  12.852  -0.771  1.00  0.00    -0.248 NA
ATOM     60  C   UNL     1      -8.998  13.050   0.405  1.00  0.00     0.031 C 
ATOM     61  C   UNL     1      -5.950  15.219  -4.376  1.00  0.00     0.029 A 
ATOM     62  C   UNL     1      -6.281  14.524  -3.225  1.00  0.00     0.049 A 
ATOM     63  H   UNL     1      -5.141  13.112  -2.147  1.00  0.00     0.167 HD
ATOM     64  C   UNL     1      -7.775  13.821  -1.376  1.00  0.00     0.074 A 
ATOM     65  C   UNL     1      -9.011  13.888  -0.623  1.00  0.00     0.031 C 
ATOM     66  C   UNL     1      -7.495  14.590  -2.455  1.00  0.00     0.037 A 
BRANCH  53  67
ATOM     67  C   UNL     1      -1.916  13.602  -4.893  1.00  0.00     0.057 A 
ATOM     68  C   UNL     1      -1.672  12.765  -5.988  1.00  0.00     0.134 A 
ATOM     69  C   UNL     1      -1.243  14.830  -4.851  1.00  0.00     0.134 A 
ATOM     70  F   UNL     1      -2.279  11.572  -6.079  1.00  0.00    -0.206 F 
ATOM     71  C   UNL     1      -0.788  13.135  -7.003  1.00  0.00     0.040 A 
ATOM     72  C   UNL     1      -0.368  15.217  -5.868  1.00  0.00     0.040 A 
ATOM     73  F   UNL     1      -1.438  15.679  -3.831  1.00  0.00    -0.206 F 
ATOM     74  C   UNL     1      -0.138  14.367  -6.948  1.00  0.00     0.006 A 
ENDBRANCH  53  67
BRANCH  54  75
ATOM     75  C   UNL     1      -8.232  11.024   2.371  1.00  0.00     0.057 A 
ATOM     76  C   UNL     1      -9.373  10.249   2.147  1.00  0.00     0.134 A 
ATOM     77  C   UNL     1      -7.969  11.431   3.685  1.00  0.00     0.134 A 
ATOM     78  F   UNL     1      -9.684   9.848   0.906  1.00  0.00    -0.206 F 
ATOM     79  C   UNL     1     -10.224   9.889   3.193  1.00  0.00     0.040 A 
ATOM     80  C   UNL     1      -8.798  11.060   4.743  1.00  0.00     0.040 A 
ATOM     81  F   UNL     1      -6.885  12.172   3.960  1.00  0.00    -0.206 F 
ATOM     82  C   UNL     1      -9.931  10.288   4.497  1.00  0.00     0.006 A 
ENDBRANCH  54  75
BRANCH  66  83
ATOM     83  C   UNL     1      -8.550  15.566  -2.876  1.00  0.00     0.057 A 
ATOM     84  C   UNL     1      -8.749  16.767  -2.185  1.00  0.00     0.134 A 
ATOM     85  C   UNL     1      -9.366  15.306  -3.983  1.00  0.00     0.134 A 
ATOM     86  F   UNL     1      -8.009  17.061  -1.106  1.00  0.00    -0.206 F 
ATOM     87  C   UNL     1      -9.739  17.671  -2.571  1.00  0.00     0.040 A 
ATOM     88  C   UNL     1     -10.348  16.210  -4.388  1.00  0.00     0.040 A 
ATOM     89  F   UNL     1      -9.221  14.173  -4.685  1.00  0.00    -0.206 F 
ATOM     90  C   UNL     1     -10.540  17.394  -3.678  1.00  0.00     0.006 A 
ENDBRANCH  66  83
ENDBRANCH  40  41
ENDBRANCH  33  35
ENDBRANCH  32  33
ENDBRANCH  31  32
ENDBRANCH   1  31
TORSDOF 14
