REMARK SMILES Cc1[nH]c(=O)n(C)c(=O)c1CC(=O)OCCOC(=O)c1ccc(-c2c3nc(c(-c4c(F)cccc4F)c4ccc([nH]4)c(-c4c(F)cccc4F)c4nc(c(-c5c(F)cccc5F)c5ccc2[nH]5)C=C4)C=C3)cc1
REMARK SMILES IDX 16 1 15 2 14 3 12 4 13 5 11 6 10 7 1 8 2 9 3 10 4 11 8 13
REMARK SMILES IDX 5 14 6 15 9 16 7 17 17 18 18 19 19 20 20 21 21 22 73 23
REMARK SMILES IDX 22 24 72 25 23 26 24 27 25 28 66 29 26 30 71 31 65 32 67 33
REMARK SMILES IDX 27 34 70 35 64 36 63 37 28 39 54 40 37 41 53 42 38 43 41 44
REMARK SMILES IDX 52 45 68 46 39 47 40 48 51 50 69 51 42 52 29 53 30 54 35 55
REMARK SMILES IDX 31 56 32 57 34 58 36 59 33 60 55 61 56 62 61 63 57 64 58 65
REMARK SMILES IDX 60 66 62 67 59 68 43 69 44 70 49 71 45 72 46 73 48 74 50 75
REMARK SMILES IDX 47 76
REMARK H PARENT 3 12 67 38 41 49
REMARK Flexibility Score: inf
ROOT
ATOM      1  C   UNL     1      -1.620   5.424  -0.823  1.00  0.00     0.275 C 
ENDROOT
BRANCH   1   2
ATOM      2  C   UNL     1      -1.507   4.087  -1.550  1.00  0.00     0.274 C 
BRANCH   2   3
ATOM      3  O   UNL     1      -0.696   3.162  -0.795  1.00  0.00    -0.462 OA
BRANCH   3   4
ATOM      4  C   UNL     1       0.599   3.051  -1.195  1.00  0.00     0.310 C 
ATOM      5  O   UNL     1       1.077   3.616  -2.174  1.00  0.00    -0.252 OA
BRANCH   4   6
ATOM      6  C   UNL     1       1.431   2.106  -0.343  1.00  0.00     0.165 C 
BRANCH   6   7
ATOM      7  C   UNL     1       0.775   1.616   0.917  1.00  0.00     0.048 A 
ATOM      8  C   UNL     1       0.447  -0.736   0.117  1.00  0.00     0.065 C 
ATOM      9  C   UNL     1       0.337   0.366   1.131  1.00  0.00     0.026 A 
ATOM     10  N   UNL     1      -0.248   0.045   2.326  1.00  0.00    -0.311 N 
ATOM     11  C   UNL     1      -0.476   0.921   3.351  1.00  0.00     0.328 A 
ATOM     12  H   UNL     1      -0.526  -0.890   2.458  1.00  0.00     0.171 HD
ATOM     13  C   UNL     1       0.677   2.599   2.034  1.00  0.00     0.259 A 
ATOM     14  O   UNL     1      -1.026   0.525   4.377  1.00  0.00    -0.248 OA
ATOM     15  N   UNL     1      -0.040   2.214   3.148  1.00  0.00    -0.263 N 
ATOM     16  O   UNL     1       1.257   3.677   1.929  1.00  0.00    -0.269 OA
ATOM     17  C   UNL     1      -0.256   3.171   4.216  1.00  0.00     0.158 C 
ENDBRANCH   6   7
ENDBRANCH   4   6
ENDBRANCH   3   4
ENDBRANCH   2   3
ENDBRANCH   1   2
BRANCH   1  18
ATOM     18  O   UNL     1      -0.304   5.953  -0.599  1.00  0.00    -0.458 OA
BRANCH  18  19
ATOM     19  C   UNL     1      -0.023   6.314   0.675  1.00  0.00     0.338 C 
ATOM     20  O   UNL     1      -0.787   6.337   1.624  1.00  0.00    -0.246 OA
BRANCH  19  21
ATOM     21  C   UNL     1       1.381   6.761   0.744  1.00  0.00     0.060 A 
ATOM     22  C   UNL     1       2.415   5.938   0.295  1.00  0.00     0.016 A 
ATOM     23  C   UNL     1       1.669   7.987   1.342  1.00  0.00     0.016 A 
ATOM     24  C   UNL     1       3.742   6.303   0.503  1.00  0.00     0.010 A 
ATOM     25  C   UNL     1       2.999   8.389   1.480  1.00  0.00     0.010 A 
ATOM     26  C   UNL     1       4.047   7.537   1.089  1.00  0.00    -0.014 A 
BRANCH  26  27
ATOM     27  C   UNL     1       5.458   7.924   1.335  1.00  0.00     0.031 A 
ATOM     28  C   UNL     1       5.955   8.089   2.744  1.00  0.00     0.074 A 
ATOM     29  C   UNL     1       6.295   8.118   0.299  1.00  0.00     0.049 A 
ATOM     30  N   UNL     1       7.100   8.561   3.167  1.00  0.00    -0.248 NA
ATOM     31  C   UNL     1       5.041   7.674   3.820  1.00  0.00     0.031 C 
ATOM     32  C   UNL     1       5.953   7.934  -1.112  1.00  0.00     0.029 A 
ATOM     33  N   UNL     1       7.609   8.512   0.274  1.00  0.00    -0.354 N 
ATOM     34  C   UNL     1       7.033   8.528   4.553  1.00  0.00     0.074 A 
ATOM     35  C   UNL     1       5.729   8.006   4.903  1.00  0.00     0.031 C 
ATOM     36  C   UNL     1       7.035   8.190  -1.863  1.00  0.00     0.029 A 
ATOM     37  C   UNL     1       8.125   8.622  -0.994  1.00  0.00     0.049 A 
ATOM     38  H   UNL     1       8.132   8.697   1.087  1.00  0.00     0.167 HD
ATOM     39  C   UNL     1       7.978   8.893   5.451  1.00  0.00     0.037 A 
ATOM     40  C   UNL     1       9.329   9.054  -1.412  1.00  0.00     0.037 A 
ATOM     41  C   UNL     1       9.286   9.381   5.099  1.00  0.00     0.049 A 
ATOM     42  C   UNL     1      10.334   9.523  -0.399  1.00  0.00     0.074 A 
ATOM     43  C   UNL     1      10.313   9.776   5.938  1.00  0.00     0.029 A 
ATOM     44  N   UNL     1       9.749   9.530   3.800  1.00  0.00    -0.354 N 
ATOM     45  N   UNL     1      10.244   9.534   0.908  1.00  0.00    -0.248 NA
ATOM     46  C   UNL     1      11.600  10.059  -0.920  1.00  0.00     0.031 C 
ATOM     47  C   UNL     1      11.387  10.195   5.146  1.00  0.00     0.029 A 
ATOM     48  C   UNL     1      11.042  10.025   3.815  1.00  0.00     0.049 A 
ATOM     49  H   UNL     1       9.235   9.315   2.989  1.00  0.00     0.167 HD
ATOM     50  C   UNL     1      11.441  10.066   1.368  1.00  0.00     0.074 A 
ATOM     51  C   UNL     1      12.249  10.350   0.200  1.00  0.00     0.031 C 
ATOM     52  C   UNL     1      11.832  10.302   2.643  1.00  0.00     0.037 A 
BRANCH  39  53
ATOM     53  C   UNL     1       7.630   8.795   6.906  1.00  0.00     0.057 A 
ATOM     54  C   UNL     1       7.567   7.564   7.569  1.00  0.00     0.134 A 
ATOM     55  C   UNL     1       7.406   9.952   7.664  1.00  0.00     0.134 A 
ATOM     56  F   UNL     1       7.760   6.419   6.897  1.00  0.00    -0.206 F 
ATOM     57  C   UNL     1       7.282   7.485   8.933  1.00  0.00     0.040 A 
ATOM     58  C   UNL     1       7.141   9.887   9.033  1.00  0.00     0.040 A 
ATOM     59  F   UNL     1       7.457  11.163   7.090  1.00  0.00    -0.206 F 
ATOM     60  C   UNL     1       7.075   8.650   9.671  1.00  0.00     0.006 A 
ENDBRANCH  39  53
BRANCH  40  61
ATOM     61  C   UNL     1       9.639   9.082  -2.862  1.00  0.00     0.057 A 
ATOM     62  C   UNL     1      10.558   8.186  -3.418  1.00  0.00     0.134 A 
ATOM     63  C   UNL     1       9.013   9.987  -3.728  1.00  0.00     0.134 A 
ATOM     64  F   UNL     1      11.205   7.311  -2.635  1.00  0.00    -0.206 F 
ATOM     65  C   UNL     1      10.847   8.189  -4.784  1.00  0.00     0.040 A 
ATOM     66  C   UNL     1       9.274   9.986  -5.099  1.00  0.00     0.040 A 
ATOM     67  F   UNL     1       8.122  10.871  -3.256  1.00  0.00    -0.206 F 
ATOM     68  C   UNL     1      10.197   9.086  -5.630  1.00  0.00     0.006 A 
ENDBRANCH  40  61
BRANCH  52  69
ATOM     69  C   UNL     1      13.198  10.884   2.848  1.00  0.00     0.057 A 
ATOM     70  C   UNL     1      13.463  12.236   2.598  1.00  0.00     0.134 A 
ATOM     71  C   UNL     1      14.239  10.101   3.360  1.00  0.00     0.134 A 
ATOM     72  F   UNL     1      12.509  13.034   2.095  1.00  0.00    -0.206 F 
ATOM     73  C   UNL     1      14.722  12.787   2.841  1.00  0.00     0.040 A 
ATOM     74  C   UNL     1      15.496  10.645   3.627  1.00  0.00     0.040 A 
ATOM     75  F   UNL     1      14.046   8.800   3.627  1.00  0.00    -0.206 F 
ATOM     76  C   UNL     1      15.740  11.992   3.366  1.00  0.00     0.006 A 
ENDBRANCH  52  69
ENDBRANCH  26  27
ENDBRANCH  19  21
ENDBRANCH  18  19
ENDBRANCH   1  18
TORSDOF 12
