REMARK SMILES Cc1nccn1CCC[NH+]1CCC2(CC1)[C@@H](C(=O)OCCOC(=O)c1ccc(-c3c4nc(c(-c5c(F)cccc5F)c5ccc([nH]5)c(-c5c(F)cccc5F)c5nc(c(-c6c(F)cccc6F)c6ccc3[nH]6)C=C5)C=C4)cc1)CC(=O)N2C
REMARK SMILES IDX 20 1 19 2 17 3 18 4 16 5 10 6 11 7 15 8 12 10 14 11 13 12
REMARK SMILES IDX 82 13 79 14 80 15 83 16 81 17 9 18 8 19 7 20 6 21 1 22 2 23
REMARK SMILES IDX 3 24 4 25 5 26 21 27 22 28 23 29 24 30 25 31 26 32 78 33
REMARK SMILES IDX 27 34 77 35 28 36 29 37 30 38 71 39 31 40 76 41 70 42 72 43
REMARK SMILES IDX 32 44 75 45 69 46 68 47 33 49 59 50 42 51 58 52 43 53 46 54
REMARK SMILES IDX 57 55 73 56 44 57 45 58 56 60 74 61 47 62 34 63 35 64 40 65
REMARK SMILES IDX 36 66 37 67 39 68 41 69 38 70 60 71 61 72 66 73 62 74 63 75
REMARK SMILES IDX 65 76 67 77 64 78 48 79 49 80 54 81 50 82 51 83 53 84 55 85
REMARK SMILES IDX 52 86
REMARK H PARENT 10 9 72 48 46 59
REMARK Flexibility Score: inf
ROOT
ATOM      1  C   UNL     1      -1.424   2.230  -1.791  1.00  0.00     0.274 C 
ENDROOT
BRANCH   1   2
ATOM      2  O   UNL     1      -1.784   1.096  -0.974  1.00  0.00    -0.462 OA
BRANCH   2   3
ATOM      3  C   UNL     1      -1.790   1.210   0.375  1.00  0.00     0.311 C 
ATOM      4  O   UNL     1      -1.298   2.174   0.953  1.00  0.00    -0.252 OA
BRANCH   3   5
ATOM      5  C   UNL     1      -2.314  -0.038   1.103  1.00  0.00     0.134 C 
ATOM      6  N   UNL     1      -3.693  -2.853  -1.731  1.00  0.00    -0.335 N 
ATOM      7  C   UNL     1      -3.476  -3.432  -0.426  1.00  0.00     0.264 C 
ATOM      8  C   UNL     1      -4.597  -1.733  -1.714  1.00  0.00     0.264 C 
ATOM      9  H   UNL     1      -4.230  -3.562  -2.231  1.00  0.00     0.348 HD
ATOM     10  C   UNL     1      -2.880  -2.451   0.572  1.00  0.00     0.091 C 
ATOM     11  C   UNL     1      -4.136  -0.613  -0.788  1.00  0.00     0.091 C 
ATOM     12  C   UNL     1      -3.469  -1.002   0.568  1.00  0.00     0.067 C 
ATOM     13  N   UNL     1      -4.479  -0.906   1.651  1.00  0.00    -0.339 N 
ATOM     14  C   UNL     1      -2.704   0.343   2.539  1.00  0.00     0.118 C 
ATOM     15  C   UNL     1      -4.082  -0.182   2.754  1.00  0.00     0.223 C 
ATOM     16  C   UNL     1      -5.745  -1.611   1.675  1.00  0.00     0.147 C 
ATOM     17  O   UNL     1      -4.731  -0.010   3.775  1.00  0.00    -0.275 OA
BRANCH   6  18
ATOM     18  C   UNL     1      -2.697  -3.000  -2.776  1.00  0.00     0.264 C 
BRANCH  18  19
ATOM     19  C   UNL     1      -1.664  -1.907  -3.097  1.00  0.00     0.083 C 
BRANCH  19  20
ATOM     20  C   UNL     1      -0.739  -1.387  -2.001  1.00  0.00     0.129 C 
BRANCH  20  21
ATOM     21  N   UNL     1       0.281  -2.180  -1.361  1.00  0.00    -0.335 N 
ATOM     22  C   UNL     1       1.469  -0.230  -0.197  1.00  0.00     0.087 C 
ATOM     23  C   UNL     1       1.232  -1.673  -0.483  1.00  0.00     0.105 A 
ATOM     24  N   UNL     1       1.874  -2.655   0.117  1.00  0.00    -0.242 NA
ATOM     25  C   UNL     1       1.346  -3.810  -0.382  1.00  0.00     0.131 A 
ATOM     26  C   UNL     1       0.375  -3.540  -1.314  1.00  0.00     0.107 A 
ENDBRANCH  20  21
ENDBRANCH  19  20
ENDBRANCH  18  19
ENDBRANCH   6  18
ENDBRANCH   3   5
ENDBRANCH   2   3
ENDBRANCH   1   2
BRANCH   1  27
ATOM     27  C   UNL     1      -2.651   3.064  -2.133  1.00  0.00     0.275 C 
BRANCH  27  28
ATOM     28  O   UNL     1      -3.006   3.881  -1.020  1.00  0.00    -0.458 OA
BRANCH  28  29
ATOM     29  C   UNL     1      -3.833   3.283  -0.139  1.00  0.00     0.338 C 
ATOM     30  O   UNL     1      -4.264   2.147  -0.179  1.00  0.00    -0.246 OA
BRANCH  29  31
ATOM     31  C   UNL     1      -4.274   4.223   0.872  1.00  0.00     0.060 A 
ATOM     32  C   UNL     1      -4.829   3.691   2.042  1.00  0.00     0.016 A 
ATOM     33  C   UNL     1      -4.413   5.561   0.500  1.00  0.00     0.016 A 
ATOM     34  C   UNL     1      -5.678   4.479   2.777  1.00  0.00     0.010 A 
ATOM     35  C   UNL     1      -5.280   6.338   1.218  1.00  0.00     0.010 A 
ATOM     36  C   UNL     1      -5.951   5.759   2.299  1.00  0.00    -0.014 A 
BRANCH  36  37
ATOM     37  C   UNL     1      -6.986   6.514   2.959  1.00  0.00     0.031 A 
ATOM     38  C   UNL     1      -6.564   7.163   4.220  1.00  0.00     0.074 A 
ATOM     39  C   UNL     1      -8.156   6.726   2.331  1.00  0.00     0.049 A 
ATOM     40  N   UNL     1      -7.128   7.118   5.381  1.00  0.00    -0.248 NA
ATOM     41  C   UNL     1      -5.283   7.893   4.197  1.00  0.00     0.031 C 
ATOM     42  C   UNL     1      -8.505   6.392   0.945  1.00  0.00     0.029 A 
ATOM     43  N   UNL     1      -9.229   7.432   2.760  1.00  0.00    -0.354 N 
ATOM     44  C   UNL     1      -6.365   7.950   6.195  1.00  0.00     0.074 A 
ATOM     45  C   UNL     1      -5.173   8.282   5.463  1.00  0.00     0.031 C 
ATOM     46  C   UNL     1      -9.592   7.108   0.585  1.00  0.00     0.029 A 
ATOM     47  C   UNL     1     -10.065   7.852   1.740  1.00  0.00     0.049 A 
ATOM     48  H   UNL     1      -9.400   7.628   3.709  1.00  0.00     0.167 HD
ATOM     49  C   UNL     1      -6.865   8.500   7.331  1.00  0.00     0.037 A 
ATOM     50  C   UNL     1     -10.993   8.832   1.831  1.00  0.00     0.037 A 
ATOM     51  C   UNL     1      -7.996   7.769   7.831  1.00  0.00     0.049 A 
ATOM     52  C   UNL     1     -11.234   9.095   3.275  1.00  0.00     0.074 A 
ATOM     53  C   UNL     1      -8.189   6.469   8.255  1.00  0.00     0.029 A 
ATOM     54  N   UNL     1      -9.250   8.284   7.622  1.00  0.00    -0.354 N 
ATOM     55  N   UNL     1     -11.827   8.267   4.089  1.00  0.00    -0.248 NA
ATOM     56  C   UNL     1     -10.425  10.123   3.918  1.00  0.00     0.031 C 
ATOM     57  C   UNL     1      -9.504   6.129   7.828  1.00  0.00     0.029 A 
ATOM     58  C   UNL     1     -10.040   7.248   7.190  1.00  0.00     0.049 A 
ATOM     59  H   UNL     1      -9.531   9.218   7.756  1.00  0.00     0.167 HD
ATOM     60  C   UNL     1     -11.159   8.411   5.299  1.00  0.00     0.074 A 
ATOM     61  C   UNL     1     -10.379   9.635   5.160  1.00  0.00     0.031 C 
ATOM     62  C   UNL     1     -11.077   7.382   6.193  1.00  0.00     0.037 A 
BRANCH  49  63
ATOM     63  C   UNL     1      -6.509   9.886   7.785  1.00  0.00     0.057 A 
ATOM     64  C   UNL     1      -6.845  10.304   9.081  1.00  0.00     0.134 A 
ATOM     65  C   UNL     1      -6.082  10.910   6.910  1.00  0.00     0.134 A 
ATOM     66  F   UNL     1      -7.302   9.428   9.988  1.00  0.00    -0.206 F 
ATOM     67  C   UNL     1      -6.796  11.648   9.467  1.00  0.00     0.040 A 
ATOM     68  C   UNL     1      -5.974  12.245   7.302  1.00  0.00     0.040 A 
ATOM     69  F   UNL     1      -5.845  10.688   5.611  1.00  0.00    -0.206 F 
ATOM     70  C   UNL     1      -6.357  12.623   8.578  1.00  0.00     0.006 A 
ENDBRANCH  49  63
BRANCH  50  71
ATOM     71  C   UNL     1     -11.435   9.755   0.763  1.00  0.00     0.057 A 
ATOM     72  C   UNL     1     -12.635  10.467   0.877  1.00  0.00     0.134 A 
ATOM     73  C   UNL     1     -10.589  10.136  -0.295  1.00  0.00     0.134 A 
ATOM     74  F   UNL     1     -13.484  10.210   1.882  1.00  0.00    -0.206 F 
ATOM     75  C   UNL     1     -12.973  11.500  -0.007  1.00  0.00     0.040 A 
ATOM     76  C   UNL     1     -10.921  11.153  -1.194  1.00  0.00     0.040 A 
ATOM     77  F   UNL     1      -9.372   9.592  -0.446  1.00  0.00    -0.206 F 
ATOM     78  C   UNL     1     -12.113  11.848  -1.045  1.00  0.00     0.006 A 
ENDBRANCH  50  71
BRANCH  62  79
ATOM     79  C   UNL     1     -11.933   6.171   5.947  1.00  0.00     0.057 A 
ATOM     80  C   UNL     1     -11.777   5.327   4.837  1.00  0.00     0.134 A 
ATOM     81  C   UNL     1     -12.827   5.753   6.937  1.00  0.00     0.134 A 
ATOM     82  F   UNL     1     -10.863   5.586   3.894  1.00  0.00    -0.206 F 
ATOM     83  C   UNL     1     -12.515   4.149   4.694  1.00  0.00     0.040 A 
ATOM     84  C   UNL     1     -13.547   4.561   6.824  1.00  0.00     0.040 A 
ATOM     85  F   UNL     1     -12.980   6.474   8.059  1.00  0.00    -0.206 F 
ATOM     86  C   UNL     1     -13.400   3.760   5.693  1.00  0.00     0.006 A 
ENDBRANCH  62  79
ENDBRANCH  36  37
ENDBRANCH  29  31
ENDBRANCH  28  29
ENDBRANCH  27  28
ENDBRANCH   1  27
TORSDOF 15
