REMARK SMILES O=C(Cn1cnc(-c2ccccc2)c1-c1ccccc1)OCCOC(=O)c1ccc(-c2c3nc(c(-c4c(F)cccc4F)c4ccc([nH]4)c(-c4c(F)cccc4F)c4nc(c(-c5c(F)cccc5F)c5ccc2[nH]5)C=C4)C=C3)cc1
REMARK SMILES IDX 22 1 21 2 2 3 1 4 3 5 4 6 5 7 14 8 6 9 7 10 15 11 16 12
REMARK SMILES IDX 20 13 17 14 19 15 18 16 8 17 9 18 13 19 10 20 12 21 11 22
REMARK SMILES IDX 23 23 24 24 25 25 26 26 27 27 28 28 80 29 29 30 79 31 30 32
REMARK SMILES IDX 31 33 32 34 73 35 33 36 78 37 72 38 74 39 34 40 77 41 71 42
REMARK SMILES IDX 70 43 35 45 61 46 44 47 60 48 45 49 48 50 59 51 75 52 46 53
REMARK SMILES IDX 47 54 58 56 76 57 49 58 36 59 37 60 42 61 38 62 39 63 41 64
REMARK SMILES IDX 43 65 40 66 62 67 63 68 68 69 64 70 65 71 67 72 69 73 66 74
REMARK SMILES IDX 50 75 51 76 56 77 52 78 53 79 55 80 57 81 54 82
REMARK H PARENT 74 44 48 55
REMARK Flexibility Score: inf
ROOT
ATOM      1  C   UNL     1       4.206  -0.360  -1.242  1.00  0.00     0.274 C 
ENDROOT
BRANCH   1   2
ATOM      2  O   UNL     1       2.767  -0.351  -1.060  1.00  0.00    -0.461 OA
BRANCH   2   3
ATOM      3  C   UNL     1       2.054  -0.140   0.074  1.00  0.00     0.326 C 
ATOM      4  O   UNL     1       0.832   0.006   0.004  1.00  0.00    -0.250 OA
BRANCH   3   5
ATOM      5  C   UNL     1       2.736   0.016   1.404  1.00  0.00     0.246 C 
BRANCH   5   6
ATOM      6  N   UNL     1       3.598  -1.053   1.867  1.00  0.00    -0.319 N 
ATOM      7  C   UNL     1       4.692  -0.840   2.666  1.00  0.00     0.201 A 
ATOM      8  C   UNL     1       3.440  -2.407   1.707  1.00  0.00     0.076 A 
ATOM      9  N   UNL     1       5.252  -1.969   3.026  1.00  0.00    -0.236 NA
ATOM     10  C   UNL     1       4.488  -2.943   2.436  1.00  0.00     0.096 A 
BRANCH   8  11
ATOM     11  C   UNL     1       2.351  -3.034   0.970  1.00  0.00     0.000 A 
ATOM     12  C   UNL     1       1.177  -3.411   1.621  1.00  0.00     0.010 A 
ATOM     13  C   UNL     1       2.445  -3.188  -0.418  1.00  0.00     0.010 A 
ATOM     14  C   UNL     1       0.084  -3.861   0.879  1.00  0.00     0.001 A 
ATOM     15  C   UNL     1       1.337  -3.581  -1.164  1.00  0.00     0.001 A 
ATOM     16  C   UNL     1       0.154  -3.913  -0.514  1.00  0.00     0.000 A 
ENDBRANCH   8  11
BRANCH  10  17
ATOM     17  C   UNL     1       4.700  -4.357   2.611  1.00  0.00     0.002 A 
ATOM     18  C   UNL     1       4.634  -4.912   3.891  1.00  0.00     0.010 A 
ATOM     19  C   UNL     1       4.861  -5.183   1.494  1.00  0.00     0.010 A 
ATOM     20  C   UNL     1       4.675  -6.297   4.044  1.00  0.00     0.001 A 
ATOM     21  C   UNL     1       4.900  -6.565   1.649  1.00  0.00     0.001 A 
ATOM     22  C   UNL     1       4.796  -7.120   2.923  1.00  0.00     0.000 A 
ENDBRANCH  10  17
ENDBRANCH   5   6
ENDBRANCH   3   5
ENDBRANCH   2   3
ENDBRANCH   1   2
BRANCH   1  23
ATOM     23  C   UNL     1       4.680   0.951  -1.845  1.00  0.00     0.275 C 
BRANCH  23  24
ATOM     24  O   UNL     1       4.450   1.957  -0.875  1.00  0.00    -0.458 OA
BRANCH  24  25
ATOM     25  C   UNL     1       3.209   2.501  -0.868  1.00  0.00     0.338 C 
ATOM     26  O   UNL     1       2.344   2.396  -1.700  1.00  0.00    -0.246 OA
BRANCH  25  27
ATOM     27  C   UNL     1       3.128   3.292   0.368  1.00  0.00     0.060 A 
ATOM     28  C   UNL     1       2.047   4.161   0.484  1.00  0.00     0.016 A 
ATOM     29  C   UNL     1       4.269   3.384   1.182  1.00  0.00     0.016 A 
ATOM     30  C   UNL     1       2.292   5.360   1.098  1.00  0.00     0.010 A 
ATOM     31  C   UNL     1       4.517   4.574   1.782  1.00  0.00     0.010 A 
ATOM     32  C   UNL     1       3.587   5.582   1.573  1.00  0.00    -0.014 A 
BRANCH  32  33
ATOM     33  C   UNL     1       4.032   6.928   1.801  1.00  0.00     0.031 A 
ATOM     34  C   UNL     1       3.633   7.397   3.134  1.00  0.00     0.074 A 
ATOM     35  C   UNL     1       4.829   7.536   0.900  1.00  0.00     0.049 A 
ATOM     36  N   UNL     1       2.696   8.237   3.416  1.00  0.00    -0.248 NA
ATOM     37  C   UNL     1       4.136   6.641   4.296  1.00  0.00     0.031 C 
ATOM     38  C   UNL     1       5.443   6.982  -0.316  1.00  0.00     0.029 A 
ATOM     39  N   UNL     1       5.341   8.793   0.948  1.00  0.00    -0.354 N 
ATOM     40  C   UNL     1       2.698   8.305   4.802  1.00  0.00     0.074 A 
ATOM     41  C   UNL     1       3.358   7.118   5.266  1.00  0.00     0.031 C 
ATOM     42  C   UNL     1       6.417   7.816  -0.751  1.00  0.00     0.029 A 
ATOM     43  C   UNL     1       6.403   9.012   0.068  1.00  0.00     0.049 A 
ATOM     44  H   UNL     1       4.995   9.490   1.551  1.00  0.00     0.167 HD
ATOM     45  C   UNL     1       2.512   9.497   5.425  1.00  0.00     0.037 A 
ATOM     46  C   UNL     1       7.237  10.083   0.128  1.00  0.00     0.037 A 
ATOM     47  C   UNL     1       1.878  10.444   4.537  1.00  0.00     0.049 A 
ATOM     48  C   UNL     1       6.529  11.127   0.926  1.00  0.00     0.074 A 
ATOM     49  C   UNL     1       0.680  10.467   3.848  1.00  0.00     0.029 A 
ATOM     50  N   UNL     1       2.683  11.374   3.922  1.00  0.00    -0.354 N 
ATOM     51  N   UNL     1       5.434  11.713   0.523  1.00  0.00    -0.248 NA
ATOM     52  C   UNL     1       6.731  11.104   2.370  1.00  0.00     0.031 C 
ATOM     53  C   UNL     1       0.989  11.054   2.586  1.00  0.00     0.029 A 
ATOM     54  C   UNL     1       2.331  11.434   2.597  1.00  0.00     0.049 A 
ATOM     55  H   UNL     1       3.389  11.904   4.357  1.00  0.00     0.167 HD
ATOM     56  C   UNL     1       4.616  11.755   1.646  1.00  0.00     0.074 A 
ATOM     57  C   UNL     1       5.489  11.400   2.765  1.00  0.00     0.031 C 
ATOM     58  C   UNL     1       3.254  11.767   1.534  1.00  0.00     0.037 A 
BRANCH  45  59
ATOM     59  C   UNL     1       3.301   9.917   6.642  1.00  0.00     0.057 A 
ATOM     60  C   UNL     1       2.949  11.115   7.280  1.00  0.00     0.134 A 
ATOM     61  C   UNL     1       4.542   9.370   7.042  1.00  0.00     0.134 A 
ATOM     62  F   UNL     1       1.796  11.736   6.988  1.00  0.00    -0.206 F 
ATOM     63  C   UNL     1       3.804  11.763   8.178  1.00  0.00     0.040 A 
ATOM     64  C   UNL     1       5.378   9.982   7.976  1.00  0.00     0.040 A 
ATOM     65  F   UNL     1       5.072   8.272   6.495  1.00  0.00    -0.206 F 
ATOM     66  C   UNL     1       5.028  11.203   8.520  1.00  0.00     0.006 A 
ENDBRANCH  45  59
BRANCH  46  67
ATOM     67  C   UNL     1       8.705  10.102  -0.084  1.00  0.00     0.057 A 
ATOM     68  C   UNL     1       9.405  11.303  -0.268  1.00  0.00     0.134 A 
ATOM     69  C   UNL     1       9.495   8.965   0.165  1.00  0.00     0.134 A 
ATOM     70  F   UNL     1       8.742  12.453  -0.461  1.00  0.00    -0.206 F 
ATOM     71  C   UNL     1      10.806  11.371  -0.197  1.00  0.00     0.040 A 
ATOM     72  C   UNL     1      10.892   9.018   0.236  1.00  0.00     0.040 A 
ATOM     73  F   UNL     1       8.933   7.779   0.439  1.00  0.00    -0.206 F 
ATOM     74  C   UNL     1      11.553  10.227   0.066  1.00  0.00     0.006 A 
ENDBRANCH  46  67
BRANCH  58  75
ATOM     75  C   UNL     1       2.664  11.926   0.156  1.00  0.00     0.057 A 
ATOM     76  C   UNL     1       2.773  10.966  -0.864  1.00  0.00     0.134 A 
ATOM     77  C   UNL     1       1.812  13.006  -0.089  1.00  0.00     0.134 A 
ATOM     78  F   UNL     1       3.488   9.849  -0.687  1.00  0.00    -0.206 F 
ATOM     79  C   UNL     1       2.093  11.094  -2.080  1.00  0.00     0.040 A 
ATOM     80  C   UNL     1       1.102  13.131  -1.286  1.00  0.00     0.040 A 
ATOM     81  F   UNL     1       1.609  13.932   0.861  1.00  0.00    -0.206 F 
ATOM     82  C   UNL     1       1.247  12.177  -2.291  1.00  0.00     0.006 A 
ENDBRANCH  58  75
ENDBRANCH  32  33
ENDBRANCH  25  27
ENDBRANCH  24  25
ENDBRANCH  23  24
ENDBRANCH   1  23
TORSDOF 14
