REMARK SMILES Cc1cc(Br)cc2c1O[C@H](C(F)(F)F)C(C(=O)OCCOC(=O)c1ccc(-c3c4nc(c(-c5c(F)cccc5F)c5ccc([nH]5)c(-c5c(F)cccc5F)c5nc(c(-c6c(F)cccc6F)c6ccc3[nH]6)C=C5)C=C4)cc1)=C2
REMARK SMILES IDX 20 1 19 2 18 3 16 4 17 5 15 6 1 7 2 8 3 9 8 10 4 11 7 12
REMARK SMILES IDX 9 13 5 14 6 15 78 16 10 17 11 18 12 19 13 20 14 21 21 22
REMARK SMILES IDX 22 23 23 24 24 25 25 26 77 27 26 28 76 29 27 30 28 31 29 32
REMARK SMILES IDX 70 33 30 34 75 35 69 36 71 37 31 38 74 39 68 40 67 41 32 43
REMARK SMILES IDX 58 44 41 45 57 46 42 47 45 48 56 49 72 50 43 51 44 52 55 54
REMARK SMILES IDX 73 55 46 56 33 57 34 58 39 59 35 60 36 61 38 62 40 63 37 64
REMARK SMILES IDX 59 65 60 66 65 67 61 68 62 69 64 70 66 71 63 72 47 73 48 74
REMARK SMILES IDX 53 75 49 76 50 77 52 78 54 79 51 80
REMARK H PARENT 71 42 45 53
REMARK Flexibility Score: inf
ROOT
ATOM      1  C   UNL     1       3.224  -8.702   1.438  1.00  0.00     0.275 C 
ENDROOT
BRANCH   1   2
ATOM      2  C   UNL     1       2.361  -8.176   0.292  1.00  0.00     0.275 C 
BRANCH   2   3
ATOM      3  O   UNL     1       2.231  -6.738   0.352  1.00  0.00    -0.459 OA
BRANCH   3   4
ATOM      4  C   UNL     1       1.054  -6.277   0.833  1.00  0.00     0.338 C 
ATOM      5  O   UNL     1       0.103  -6.949   1.203  1.00  0.00    -0.246 OA
BRANCH   4   6
ATOM      6  C   UNL     1       1.064  -4.804   0.895  1.00  0.00     0.087 C 
ATOM      7  C   UNL     1       1.123   0.205  -0.224  1.00  0.00     0.048 C 
ATOM      8  C   UNL     1       0.738  -0.630   0.963  1.00  0.00    -0.007 A 
ATOM      9  C   UNL     1       0.226  -0.010   2.115  1.00  0.00     0.023 A 
ATOM     10  C   UNL     1       0.898  -2.025   0.947  1.00  0.00     0.130 A 
ATOM     11  C   UNL     1      -0.125  -0.772   3.227  1.00  0.00     0.019 A 
ATOM     12  C   UNL     1       0.525  -2.780   2.061  1.00  0.00     0.019 A 
ATOM     13  O   UNL     1       1.445  -2.583  -0.177  1.00  0.00    -0.475 OA
ATOM     14  Br  UNL     1      -0.815   0.073   4.771  1.00  0.00    -0.051 Br
ATOM     15  C   UNL     1       0.021  -2.154   3.207  1.00  0.00     0.027 A 
ATOM     16  C   UNL     1       0.636  -4.225   2.021  1.00  0.00     0.027 C 
ATOM     17  C   UNL     1       1.418  -4.029  -0.340  1.00  0.00     0.316 C 
BRANCH  17  18
ATOM     18  C   UNL     1       0.475  -4.380  -1.502  1.00  0.00     0.430 C 
ATOM     19  F   UNL     1       0.766  -3.662  -2.612  1.00  0.00    -0.167 F 
ATOM     20  F   UNL     1       0.580  -5.687  -1.848  1.00  0.00    -0.167 F 
ATOM     21  F   UNL     1      -0.822  -4.148  -1.194  1.00  0.00    -0.167 F 
ENDBRANCH  17  18
ENDBRANCH   4   6
ENDBRANCH   3   4
ENDBRANCH   2   3
ENDBRANCH   1   2
BRANCH   1  22
ATOM     22  O   UNL     1       2.561  -8.486   2.697  1.00  0.00    -0.458 OA
BRANCH  22  23
ATOM     23  C   UNL     1       3.125  -7.556   3.501  1.00  0.00     0.338 C 
ATOM     24  O   UNL     1       4.146  -6.920   3.304  1.00  0.00    -0.246 OA
BRANCH  23  25
ATOM     25  C   UNL     1       2.277  -7.339   4.684  1.00  0.00     0.060 A 
ATOM     26  C   UNL     1       1.012  -6.794   4.506  1.00  0.00     0.016 A 
ATOM     27  C   UNL     1       2.790  -7.501   5.968  1.00  0.00     0.016 A 
ATOM     28  C   UNL     1       0.318  -6.268   5.590  1.00  0.00     0.010 A 
ATOM     29  C   UNL     1       2.022  -7.107   7.072  1.00  0.00     0.010 A 
ATOM     30  C   UNL     1       0.796  -6.438   6.897  1.00  0.00    -0.014 A 
BRANCH  30  31
ATOM     31  C   UNL     1       0.025  -5.896   8.055  1.00  0.00     0.031 A 
ATOM     32  C   UNL     1       0.676  -4.955   9.039  1.00  0.00     0.074 A 
ATOM     33  C   UNL     1      -1.279  -6.211   8.212  1.00  0.00     0.049 A 
ATOM     34  N   UNL     1       0.219  -4.507  10.182  1.00  0.00    -0.248 NA
ATOM     35  C   UNL     1       2.022  -4.462   8.703  1.00  0.00     0.031 C 
ATOM     36  C   UNL     1      -2.060  -7.067   7.314  1.00  0.00     0.029 A 
ATOM     37  N   UNL     1      -2.190  -5.829   9.168  1.00  0.00    -0.354 N 
ATOM     38  C   UNL     1       1.236  -3.728  10.722  1.00  0.00     0.074 A 
ATOM     39  C   UNL     1       2.341  -3.773   9.790  1.00  0.00     0.031 C 
ATOM     40  C   UNL     1      -3.339  -7.080   7.714  1.00  0.00     0.029 A 
ATOM     41  C   UNL     1      -3.453  -6.332   8.960  1.00  0.00     0.049 A 
ATOM     42  H   UNL     1      -1.959  -5.250   9.930  1.00  0.00     0.167 HD
ATOM     43  C   UNL     1       1.244  -3.034  11.885  1.00  0.00     0.037 A 
ATOM     44  C   UNL     1      -4.572  -6.243   9.703  1.00  0.00     0.037 A 
ATOM     45  C   UNL     1       0.121  -2.940  12.782  1.00  0.00     0.049 A 
ATOM     46  C   UNL     1      -4.522  -5.515  11.014  1.00  0.00     0.074 A 
ATOM     47  C   UNL     1       0.034  -2.263  13.986  1.00  0.00     0.029 A 
ATOM     48  N   UNL     1      -1.118  -3.521  12.559  1.00  0.00    -0.354 N 
ATOM     49  N   UNL     1      -3.527  -4.851  11.549  1.00  0.00    -0.248 NA
ATOM     50  C   UNL     1      -5.737  -5.551  11.841  1.00  0.00     0.031 C 
ATOM     51  C   UNL     1      -1.247  -2.461  14.508  1.00  0.00     0.029 A 
ATOM     52  C   UNL     1      -1.971  -3.227  13.610  1.00  0.00     0.049 A 
ATOM     53  H   UNL     1      -1.356  -4.062  11.772  1.00  0.00     0.167 HD
ATOM     54  C   UNL     1      -3.996  -4.383  12.768  1.00  0.00     0.074 A 
ATOM     55  C   UNL     1      -5.371  -4.823  12.887  1.00  0.00     0.031 C 
ATOM     56  C   UNL     1      -3.340  -3.663  13.709  1.00  0.00     0.037 A 
BRANCH  43  57
ATOM     57  C   UNL     1       2.511  -2.326  12.274  1.00  0.00     0.057 A 
ATOM     58  C   UNL     1       2.933  -1.154  11.634  1.00  0.00     0.134 A 
ATOM     59  C   UNL     1       3.281  -2.787  13.350  1.00  0.00     0.134 A 
ATOM     60  F   UNL     1       2.248  -0.665  10.591  1.00  0.00    -0.206 F 
ATOM     61  C   UNL     1       4.084  -0.475  12.042  1.00  0.00     0.040 A 
ATOM     62  C   UNL     1       4.419  -2.103  13.783  1.00  0.00     0.040 A 
ATOM     63  F   UNL     1       2.928  -3.898  14.014  1.00  0.00    -0.206 F 
ATOM     64  C   UNL     1       4.824  -0.944  13.125  1.00  0.00     0.006 A 
ENDBRANCH  43  57
BRANCH  44  65
ATOM     65  C   UNL     1      -5.826  -6.889   9.234  1.00  0.00     0.057 A 
ATOM     66  C   UNL     1      -6.927  -6.122   8.839  1.00  0.00     0.134 A 
ATOM     67  C   UNL     1      -5.946  -8.282   9.143  1.00  0.00     0.134 A 
ATOM     68  F   UNL     1      -6.884  -4.785   8.925  1.00  0.00    -0.206 F 
ATOM     69  C   UNL     1      -8.100  -6.715   8.368  1.00  0.00     0.040 A 
ATOM     70  C   UNL     1      -7.101  -8.887   8.646  1.00  0.00     0.040 A 
ATOM     71  F   UNL     1      -4.927  -9.075   9.505  1.00  0.00    -0.206 F 
ATOM     72  C   UNL     1      -8.185  -8.102   8.260  1.00  0.00     0.006 A 
ENDBRANCH  44  65
BRANCH  56  73
ATOM     73  C   UNL     1      -4.100  -3.282  14.943  1.00  0.00     0.057 A 
ATOM     74  C   UNL     1      -4.367  -4.211  15.955  1.00  0.00     0.134 A 
ATOM     75  C   UNL     1      -4.497  -1.956  15.155  1.00  0.00     0.134 A 
ATOM     76  F   UNL     1      -4.021  -5.499  15.804  1.00  0.00    -0.206 F 
ATOM     77  C   UNL     1      -5.008  -3.835  17.135  1.00  0.00     0.040 A 
ATOM     78  C   UNL     1      -5.120  -1.564  16.340  1.00  0.00     0.040 A 
ATOM     79  F   UNL     1      -4.263  -1.017  14.226  1.00  0.00    -0.206 F 
ATOM     80  C   UNL     1      -5.377  -2.506  17.334  1.00  0.00     0.006 A 
ENDBRANCH  56  73
ENDBRANCH  30  31
ENDBRANCH  23  25
ENDBRANCH  22  23
ENDBRANCH   1  22
TORSDOF 12
