REMARK SMILES Cc1nn(C)cc1-c1ccnc2nc(CCC(=O)OCCOC(=O)c3ccc(-c4c5nc(c(-c6c(F)cccc6F)c6ccc([nH]6)c(-c6c(F)cccc6F)c6nc(c(-c7c(F)cccc7F)c7ccc4[nH]7)C=C6)C=C5)cc3)nn12
REMARK SMILES IDX 20 1 19 2 17 3 18 4 16 5 15 6 14 7 8 8 9 9 80 10 10 11 12 12
REMARK SMILES IDX 79 13 11 14 13 15 7 16 1 17 2 18 3 19 4 20 6 21 5 22 21 23
REMARK SMILES IDX 22 24 23 25 24 26 25 27 26 28 78 29 27 30 77 31 28 32 29 33
REMARK SMILES IDX 30 34 71 35 31 36 76 37 70 38 72 39 32 40 75 41 69 42 68 43
REMARK SMILES IDX 33 45 59 46 42 47 58 48 43 49 46 50 57 51 73 52 44 53 45 54
REMARK SMILES IDX 56 56 74 57 47 58 34 59 35 60 40 61 36 62 37 63 39 64 41 65
REMARK SMILES IDX 38 66 60 67 61 68 66 69 62 70 63 71 65 72 67 73 64 74 48 75
REMARK SMILES IDX 49 76 54 77 50 78 51 79 53 80 55 81 52 82
REMARK H PARENT 72 44 46 55
REMARK Flexibility Score: inf
ROOT
ATOM      1  C   UNL     1       2.511  -2.395   2.307  1.00  0.00     0.274 C 
ENDROOT
BRANCH   1   2
ATOM      2  O   UNL     1       1.648  -3.545   2.267  1.00  0.00    -0.462 OA
BRANCH   2   3
ATOM      3  C   UNL     1       1.927  -4.579   3.091  1.00  0.00     0.306 C 
ATOM      4  O   UNL     1       2.942  -4.675   3.770  1.00  0.00    -0.252 OA
BRANCH   3   5
ATOM      5  C   UNL     1       0.864  -5.653   3.046  1.00  0.00     0.131 C 
BRANCH   5   6
ATOM      6  C   UNL     1      -0.531  -5.162   3.424  1.00  0.00     0.091 C 
BRANCH   6   7
ATOM      7  C   UNL     1      -1.278  -4.610   2.265  1.00  0.00     0.154 A 
ATOM      8  C   UNL     1      -1.858  -2.404  -0.364  1.00  0.00     0.081 A 
ATOM      9  C   UNL     1      -2.679  -2.629  -1.407  1.00  0.00     0.049 A 
ATOM     10  N   UNL     1      -1.799  -3.372   0.654  1.00  0.00    -0.196 N 
ATOM     11  C   UNL     1      -3.452  -3.898  -1.372  1.00  0.00     0.117 A 
ATOM     12  C   UNL     1      -2.527  -4.569   0.569  1.00  0.00     0.252 A 
ATOM     13  N   UNL     1      -1.069  -3.382   1.794  1.00  0.00    -0.149 NA
ATOM     14  N   UNL     1      -3.391  -4.814  -0.459  1.00  0.00    -0.220 NA
ATOM     15  N   UNL     1      -2.179  -5.357   1.564  1.00  0.00    -0.194 NA
BRANCH   8  16
ATOM     16  C   UNL     1      -1.021  -1.247  -0.309  1.00  0.00     0.041 A 
ATOM     17  C   UNL     1      -2.685   0.714   0.198  1.00  0.00     0.069 C 
ATOM     18  C   UNL     1      -1.358   0.109  -0.072  1.00  0.00     0.069 A 
ATOM     19  N   UNL     1      -0.272   0.894  -0.116  1.00  0.00    -0.178 NA
ATOM     20  N   UNL     1       0.742   0.045  -0.353  1.00  0.00    -0.275 N 
ATOM     21  C   UNL     1       0.342  -1.249  -0.502  1.00  0.00     0.119 A 
ATOM     22  C   UNL     1       2.091   0.554  -0.413  1.00  0.00     0.173 C 
ENDBRANCH   8  16
ENDBRANCH   6   7
ENDBRANCH   5   6
ENDBRANCH   3   5
ENDBRANCH   2   3
ENDBRANCH   1   2
BRANCH   1  23
ATOM     23  C   UNL     1       1.927  -1.301   3.203  1.00  0.00     0.275 C 
BRANCH  23  24
ATOM     24  O   UNL     1       2.276  -1.575   4.571  1.00  0.00    -0.458 OA
BRANCH  24  25
ATOM     25  C   UNL     1       1.293  -2.096   5.337  1.00  0.00     0.338 C 
ATOM     26  O   UNL     1       0.112  -2.211   5.070  1.00  0.00    -0.246 OA
BRANCH  25  27
ATOM     27  C   UNL     1       1.907  -2.690   6.531  1.00  0.00     0.060 A 
ATOM     28  C   UNL     1       1.784  -4.071   6.710  1.00  0.00     0.016 A 
ATOM     29  C   UNL     1       2.574  -1.901   7.469  1.00  0.00     0.016 A 
ATOM     30  C   UNL     1       2.333  -4.676   7.833  1.00  0.00     0.010 A 
ATOM     31  C   UNL     1       3.120  -2.509   8.601  1.00  0.00     0.010 A 
ATOM     32  C   UNL     1       2.992  -3.896   8.791  1.00  0.00    -0.014 A 
BRANCH  32  33
ATOM     33  C   UNL     1       3.481  -4.539  10.029  1.00  0.00     0.031 A 
ATOM     34  C   UNL     1       2.692  -4.394  11.295  1.00  0.00     0.074 A 
ATOM     35  C   UNL     1       4.601  -5.283   9.997  1.00  0.00     0.049 A 
ATOM     36  N   UNL     1       2.941  -4.875  12.486  1.00  0.00    -0.248 NA
ATOM     37  C   UNL     1       1.456  -3.600  11.209  1.00  0.00     0.031 C 
ATOM     38  C   UNL     1       5.424  -5.518   8.811  1.00  0.00     0.029 A 
ATOM     39  N   UNL     1       5.232  -5.984  10.991  1.00  0.00    -0.354 N 
ATOM     40  C   UNL     1       1.899  -4.438  13.292  1.00  0.00     0.074 A 
ATOM     41  C   UNL     1       1.031  -3.629  12.463  1.00  0.00     0.031 C 
ATOM     42  C   UNL     1       6.451  -6.317   9.146  1.00  0.00     0.029 A 
ATOM     43  C   UNL     1       6.371  -6.624  10.571  1.00  0.00     0.049 A 
ATOM     44  H   UNL     1       4.900  -6.024  11.917  1.00  0.00     0.167 HD
ATOM     45  C   UNL     1       1.683  -4.697  14.603  1.00  0.00     0.037 A 
ATOM     46  C   UNL     1       7.252  -7.367  11.266  1.00  0.00     0.037 A 
ATOM     47  C   UNL     1       2.553  -5.502  15.420  1.00  0.00     0.049 A 
ATOM     48  C   UNL     1       7.013  -7.601  12.731  1.00  0.00     0.074 A 
ATOM     49  C   UNL     1       2.429  -5.825  16.760  1.00  0.00     0.029 A 
ATOM     50  N   UNL     1       3.716  -6.111  14.969  1.00  0.00    -0.354 N 
ATOM     51  N   UNL     1       6.023  -7.189  13.486  1.00  0.00    -0.248 NA
ATOM     52  C   UNL     1       8.014  -8.409  13.441  1.00  0.00     0.031 C 
ATOM     53  C   UNL     1       3.536  -6.598  17.128  1.00  0.00     0.029 A 
ATOM     54  C   UNL     1       4.327  -6.795  16.007  1.00  0.00     0.049 A 
ATOM     55  H   UNL     1       4.056  -6.064  14.046  1.00  0.00     0.167 HD
ATOM     56  C   UNL     1       6.267  -7.704  14.752  1.00  0.00     0.074 A 
ATOM     57  C   UNL     1       7.491  -8.475  14.657  1.00  0.00     0.031 C 
ATOM     58  C   UNL     1       5.546  -7.554  15.890  1.00  0.00     0.037 A 
BRANCH  45  59
ATOM     59  C   UNL     1       0.470  -4.077  15.233  1.00  0.00     0.057 A 
ATOM     60  C   UNL     1      -0.826  -4.523  14.940  1.00  0.00     0.134 A 
ATOM     61  C   UNL     1       0.600  -3.024  16.146  1.00  0.00     0.134 A 
ATOM     62  F   UNL     1      -1.021  -5.516  14.060  1.00  0.00    -0.206 F 
ATOM     63  C   UNL     1      -1.950  -3.925  15.513  1.00  0.00     0.040 A 
ATOM     64  C   UNL     1      -0.515  -2.434  16.744  1.00  0.00     0.040 A 
ATOM     65  F   UNL     1       1.812  -2.549  16.471  1.00  0.00    -0.206 F 
ATOM     66  C   UNL     1      -1.795  -2.880  16.422  1.00  0.00     0.006 A 
ENDBRANCH  45  59
BRANCH  46  67
ATOM     67  C   UNL     1       8.434  -7.947  10.583  1.00  0.00     0.057 A 
ATOM     68  C   UNL     1       8.543  -9.326  10.370  1.00  0.00     0.134 A 
ATOM     69  C   UNL     1       9.484  -7.139  10.131  1.00  0.00     0.134 A 
ATOM     70  F   UNL     1       7.579 -10.153  10.799  1.00  0.00    -0.206 F 
ATOM     71  C   UNL     1       9.660  -9.883   9.744  1.00  0.00     0.040 A 
ATOM     72  C   UNL     1      10.596  -7.679   9.483  1.00  0.00     0.040 A 
ATOM     73  F   UNL     1       9.439  -5.810  10.304  1.00  0.00    -0.206 F 
ATOM     74  C   UNL     1      10.688  -9.057   9.294  1.00  0.00     0.006 A 
ENDBRANCH  46  67
BRANCH  58  75
ATOM     75  C   UNL     1       6.054  -8.264  17.111  1.00  0.00     0.057 A 
ATOM     76  C   UNL     1       7.199  -7.834  17.793  1.00  0.00     0.134 A 
ATOM     77  C   UNL     1       5.384  -9.387  17.612  1.00  0.00     0.134 A 
ATOM     78  F   UNL     1       7.894  -6.773  17.355  1.00  0.00    -0.206 F 
ATOM     79  C   UNL     1       7.679  -8.515  18.913  1.00  0.00     0.040 A 
ATOM     80  C   UNL     1       5.839 -10.061  18.746  1.00  0.00     0.040 A 
ATOM     81  F   UNL     1       4.276  -9.845  17.010  1.00  0.00    -0.206 F 
ATOM     82  C   UNL     1       6.995  -9.630  19.394  1.00  0.00     0.006 A 
ENDBRANCH  58  75
ENDBRANCH  32  33
ENDBRANCH  25  27
ENDBRANCH  24  25
ENDBRANCH  23  24
ENDBRANCH   1  23
TORSDOF 14
