REMARK SMILES Cc1ccccc1OCC(=O)N1C[C@H](O)C[C@H]1C(=O)OCCOC(=O)c1ccc(-c2c3nc(c(-c4c(F)cccc4F)c4ccc([nH]4)c(-c4c(F)cccc4F)c4nc(c(-c5c(F)cccc5F)c5ccc2[nH]5)C=C4)C=C3)cc1
REMARK SMILES IDX 21 1 20 2 18 3 19 4 17 5 12 6 13 7 14 8 16 9 10 10 11 11
REMARK SMILES IDX 9 12 8 13 7 14 1 15 2 16 3 17 4 18 6 19 5 20 15 21 22 23
REMARK SMILES IDX 23 24 24 25 25 26 26 27 27 28 79 29 28 30 78 31 29 32 30 33
REMARK SMILES IDX 31 34 72 35 32 36 77 37 71 38 73 39 33 40 76 41 70 42 69 43
REMARK SMILES IDX 34 45 60 46 43 47 59 48 44 49 47 50 58 51 74 52 45 53 46 54
REMARK SMILES IDX 57 56 75 57 48 58 35 59 36 60 41 61 37 62 38 63 40 64 42 65
REMARK SMILES IDX 39 66 61 67 62 68 67 69 63 70 64 71 66 72 68 73 65 74 49 75
REMARK SMILES IDX 50 76 55 77 51 78 52 79 54 80 56 81 53 82
REMARK H PARENT 15 22 73 44 47 55
REMARK Flexibility Score: inf
ROOT
ATOM      1  C   UNL     1       3.505  -1.452   2.587  1.00  0.00     0.274 C 
ENDROOT
BRANCH   1   2
ATOM      2  O   UNL     1       3.109  -0.086   2.493  1.00  0.00    -0.461 OA
BRANCH   2   3
ATOM      3  C   UNL     1       2.243   0.347   3.457  1.00  0.00     0.329 C 
ATOM      4  O   UNL     1       1.724  -0.379   4.276  1.00  0.00    -0.250 OA
BRANCH   3   5
ATOM      5  C   UNL     1       2.149   1.891   3.441  1.00  0.00     0.198 C 
ATOM      6  N   UNL     1       1.672   2.394   2.155  1.00  0.00    -0.323 N 
ATOM      7  C   UNL     1       0.392   3.067   2.309  1.00  0.00     0.152 C 
ATOM      8  C   UNL     1       0.470   3.591   3.742  1.00  0.00     0.136 C 
ATOM      9  C   UNL     1       1.174   2.459   4.482  1.00  0.00     0.070 C 
BRANCH   6  10
ATOM     10  C   UNL     1       2.495   2.428   1.055  1.00  0.00     0.261 C 
ATOM     11  O   UNL     1       3.705   2.219   1.163  1.00  0.00    -0.271 OA
BRANCH  10  12
ATOM     12  C   UNL     1       1.896   2.806  -0.304  1.00  0.00     0.329 C 
BRANCH  12  13
ATOM     13  O   UNL     1       0.618   2.387  -0.730  1.00  0.00    -0.484 OA
BRANCH  13  14
ATOM     14  C   UNL     1       0.154   1.129  -0.484  1.00  0.00     0.122 A 
ATOM     15  C   UNL     1       2.291  -0.274  -0.840  1.00  0.00     0.048 C 
ATOM     16  C   UNL     1       0.846  -0.088  -0.487  1.00  0.00    -0.009 A 
ATOM     17  C   UNL     1       0.133  -1.266  -0.163  1.00  0.00     0.007 A 
ATOM     18  C   UNL     1      -1.239  -1.249   0.085  1.00  0.00     0.001 A 
ATOM     19  C   UNL     1      -1.235   1.124  -0.266  1.00  0.00     0.047 A 
ATOM     20  C   UNL     1      -1.930  -0.050   0.017  1.00  0.00     0.004 A 
ENDBRANCH  13  14
ENDBRANCH  12  13
ENDBRANCH  10  12
ENDBRANCH   6  10
BRANCH   8  21
ATOM     21  O   UNL     1       1.268   4.775   3.802  1.00  0.00    -0.391 OA
ATOM     22  H   UNL     1       2.149   4.589   3.442  1.00  0.00     0.211 HD
ENDBRANCH   8  21
ENDBRANCH   3   5
ENDBRANCH   2   3
ENDBRANCH   1   2
BRANCH   1  23
ATOM     23  C   UNL     1       4.687  -1.768   1.651  1.00  0.00     0.275 C 
BRANCH  23  24
ATOM     24  O   UNL     1       5.519  -0.676   1.150  1.00  0.00    -0.458 OA
BRANCH  24  25
ATOM     25  C   UNL     1       6.213   0.285   1.813  1.00  0.00     0.338 C 
ATOM     26  O   UNL     1       6.937   1.095   1.252  1.00  0.00    -0.246 OA
BRANCH  25  27
ATOM     27  C   UNL     1       6.062   0.332   3.270  1.00  0.00     0.060 A 
ATOM     28  C   UNL     1       5.660   1.521   3.901  1.00  0.00     0.016 A 
ATOM     29  C   UNL     1       6.245  -0.837   3.989  1.00  0.00     0.016 A 
ATOM     30  C   UNL     1       5.297   1.502   5.249  1.00  0.00     0.010 A 
ATOM     31  C   UNL     1       5.777  -0.884   5.277  1.00  0.00     0.010 A 
ATOM     32  C   UNL     1       5.318   0.282   5.921  1.00  0.00    -0.014 A 
BRANCH  32  33
ATOM     33  C   UNL     1       5.077   0.096   7.347  1.00  0.00     0.031 A 
ATOM     34  C   UNL     1       3.744   0.107   7.978  1.00  0.00     0.074 A 
ATOM     35  C   UNL     1       6.186  -0.301   8.004  1.00  0.00     0.049 A 
ATOM     36  N   UNL     1       3.538  -0.028   9.242  1.00  0.00    -0.248 NA
ATOM     37  C   UNL     1       2.509   0.319   7.244  1.00  0.00     0.031 C 
ATOM     38  C   UNL     1       6.344  -0.966   9.283  1.00  0.00     0.029 A 
ATOM     39  N   UNL     1       7.494   0.014   7.612  1.00  0.00    -0.354 N 
ATOM     40  C   UNL     1       2.182  -0.189   9.453  1.00  0.00     0.074 A 
ATOM     41  C   UNL     1       1.579   0.137   8.189  1.00  0.00     0.031 C 
ATOM     42  C   UNL     1       7.604  -0.758   9.711  1.00  0.00     0.029 A 
ATOM     43  C   UNL     1       8.204   0.210   8.798  1.00  0.00     0.049 A 
ATOM     44  H   UNL     1       7.840   0.083   6.693  1.00  0.00     0.167 HD
ATOM     45  C   UNL     1       1.773  -0.701  10.650  1.00  0.00     0.037 A 
ATOM     46  C   UNL     1       8.555   1.488   9.137  1.00  0.00     0.037 A 
ATOM     47  C   UNL     1       2.894  -0.668  11.590  1.00  0.00     0.049 A 
ATOM     48  C   UNL     1       7.921   1.893  10.442  1.00  0.00     0.074 A 
ATOM     49  C   UNL     1       3.819  -1.622  11.975  1.00  0.00     0.029 A 
ATOM     50  N   UNL     1       3.402   0.567  11.985  1.00  0.00    -0.354 N 
ATOM     51  N   UNL     1       6.729   1.526  10.833  1.00  0.00    -0.248 NA
ATOM     52  C   UNL     1       8.643   2.666  11.444  1.00  0.00     0.031 C 
ATOM     53  C   UNL     1       4.958  -0.933  12.473  1.00  0.00     0.029 A 
ATOM     54  C   UNL     1       4.698   0.429  12.441  1.00  0.00     0.049 A 
ATOM     55  H   UNL     1       2.908   1.417  11.945  1.00  0.00     0.167 HD
ATOM     56  C   UNL     1       6.554   1.919  12.134  1.00  0.00     0.074 A 
ATOM     57  C   UNL     1       7.767   2.651  12.461  1.00  0.00     0.031 C 
ATOM     58  C   UNL     1       5.462   1.585  12.884  1.00  0.00     0.037 A 
BRANCH  45  59
ATOM     59  C   UNL     1       0.478  -1.449  10.934  1.00  0.00     0.057 A 
ATOM     60  C   UNL     1       0.334  -2.171  12.142  1.00  0.00     0.134 A 
ATOM     61  C   UNL     1      -0.603  -1.619  10.048  1.00  0.00     0.134 A 
ATOM     62  F   UNL     1       1.249  -2.095  13.119  1.00  0.00    -0.206 F 
ATOM     63  C   UNL     1      -0.746  -3.030  12.408  1.00  0.00     0.040 A 
ATOM     64  C   UNL     1      -1.695  -2.465  10.307  1.00  0.00     0.040 A 
ATOM     65  F   UNL     1      -0.675  -0.991   8.873  1.00  0.00    -0.206 F 
ATOM     66  C   UNL     1      -1.763  -3.190  11.483  1.00  0.00     0.006 A 
ENDBRANCH  45  59
BRANCH  46  67
ATOM     67  C   UNL     1       8.761   2.389   7.955  1.00  0.00     0.057 A 
ATOM     68  C   UNL     1       9.697   2.013   6.968  1.00  0.00     0.134 A 
ATOM     69  C   UNL     1       7.854   3.394   7.600  1.00  0.00     0.134 A 
ATOM     70  F   UNL     1      10.601   1.054   7.228  1.00  0.00    -0.206 F 
ATOM     71  C   UNL     1       9.657   2.520   5.665  1.00  0.00     0.040 A 
ATOM     72  C   UNL     1       7.820   3.927   6.301  1.00  0.00     0.040 A 
ATOM     73  F   UNL     1       6.930   3.822   8.470  1.00  0.00    -0.206 F 
ATOM     74  C   UNL     1       8.696   3.464   5.321  1.00  0.00     0.006 A 
ENDBRANCH  46  67
BRANCH  58  75
ATOM     75  C   UNL     1       5.082   2.253  14.180  1.00  0.00     0.057 A 
ATOM     76  C   UNL     1       5.413   3.580  14.494  1.00  0.00     0.134 A 
ATOM     77  C   UNL     1       4.213   1.619  15.095  1.00  0.00     0.134 A 
ATOM     78  F   UNL     1       6.121   4.346  13.653  1.00  0.00    -0.206 F 
ATOM     79  C   UNL     1       4.978   4.205  15.667  1.00  0.00     0.040 A 
ATOM     80  C   UNL     1       3.723   2.255  16.238  1.00  0.00     0.040 A 
ATOM     81  F   UNL     1       3.773   0.367  14.903  1.00  0.00    -0.206 F 
ATOM     82  C   UNL     1       4.121   3.547  16.539  1.00  0.00     0.006 A 
ENDBRANCH  58  75
ENDBRANCH  32  33
ENDBRANCH  25  27
ENDBRANCH  24  25
ENDBRANCH  23  24
ENDBRANCH   1  23
TORSDOF 16
