REMARK SMILES CCCCC(=O)Nc1ccc(C(=O)N2CCC[C@H](C(=O)OCCOC(=O)c3ccc(-c4c5nc(c(-c6c(F)cccc6F)c6ccc([nH]6)c(-c6c(F)cccc6F)c6nc(c(-c7c(F)cccc7F)c7ccc4[nH]7)C=C6)C=C5)cc3)C2)cc1
REMARK SMILES IDX 19 1 20 2 18 3 14 4 15 5 81 6 16 7 17 8 12 9 13 10 11 11
REMARK SMILES IDX 8 12 9 13 83 14 10 15 82 16 7 17 5 18 6 19 4 21 3 22 2 23
REMARK SMILES IDX 1 24 21 25 22 26 23 27 24 28 25 29 26 30 27 31 28 32 80 33
REMARK SMILES IDX 29 34 79 35 30 36 31 37 32 38 73 39 33 40 78 41 72 42 74 43
REMARK SMILES IDX 34 44 77 45 71 46 70 47 35 49 61 50 44 51 60 52 45 53 48 54
REMARK SMILES IDX 59 55 75 56 46 57 47 58 58 60 76 61 49 62 36 63 37 64 42 65
REMARK SMILES IDX 38 66 39 67 41 68 43 69 40 70 62 71 63 72 68 73 64 74 65 75
REMARK SMILES IDX 67 76 69 77 66 78 50 79 51 80 56 81 52 82 53 83 55 84 57 85
REMARK SMILES IDX 54 86
REMARK H PARENT 7 20 74 48 48 59
REMARK Flexibility Score: inf
ROOT
ATOM      1  C   UNL     1       1.655  -4.619  -3.832  1.00  0.00     0.310 C 
ATOM      2  O   UNL     1       0.632  -5.213  -3.502  1.00  0.00    -0.252 OA
ENDROOT
BRANCH   1   3
ATOM      3  C   UNL     1       2.729  -4.257  -2.819  1.00  0.00     0.119 C 
ATOM      4  N   UNL     1       2.086  -1.916  -2.408  1.00  0.00    -0.338 N 
ATOM      5  C   UNL     1       3.365  -1.406  -2.891  1.00  0.00     0.120 C 
ATOM      6  C   UNL     1       2.126  -3.256  -1.841  1.00  0.00     0.135 C 
ATOM      7  C   UNL     1       4.025  -2.344  -3.895  1.00  0.00     0.022 C 
ATOM      8  C   UNL     1       4.070  -3.783  -3.383  1.00  0.00     0.019 C 
BRANCH   4   9
ATOM      9  C   UNL     1       0.913  -1.327  -2.879  1.00  0.00     0.253 C 
ATOM     10  O   UNL     1       0.819  -0.909  -4.032  1.00  0.00    -0.269 OA
BRANCH   9  11
ATOM     11  C   UNL     1      -0.141  -0.945  -1.879  1.00  0.00     0.040 A 
ATOM     12  C   UNL     1      -1.665   0.276   0.125  1.00  0.00     0.041 A 
ATOM     13  C   UNL     1      -1.631   0.846  -1.141  1.00  0.00     0.027 A 
ATOM     14  C   UNL     1      -1.092  -0.969   0.350  1.00  0.00     0.027 A 
ATOM     15  C   UNL     1      -0.862   0.235  -2.140  1.00  0.00     0.016 A 
ATOM     16  C   UNL     1      -0.323  -1.571  -0.644  1.00  0.00     0.016 A 
BRANCH  12  17
ATOM     17  N   UNL     1      -2.219   0.968   1.206  1.00  0.00    -0.326 N 
ATOM     18  C   UNL     1      -1.516   1.262   2.354  1.00  0.00     0.224 C 
ATOM     19  O   UNL     1      -2.091   1.287   3.442  1.00  0.00    -0.275 OA
ATOM     20  H   UNL     1      -3.157   1.259   1.144  1.00  0.00     0.169 HD
BRANCH  18  21
ATOM     21  C   UNL     1      -0.057   1.694   2.205  1.00  0.00     0.100 C 
BRANCH  21  22
ATOM     22  C   UNL     1       0.998   0.749   2.787  1.00  0.00     0.010 C 
BRANCH  22  23
ATOM     23  C   UNL     1       1.817  -0.100   1.804  1.00  0.00    -0.003 C 
ATOM     24  C   UNL     1       2.346   0.627   0.577  1.00  0.00     0.004 C 
ENDBRANCH  22  23
ENDBRANCH  21  22
ENDBRANCH  18  21
ENDBRANCH  12  17
ENDBRANCH   9  11
ENDBRANCH   4   9
ENDBRANCH   1   3
BRANCH   1  25
ATOM     25  O   UNL     1       1.942  -4.214  -5.089  1.00  0.00    -0.462 OA
BRANCH  25  26
ATOM     26  C   UNL     1       0.953  -4.476  -6.098  1.00  0.00     0.274 C 
BRANCH  26  27
ATOM     27  C   UNL     1       1.352  -5.680  -6.953  1.00  0.00     0.275 C 
BRANCH  27  28
ATOM     28  O   UNL     1       1.314  -6.904  -6.194  1.00  0.00    -0.458 OA
BRANCH  28  29
ATOM     29  C   UNL     1       2.478  -7.242  -5.593  1.00  0.00     0.338 C 
ATOM     30  O   UNL     1       3.552  -6.671  -5.671  1.00  0.00    -0.246 OA
BRANCH  29  31
ATOM     31  C   UNL     1       2.244  -8.351  -4.659  1.00  0.00     0.060 A 
ATOM     32  C   UNL     1       2.380  -8.087  -3.295  1.00  0.00     0.016 A 
ATOM     33  C   UNL     1       1.988  -9.646  -5.106  1.00  0.00     0.016 A 
ATOM     34  C   UNL     1       2.267  -9.108  -2.363  1.00  0.00     0.010 A 
ATOM     35  C   UNL     1       1.874 -10.679  -4.169  1.00  0.00     0.010 A 
ATOM     36  C   UNL     1       2.025 -10.415  -2.795  1.00  0.00    -0.014 A 
BRANCH  36  37
ATOM     37  C   UNL     1       2.006 -11.505  -1.796  1.00  0.00     0.031 A 
ATOM     38  C   UNL     1       3.179 -12.432  -1.690  1.00  0.00     0.074 A 
ATOM     39  C   UNL     1       0.967 -11.618  -0.948  1.00  0.00     0.049 A 
ATOM     40  N   UNL     1       3.331 -13.491  -0.940  1.00  0.00    -0.248 NA
ATOM     41  C   UNL     1       4.339 -12.123  -2.542  1.00  0.00     0.031 C 
ATOM     42  C   UNL     1      -0.193 -10.726  -0.910  1.00  0.00     0.029 A 
ATOM     43  N   UNL     1       0.726 -12.527   0.049  1.00  0.00    -0.354 N 
ATOM     44  C   UNL     1       4.588 -13.993  -1.247  1.00  0.00     0.074 A 
ATOM     45  C   UNL     1       5.157 -13.125  -2.256  1.00  0.00     0.031 C 
ATOM     46  C   UNL     1      -1.022 -11.132   0.065  1.00  0.00     0.029 A 
ATOM     47  C   UNL     1      -0.476 -12.336   0.684  1.00  0.00     0.049 A 
ATOM     48  H   UNL     1       1.353 -13.247   0.286  1.00  0.00     0.167 HD
ATOM     49  C   UNL     1       5.208 -15.080  -0.732  1.00  0.00     0.037 A 
ATOM     50  C   UNL     1      -1.080 -13.071   1.636  1.00  0.00     0.037 A 
ATOM     51  C   UNL     1       4.643 -15.926   0.286  1.00  0.00     0.049 A 
ATOM     52  C   UNL     1      -0.398 -14.308   2.146  1.00  0.00     0.074 A 
ATOM     53  C   UNL     1       5.187 -17.055   0.872  1.00  0.00     0.029 A 
ATOM     54  N   UNL     1       3.402 -15.728   0.874  1.00  0.00    -0.354 N 
ATOM     55  N   UNL     1       0.775 -14.797   1.823  1.00  0.00    -0.248 NA
ATOM     56  C   UNL     1      -1.128 -15.103   3.143  1.00  0.00     0.031 C 
ATOM     57  C   UNL     1       4.261 -17.559   1.793  1.00  0.00     0.029 A 
ATOM     58  C   UNL     1       3.156 -16.722   1.805  1.00  0.00     0.049 A 
ATOM     59  H   UNL     1       2.788 -14.989   0.660  1.00  0.00     0.167 HD
ATOM     60  C   UNL     1       0.930 -15.948   2.584  1.00  0.00     0.074 A 
ATOM     61  C   UNL     1      -0.262 -16.075   3.398  1.00  0.00     0.031 C 
ATOM     62  C   UNL     1       1.963 -16.826   2.604  1.00  0.00     0.037 A 
BRANCH  49  63
ATOM     63  C   UNL     1       6.552 -15.434  -1.292  1.00  0.00     0.057 A 
ATOM     64  C   UNL     1       7.705 -14.709  -0.968  1.00  0.00     0.134 A 
ATOM     65  C   UNL     1       6.694 -16.528  -2.155  1.00  0.00     0.134 A 
ATOM     66  F   UNL     1       7.631 -13.639  -0.162  1.00  0.00    -0.206 F 
ATOM     67  C   UNL     1       8.951 -15.049  -1.497  1.00  0.00     0.040 A 
ATOM     68  C   UNL     1       7.938 -16.890  -2.674  1.00  0.00     0.040 A 
ATOM     69  F   UNL     1       5.628 -17.263  -2.504  1.00  0.00    -0.206 F 
ATOM     70  C   UNL     1       9.071 -16.147  -2.349  1.00  0.00     0.006 A 
ENDBRANCH  49  63
BRANCH  50  71
ATOM     71  C   UNL     1      -2.417 -12.674   2.142  1.00  0.00     0.057 A 
ATOM     72  C   UNL     1      -2.584 -12.186   3.442  1.00  0.00     0.134 A 
ATOM     73  C   UNL     1      -3.559 -12.780   1.338  1.00  0.00     0.134 A 
ATOM     74  F   UNL     1      -1.530 -12.084   4.265  1.00  0.00    -0.206 F 
ATOM     75  C   UNL     1      -3.841 -11.825   3.929  1.00  0.00     0.040 A 
ATOM     76  C   UNL     1      -4.818 -12.400   1.804  1.00  0.00     0.040 A 
ATOM     77  F   UNL     1      -3.463 -13.242   0.083  1.00  0.00    -0.206 F 
ATOM     78  C   UNL     1      -4.962 -11.926   3.106  1.00  0.00     0.006 A 
ENDBRANCH  50  71
BRANCH  62  79
ATOM     79  C   UNL     1       1.853 -17.981   3.551  1.00  0.00     0.057 A 
ATOM     80  C   UNL     1       1.020 -19.074   3.281  1.00  0.00     0.134 A 
ATOM     81  C   UNL     1       2.611 -18.015   4.728  1.00  0.00     0.134 A 
ATOM     82  F   UNL     1       0.259 -19.093   2.177  1.00  0.00    -0.206 F 
ATOM     83  C   UNL     1       0.932 -20.154   4.160  1.00  0.00     0.040 A 
ATOM     84  C   UNL     1       2.546 -19.098   5.604  1.00  0.00     0.040 A 
ATOM     85  F   UNL     1       3.431 -17.000   5.038  1.00  0.00    -0.206 F 
ATOM     86  C   UNL     1       1.701 -20.170   5.323  1.00  0.00     0.006 A 
ENDBRANCH  62  79
ENDBRANCH  36  37
ENDBRANCH  29  31
ENDBRANCH  28  29
ENDBRANCH  27  28
ENDBRANCH  26  27
ENDBRANCH  25  26
ENDBRANCH   1  25
TORSDOF 17
