REMARK SMILES Cc1nc(-c2ccccc2)sc1C(=O)N[C@@H](CC1=c2ccccc2=NC1)C(=O)OCCOC(=O)c1ccc(-c2c3nc(c(-c4c(F)cccc4F)c4ccc([nH]4)c(-c4c(F)cccc4F)c4nc(c(-c5c(F)cccc5F)c5ccc2[nH]5)C=C4)C=C3)cc1
REMARK SMILES IDX 30 1 29 2 27 3 28 4 16 5 15 6 13 7 14 8 12 10 1 11 2 12 3 13
REMARK SMILES IDX 4 14 11 15 5 16 6 17 10 18 7 19 9 20 8 21 17 22 18 23 19 24
REMARK SMILES IDX 26 25 20 26 24 27 25 28 21 29 23 30 22 31 31 32 32 33 33 34
REMARK SMILES IDX 34 35 35 36 36 37 88 38 37 39 87 40 38 41 39 42 40 43 81 44
REMARK SMILES IDX 41 45 86 46 80 47 82 48 42 49 85 50 79 51 78 52 43 54 69 55
REMARK SMILES IDX 52 56 68 57 53 58 56 59 67 60 83 61 54 62 55 63 66 65 84 66
REMARK SMILES IDX 57 67 44 68 45 69 50 70 46 71 47 72 49 73 51 74 48 75 70 76
REMARK SMILES IDX 71 77 76 78 72 79 73 80 75 81 77 82 74 83 58 84 59 85 64 86
REMARK SMILES IDX 60 87 61 88 63 89 65 90 62 91
REMARK H PARENT 15 9 82 53 56 64
REMARK Flexibility Score: inf
ROOT
ATOM      1  C   UNL     1      -4.685  -3.975   3.025  1.00  0.00     0.274 C 
ENDROOT
BRANCH   1   2
ATOM      2  O   UNL     1      -3.819  -3.622   1.929  1.00  0.00    -0.461 OA
BRANCH   2   3
ATOM      3  C   UNL     1      -4.312  -2.704   1.057  1.00  0.00     0.329 C 
ATOM      4  O   UNL     1      -5.445  -2.235   1.090  1.00  0.00    -0.250 OA
BRANCH   3   5
ATOM      5  C   UNL     1      -3.314  -2.331  -0.047  1.00  0.00     0.196 C 
BRANCH   5   6
ATOM      6  N   UNL     1      -1.935  -2.751   0.164  1.00  0.00    -0.338 N 
ATOM      7  C   UNL     1      -0.719  -2.169  -0.094  1.00  0.00     0.264 C 
ATOM      8  O   UNL     1       0.234  -2.948   0.030  1.00  0.00    -0.268 OA
ATOM      9  H   UNL     1      -1.860  -3.640   0.580  1.00  0.00     0.164 HD
BRANCH   7  10
ATOM     10  C   UNL     1      -0.528  -0.759  -0.428  1.00  0.00     0.115 A 
ATOM     11  C   UNL     1      -2.507   0.283  -1.825  1.00  0.00     0.068 C 
ATOM     12  C   UNL     1      -1.226   0.260  -1.075  1.00  0.00     0.062 A 
ATOM     13  N   UNL     1      -0.599   1.497  -1.067  1.00  0.00    -0.241 NA
ATOM     14  C   UNL     1       0.617   1.419  -0.587  1.00  0.00     0.124 A 
ATOM     15  S   UNL     1       1.036  -0.108   0.035  1.00  0.00    -0.108 S 
BRANCH  14  16
ATOM     16  C   UNL     1       1.536   2.553  -0.550  1.00  0.00     0.010 A 
ATOM     17  C   UNL     1       1.157   3.714   0.135  1.00  0.00     0.011 A 
ATOM     18  C   UNL     1       2.737   2.552  -1.272  1.00  0.00     0.011 A 
ATOM     19  C   UNL     1       1.973   4.845   0.127  1.00  0.00     0.001 A 
ATOM     20  C   UNL     1       3.544   3.694  -1.298  1.00  0.00     0.001 A 
ATOM     21  C   UNL     1       3.164   4.836  -0.593  1.00  0.00     0.000 A 
ENDBRANCH  14  16
ENDBRANCH   7  10
ENDBRANCH   5   6
BRANCH   5  22
ATOM     22  C   UNL     1      -3.837  -2.846  -1.405  1.00  0.00     0.070 C 
BRANCH  22  23
ATOM     23  C   UNL     1      -4.031  -4.329  -1.466  1.00  0.00    -0.037 C 
ATOM     24  C   UNL     1      -3.115  -5.270  -1.681  1.00  0.00     0.001 A 
ATOM     25  C   UNL     1      -5.383  -4.944  -1.260  1.00  0.00     0.174 C 
ATOM     26  C   UNL     1      -1.713  -5.282  -1.947  1.00  0.00     0.010 A 
ATOM     27  C   UNL     1      -3.882  -6.513  -1.500  1.00  0.00     0.065 A 
ATOM     28  N   UNL     1      -5.155  -6.408  -1.269  1.00  0.00    -0.280 NA
ATOM     29  C   UNL     1      -1.076  -6.463  -1.989  1.00  0.00     0.001 A 
ATOM     30  C   UNL     1      -3.110  -7.772  -1.560  1.00  0.00     0.028 A 
ATOM     31  C   UNL     1      -1.786  -7.714  -1.779  1.00  0.00     0.002 A 
ENDBRANCH  22  23
ENDBRANCH   5  22
ENDBRANCH   3   5
ENDBRANCH   2   3
ENDBRANCH   1   2
BRANCH   1  32
ATOM     32  C   UNL     1      -4.077  -3.530   4.355  1.00  0.00     0.275 C 
BRANCH  32  33
ATOM     33  O   UNL     1      -3.762  -2.124   4.337  1.00  0.00    -0.458 OA
BRANCH  33  34
ATOM     34  C   UNL     1      -2.472  -1.844   4.045  1.00  0.00     0.338 C 
ATOM     35  O   UNL     1      -1.570  -2.636   3.814  1.00  0.00    -0.246 OA
BRANCH  34  36
ATOM     36  C   UNL     1      -2.283  -0.393   3.943  1.00  0.00     0.060 A 
ATOM     37  C   UNL     1      -2.359   0.193   2.682  1.00  0.00     0.016 A 
ATOM     38  C   UNL     1      -1.879   0.354   5.047  1.00  0.00     0.016 A 
ATOM     39  C   UNL     1      -1.981   1.520   2.504  1.00  0.00     0.010 A 
ATOM     40  C   UNL     1      -1.544   1.704   4.876  1.00  0.00     0.010 A 
ATOM     41  C   UNL     1      -1.565   2.292   3.598  1.00  0.00    -0.014 A 
BRANCH  41  42
ATOM     42  C   UNL     1      -1.083   3.681   3.378  1.00  0.00     0.031 A 
ATOM     43  C   UNL     1       0.363   4.027   3.619  1.00  0.00     0.074 A 
ATOM     44  C   UNL     1      -1.908   4.617   2.870  1.00  0.00     0.049 A 
ATOM     45  N   UNL     1       0.954   5.194   3.562  1.00  0.00    -0.248 NA
ATOM     46  C   UNL     1       1.265   2.911   3.945  1.00  0.00     0.031 C 
ATOM     47  C   UNL     1      -3.310   4.403   2.508  1.00  0.00     0.029 A 
ATOM     48  N   UNL     1      -1.679   5.933   2.550  1.00  0.00    -0.354 N 
ATOM     49  C   UNL     1       2.292   4.955   3.855  1.00  0.00     0.074 A 
ATOM     50  C   UNL     1       2.419   3.537   4.120  1.00  0.00     0.031 C 
ATOM     51  C   UNL     1      -3.806   5.536   1.986  1.00  0.00     0.029 A 
ATOM     52  C   UNL     1      -2.783   6.576   2.044  1.00  0.00     0.049 A 
ATOM     53  H   UNL     1      -0.807   6.374   2.671  1.00  0.00     0.167 HD
ATOM     54  C   UNL     1       3.326   5.829   3.872  1.00  0.00     0.037 A 
ATOM     55  C   UNL     1      -2.967   7.865   1.700  1.00  0.00     0.037 A 
ATOM     56  C   UNL     1       3.221   7.229   3.556  1.00  0.00     0.049 A 
ATOM     57  C   UNL     1      -1.838   8.842   1.860  1.00  0.00     0.074 A 
ATOM     58  C   UNL     1       4.221   8.187   3.547  1.00  0.00     0.029 A 
ATOM     59  N   UNL     1       2.052   7.867   3.178  1.00  0.00    -0.354 N 
ATOM     60  N   UNL     1      -0.598   8.619   2.222  1.00  0.00    -0.248 NA
ATOM     61  C   UNL     1      -2.142  10.255   1.591  1.00  0.00     0.031 C 
ATOM     62  C   UNL     1       3.650   9.412   3.184  1.00  0.00     0.029 A 
ATOM     63  C   UNL     1       2.302   9.209   2.940  1.00  0.00     0.049 A 
ATOM     64  H   UNL     1       1.173   7.432   3.092  1.00  0.00     0.167 HD
ATOM     65  C   UNL     1       0.026   9.859   2.217  1.00  0.00     0.074 A 
ATOM     66  C   UNL     1      -0.965  10.828   1.799  1.00  0.00     0.031 C 
ATOM     67  C   UNL     1       1.307  10.166   2.536  1.00  0.00     0.037 A 
BRANCH  54  68
ATOM     68  C   UNL     1       4.672   5.293   4.252  1.00  0.00     0.057 A 
ATOM     69  C   UNL     1       5.450   4.553   3.354  1.00  0.00     0.134 A 
ATOM     70  C   UNL     1       5.212   5.555   5.517  1.00  0.00     0.134 A 
ATOM     71  F   UNL     1       4.986   4.262   2.131  1.00  0.00    -0.206 F 
ATOM     72  C   UNL     1       6.714   4.077   3.707  1.00  0.00     0.040 A 
ATOM     73  C   UNL     1       6.482   5.101   5.875  1.00  0.00     0.040 A 
ATOM     74  F   UNL     1       4.518   6.265   6.419  1.00  0.00    -0.206 F 
ATOM     75  C   UNL     1       7.235   4.356   4.970  1.00  0.00     0.006 A 
ENDBRANCH  54  68
BRANCH  55  76
ATOM     76  C   UNL     1      -4.296   8.322   1.223  1.00  0.00     0.057 A 
ATOM     77  C   UNL     1      -4.491   8.736  -0.099  1.00  0.00     0.134 A 
ATOM     78  C   UNL     1      -5.399   8.371   2.085  1.00  0.00     0.134 A 
ATOM     79  F   UNL     1      -3.466   8.742  -0.963  1.00  0.00    -0.206 F 
ATOM     80  C   UNL     1      -5.735   9.186  -0.546  1.00  0.00     0.040 A 
ATOM     81  C   UNL     1      -6.653   8.794   1.646  1.00  0.00     0.040 A 
ATOM     82  F   UNL     1      -5.274   7.994   3.366  1.00  0.00    -0.206 F 
ATOM     83  C   UNL     1      -6.822   9.209   0.327  1.00  0.00     0.006 A 
ENDBRANCH  55  76
BRANCH  67  84
ATOM     84  C   UNL     1       1.708  11.607   2.435  1.00  0.00     0.057 A 
ATOM     85  C   UNL     1       1.320  12.543   3.401  1.00  0.00     0.134 A 
ATOM     86  C   UNL     1       2.509  12.057   1.378  1.00  0.00     0.134 A 
ATOM     87  F   UNL     1       0.539  12.176   4.428  1.00  0.00    -0.206 F 
ATOM     88  C   UNL     1       1.701  13.883   3.310  1.00  0.00     0.040 A 
ATOM     89  C   UNL     1       2.912  13.390   1.287  1.00  0.00     0.040 A 
ATOM     90  F   UNL     1       2.917  11.207   0.424  1.00  0.00    -0.206 F 
ATOM     91  C   UNL     1       2.504  14.308   2.253  1.00  0.00     0.006 A 
ENDBRANCH  67  84
ENDBRANCH  41  42
ENDBRANCH  34  36
ENDBRANCH  33  34
ENDBRANCH  32  33
ENDBRANCH   1  32
TORSDOF 16
