REMARK SMILES NC(=O)[C@@H]1CCC[N@@H+]1[C@@H](C(=O)OCCOC(=O)c1ccc(-c2c3nc(c(-c4c(F)cccc4F)c4ccc([nH]4)c(-c4c(F)cccc4F)c4nc(c(-c5c(F)cccc5F)c5ccc2[nH]5)C=C4)C=C3)cc1)c1c[nH]c2cc(OCc3ccccc3)ccc12
REMARK SMILES IDX 13 1 12 2 10 3 11 4 9 5 8 6 4 7 5 8 6 9 7 10 2 12 1 13 3 16
REMARK SMILES IDX 72 17 73 18 88 19 74 20 75 21 87 22 76 24 86 25 77 26 78 27
REMARK SMILES IDX 79 28 80 29 81 30 85 31 82 32 84 33 83 34 14 35 15 36 16 37
REMARK SMILES IDX 17 38 18 39 19 40 71 41 20 42 70 43 21 44 22 45 23 46 64 47
REMARK SMILES IDX 24 48 69 49 63 50 65 51 25 52 68 53 62 54 61 55 26 57 52 58
REMARK SMILES IDX 35 59 51 60 36 61 39 62 50 63 66 64 37 65 38 66 49 68 67 69
REMARK SMILES IDX 40 70 27 71 28 72 33 73 29 74 30 75 32 76 34 77 31 78 53 79
REMARK SMILES IDX 54 80 59 81 55 82 56 83 58 84 60 85 57 86 41 87 42 88 47 89
REMARK SMILES IDX 43 90 44 91 46 92 48 93 45 94
REMARK H PARENT 8 11 1 14 1 15 74 23 65 56 39 67
REMARK Flexibility Score: inf
ROOT
ATOM      1  C   UNL     1      -2.492  -3.919   1.037  1.00  0.00     0.274 C 
ENDROOT
BRANCH   1   2
ATOM      2  O   UNL     1      -1.128  -4.121   1.499  1.00  0.00    -0.457 OA
BRANCH   2   3
ATOM      3  C   UNL     1      -0.674  -3.204   2.393  1.00  0.00     0.370 C 
ATOM      4  O   UNL     1      -1.415  -2.408   2.974  1.00  0.00    -0.245 OA
BRANCH   3   5
ATOM      5  C   UNL     1       0.842  -3.136   2.571  1.00  0.00     0.329 C 
BRANCH   5   6
ATOM      6  N   UNL     1       1.714  -2.741   1.377  1.00  0.00    -0.309 N 
ATOM      7  C   UNL     1       1.080  -2.318   0.095  1.00  0.00     0.275 C 
ATOM      8  C   UNL     1       0.822  -3.594  -0.706  1.00  0.00     0.081 C 
ATOM      9  C   UNL     1       1.704  -4.641  -0.037  1.00  0.00     0.068 C 
ATOM     10  C   UNL     1       2.593  -3.814   0.868  1.00  0.00     0.264 C 
ATOM     11  H   UNL     1       2.162  -1.957   1.851  1.00  0.00     0.349 HD
BRANCH   7  12
ATOM     12  C   UNL     1      -0.020  -1.270   0.161  1.00  0.00     0.275 C 
ATOM     13  N   UNL     1       0.410  -0.024   0.523  1.00  0.00    -0.365 N 
ATOM     14  H   UNL     1      -0.234   0.718   0.591  1.00  0.00     0.159 HD
ATOM     15  H   UNL     1       1.363   0.132   0.715  1.00  0.00     0.159 HD
ATOM     16  O   UNL     1      -1.187  -1.463  -0.167  1.00  0.00    -0.268 OA
ENDBRANCH   7  12
ENDBRANCH   5   6
BRANCH   5  17
ATOM     17  C   UNL     1       1.579  -4.135   3.486  1.00  0.00     0.046 A 
ATOM     18  C   UNL     1       2.714  -3.748   4.199  1.00  0.00     0.094 A 
ATOM     19  C   UNL     1       1.574  -5.575   3.604  1.00  0.00     0.009 A 
ATOM     20  N   UNL     1       3.575  -4.813   4.183  1.00  0.00    -0.361 N 
ATOM     21  C   UNL     1       2.922  -5.924   3.718  1.00  0.00     0.050 A 
ATOM     22  C   UNL     1       0.678  -6.652   3.485  1.00  0.00     0.015 A 
ATOM     23  H   UNL     1       4.519  -4.785   4.462  1.00  0.00     0.166 HD
ATOM     24  C   UNL     1       3.407  -7.186   3.354  1.00  0.00     0.073 A 
ATOM     25  C   UNL     1       1.136  -7.981   3.384  1.00  0.00     0.047 A 
ATOM     26  C   UNL     1       2.487  -8.226   3.199  1.00  0.00     0.121 A 
BRANCH  26  27
ATOM     27  O   UNL     1       3.043  -9.420   2.830  1.00  0.00    -0.489 OA
BRANCH  27  28
ATOM     28  C   UNL     1       2.491 -10.630   3.356  1.00  0.00     0.265 C 
BRANCH  28  29
ATOM     29  C   UNL     1       3.133 -11.049   4.663  1.00  0.00    -0.011 A 
ATOM     30  C   UNL     1       2.911 -12.344   5.155  1.00  0.00     0.007 A 
ATOM     31  C   UNL     1       3.946 -10.186   5.410  1.00  0.00     0.007 A 
ATOM     32  C   UNL     1       3.493 -12.759   6.354  1.00  0.00     0.000 A 
ATOM     33  C   UNL     1       4.528 -10.600   6.604  1.00  0.00     0.000 A 
ATOM     34  C   UNL     1       4.301 -11.886   7.076  1.00  0.00     0.000 A 
ENDBRANCH  28  29
ENDBRANCH  27  28
ENDBRANCH  26  27
ENDBRANCH   5  17
ENDBRANCH   3   5
ENDBRANCH   2   3
ENDBRANCH   1   2
BRANCH   1  35
ATOM     35  C   UNL     1      -3.395  -5.056   1.491  1.00  0.00     0.275 C 
BRANCH  35  36
ATOM     36  O   UNL     1      -3.409  -5.059   2.929  1.00  0.00    -0.458 OA
BRANCH  36  37
ATOM     37  C   UNL     1      -2.926  -6.185   3.492  1.00  0.00     0.338 C 
ATOM     38  O   UNL     1      -2.726  -7.253   2.932  1.00  0.00    -0.246 OA
BRANCH  37  39
ATOM     39  C   UNL     1      -2.490  -5.953   4.889  1.00  0.00     0.060 A 
ATOM     40  C   UNL     1      -1.875  -4.757   5.272  1.00  0.00     0.016 A 
ATOM     41  C   UNL     1      -2.448  -7.057   5.743  1.00  0.00     0.016 A 
ATOM     42  C   UNL     1      -1.133  -4.697   6.452  1.00  0.00     0.010 A 
ATOM     43  C   UNL     1      -1.777  -6.971   6.964  1.00  0.00     0.010 A 
ATOM     44  C   UNL     1      -1.092  -5.799   7.318  1.00  0.00    -0.014 A 
BRANCH  44  45
ATOM     45  C   UNL     1      -0.467  -5.698   8.658  1.00  0.00     0.031 A 
ATOM     46  C   UNL     1       0.738  -6.508   9.037  1.00  0.00     0.074 A 
ATOM     47  C   UNL     1      -1.061  -4.908   9.571  1.00  0.00     0.049 A 
ATOM     48  N   UNL     1       1.220  -6.753  10.231  1.00  0.00    -0.248 NA
ATOM     49  C   UNL     1       1.509  -7.111   7.940  1.00  0.00     0.031 C 
ATOM     50  C   UNL     1      -2.197  -4.023   9.307  1.00  0.00     0.029 A 
ATOM     51  N   UNL     1      -0.812  -4.745  10.910  1.00  0.00    -0.354 N 
ATOM     52  C   UNL     1       2.333  -7.563  10.037  1.00  0.00     0.074 A 
ATOM     53  C   UNL     1       2.462  -7.756   8.607  1.00  0.00     0.031 C 
ATOM     54  C   UNL     1      -2.558  -3.422  10.447  1.00  0.00     0.029 A 
ATOM     55  C   UNL     1      -1.743  -3.952  11.533  1.00  0.00     0.049 A 
ATOM     56  H   UNL     1      -0.046  -5.153  11.375  1.00  0.00     0.167 HD
ATOM     57  C   UNL     1       3.157  -8.091  10.976  1.00  0.00     0.037 A 
ATOM     58  C   UNL     1      -1.975  -3.730  12.838  1.00  0.00     0.037 A 
ATOM     59  C   UNL     1       3.027  -7.858  12.397  1.00  0.00     0.049 A 
ATOM     60  C   UNL     1      -1.108  -4.393  13.860  1.00  0.00     0.074 A 
ATOM     61  C   UNL     1       3.825  -8.336  13.426  1.00  0.00     0.029 A 
ATOM     62  N   UNL     1       2.045  -7.080  12.990  1.00  0.00    -0.354 N 
ATOM     63  N   UNL     1      -0.107  -5.218  13.678  1.00  0.00    -0.248 NA
ATOM     64  C   UNL     1      -1.406  -4.100  15.267  1.00  0.00     0.031 C 
ATOM     65  C   UNL     1       3.300  -7.882  14.640  1.00  0.00     0.029 A 
ATOM     66  C   UNL     1       2.209  -7.075  14.368  1.00  0.00     0.049 A 
ATOM     67  H   UNL     1       1.335  -6.600  12.505  1.00  0.00     0.167 HD
ATOM     68  C   UNL     1       0.358  -5.533  14.946  1.00  0.00     0.074 A 
ATOM     69  C   UNL     1      -0.464  -4.797  15.887  1.00  0.00     0.031 C 
ATOM     70  C   UNL     1       1.377  -6.354  15.296  1.00  0.00     0.037 A 
BRANCH  57  71
ATOM     71  C   UNL     1       4.274  -8.997  10.536  1.00  0.00     0.057 A 
ATOM     72  C   UNL     1       5.436  -8.508   9.929  1.00  0.00     0.134 A 
ATOM     73  C   UNL     1       4.246 -10.361  10.865  1.00  0.00     0.134 A 
ATOM     74  F   UNL     1       5.531  -7.217   9.579  1.00  0.00    -0.206 F 
ATOM     75  C   UNL     1       6.530  -9.340   9.668  1.00  0.00     0.040 A 
ATOM     76  C   UNL     1       5.342 -11.195  10.634  1.00  0.00     0.040 A 
ATOM     77  F   UNL     1       3.169 -10.896  11.460  1.00  0.00    -0.206 F 
ATOM     78  C   UNL     1       6.489 -10.685  10.032  1.00  0.00     0.006 A 
ENDBRANCH  57  71
BRANCH  58  79
ATOM     79  C   UNL     1      -3.123  -2.877  13.224  1.00  0.00     0.057 A 
ATOM     80  C   UNL     1      -2.929  -1.591  13.734  1.00  0.00     0.134 A 
ATOM     81  C   UNL     1      -4.442  -3.302  13.014  1.00  0.00     0.134 A 
ATOM     82  F   UNL     1      -1.689  -1.139  13.971  1.00  0.00    -0.206 F 
ATOM     83  C   UNL     1      -4.006  -0.751  14.014  1.00  0.00     0.040 A 
ATOM     84  C   UNL     1      -5.527  -2.463  13.262  1.00  0.00     0.040 A 
ATOM     85  F   UNL     1      -4.689  -4.524  12.517  1.00  0.00    -0.206 F 
ATOM     86  C   UNL     1      -5.309  -1.182  13.765  1.00  0.00     0.006 A 
ENDBRANCH  58  79
BRANCH  70  87
ATOM     87  C   UNL     1       1.674  -6.469  16.762  1.00  0.00     0.057 A 
ATOM     88  C   UNL     1       0.833  -7.171  17.634  1.00  0.00     0.134 A 
ATOM     89  C   UNL     1       2.811  -5.858  17.308  1.00  0.00     0.134 A 
ATOM     90  F   UNL     1      -0.279  -7.764  17.175  1.00  0.00    -0.206 F 
ATOM     91  C   UNL     1       1.094  -7.234  19.003  1.00  0.00     0.040 A 
ATOM     92  C   UNL     1       3.095  -5.935  18.672  1.00  0.00     0.040 A 
ATOM     93  F   UNL     1       3.661  -5.176  16.526  1.00  0.00    -0.206 F 
ATOM     94  C   UNL     1       2.229  -6.616  19.525  1.00  0.00     0.006 A 
ENDBRANCH  70  87
ENDBRANCH  44  45
ENDBRANCH  37  39
ENDBRANCH  36  37
ENDBRANCH  35  36
ENDBRANCH   1  35
TORSDOF 17
