REMARK SMILES C=CC[N@H+](CC(=O)OCCOC(=O)c1ccc(-c2c3nc(c(-c4c(F)cccc4F)c4ccc([nH]4)c(-c4c(F)cccc4F)c4nc(c(-c5c(F)cccc5F)c5ccc2[nH]5)C=C4)C=C3)cc1)[C@H](C)c1ccc(F)cc1O
REMARK SMILES IDX 9 1 8 2 6 3 7 4 5 5 4 6 3 8 2 9 1 10 68 11 69 12 70 13 71 14
REMARK SMILES IDX 76 15 72 16 75 17 73 18 74 19 77 20 10 22 11 23 12 24 13 25
REMARK SMILES IDX 14 26 15 27 67 28 16 29 66 30 17 31 18 32 19 33 60 34 20 35
REMARK SMILES IDX 65 36 59 37 61 38 21 39 64 40 58 41 57 42 22 44 48 45 31 46
REMARK SMILES IDX 47 47 32 48 35 49 46 50 62 51 33 52 34 53 45 55 63 56 36 57
REMARK SMILES IDX 23 58 24 59 29 60 25 61 26 62 28 63 30 64 27 65 49 66 50 67
REMARK SMILES IDX 55 68 51 69 52 70 54 71 56 72 53 73 37 74 38 75 43 76 39 77
REMARK SMILES IDX 40 78 42 79 44 80 41 81
REMARK H PARENT 4 7 77 21 61 43 35 54
REMARK Flexibility Score: inf
ROOT
ATOM      1  C   UNL     1      -3.896  -3.649  -2.335  1.00  0.00     0.274 C 
ENDROOT
BRANCH   1   2
ATOM      2  O   UNL     1      -3.229  -2.715  -1.466  1.00  0.00    -0.458 OA
BRANCH   2   3
ATOM      3  C   UNL     1      -3.836  -2.467  -0.279  1.00  0.00     0.361 C 
ATOM      4  O   UNL     1      -4.904  -2.970   0.063  1.00  0.00    -0.245 OA
BRANCH   3   5
ATOM      5  C   UNL     1      -3.153  -1.404   0.572  1.00  0.00     0.387 C 
BRANCH   5   6
ATOM      6  N   UNL     1      -1.670  -1.498   0.697  1.00  0.00    -0.316 N 
ATOM      7  H   UNL     1      -1.362  -2.470   0.662  1.00  0.00     0.349 HD
BRANCH   6   8
ATOM      8  C   UNL     1      -1.030  -0.823  -0.448  1.00  0.00     0.291 C 
BRANCH   8   9
ATOM      9  C   UNL     1       0.408  -1.191  -0.689  1.00  0.00     0.025 C 
ATOM     10  C   UNL     1       0.834  -2.316  -1.279  1.00  0.00     0.010 C 
ENDBRANCH   8   9
ENDBRANCH   6   8
BRANCH   6  11
ATOM     11  C   UNL     1      -1.244  -0.969   2.038  1.00  0.00     0.216 C 
ATOM     12  C   UNL     1      -1.864   0.395   2.417  1.00  0.00     0.081 C 
BRANCH  11  13
ATOM     13  C   UNL     1       0.256  -1.106   2.331  1.00  0.00     0.051 A 
ATOM     14  C   UNL     1       0.790  -2.408   2.458  1.00  0.00     0.017 A 
ATOM     15  C   UNL     1       1.147  -0.029   2.476  1.00  0.00     0.127 A 
ATOM     16  C   UNL     1       2.152  -2.614   2.699  1.00  0.00     0.040 A 
ATOM     17  C   UNL     1       2.509  -0.228   2.708  1.00  0.00     0.085 A 
ATOM     18  C   UNL     1       2.998  -1.521   2.813  1.00  0.00     0.126 A 
ATOM     19  F   UNL     1       4.308  -1.714   3.019  1.00  0.00    -0.207 F 
BRANCH  15  20
ATOM     20  O   UNL     1       0.714   1.260   2.359  1.00  0.00    -0.507 OA
ATOM     21  H   UNL     1      -0.192   1.437   2.203  1.00  0.00     0.293 HD
ENDBRANCH  15  20
ENDBRANCH  11  13
ENDBRANCH   6  11
ENDBRANCH   5   6
ENDBRANCH   3   5
ENDBRANCH   2   3
ENDBRANCH   1   2
BRANCH   1  22
ATOM     22  C   UNL     1      -3.349  -5.069  -2.175  1.00  0.00     0.275 C 
BRANCH  22  23
ATOM     23  O   UNL     1      -3.754  -5.651  -0.922  1.00  0.00    -0.458 OA
BRANCH  23  24
ATOM     24  C   UNL     1      -2.873  -5.500   0.092  1.00  0.00     0.338 C 
ATOM     25  O   UNL     1      -1.755  -5.006   0.034  1.00  0.00    -0.246 OA
BRANCH  24  26
ATOM     26  C   UNL     1      -3.483  -5.932   1.358  1.00  0.00     0.060 A 
ATOM     27  C   UNL     1      -3.489  -5.031   2.428  1.00  0.00     0.016 A 
ATOM     28  C   UNL     1      -3.958  -7.235   1.524  1.00  0.00     0.016 A 
ATOM     29  C   UNL     1      -3.948  -5.439   3.678  1.00  0.00     0.010 A 
ATOM     30  C   UNL     1      -4.413  -7.645   2.781  1.00  0.00     0.010 A 
ATOM     31  C   UNL     1      -4.386  -6.757   3.871  1.00  0.00    -0.014 A 
BRANCH  31  32
ATOM     32  C   UNL     1      -4.713  -7.224   5.239  1.00  0.00     0.031 A 
ATOM     33  C   UNL     1      -3.712  -8.046   6.001  1.00  0.00     0.074 A 
ATOM     34  C   UNL     1      -5.880  -6.881   5.814  1.00  0.00     0.049 A 
ATOM     35  N   UNL     1      -3.795  -8.545   7.208  1.00  0.00    -0.248 NA
ATOM     36  C   UNL     1      -2.448  -8.348   5.310  1.00  0.00     0.031 C 
ATOM     37  C   UNL     1      -6.923  -6.071   5.187  1.00  0.00     0.029 A 
ATOM     38  N   UNL     1      -6.379  -7.171   7.059  1.00  0.00    -0.354 N 
ATOM     39  C   UNL     1      -2.602  -9.224   7.419  1.00  0.00     0.074 A 
ATOM     40  C   UNL     1      -1.823  -9.097   6.206  1.00  0.00     0.031 C 
ATOM     41  C   UNL     1      -7.939  -5.923   6.055  1.00  0.00     0.029 A 
ATOM     42  C   UNL     1      -7.626  -6.646   7.286  1.00  0.00     0.049 A 
ATOM     43  H   UNL     1      -5.888  -7.705   7.725  1.00  0.00     0.167 HD
ATOM     44  C   UNL     1      -2.188  -9.885   8.527  1.00  0.00     0.037 A 
ATOM     45  C   UNL     1      -8.427  -6.744   8.364  1.00  0.00     0.037 A 
ATOM     46  C   UNL     1      -2.957 -10.007   9.738  1.00  0.00     0.049 A 
ATOM     47  C   UNL     1      -7.957  -7.509   9.570  1.00  0.00     0.074 A 
ATOM     48  C   UNL     1      -2.615 -10.647  10.917  1.00  0.00     0.029 A 
ATOM     49  N   UNL     1      -4.223  -9.475   9.924  1.00  0.00    -0.354 N 
ATOM     50  N   UNL     1      -6.819  -8.130   9.765  1.00  0.00    -0.248 NA
ATOM     51  C   UNL     1      -8.883  -7.582  10.710  1.00  0.00     0.031 C 
ATOM     52  C   UNL     1      -3.691 -10.530  11.806  1.00  0.00     0.029 A 
ATOM     53  C   UNL     1      -4.684  -9.784  11.193  1.00  0.00     0.049 A 
ATOM     54  H   UNL     1      -4.722  -8.955   9.252  1.00  0.00     0.167 HD
ATOM     55  C   UNL     1      -6.882  -8.646  11.053  1.00  0.00     0.074 A 
ATOM     56  C   UNL     1      -8.164  -8.253  11.599  1.00  0.00     0.031 C 
ATOM     57  C   UNL     1      -5.961  -9.381  11.723  1.00  0.00     0.037 A 
BRANCH  44  58
ATOM     58  C   UNL     1      -0.843 -10.545   8.469  1.00  0.00     0.057 A 
ATOM     59  C   UNL     1       0.345  -9.805   8.515  1.00  0.00     0.134 A 
ATOM     60  C   UNL     1      -0.734 -11.939   8.389  1.00  0.00     0.134 A 
ATOM     61  F   UNL     1       0.309  -8.465   8.577  1.00  0.00    -0.206 F 
ATOM     62  C   UNL     1       1.594 -10.426   8.462  1.00  0.00     0.040 A 
ATOM     63  C   UNL     1       0.509 -12.573   8.357  1.00  0.00     0.040 A 
ATOM     64  F   UNL     1      -1.834 -12.707   8.345  1.00  0.00    -0.206 F 
ATOM     65  C   UNL     1       1.678 -11.816   8.388  1.00  0.00     0.006 A 
ENDBRANCH  44  58
BRANCH  45  66
ATOM     66  C   UNL     1      -9.761  -6.095   8.357  1.00  0.00     0.057 A 
ATOM     67  C   UNL     1     -10.025  -4.972   9.149  1.00  0.00     0.134 A 
ATOM     68  C   UNL     1     -10.808  -6.593   7.572  1.00  0.00     0.134 A 
ATOM     69  F   UNL     1      -9.068  -4.465   9.940  1.00  0.00    -0.206 F 
ATOM     70  C   UNL     1     -11.286  -4.376   9.174  1.00  0.00     0.040 A 
ATOM     71  C   UNL     1     -12.068  -5.993   7.569  1.00  0.00     0.040 A 
ATOM     72  F   UNL     1     -10.617  -7.667   6.792  1.00  0.00    -0.206 F 
ATOM     73  C   UNL     1     -12.311  -4.884   8.377  1.00  0.00     0.006 A 
ENDBRANCH  45  66
BRANCH  57  74
ATOM     74  C   UNL     1      -6.298  -9.780  13.130  1.00  0.00     0.057 A 
ATOM     75  C   UNL     1      -7.241 -10.777  13.409  1.00  0.00     0.134 A 
ATOM     76  C   UNL     1      -5.655  -9.172  14.216  1.00  0.00     0.134 A 
ATOM     77  F   UNL     1      -7.900 -11.387  12.413  1.00  0.00    -0.206 F 
ATOM     78  C   UNL     1      -7.552 -11.138  14.722  1.00  0.00     0.040 A 
ATOM     79  C   UNL     1      -5.941  -9.541  15.532  1.00  0.00     0.040 A 
ATOM     80  F   UNL     1      -4.736  -8.216  14.017  1.00  0.00    -0.206 F 
ATOM     81  C   UNL     1      -6.897 -10.523  15.787  1.00  0.00     0.006 A 
ENDBRANCH  57  74
ENDBRANCH  31  32
ENDBRANCH  24  26
ENDBRANCH  23  24
ENDBRANCH  22  23
ENDBRANCH   1  22
TORSDOF 17
