REMARK SMILES O=C(CSc1ccc2ccccc2c1)OCCOC(=O)c1ccc(-c2c3nc(c(-c4c(F)cccc4F)c4ccc([nH]4)c(-c4c(F)cccc4F)c4nc(c(-c5c(F)cccc5F)c5ccc2[nH]5)C=C4)C=C3)cc1
REMARK SMILES IDX 16 1 15 2 2 3 1 4 3 5 4 6 5 7 6 8 14 9 7 10 13 11 8 12 12 13
REMARK SMILES IDX 9 14 11 15 10 16 17 17 18 18 19 19 20 20 21 21 22 22 74 23
REMARK SMILES IDX 23 24 73 25 24 26 25 27 26 28 67 29 27 30 72 31 66 32 68 33
REMARK SMILES IDX 28 34 71 35 65 36 64 37 29 39 55 40 38 41 54 42 39 43 42 44
REMARK SMILES IDX 53 45 69 46 40 47 41 48 52 50 70 51 43 52 30 53 31 54 36 55
REMARK SMILES IDX 32 56 33 57 35 58 37 59 34 60 56 61 57 62 62 63 58 64 59 65
REMARK SMILES IDX 61 66 63 67 60 68 44 69 45 70 50 71 46 72 47 73 49 74 51 75
REMARK SMILES IDX 48 76
REMARK H PARENT 68 38 42 49
REMARK Flexibility Score: inf
ROOT
ATOM      1  C   UNL     1       4.728  -0.591  -0.721  1.00  0.00     0.274 C 
ENDROOT
BRANCH   1   2
ATOM      2  O   UNL     1       3.428  -0.828  -0.138  1.00  0.00    -0.461 OA
BRANCH   2   3
ATOM      3  C   UNL     1       2.824  -0.030   0.776  1.00  0.00     0.316 C 
ATOM      4  O   UNL     1       1.649  -0.230   1.080  1.00  0.00    -0.251 OA
BRANCH   3   5
ATOM      5  C   UNL     1       3.605   1.103   1.404  1.00  0.00     0.197 C 
BRANCH   5   6
ATOM      6  S   UNL     1       4.677   0.542   2.755  1.00  0.00    -0.114 SA
BRANCH   6   7
ATOM      7  C   UNL     1       3.433   0.005   3.908  1.00  0.00     0.008 A 
ATOM      8  C   UNL     1       2.605   0.922   4.557  1.00  0.00     0.016 A 
ATOM      9  C   UNL     1       3.296  -1.360   4.169  1.00  0.00     0.023 A 
ATOM     10  C   UNL     1       1.637   0.474   5.459  1.00  0.00     0.010 A 
ATOM     11  C   UNL     1       2.330  -1.824   5.072  1.00  0.00    -0.017 A 
ATOM     12  C   UNL     1       1.491  -0.895   5.729  1.00  0.00    -0.018 A 
ATOM     13  C   UNL     1       2.182  -3.194   5.333  1.00  0.00     0.009 A 
ATOM     14  C   UNL     1       0.531  -1.365   6.638  1.00  0.00     0.009 A 
ATOM     15  C   UNL     1       1.224  -3.645   6.240  1.00  0.00     0.001 A 
ATOM     16  C   UNL     1       0.401  -2.732   6.894  1.00  0.00     0.001 A 
ENDBRANCH   6   7
ENDBRANCH   5   6
ENDBRANCH   3   5
ENDBRANCH   2   3
ENDBRANCH   1   2
BRANCH   1  17
ATOM     17  C   UNL     1       4.614   0.199  -2.027  1.00  0.00     0.275 C 
BRANCH  17  18
ATOM     18  O   UNL     1       4.120   1.524  -1.755  1.00  0.00    -0.458 OA
BRANCH  18  19
ATOM     19  C   UNL     1       2.804   1.729  -2.016  1.00  0.00     0.338 C 
ATOM     20  O   UNL     1       2.047   0.967  -2.591  1.00  0.00    -0.246 OA
BRANCH  19  21
ATOM     21  C   UNL     1       2.357   2.957  -1.316  1.00  0.00     0.060 A 
ATOM     22  C   UNL     1       1.082   2.954  -0.738  1.00  0.00     0.016 A 
ATOM     23  C   UNL     1       3.178   4.084  -1.192  1.00  0.00     0.016 A 
ATOM     24  C   UNL     1       0.615   4.086  -0.065  1.00  0.00     0.010 A 
ATOM     25  C   UNL     1       2.710   5.215  -0.513  1.00  0.00     0.010 A 
ATOM     26  C   UNL     1       1.415   5.232   0.033  1.00  0.00    -0.014 A 
BRANCH  26  27
ATOM     27  C   UNL     1       0.855   6.478   0.615  1.00  0.00     0.031 A 
ATOM     28  C   UNL     1       0.344   7.555  -0.302  1.00  0.00     0.074 A 
ATOM     29  C   UNL     1       0.776   6.643   1.948  1.00  0.00     0.049 A 
ATOM     30  N   UNL     1      -0.219   8.700  -0.004  1.00  0.00    -0.248 NA
ATOM     31  C   UNL     1       0.485   7.311  -1.746  1.00  0.00     0.031 C 
ATOM     32  C   UNL     1       1.229   5.681   2.951  1.00  0.00     0.029 A 
ATOM     33  N   UNL     1       0.282   7.692   2.686  1.00  0.00    -0.354 N 
ATOM     34  C   UNL     1      -0.516   9.302  -1.220  1.00  0.00     0.074 A 
ATOM     35  C   UNL     1      -0.027   8.421  -2.259  1.00  0.00     0.031 C 
ATOM     36  C   UNL     1       0.997   6.187   4.176  1.00  0.00     0.029 A 
ATOM     37  C   UNL     1       0.390   7.511   4.043  1.00  0.00     0.049 A 
ATOM     38  H   UNL     1      -0.112   8.497   2.280  1.00  0.00     0.167 HD
ATOM     39  C   UNL     1      -1.157  10.471  -1.453  1.00  0.00     0.037 A 
ATOM     40  C   UNL     1       0.043   8.323   5.061  1.00  0.00     0.037 A 
ATOM     41  C   UNL     1      -1.639  11.361  -0.430  1.00  0.00     0.049 A 
ATOM     42  C   UNL     1      -0.612   9.649   4.771  1.00  0.00     0.074 A 
ATOM     43  C   UNL     1      -2.314  12.561  -0.578  1.00  0.00     0.029 A 
ATOM     44  N   UNL     1      -1.489  11.153   0.931  1.00  0.00    -0.354 N 
ATOM     45  N   UNL     1      -0.939  10.179   3.618  1.00  0.00    -0.248 NA
ATOM     46  C   UNL     1      -0.955  10.486   5.932  1.00  0.00     0.031 C 
ATOM     47  C   UNL     1      -2.538  13.098   0.694  1.00  0.00     0.029 A 
ATOM     48  C   UNL     1      -2.039  12.213   1.634  1.00  0.00     0.049 A 
ATOM     49  H   UNL     1      -1.056  10.369   1.339  1.00  0.00     0.167 HD
ATOM     50  C   UNL     1      -1.551  11.391   3.916  1.00  0.00     0.074 A 
ATOM     51  C   UNL     1      -1.564  11.512   5.357  1.00  0.00     0.031 C 
ATOM     52  C   UNL     1      -2.056  12.322   3.069  1.00  0.00     0.037 A 
BRANCH  39  53
ATOM     53  C   UNL     1      -1.382  10.859  -2.884  1.00  0.00     0.057 A 
ATOM     54  C   UNL     1      -2.350  10.220  -3.670  1.00  0.00     0.134 A 
ATOM     55  C   UNL     1      -0.663  11.910  -3.465  1.00  0.00     0.134 A 
ATOM     56  F   UNL     1      -3.062   9.197  -3.173  1.00  0.00    -0.206 F 
ATOM     57  C   UNL     1      -2.586  10.606  -4.990  1.00  0.00     0.040 A 
ATOM     58  C   UNL     1      -0.905  12.319  -4.777  1.00  0.00     0.040 A 
ATOM     59  F   UNL     1       0.275  12.563  -2.763  1.00  0.00    -0.206 F 
ATOM     60  C   UNL     1      -1.868  11.664  -5.544  1.00  0.00     0.006 A 
ENDBRANCH  39  53
BRANCH  40  61
ATOM     61  C   UNL     1       0.302   7.917   6.465  1.00  0.00     0.057 A 
ATOM     62  C   UNL     1      -0.748   7.611   7.338  1.00  0.00     0.134 A 
ATOM     63  C   UNL     1       1.602   7.889   6.983  1.00  0.00     0.134 A 
ATOM     64  F   UNL     1      -2.018   7.649   6.907  1.00  0.00    -0.206 F 
ATOM     65  C   UNL     1      -0.518   7.319   8.683  1.00  0.00     0.040 A 
ATOM     66  C   UNL     1       1.849   7.574   8.320  1.00  0.00     0.040 A 
ATOM     67  F   UNL     1       2.650   8.174   6.197  1.00  0.00    -0.206 F 
ATOM     68  C   UNL     1       0.785   7.298   9.177  1.00  0.00     0.006 A 
ENDBRANCH  40  61
BRANCH  52  69
ATOM     69  C   UNL     1      -2.694  13.536   3.680  1.00  0.00     0.057 A 
ATOM     70  C   UNL     1      -1.935  14.540   4.295  1.00  0.00     0.134 A 
ATOM     71  C   UNL     1      -4.082  13.716   3.628  1.00  0.00     0.134 A 
ATOM     72  F   UNL     1      -0.601  14.422   4.388  1.00  0.00    -0.206 F 
ATOM     73  C   UNL     1      -2.535  15.666   4.860  1.00  0.00     0.040 A 
ATOM     74  C   UNL     1      -4.692  14.850   4.168  1.00  0.00     0.040 A 
ATOM     75  F   UNL     1      -4.868  12.798   3.046  1.00  0.00    -0.206 F 
ATOM     76  C   UNL     1      -3.918  15.826   4.792  1.00  0.00     0.006 A 
ENDBRANCH  52  69
ENDBRANCH  26  27
ENDBRANCH  19  21
ENDBRANCH  18  19
ENDBRANCH  17  18
ENDBRANCH   1  17
TORSDOF 13
