REMARK SMILES N#CCc1ccc(OCC(=O)OCCOC(=O)c2ccc(-c3c4nc(c(-c5c(F)cccc5F)c5ccc([nH]5)c(-c5c(F)cccc5F)c5nc(c(-c6c(F)cccc6F)c6ccc3[nH]6)C=C5)C=C4)cc2)cc1
REMARK SMILES IDX 13 1 12 2 10 3 11 4 9 5 8 6 7 7 4 8 5 9 73 10 6 11 72 12
REMARK SMILES IDX 3 13 2 14 1 15 14 16 15 17 16 18 17 19 18 20 19 21 71 22
REMARK SMILES IDX 20 23 70 24 21 25 22 26 23 27 64 28 24 29 69 30 63 31 65 32
REMARK SMILES IDX 25 33 68 34 62 35 61 36 26 38 52 39 35 40 51 41 36 42 39 43
REMARK SMILES IDX 50 44 66 45 37 46 38 47 49 49 67 50 40 51 27 52 28 53 33 54
REMARK SMILES IDX 29 55 30 56 32 57 34 58 31 59 53 60 54 61 59 62 55 63 56 64
REMARK SMILES IDX 58 65 60 66 57 67 41 68 42 69 47 70 43 71 44 72 46 73 48 74
REMARK SMILES IDX 45 75
REMARK H PARENT 65 37 39 48
REMARK Flexibility Score: inf
ROOT
ATOM      1  C   UNL     1       9.083   0.520   5.040  1.00  0.00     0.274 C 
ENDROOT
BRANCH   1   2
ATOM      2  O   UNL     1       7.950  -0.359   5.183  1.00  0.00    -0.460 OA
BRANCH   2   3
ATOM      3  C   UNL     1       7.022   0.004   6.110  1.00  0.00     0.344 C 
ATOM      4  O   UNL     1       7.123   0.962   6.871  1.00  0.00    -0.248 OA
BRANCH   3   5
ATOM      5  C   UNL     1       5.828  -0.947   6.143  1.00  0.00     0.351 C 
BRANCH   5   6
ATOM      6  O   UNL     1       5.642  -1.817   5.038  1.00  0.00    -0.482 OA
BRANCH   6   7
ATOM      7  C   UNL     1       5.189  -1.287   3.863  1.00  0.00     0.120 A 
ATOM      8  C   UNL     1       4.362  -0.433   1.302  1.00  0.00    -0.034 A 
ATOM      9  C   UNL     1       5.025  -1.654   1.464  1.00  0.00     0.008 A 
ATOM     10  C   UNL     1       4.103   0.344   2.442  1.00  0.00     0.008 A 
ATOM     11  C   UNL     1       5.432  -2.073   2.735  1.00  0.00     0.047 A 
ATOM     12  C   UNL     1       4.499  -0.090   3.714  1.00  0.00     0.047 A 
BRANCH   8  13
ATOM     13  C   UNL     1       3.862   0.011  -0.058  1.00  0.00     0.155 C 
BRANCH  13  14
ATOM     14  C   UNL     1       2.342   0.011  -0.058  1.00  0.00     0.067 C 
ATOM     15  N   UNL     1       1.081   0.011  -0.058  1.00  0.00    -0.198 NA
ENDBRANCH  13  14
ENDBRANCH   8  13
ENDBRANCH   6   7
ENDBRANCH   5   6
ENDBRANCH   3   5
ENDBRANCH   2   3
ENDBRANCH   1   2
BRANCH   1  16
ATOM     16  C   UNL     1       8.845   1.505   3.899  1.00  0.00     0.275 C 
BRANCH  16  17
ATOM     17  O   UNL     1       7.686   2.301   4.197  1.00  0.00    -0.458 OA
BRANCH  17  18
ATOM     18  C   UNL     1       6.976   2.720   3.127  1.00  0.00     0.338 C 
ATOM     19  O   UNL     1       7.266   2.560   1.950  1.00  0.00    -0.246 OA
BRANCH  18  20
ATOM     20  C   UNL     1       5.756   3.437   3.570  1.00  0.00     0.060 A 
ATOM     21  C   UNL     1       5.134   3.163   4.794  1.00  0.00     0.016 A 
ATOM     22  C   UNL     1       5.182   4.367   2.699  1.00  0.00     0.016 A 
ATOM     23  C   UNL     1       3.920   3.774   5.120  1.00  0.00     0.010 A 
ATOM     24  C   UNL     1       4.009   5.034   3.061  1.00  0.00     0.010 A 
ATOM     25  C   UNL     1       3.357   4.735   4.269  1.00  0.00    -0.014 A 
BRANCH  25  26
ATOM     26  C   UNL     1       2.113   5.466   4.632  1.00  0.00     0.031 A 
ATOM     27  C   UNL     1       0.895   5.384   3.752  1.00  0.00     0.074 A 
ATOM     28  C   UNL     1       2.098   6.268   5.715  1.00  0.00     0.049 A 
ATOM     29  N   UNL     1      -0.185   6.123   3.764  1.00  0.00    -0.248 NA
ATOM     30  C   UNL     1       0.900   4.345   2.710  1.00  0.00     0.031 C 
ATOM     31  C   UNL     1       3.200   6.437   6.663  1.00  0.00     0.029 A 
ATOM     32  N   UNL     1       1.123   7.115   6.184  1.00  0.00    -0.354 N 
ATOM     33  C   UNL     1      -0.966   5.673   2.707  1.00  0.00     0.074 A 
ATOM     34  C   UNL     1      -0.237   4.593   2.074  1.00  0.00     0.031 C 
ATOM     35  C   UNL     1       2.841   7.329   7.600  1.00  0.00     0.029 A 
ATOM     36  C   UNL     1       1.515   7.845   7.280  1.00  0.00     0.049 A 
ATOM     37  H   UNL     1       0.231   7.192   5.775  1.00  0.00     0.167 HD
ATOM     38  C   UNL     1      -2.179   6.121   2.302  1.00  0.00     0.037 A 
ATOM     39  C   UNL     1       0.903   8.852   7.930  1.00  0.00     0.037 A 
ATOM     40  C   UNL     1      -2.929   7.158   2.961  1.00  0.00     0.049 A 
ATOM     41  C   UNL     1      -0.435   9.338   7.454  1.00  0.00     0.074 A 
ATOM     42  C   UNL     1      -4.187   7.645   2.646  1.00  0.00     0.029 A 
ATOM     43  N   UNL     1      -2.499   7.858   4.077  1.00  0.00    -0.354 N 
ATOM     44  N   UNL     1      -1.150   8.920   6.439  1.00  0.00    -0.248 NA
ATOM     45  C   UNL     1      -1.043  10.445   8.205  1.00  0.00     0.031 C 
ATOM     46  C   UNL     1      -4.506   8.660   3.555  1.00  0.00     0.029 A 
ATOM     47  C   UNL     1      -3.461   8.781   4.455  1.00  0.00     0.049 A 
ATOM     48  H   UNL     1      -1.637   7.720   4.533  1.00  0.00     0.167 HD
ATOM     49  C   UNL     1      -2.296   9.703   6.436  1.00  0.00     0.074 A 
ATOM     50  C   UNL     1      -2.189  10.610   7.560  1.00  0.00     0.031 C 
ATOM     51  C   UNL     1      -3.342   9.675   5.576  1.00  0.00     0.037 A 
BRANCH  38  52
ATOM     52  C   UNL     1      -2.776   5.506   1.072  1.00  0.00     0.057 A 
ATOM     53  C   UNL     1      -3.367   4.237   1.092  1.00  0.00     0.134 A 
ATOM     54  C   UNL     1      -2.825   6.226  -0.129  1.00  0.00     0.134 A 
ATOM     55  F   UNL     1      -3.348   3.497   2.210  1.00  0.00    -0.206 F 
ATOM     56  C   UNL     1      -3.977   3.702  -0.044  1.00  0.00     0.040 A 
ATOM     57  C   UNL     1      -3.450   5.710  -1.264  1.00  0.00     0.040 A 
ATOM     58  F   UNL     1      -2.283   7.451  -0.210  1.00  0.00    -0.206 F 
ATOM     59  C   UNL     1      -4.028   4.443  -1.224  1.00  0.00     0.006 A 
ENDBRANCH  38  52
BRANCH  39  60
ATOM     60  C   UNL     1       1.573   9.499   9.084  1.00  0.00     0.057 A 
ATOM     61  C   UNL     1       1.113   9.299  10.389  1.00  0.00     0.134 A 
ATOM     62  C   UNL     1       2.688  10.327   8.908  1.00  0.00     0.134 A 
ATOM     63  F   UNL     1       0.035   8.535  10.616  1.00  0.00    -0.206 F 
ATOM     64  C   UNL     1       1.733   9.909  11.481  1.00  0.00     0.040 A 
ATOM     65  C   UNL     1       3.332  10.924   9.992  1.00  0.00     0.040 A 
ATOM     66  F   UNL     1       3.177  10.553   7.679  1.00  0.00    -0.206 F 
ATOM     67  C   UNL     1       2.850  10.719  11.283  1.00  0.00     0.006 A 
ENDBRANCH  39  60
BRANCH  51  68
ATOM     68  C   UNL     1      -4.462  10.634   5.836  1.00  0.00     0.057 A 
ATOM     69  C   UNL     1      -4.349  11.995   5.528  1.00  0.00     0.134 A 
ATOM     70  C   UNL     1      -5.673  10.188   6.380  1.00  0.00     0.134 A 
ATOM     71  F   UNL     1      -3.208  12.485   5.019  1.00  0.00    -0.206 F 
ATOM     72  C   UNL     1      -5.397  12.884   5.770  1.00  0.00     0.040 A 
ATOM     73  C   UNL     1      -6.734  11.064   6.608  1.00  0.00     0.040 A 
ATOM     74  F   UNL     1      -5.844   8.895   6.692  1.00  0.00    -0.206 F 
ATOM     75  C   UNL     1      -6.596  12.418   6.307  1.00  0.00     0.006 A 
ENDBRANCH  51  68
ENDBRANCH  25  26
ENDBRANCH  18  20
ENDBRANCH  17  18
ENDBRANCH  16  17
ENDBRANCH   1  16
TORSDOF 15
