REMARK SMILES CN1N=C(CC(=O)OCCOC(=O)c2ccc(-c3c4nc(c(-c5c(F)cccc5F)c5ccc([nH]5)c(-c5c(F)cccc5F)c5nc(c(-c6c(F)cccc6F)c6ccc3[nH]6)C=C5)C=C4)cc2)CC1=O
REMARK SMILES IDX 10 1 9 2 8 3 6 4 7 5 5 6 4 7 1 8 2 9 3 10 69 11 68 12 70 13
REMARK SMILES IDX 11 14 12 15 13 16 14 17 15 18 67 19 16 20 66 21 17 22 18 23
REMARK SMILES IDX 19 24 60 25 20 26 65 27 59 28 61 29 21 30 64 31 58 32 57 33
REMARK SMILES IDX 22 35 48 36 31 37 47 38 32 39 35 40 46 41 62 42 33 43 34 44
REMARK SMILES IDX 45 46 63 47 36 48 23 49 24 50 29 51 25 52 26 53 28 54 30 55
REMARK SMILES IDX 27 56 49 57 50 58 55 59 51 60 52 61 54 62 56 63 53 64 37 65
REMARK SMILES IDX 38 66 43 67 39 68 40 69 42 70 44 71 41 72
REMARK H PARENT 61 34 35 45
REMARK Flexibility Score: inf
ROOT
ATOM      1  C   UNL     1       2.109   5.437   2.382  1.00  0.00     0.275 C 
ENDROOT
BRANCH   1   2
ATOM      2  C   UNL     1       0.814   6.087   1.900  1.00  0.00     0.274 C 
BRANCH   2   3
ATOM      3  O   UNL     1       0.265   5.362   0.781  1.00  0.00    -0.462 OA
BRANCH   3   4
ATOM      4  C   UNL     1       0.626   5.815  -0.448  1.00  0.00     0.311 C 
ATOM      5  O   UNL     1       1.275   6.833  -0.662  1.00  0.00    -0.252 OA
BRANCH   4   6
ATOM      6  C   UNL     1       0.060   4.987  -1.559  1.00  0.00     0.176 C 
BRANCH   6   7
ATOM      7  C   UNL     1      -0.117   3.536  -1.279  1.00  0.00     0.059 C 
ATOM      8  C   UNL     1       0.988   0.374  -0.237  1.00  0.00     0.177 C 
ATOM      9  N   UNL     1       0.253   1.495  -0.767  1.00  0.00    -0.237 N 
ATOM     10  N   UNL     1       0.816   2.751  -0.831  1.00  0.00    -0.179 NA
ATOM     11  C   UNL     1      -1.073   1.434  -1.188  1.00  0.00     0.248 C 
ATOM     12  C   UNL     1      -1.407   2.837  -1.585  1.00  0.00     0.156 C 
ATOM     13  O   UNL     1      -1.823   0.474  -1.235  1.00  0.00    -0.273 OA
ENDBRANCH   6   7
ENDBRANCH   4   6
ENDBRANCH   3   4
ENDBRANCH   2   3
ENDBRANCH   1   2
BRANCH   1  14
ATOM     14  O   UNL     1       3.080   5.455   1.323  1.00  0.00    -0.458 OA
BRANCH  14  15
ATOM     15  C   UNL     1       3.661   4.269   1.034  1.00  0.00     0.338 C 
ATOM     16  O   UNL     1       3.520   3.205   1.609  1.00  0.00    -0.246 OA
BRANCH  15  17
ATOM     17  C   UNL     1       4.608   4.471  -0.072  1.00  0.00     0.060 A 
ATOM     18  C   UNL     1       4.150   4.701  -1.372  1.00  0.00     0.016 A 
ATOM     19  C   UNL     1       5.974   4.356   0.191  1.00  0.00     0.016 A 
ATOM     20  C   UNL     1       5.065   4.787  -2.423  1.00  0.00     0.010 A 
ATOM     21  C   UNL     1       6.888   4.479  -0.855  1.00  0.00     0.010 A 
ATOM     22  C   UNL     1       6.441   4.671  -2.174  1.00  0.00    -0.014 A 
BRANCH  22  23
ATOM     23  C   UNL     1       7.427   4.691  -3.284  1.00  0.00     0.031 A 
ATOM     24  C   UNL     1       8.168   3.433  -3.645  1.00  0.00     0.074 A 
ATOM     25  C   UNL     1       7.685   5.835  -3.942  1.00  0.00     0.049 A 
ATOM     26  N   UNL     1       9.162   3.267  -4.480  1.00  0.00    -0.248 NA
ATOM     27  C   UNL     1       7.737   2.200  -2.967  1.00  0.00     0.031 C 
ATOM     28  C   UNL     1       7.020   7.116  -3.706  1.00  0.00     0.029 A 
ATOM     29  N   UNL     1       8.593   6.106  -4.936  1.00  0.00    -0.354 N 
ATOM     30  C   UNL     1       9.493   1.919  -4.410  1.00  0.00     0.074 A 
ATOM     31  C   UNL     1       8.606   1.316  -3.437  1.00  0.00     0.031 C 
ATOM     32  C   UNL     1       7.542   8.038  -4.531  1.00  0.00     0.029 A 
ATOM     33  C   UNL     1       8.610   7.425  -5.317  1.00  0.00     0.049 A 
ATOM     34  H   UNL     1       9.175   5.421  -5.336  1.00  0.00     0.167 HD
ATOM     35  C   UNL     1      10.446   1.245  -5.098  1.00  0.00     0.037 A 
ATOM     36  C   UNL     1       9.416   8.073  -6.180  1.00  0.00     0.037 A 
ATOM     37  C   UNL     1      11.315   1.841  -6.079  1.00  0.00     0.049 A 
ATOM     38  C   UNL     1      10.499   7.314  -6.894  1.00  0.00     0.074 A 
ATOM     39  C   UNL     1      12.293   1.234  -6.848  1.00  0.00     0.029 A 
ATOM     40  N   UNL     1      11.309   3.183  -6.426  1.00  0.00    -0.354 N 
ATOM     41  N   UNL     1      10.801   6.040  -6.823  1.00  0.00    -0.248 NA
ATOM     42  C   UNL     1      11.361   8.085  -7.801  1.00  0.00     0.031 C 
ATOM     43  C   UNL     1      12.904   2.217  -7.634  1.00  0.00     0.029 A 
ATOM     44  C   UNL     1      12.279   3.428  -7.385  1.00  0.00     0.049 A 
ATOM     45  H   UNL     1      10.705   3.862  -6.048  1.00  0.00     0.167 HD
ATOM     46  C   UNL     1      11.868   5.853  -7.692  1.00  0.00     0.074 A 
ATOM     47  C   UNL     1      12.155   7.141  -8.287  1.00  0.00     0.031 C 
ATOM     48  C   UNL     1      12.549   4.715  -7.972  1.00  0.00     0.037 A 
BRANCH  35  49
ATOM     49  C   UNL     1      10.614  -0.214  -4.795  1.00  0.00     0.057 A 
ATOM     50  C   UNL     1       9.683  -1.171  -5.220  1.00  0.00     0.134 A 
ATOM     51  C   UNL     1      11.738  -0.672  -4.096  1.00  0.00     0.134 A 
ATOM     52  F   UNL     1       8.578  -0.797  -5.883  1.00  0.00    -0.206 F 
ATOM     53  C   UNL     1       9.854  -2.529  -4.942  1.00  0.00     0.040 A 
ATOM     54  C   UNL     1      11.932  -2.029  -3.832  1.00  0.00     0.040 A 
ATOM     55  F   UNL     1      12.671   0.191  -3.665  1.00  0.00    -0.206 F 
ATOM     56  C   UNL     1      10.985  -2.961  -4.251  1.00  0.00     0.006 A 
ENDBRANCH  35  49
BRANCH  36  57
ATOM     57  C   UNL     1       9.238   9.528  -6.407  1.00  0.00     0.057 A 
ATOM     58  C   UNL     1       8.739  10.013  -7.621  1.00  0.00     0.134 A 
ATOM     59  C   UNL     1       9.570  10.468  -5.424  1.00  0.00     0.134 A 
ATOM     60  F   UNL     1       8.427   9.162  -8.610  1.00  0.00    -0.206 F 
ATOM     61  C   UNL     1       8.585  11.380  -7.854  1.00  0.00     0.040 A 
ATOM     62  C   UNL     1       9.399  11.837  -5.634  1.00  0.00     0.040 A 
ATOM     63  F   UNL     1      10.054  10.066  -4.239  1.00  0.00    -0.206 F 
ATOM     64  C   UNL     1       8.910  12.296  -6.855  1.00  0.00     0.006 A 
ENDBRANCH  36  57
BRANCH  48  65
ATOM     65  C   UNL     1      13.646   4.807  -8.990  1.00  0.00     0.057 A 
ATOM     66  C   UNL     1      14.877   5.406  -8.697  1.00  0.00     0.134 A 
ATOM     67  C   UNL     1      13.479   4.260 -10.269  1.00  0.00     0.134 A 
ATOM     68  F   UNL     1      15.094   5.961  -7.495  1.00  0.00    -0.206 F 
ATOM     69  C   UNL     1      15.897   5.476  -9.647  1.00  0.00     0.040 A 
ATOM     70  C   UNL     1      14.500   4.304 -11.219  1.00  0.00     0.040 A 
ATOM     71  F   UNL     1      12.326   3.666 -10.610  1.00  0.00    -0.206 F 
ATOM     72  C   UNL     1      15.712   4.918 -10.911  1.00  0.00     0.006 A 
ENDBRANCH  48  65
ENDBRANCH  22  23
ENDBRANCH  15  17
ENDBRANCH  14  15
ENDBRANCH   1  14
TORSDOF 12
