REMARK SMILES COc1cc2c(cc1OC)[C@H](C(=O)OCCOC(=O)c1ccc(-c3c4nc(c(-c5c(F)cccc5F)c5ccc([nH]5)c(-c5c(F)cccc5F)c5nc(c(-c6c(F)cccc6F)c6ccc3[nH]6)C=C5)C=C4)cc1)[C@@H](c1ccc(SC)cc1)N(C)C2=O
REMARK SMILES IDX 15 1 14 2 12 3 13 4 11 5 3 6 4 7 8 8 5 9 7 10 6 11 85 12
REMARK SMILES IDX 83 13 86 14 74 15 84 16 2 17 1 18 9 19 10 20 75 21 76 22
REMARK SMILES IDX 82 23 77 24 81 25 78 26 79 27 80 28 16 29 17 30 18 31 19 32
REMARK SMILES IDX 20 33 21 34 73 35 22 36 72 37 23 38 24 39 25 40 66 41 26 42
REMARK SMILES IDX 71 43 65 44 67 45 27 46 70 47 64 48 63 49 28 51 54 52 37 53
REMARK SMILES IDX 53 54 38 55 41 56 52 57 68 58 39 59 40 60 51 62 69 63 42 64
REMARK SMILES IDX 29 65 30 66 35 67 31 68 32 69 34 70 36 71 33 72 55 73 56 74
REMARK SMILES IDX 61 75 57 76 58 77 60 78 62 79 59 80 43 81 44 82 49 83 45 84
REMARK SMILES IDX 46 85 48 86 50 87 47 88
REMARK H PARENT 67 50 41 61
REMARK Flexibility Score: inf
ROOT
ATOM      1  C   UNL     1      -0.497  -7.347  -3.029  1.00  0.00     0.274 C 
ENDROOT
BRANCH   1   2
ATOM      2  O   UNL     1       0.614  -6.475  -2.712  1.00  0.00    -0.462 OA
BRANCH   2   3
ATOM      3  C   UNL     1       1.566  -6.360  -3.674  1.00  0.00     0.316 C 
ATOM      4  O   UNL     1       1.720  -7.219  -4.536  1.00  0.00    -0.251 OA
BRANCH   3   5
ATOM      5  C   UNL     1       2.314  -5.011  -3.688  1.00  0.00     0.157 C 
ATOM      6  C   UNL     1       1.212  -1.982  -0.710  1.00  0.00     0.161 A 
ATOM      7  C   UNL     1       2.519  -2.085  -1.199  1.00  0.00     0.064 A 
ATOM      8  C   UNL     1       0.238  -2.845  -1.206  1.00  0.00     0.161 A 
ATOM      9  C   UNL     1       2.867  -3.050  -2.165  1.00  0.00     0.048 A 
ATOM     10  C   UNL     1       0.602  -3.787  -2.184  1.00  0.00     0.056 A 
ATOM     11  C   UNL     1       1.923  -3.970  -2.631  1.00  0.00    -0.015 A 
ATOM     12  C   UNL     1       4.228  -2.973  -2.754  1.00  0.00     0.254 C 
ATOM     13  N   UNL     1       4.604  -3.971  -3.646  1.00  0.00    -0.333 N 
ATOM     14  O   UNL     1       4.943  -2.015  -2.471  1.00  0.00    -0.269 OA
ATOM     15  C   UNL     1       3.864  -5.258  -3.696  1.00  0.00     0.134 C 
ATOM     16  C   UNL     1       5.913  -3.833  -4.279  1.00  0.00     0.147 C 
BRANCH   6  17
ATOM     17  O   UNL     1       0.908  -1.093   0.285  1.00  0.00    -0.493 OA
ATOM     18  C   UNL     1       1.326   0.243   0.009  1.00  0.00     0.278 C 
ENDBRANCH   6  17
BRANCH   8  19
ATOM     19  O   UNL     1      -1.087  -2.929  -0.874  1.00  0.00    -0.493 OA
ATOM     20  C   UNL     1      -1.663  -1.889  -0.099  1.00  0.00     0.278 C 
ENDBRANCH   8  19
BRANCH  15  21
ATOM     21  C   UNL     1       4.383  -6.159  -4.826  1.00  0.00    -0.024 A 
ATOM     22  C   UNL     1       3.915  -6.036  -6.141  1.00  0.00     0.007 A 
ATOM     23  C   UNL     1       5.378  -7.120  -4.579  1.00  0.00     0.007 A 
ATOM     24  C   UNL     1       4.332  -6.912  -7.147  1.00  0.00     0.015 A 
ATOM     25  C   UNL     1       5.833  -7.970  -5.600  1.00  0.00     0.015 A 
ATOM     26  C   UNL     1       5.294  -7.888  -6.886  1.00  0.00     0.007 A 
BRANCH  26  27
ATOM     27  S   UNL     1       5.714  -9.019  -8.202  1.00  0.00    -0.130 SA
ATOM     28  C   UNL     1       7.522  -9.017  -8.113  1.00  0.00     0.091 C 
ENDBRANCH  26  27
ENDBRANCH  15  21
ENDBRANCH   3   5
ENDBRANCH   2   3
ENDBRANCH   1   2
BRANCH   1  29
ATOM     29  C   UNL     1      -1.588  -6.556  -3.767  1.00  0.00     0.275 C 
BRANCH  29  30
ATOM     30  O   UNL     1      -1.056  -6.054  -5.009  1.00  0.00    -0.458 OA
BRANCH  30  31
ATOM     31  C   UNL     1      -1.565  -4.886  -5.470  1.00  0.00     0.338 C 
ATOM     32  O   UNL     1      -2.460  -4.234  -4.951  1.00  0.00    -0.246 OA
BRANCH  31  33
ATOM     33  C   UNL     1      -0.876  -4.483  -6.725  1.00  0.00     0.060 A 
ATOM     34  C   UNL     1       0.393  -4.965  -7.049  1.00  0.00     0.016 A 
ATOM     35  C   UNL     1      -1.495  -3.578  -7.592  1.00  0.00     0.016 A 
ATOM     36  C   UNL     1       1.055  -4.515  -8.195  1.00  0.00     0.010 A 
ATOM     37  C   UNL     1      -0.867  -3.201  -8.790  1.00  0.00     0.010 A 
ATOM     38  C   UNL     1       0.423  -3.660  -9.106  1.00  0.00    -0.014 A 
BRANCH  38  39
ATOM     39  C   UNL     1       1.090  -3.268 -10.385  1.00  0.00     0.031 A 
ATOM     40  C   UNL     1       1.268  -1.815 -10.741  1.00  0.00     0.074 A 
ATOM     41  C   UNL     1       1.523  -4.206 -11.255  1.00  0.00     0.049 A 
ATOM     42  N   UNL     1       1.578  -1.273 -11.893  1.00  0.00    -0.248 NA
ATOM     43  C   UNL     1       1.056  -0.841  -9.659  1.00  0.00     0.031 C 
ATOM     44  C   UNL     1       1.476  -5.654 -11.044  1.00  0.00     0.029 A 
ATOM     45  N   UNL     1       2.085  -4.076 -12.504  1.00  0.00    -0.354 N 
ATOM     46  C   UNL     1       1.533   0.101 -11.692  1.00  0.00     0.074 A 
ATOM     47  C   UNL     1       1.177   0.311 -10.304  1.00  0.00     0.031 C 
ATOM     48  C   UNL     1       2.009  -6.274 -12.107  1.00  0.00     0.029 A 
ATOM     49  C   UNL     1       2.343  -5.279 -13.118  1.00  0.00     0.049 A 
ATOM     50  H   UNL     1       2.283  -3.206 -12.919  1.00  0.00     0.167 HD
ATOM     51  C   UNL     1       1.760   1.096 -12.585  1.00  0.00     0.037 A 
ATOM     52  C   UNL     1       2.746  -5.564 -14.371  1.00  0.00     0.037 A 
ATOM     53  C   UNL     1       2.174   0.891 -13.950  1.00  0.00     0.049 A 
ATOM     54  C   UNL     1       2.959  -4.450 -15.354  1.00  0.00     0.074 A 
ATOM     55  C   UNL     1       2.441   1.840 -14.923  1.00  0.00     0.029 A 
ATOM     56  N   UNL     1       2.403  -0.347 -14.529  1.00  0.00    -0.354 N 
ATOM     57  N   UNL     1       2.837  -3.158 -15.175  1.00  0.00    -0.248 NA
ATOM     58  C   UNL     1       3.341  -4.836 -16.720  1.00  0.00     0.031 C 
ATOM     59  C   UNL     1       2.804   1.175 -16.099  1.00  0.00     0.029 A 
ATOM     60  C   UNL     1       2.799  -0.187 -15.848  1.00  0.00     0.049 A 
ATOM     61  H   UNL     1       2.300  -1.213 -14.072  1.00  0.00     0.167 HD
ATOM     62  C   UNL     1       3.133  -2.576 -16.401  1.00  0.00     0.074 A 
ATOM     63  C   UNL     1       3.461  -3.655 -17.310  1.00  0.00     0.031 C 
ATOM     64  C   UNL     1       3.127  -1.266 -16.742  1.00  0.00     0.037 A 
BRANCH  51  65
ATOM     65  C   UNL     1       1.527   2.505 -12.127  1.00  0.00     0.057 A 
ATOM     66  C   UNL     1       2.413   3.168 -11.270  1.00  0.00     0.134 A 
ATOM     67  C   UNL     1       0.414   3.223 -12.587  1.00  0.00     0.134 A 
ATOM     68  F   UNL     1       3.491   2.534 -10.784  1.00  0.00    -0.206 F 
ATOM     69  C   UNL     1       2.191   4.488 -10.871  1.00  0.00     0.040 A 
ATOM     70  C   UNL     1       0.194   4.549 -12.214  1.00  0.00     0.040 A 
ATOM     71  F   UNL     1      -0.470   2.649 -13.418  1.00  0.00    -0.206 F 
ATOM     72  C   UNL     1       1.081   5.184 -11.349  1.00  0.00     0.006 A 
ENDBRANCH  51  65
BRANCH  52  73
ATOM     73  C   UNL     1       2.917  -6.979 -14.787  1.00  0.00     0.057 A 
ATOM     74  C   UNL     1       4.186  -7.511 -15.038  1.00  0.00     0.134 A 
ATOM     75  C   UNL     1       1.816  -7.832 -14.941  1.00  0.00     0.134 A 
ATOM     76  F   UNL     1       5.275  -6.735 -14.936  1.00  0.00    -0.206 F 
ATOM     77  C   UNL     1       4.356  -8.840 -15.429  1.00  0.00     0.040 A 
ATOM     78  C   UNL     1       1.973  -9.169 -15.306  1.00  0.00     0.040 A 
ATOM     79  F   UNL     1       0.573  -7.381 -14.718  1.00  0.00    -0.206 F 
ATOM     80  C   UNL     1       3.247  -9.676 -15.556  1.00  0.00     0.006 A 
ENDBRANCH  52  73
BRANCH  64  81
ATOM     81  C   UNL     1       3.515  -0.926 -18.149  1.00  0.00     0.057 A 
ATOM     82  C   UNL     1       2.643  -1.137 -19.225  1.00  0.00     0.134 A 
ATOM     83  C   UNL     1       4.766  -0.362 -18.428  1.00  0.00     0.134 A 
ATOM     84  F   UNL     1       1.437  -1.689 -19.024  1.00  0.00    -0.206 F 
ATOM     85  C   UNL     1       3.010  -0.815 -20.532  1.00  0.00     0.040 A 
ATOM     86  C   UNL     1       5.136  -0.018 -19.728  1.00  0.00     0.040 A 
ATOM     87  F   UNL     1       5.644  -0.131 -17.440  1.00  0.00    -0.206 F 
ATOM     88  C   UNL     1       4.259  -0.249 -20.786  1.00  0.00     0.006 A 
ENDBRANCH  64  81
ENDBRANCH  38  39
ENDBRANCH  31  33
ENDBRANCH  30  31
ENDBRANCH  29  30
ENDBRANCH   1  29
TORSDOF 15
