REMARK SMILES CC(C)c1ccc(-c2cnc([C@@H]3[NH2+][C@H](C(=O)OCCOC(=O)c4ccc(-c5c6nc(c(-c7c(F)cccc7F)c7ccc([nH]7)c(-c7c(F)cccc7F)c7nc(c(-c8c(F)cccc8F)c8ccc5[nH]8)C=C7)C=C6)cc4)C(C)(C)S3)s2)cc1
REMARK SMILES IDX 18 1 17 2 15 3 16 4 14 5 12 6 13 7 80 8 77 11 78 12 79 13
REMARK SMILES IDX 11 14 8 15 9 16 81 17 10 18 7 19 4 20 5 21 83 22 6 23 82 24
REMARK SMILES IDX 2 25 1 26 3 27 19 28 20 29 21 30 22 31 23 32 24 33 76 34
REMARK SMILES IDX 25 35 75 36 26 37 27 38 28 39 69 40 29 41 74 42 68 43 70 44
REMARK SMILES IDX 30 45 73 46 67 47 66 48 31 50 57 51 40 52 56 53 41 54 44 55
REMARK SMILES IDX 55 56 71 57 42 58 43 59 54 61 72 62 45 63 32 64 33 65 38 66
REMARK SMILES IDX 34 67 35 68 37 69 39 70 36 71 58 72 59 73 64 74 60 75 61 76
REMARK SMILES IDX 63 77 65 78 62 79 46 80 47 81 52 82 48 83 49 84 51 85 53 86
REMARK SMILES IDX 50 87
REMARK H PARENT 13 9 13 10 70 49 44 60
REMARK Flexibility Score: inf
ROOT
ATOM      1  C   UNL     1     -13.349  -0.404  -2.976  1.00  0.00     0.274 C 
ENDROOT
BRANCH   1   2
ATOM      2  O   UNL     1     -12.760  -1.051  -1.831  1.00  0.00    -0.458 OA
BRANCH   2   3
ATOM      3  C   UNL     1     -12.356  -2.327  -2.065  1.00  0.00     0.366 C 
ATOM      4  O   UNL     1     -12.647  -2.947  -3.087  1.00  0.00    -0.245 OA
BRANCH   3   5
ATOM      5  C   UNL     1     -11.529  -2.974  -0.922  1.00  0.00     0.310 C 
ATOM      6  C   UNL     1      -9.219  -2.493  -1.427  1.00  0.00     0.304 C 
ATOM      7  N   UNL     1     -10.250  -3.544  -1.484  1.00  0.00    -0.317 N 
ATOM      8  S   UNL     1      -9.463  -1.692   0.196  1.00  0.00    -0.079 SA
ATOM      9  H   UNL     1      -9.956  -4.348  -0.930  1.00  0.00     0.348 HD
ATOM     10  H   UNL     1     -10.392  -3.849  -2.447  1.00  0.00     0.348 HD
ATOM     11  C   UNL     1     -11.197  -2.254   0.411  1.00  0.00     0.079 C 
ATOM     12  C   UNL     1     -11.149  -3.260   1.586  1.00  0.00     0.030 C 
ATOM     13  C   UNL     1     -12.139  -1.127   0.853  1.00  0.00     0.030 C 
BRANCH   6  14
ATOM     14  C   UNL     1      -9.226  -1.508  -2.599  1.00  0.00     0.162 A 
ATOM     15  C   UNL     1      -8.584   0.008  -4.440  1.00  0.00     0.055 A 
ATOM     16  C   UNL     1      -9.863   0.141  -3.941  1.00  0.00     0.132 A 
ATOM     17  S   UNL     1      -7.880  -1.384  -3.691  1.00  0.00    -0.112 S 
ATOM     18  N   UNL     1     -10.208  -0.679  -2.888  1.00  0.00    -0.242 NA
BRANCH  15  19
ATOM     19  C   UNL     1      -7.891   0.905  -5.390  1.00  0.00    -0.007 A 
ATOM     20  C   UNL     1      -6.654   2.730  -7.230  1.00  0.00    -0.045 A 
ATOM     21  C   UNL     1      -6.306   1.370  -7.189  1.00  0.00     0.004 A 
ATOM     22  C   UNL     1      -7.591   3.172  -6.288  1.00  0.00     0.004 A 
ATOM     23  C   UNL     1      -6.913   0.473  -6.287  1.00  0.00     0.010 A 
ATOM     24  C   UNL     1      -8.202   2.278  -5.396  1.00  0.00     0.010 A 
BRANCH  20  25
ATOM     25  C   UNL     1      -6.039   3.729  -8.212  1.00  0.00     0.013 C 
ATOM     26  C   UNL     1      -5.083   3.119  -9.247  1.00  0.00     0.012 C 
ATOM     27  C   UNL     1      -7.113   4.528  -8.972  1.00  0.00     0.012 C 
ENDBRANCH  20  25
ENDBRANCH  15  19
ENDBRANCH   6  14
ENDBRANCH   3   5
ENDBRANCH   2   3
ENDBRANCH   1   2
BRANCH   1  28
ATOM     28  C   UNL     1     -13.494   1.104  -2.737  1.00  0.00     0.275 C 
BRANCH  28  29
ATOM     29  O   UNL     1     -12.195   1.723  -2.618  1.00  0.00    -0.458 OA
BRANCH  29  30
ATOM     30  C   UNL     1     -11.942   2.426  -1.491  1.00  0.00     0.338 C 
ATOM     31  O   UNL     1     -12.736   2.747  -0.619  1.00  0.00    -0.246 OA
BRANCH  30  32
ATOM     32  C   UNL     1     -10.482   2.613  -1.370  1.00  0.00     0.060 A 
ATOM     33  C   UNL     1      -9.775   1.595  -0.739  1.00  0.00     0.016 A 
ATOM     34  C   UNL     1      -9.801   3.743  -1.813  1.00  0.00     0.016 A 
ATOM     35  C   UNL     1      -8.392   1.651  -0.588  1.00  0.00     0.010 A 
ATOM     36  C   UNL     1      -8.404   3.817  -1.644  1.00  0.00     0.010 A 
ATOM     37  C   UNL     1      -7.688   2.765  -1.040  1.00  0.00    -0.014 A 
BRANCH  37  38
ATOM     38  C   UNL     1      -6.224   2.846  -0.797  1.00  0.00     0.031 A 
ATOM     39  C   UNL     1      -5.717   3.520   0.432  1.00  0.00     0.074 A 
ATOM     40  C   UNL     1      -5.335   2.221  -1.590  1.00  0.00     0.049 A 
ATOM     41  N   UNL     1      -4.494   3.857   0.740  1.00  0.00    -0.248 NA
ATOM     42  C   UNL     1      -6.716   3.815   1.467  1.00  0.00     0.031 C 
ATOM     43  C   UNL     1      -5.696   1.319  -2.665  1.00  0.00     0.029 A 
ATOM     44  N   UNL     1      -3.962   2.228  -1.618  1.00  0.00    -0.354 N 
ATOM     45  C   UNL     1      -4.573   4.426   2.000  1.00  0.00     0.074 A 
ATOM     46  C   UNL     1      -5.964   4.376   2.402  1.00  0.00     0.031 C 
ATOM     47  C   UNL     1      -4.590   0.872  -3.278  1.00  0.00     0.029 A 
ATOM     48  C   UNL     1      -3.437   1.532  -2.683  1.00  0.00     0.049 A 
ATOM     49  H   UNL     1      -3.409   2.685  -0.943  1.00  0.00     0.167 HD
ATOM     50  C   UNL     1      -3.571   4.957   2.737  1.00  0.00     0.037 A 
ATOM     51  C   UNL     1      -2.180   1.491  -3.166  1.00  0.00     0.037 A 
ATOM     52  C   UNL     1      -2.198   5.017   2.308  1.00  0.00     0.049 A 
ATOM     53  C   UNL     1      -1.123   2.300  -2.471  1.00  0.00     0.074 A 
ATOM     54  C   UNL     1      -1.121   5.620   2.933  1.00  0.00     0.029 A 
ATOM     55  N   UNL     1      -1.713   4.453   1.135  1.00  0.00    -0.354 N 
ATOM     56  N   UNL     1      -1.210   2.972  -1.349  1.00  0.00    -0.248 NA
ATOM     57  C   UNL     1       0.195   2.374  -3.116  1.00  0.00     0.031 C 
ATOM     58  C   UNL     1       0.002   5.470   2.110  1.00  0.00     0.029 A 
ATOM     59  C   UNL     1      -0.361   4.726   0.998  1.00  0.00     0.049 A 
ATOM     60  H   UNL     1      -2.251   3.935   0.493  1.00  0.00     0.167 HD
ATOM     61  C   UNL     1       0.043   3.526  -1.137  1.00  0.00     0.074 A 
ATOM     62  C   UNL     1       0.877   3.108  -2.247  1.00  0.00     0.031 C 
ATOM     63  C   UNL     1       0.461   4.307  -0.111  1.00  0.00     0.037 A 
BRANCH  50  64
ATOM     64  C   UNL     1      -3.969   5.610   4.024  1.00  0.00     0.057 A 
ATOM     65  C   UNL     1      -4.372   4.875   5.145  1.00  0.00     0.134 A 
ATOM     66  C   UNL     1      -4.007   7.007   4.115  1.00  0.00     0.134 A 
ATOM     67  F   UNL     1      -4.388   3.534   5.111  1.00  0.00    -0.206 F 
ATOM     68  C   UNL     1      -4.832   5.508   6.302  1.00  0.00     0.040 A 
ATOM     69  C   UNL     1      -4.439   7.651   5.273  1.00  0.00     0.040 A 
ATOM     70  F   UNL     1      -3.640   7.768   3.072  1.00  0.00    -0.206 F 
ATOM     71  C   UNL     1      -4.865   6.901   6.367  1.00  0.00     0.006 A 
ENDBRANCH  50  64
BRANCH  51  72
ATOM     72  C   UNL     1      -1.870   0.737  -4.410  1.00  0.00     0.057 A 
ATOM     73  C   UNL     1      -1.022  -0.376  -4.394  1.00  0.00     0.134 A 
ATOM     74  C   UNL     1      -2.390   1.129  -5.652  1.00  0.00     0.134 A 
ATOM     75  F   UNL     1      -0.463  -0.782  -3.245  1.00  0.00    -0.206 F 
ATOM     76  C   UNL     1      -0.702  -1.069  -5.564  1.00  0.00     0.040 A 
ATOM     77  C   UNL     1      -2.099   0.430  -6.825  1.00  0.00     0.040 A 
ATOM     78  F   UNL     1      -3.191   2.201  -5.745  1.00  0.00    -0.206 F 
ATOM     79  C   UNL     1      -1.248  -0.671  -6.783  1.00  0.00     0.006 A 
ENDBRANCH  51  72
BRANCH  63  80
ATOM     80  C   UNL     1       1.898   4.732  -0.119  1.00  0.00     0.057 A 
ATOM     81  C   UNL     1       2.377   5.707  -1.003  1.00  0.00     0.134 A 
ATOM     82  C   UNL     1       2.805   4.189   0.799  1.00  0.00     0.134 A 
ATOM     83  F   UNL     1       1.564   6.252  -1.921  1.00  0.00    -0.206 F 
ATOM     84  C   UNL     1       3.711   6.117  -0.981  1.00  0.00     0.040 A 
ATOM     85  C   UNL     1       4.134   4.609   0.848  1.00  0.00     0.040 A 
ATOM     86  F   UNL     1       2.409   3.252   1.675  1.00  0.00    -0.206 F 
ATOM     87  C   UNL     1       4.592   5.573  -0.047  1.00  0.00     0.006 A 
ENDBRANCH  63  80
ENDBRANCH  37  38
ENDBRANCH  30  32
ENDBRANCH  29  30
ENDBRANCH  28  29
ENDBRANCH   1  28
TORSDOF 14
