REMARK SMILES Cc1cc2c(=O)cc(-c3ccc(F)cc3)oc2c(C(=O)OCCOC(=O)c2ccc(-c3c4nc(c(-c5c(F)cccc5F)c5ccc([nH]5)c(-c5c(F)cccc5F)c5nc(c(-c6c(F)cccc6F)c6ccc3[nH]6)C=C5)C=C4)cc2)c1C
REMARK SMILES IDX 23 1 22 2 21 3 19 4 20 5 18 6 1 7 2 8 3 9 81 10 4 11 82 12
REMARK SMILES IDX 5 13 17 14 6 15 7 16 16 17 8 18 9 19 10 20 15 21 11 22 14 23
REMARK SMILES IDX 12 24 13 25 24 26 25 27 26 28 27 29 28 30 80 31 29 32 79 33
REMARK SMILES IDX 30 34 31 35 32 36 73 37 33 38 78 39 72 40 74 41 34 42 77 43
REMARK SMILES IDX 71 44 70 45 35 47 61 48 44 49 60 50 45 51 48 52 59 53 75 54
REMARK SMILES IDX 46 55 47 56 58 58 76 59 49 60 36 61 37 62 42 63 38 64 39 65
REMARK SMILES IDX 41 66 43 67 40 68 62 69 63 70 68 71 64 72 65 73 67 74 69 75
REMARK SMILES IDX 66 76 50 77 51 78 56 79 52 80 53 81 55 82 57 83 54 84
REMARK H PARENT 74 46 48 57
REMARK Flexibility Score: inf
ROOT
ATOM      1  C   UNL     1       3.973   5.919  -1.996  1.00  0.00     0.275 C 
ENDROOT
BRANCH   1   2
ATOM      2  C   UNL     1       3.728   5.181  -0.671  1.00  0.00     0.275 C 
BRANCH   2   3
ATOM      3  O   UNL     1       2.457   4.476  -0.702  1.00  0.00    -0.458 OA
BRANCH   3   4
ATOM      4  C   UNL     1       1.812   4.277   0.481  1.00  0.00     0.342 C 
ATOM      5  O   UNL     1       2.107   4.779   1.553  1.00  0.00    -0.246 OA
BRANCH   4   6
ATOM      6  C   UNL     1       0.764   3.230   0.355  1.00  0.00     0.106 A 
ATOM      7  C   UNL     1       0.780  -0.591  -0.034  1.00  0.00     0.044 C 
ATOM      8  C   UNL     1       0.344   0.833   0.200  1.00  0.00    -0.046 A 
ATOM      9  C   UNL     1      -0.986   1.077   0.600  1.00  0.00     0.019 A 
ATOM     10  C   UNL     1       1.217   1.922   0.008  1.00  0.00    -0.030 A 
ATOM     11  C   UNL     1      -1.452   2.381   0.831  1.00  0.00     0.066 A 
ATOM     12  C   UNL     1       2.609   1.716  -0.558  1.00  0.00     0.046 C 
ATOM     13  C   UNL     1      -2.872   2.641   1.160  1.00  0.00     0.193 A 
ATOM     14  C   UNL     1      -0.583   3.459   0.751  1.00  0.00     0.153 A 
ATOM     15  O   UNL     1      -3.633   1.731   1.463  1.00  0.00    -0.289 OA
ATOM     16  C   UNL     1      -3.353   4.045   1.036  1.00  0.00     0.100 A 
ATOM     17  O   UNL     1      -1.050   4.716   1.083  1.00  0.00    -0.455 OA
ATOM     18  C   UNL     1      -2.436   5.017   0.958  1.00  0.00     0.138 A 
BRANCH  18  19
ATOM     19  C   UNL     1      -2.742   6.524   0.809  1.00  0.00     0.018 A 
ATOM     20  C   UNL     1      -3.238   7.276  -0.767  1.00  0.00     0.015 A 
ATOM     21  C   UNL     1      -1.933   7.562   2.029  1.00  0.00     0.015 A 
ATOM     22  C   UNL     1      -3.175   9.127  -1.042  1.00  0.00     0.040 A 
ATOM     23  C   UNL     1      -1.556   9.303   1.674  1.00  0.00     0.040 A 
ATOM     24  C   UNL     1      -2.313  10.159   0.236  1.00  0.00     0.123 A 
ATOM     25  F   UNL     1      -2.020  11.445   0.005  1.00  0.00    -0.207 F 
ENDBRANCH  18  19
ENDBRANCH   4   6
ENDBRANCH   3   4
ENDBRANCH   2   3
ENDBRANCH   1   2
BRANCH   1  26
ATOM     26  O   UNL     1       3.157   7.093  -2.004  1.00  0.00    -0.458 OA
BRANCH  26  27
ATOM     27  C   UNL     1       1.895   6.851  -2.396  1.00  0.00     0.338 C 
ATOM     28  O   UNL     1       1.473   5.964  -3.119  1.00  0.00    -0.246 OA
BRANCH  27  29
ATOM     29  C   UNL     1       1.033   7.678  -1.561  1.00  0.00     0.060 A 
ATOM     30  C   UNL     1       0.160   8.549  -2.123  1.00  0.00     0.016 A 
ATOM     31  C   UNL     1       0.873   7.357  -0.239  1.00  0.00     0.016 A 
ATOM     32  C   UNL     1      -0.943   8.930  -1.342  1.00  0.00     0.010 A 
ATOM     33  C   UNL     1      -0.457   7.353   0.219  1.00  0.00     0.010 A 
ATOM     34  C   UNL     1      -1.602   8.249  -0.048  1.00  0.00    -0.014 A 
BRANCH  34  35
ATOM     35  C   UNL     1      -3.477   8.604   0.922  1.00  0.00     0.031 A 
ATOM     36  C   UNL     1      -3.850   9.476   2.503  1.00  0.00     0.074 A 
ATOM     37  C   UNL     1      -4.947   8.646   0.477  1.00  0.00     0.049 A 
ATOM     38  N   UNL     1      -4.890   9.348   3.342  1.00  0.00    -0.248 NA
ATOM     39  C   UNL     1      -2.932  10.454   3.173  1.00  0.00     0.031 C 
ATOM     40  C   UNL     1      -5.561   8.120  -0.805  1.00  0.00     0.029 A 
ATOM     41  N   UNL     1      -6.071   9.440   0.882  1.00  0.00    -0.354 N 
ATOM     42  C   UNL     1      -4.430   9.857   4.582  1.00  0.00     0.074 A 
ATOM     43  C   UNL     1      -3.006   9.964   4.402  1.00  0.00     0.031 C 
ATOM     44  C   UNL     1      -6.604   8.832  -1.204  1.00  0.00     0.029 A 
ATOM     45  C   UNL     1      -7.047   9.649  -0.116  1.00  0.00     0.049 A 
ATOM     46  H   UNL     1      -6.155   9.811   1.790  1.00  0.00     0.167 HD
ATOM     47  C   UNL     1      -4.953  10.557   5.639  1.00  0.00     0.037 A 
ATOM     48  C   UNL     1      -8.213  10.330  -0.275  1.00  0.00     0.037 A 
ATOM     49  C   UNL     1      -6.233  11.208   5.670  1.00  0.00     0.049 A 
ATOM     50  C   UNL     1      -8.796  11.100   0.857  1.00  0.00     0.074 A 
ATOM     51  C   UNL     1      -6.787  11.977   6.686  1.00  0.00     0.029 A 
ATOM     52  N   UNL     1      -7.077  11.324   4.584  1.00  0.00    -0.354 N 
ATOM     53  N   UNL     1      -8.289  11.312   2.038  1.00  0.00    -0.248 NA
ATOM     54  C   UNL     1     -10.124  11.701   0.644  1.00  0.00     0.031 C 
ATOM     55  C   UNL     1      -7.978  12.542   6.218  1.00  0.00     0.029 A 
ATOM     56  C   UNL     1      -8.150  12.142   4.908  1.00  0.00     0.049 A 
ATOM     57  H   UNL     1      -6.939  10.890   3.711  1.00  0.00     0.167 HD
ATOM     58  C   UNL     1      -9.234  12.067   2.710  1.00  0.00     0.074 A 
ATOM     59  C   UNL     1     -10.314  12.336   1.789  1.00  0.00     0.031 C 
ATOM     60  C   UNL     1      -9.213  12.460   4.002  1.00  0.00     0.037 A 
BRANCH  47  61
ATOM     61  C   UNL     1      -4.053  10.774   6.862  1.00  0.00     0.057 A 
ATOM     62  C   UNL     1      -4.300  10.043   8.031  1.00  0.00     0.134 A 
ATOM     63  C   UNL     1      -2.941  11.636   6.889  1.00  0.00     0.134 A 
ATOM     64  F   UNL     1      -5.396   9.277   8.134  1.00  0.00    -0.206 F 
ATOM     65  C   UNL     1      -3.428  10.079   9.125  1.00  0.00     0.040 A 
ATOM     66  C   UNL     1      -2.025  11.629   7.947  1.00  0.00     0.040 A 
ATOM     67  F   UNL     1      -2.654  12.417   5.834  1.00  0.00    -0.206 F 
ATOM     68  C   UNL     1      -2.262  10.838   9.066  1.00  0.00     0.006 A 
ENDBRANCH  47  61
BRANCH  48  69
ATOM     69  C   UNL     1      -8.977  10.300  -1.589  1.00  0.00     0.057 A 
ATOM     70  C   UNL     1      -9.532   9.118  -2.109  1.00  0.00     0.134 A 
ATOM     71  C   UNL     1      -9.179  11.463  -2.353  1.00  0.00     0.134 A 
ATOM     72  F   UNL     1      -9.395   7.959  -1.448  1.00  0.00    -0.206 F 
ATOM     73  C   UNL     1     -10.194   9.080  -3.342  1.00  0.00     0.040 A 
ATOM     74  C   UNL     1      -9.890  11.449  -3.561  1.00  0.00     0.040 A 
ATOM     75  F   UNL     1      -8.726  12.646  -1.913  1.00  0.00    -0.206 F 
ATOM     76  C   UNL     1     -10.384  10.251  -4.068  1.00  0.00     0.006 A 
ENDBRANCH  48  69
BRANCH  60  77
ATOM     77  C   UNL     1     -10.380  13.255   4.482  1.00  0.00     0.057 A 
ATOM     78  C   UNL     1     -10.263  14.627   4.726  1.00  0.00     0.134 A 
ATOM     79  C   UNL     1     -11.631  12.658   4.679  1.00  0.00     0.134 A 
ATOM     80  F   UNL     1      -9.091  15.254   4.548  1.00  0.00    -0.206 F 
ATOM     81  C   UNL     1     -11.356  15.380   5.151  1.00  0.00     0.040 A 
ATOM     82  C   UNL     1     -12.737  13.406   5.077  1.00  0.00     0.040 A 
ATOM     83  F   UNL     1     -11.807  11.351   4.432  1.00  0.00    -0.206 F 
ATOM     84  C   UNL     1     -12.599  14.771   5.320  1.00  0.00     0.006 A 
ENDBRANCH  60  77
ENDBRANCH  34  35
ENDBRANCH  27  29
ENDBRANCH  26  27
ENDBRANCH   1  26
TORSDOF 12
