REMARK SMILES CC[C@H](C)CN(CC)C(=O)Nc1ccc(C(=O)OCCOC(=O)c2ccc(-c3c4nc(c(-c5c(F)cccc5F)c5ccc([nH]5)c(-c5c(F)cccc5F)c5nc(c(-c6c(F)cccc6F)c6ccc3[nH]6)C=C5)C=C4)cc2)cc1Cl
REMARK SMILES IDX 18 1 16 2 17 3 15 4 12 5 13 6 79 7 14 8 78 9 80 10 11 11
REMARK SMILES IDX 9 12 10 13 6 15 5 16 3 17 4 18 2 19 1 20 7 21 8 22 19 23
REMARK SMILES IDX 20 24 21 25 22 26 23 27 24 28 25 29 77 30 26 31 76 32 27 33
REMARK SMILES IDX 28 34 29 35 70 36 30 37 75 38 69 39 71 40 31 41 74 42 68 43
REMARK SMILES IDX 67 44 32 46 58 47 41 48 57 49 42 50 45 51 56 52 72 53 43 54
REMARK SMILES IDX 44 55 55 57 73 58 46 59 33 60 34 61 39 62 35 63 36 64 38 65
REMARK SMILES IDX 40 66 37 67 59 68 60 69 65 70 61 71 62 72 64 73 66 74 63 75
REMARK SMILES IDX 47 76 48 77 53 78 49 79 50 80 52 81 54 82 51 83
REMARK H PARENT 11 14 71 45 45 56
REMARK Flexibility Score: inf
ROOT
ATOM      1  O   UNL     1       4.064   2.625  -9.750  1.00  0.00    -0.458 OA
ENDROOT
BRANCH   1   2
ATOM      2  C   UNL     1       4.598   2.621  -8.508  1.00  0.00     0.338 C 
ATOM      3  O   UNL     1       5.773   2.441  -8.224  1.00  0.00    -0.246 OA
BRANCH   2   4
ATOM      4  C   UNL     1       3.574   2.917  -7.473  1.00  0.00     0.061 A 
ATOM      5  C   UNL     1       1.750   3.178  -5.393  1.00  0.00     0.061 A 
ATOM      6  C   UNL     1       3.112   3.291  -5.117  1.00  0.00     0.028 A 
ATOM      7  C   UNL     1       1.293   3.118  -6.718  1.00  0.00     0.065 A 
ATOM      8  C   UNL     1       4.021   3.113  -6.154  1.00  0.00     0.018 A 
ATOM      9  C   UNL     1       2.208   2.991  -7.764  1.00  0.00     0.038 A 
ATOM     10  Cl  UNL     1      -0.391   3.192  -7.096  1.00  0.00    -0.082 Cl
BRANCH   5  11
ATOM     11  N   UNL     1       0.901   2.995  -4.306  1.00  0.00    -0.306 N 
ATOM     12  C   UNL     1       0.254   1.884  -3.865  1.00  0.00     0.321 C 
ATOM     13  O   UNL     1      -0.624   2.091  -3.018  1.00  0.00    -0.248 OA
ATOM     14  H   UNL     1       0.743   3.804  -3.768  1.00  0.00     0.171 HD
BRANCH  12  15
ATOM     15  N   UNL     1       0.620   0.599  -4.230  1.00  0.00    -0.325 N 
BRANCH  15  16
ATOM     16  C   UNL     1      -0.015  -0.495  -3.478  1.00  0.00     0.124 C 
BRANCH  16  17
ATOM     17  C   UNL     1       0.856  -0.967  -2.282  1.00  0.00     0.005 C 
ATOM     18  C   UNL     1       0.927   0.092  -1.177  1.00  0.00     0.009 C 
BRANCH  17  19
ATOM     19  C   UNL     1       0.410  -2.365  -1.796  1.00  0.00     0.002 C 
ATOM     20  C   UNL     1      -0.317  -2.420  -0.462  1.00  0.00     0.004 C 
ENDBRANCH  17  19
ENDBRANCH  16  17
ENDBRANCH  15  16
BRANCH  15  21
ATOM     21  C   UNL     1       1.655   0.148  -5.173  1.00  0.00     0.118 C 
ATOM     22  C   UNL     1       1.094  -0.292  -6.517  1.00  0.00     0.027 C 
ENDBRANCH  15  21
ENDBRANCH  12  15
ENDBRANCH   5  11
ENDBRANCH   2   4
ENDBRANCH   1   2
BRANCH   1  23
ATOM     23  C   UNL     1       5.006   2.467 -10.827  1.00  0.00     0.275 C 
BRANCH  23  24
ATOM     24  C   UNL     1       5.327   3.818 -11.467  1.00  0.00     0.275 C 
BRANCH  24  25
ATOM     25  O   UNL     1       5.962   4.702 -10.521  1.00  0.00    -0.458 OA
BRANCH  25  26
ATOM     26  C   UNL     1       5.165   5.675 -10.023  1.00  0.00     0.338 C 
ATOM     27  O   UNL     1       4.003   5.904 -10.312  1.00  0.00    -0.246 OA
BRANCH  26  28
ATOM     28  C   UNL     1       5.858   6.414  -8.957  1.00  0.00     0.060 A 
ATOM     29  C   UNL     1       5.761   5.926  -7.658  1.00  0.00     0.016 A 
ATOM     30  C   UNL     1       6.397   7.677  -9.188  1.00  0.00     0.016 A 
ATOM     31  C   UNL     1       6.104   6.723  -6.573  1.00  0.00     0.010 A 
ATOM     32  C   UNL     1       6.812   8.456  -8.098  1.00  0.00     0.010 A 
ATOM     33  C   UNL     1       6.618   8.009  -6.776  1.00  0.00    -0.014 A 
BRANCH  33  34
ATOM     34  C   UNL     1       6.814   8.912  -5.607  1.00  0.00     0.031 A 
ATOM     35  C   UNL     1       6.002  10.180  -5.499  1.00  0.00     0.074 A 
ATOM     36  C   UNL     1       7.641   8.574  -4.598  1.00  0.00     0.049 A 
ATOM     37  N   UNL     1       6.100  11.158  -4.633  1.00  0.00    -0.248 NA
ATOM     38  C   UNL     1       4.946  10.376  -6.505  1.00  0.00     0.031 C 
ATOM     39  C   UNL     1       8.436   7.346  -4.526  1.00  0.00     0.029 A 
ATOM     40  N   UNL     1       7.933   9.226  -3.425  1.00  0.00    -0.354 N 
ATOM     41  C   UNL     1       5.161  12.105  -5.024  1.00  0.00     0.074 A 
ATOM     42  C   UNL     1       4.509  11.591  -6.209  1.00  0.00     0.031 C 
ATOM     43  C   UNL     1       9.087   7.313  -3.352  1.00  0.00     0.029 A 
ATOM     44  C   UNL     1       8.817   8.547  -2.621  1.00  0.00     0.049 A 
ATOM     45  H   UNL     1       7.545  10.098  -3.183  1.00  0.00     0.167 HD
ATOM     46  C   UNL     1       4.863  13.294  -4.447  1.00  0.00     0.037 A 
ATOM     47  C   UNL     1       9.370   8.892  -1.443  1.00  0.00     0.037 A 
ATOM     48  C   UNL     1       5.461  13.782  -3.232  1.00  0.00     0.049 A 
ATOM     49  C   UNL     1       9.041  10.227  -0.835  1.00  0.00     0.074 A 
ATOM     50  C   UNL     1       5.237  14.982  -2.579  1.00  0.00     0.029 A 
ATOM     51  N   UNL     1       6.380  13.078  -2.470  1.00  0.00    -0.354 N 
ATOM     52  N   UNL     1       8.216  11.151  -1.262  1.00  0.00    -0.248 NA
ATOM     53  C   UNL     1       9.738  10.573   0.414  1.00  0.00     0.031 C 
ATOM     54  C   UNL     1       6.036  15.012  -1.430  1.00  0.00     0.029 A 
ATOM     55  C   UNL     1       6.730  13.817  -1.351  1.00  0.00     0.049 A 
ATOM     56  H   UNL     1       6.732  12.186  -2.691  1.00  0.00     0.167 HD
ATOM     57  C   UNL     1       8.284  12.180  -0.331  1.00  0.00     0.074 A 
ATOM     58  C   UNL     1       9.210  11.755   0.698  1.00  0.00     0.031 C 
ATOM     59  C   UNL     1       7.645  13.375  -0.332  1.00  0.00     0.037 A 
BRANCH  46  60
ATOM     60  C   UNL     1       3.858  14.166  -5.143  1.00  0.00     0.057 A 
ATOM     61  C   UNL     1       2.489  13.875  -5.135  1.00  0.00     0.134 A 
ATOM     62  C   UNL     1       4.270  15.326  -5.811  1.00  0.00     0.134 A 
ATOM     63  F   UNL     1       2.032  12.770  -4.528  1.00  0.00    -0.206 F 
ATOM     64  C   UNL     1       1.566  14.696  -5.787  1.00  0.00     0.040 A 
ATOM     65  C   UNL     1       3.354  16.168  -6.445  1.00  0.00     0.040 A 
ATOM     66  F   UNL     1       5.567  15.665  -5.853  1.00  0.00    -0.206 F 
ATOM     67  C   UNL     1       1.998  15.849  -6.439  1.00  0.00     0.006 A 
ENDBRANCH  46  60
BRANCH  47  68
ATOM     68  C   UNL     1      10.323   7.976  -0.766  1.00  0.00     0.057 A 
ATOM     69  C   UNL     1       9.995   7.359   0.447  1.00  0.00     0.134 A 
ATOM     70  C   UNL     1      11.595   7.724  -1.294  1.00  0.00     0.134 A 
ATOM     71  F   UNL     1       8.802   7.583   1.017  1.00  0.00    -0.206 F 
ATOM     72  C   UNL     1      10.903   6.539   1.119  1.00  0.00     0.040 A 
ATOM     73  C   UNL     1      12.502   6.884  -0.647  1.00  0.00     0.040 A 
ATOM     74  F   UNL     1      11.972   8.286  -2.452  1.00  0.00    -0.206 F 
ATOM     75  C   UNL     1      12.160   6.295   0.569  1.00  0.00     0.006 A 
ENDBRANCH  47  68
BRANCH  59  76
ATOM     76  C   UNL     1       7.902  14.284   0.832  1.00  0.00     0.057 A 
ATOM     77  C   UNL     1       9.114  14.972   0.977  1.00  0.00     0.134 A 
ATOM     78  C   UNL     1       6.924  14.479   1.815  1.00  0.00     0.134 A 
ATOM     79  F   UNL     1      10.096  14.815   0.077  1.00  0.00    -0.206 F 
ATOM     80  C   UNL     1       9.354  15.799   2.075  1.00  0.00     0.040 A 
ATOM     81  C   UNL     1       7.144  15.321   2.905  1.00  0.00     0.040 A 
ATOM     82  F   UNL     1       5.740  13.854   1.731  1.00  0.00    -0.206 F 
ATOM     83  C   UNL     1       8.366  15.978   3.042  1.00  0.00     0.006 A 
ENDBRANCH  59  76
ENDBRANCH  33  34
ENDBRANCH  26  28
ENDBRANCH  25  26
ENDBRANCH  24  25
ENDBRANCH  23  24
ENDBRANCH   1  23
TORSDOF 17
