REMARK SMILES O=C(OCCOC(=O)c1cc(-c2ccoc2)n[nH]1)c1ccc(-c2c3nc(c(-c4c(F)cccc4F)c4ccc([nH]4)c(-c4c(F)cccc4F)c4nc(c(-c5c(F)cccc5F)c5ccc2[nH]5)C=C4)C=C3)cc1
REMARK SMILES IDX 4 1 3 2 2 3 1 4 19 5 20 6 72 7 21 8 71 9 22 10 23 11 24 12
REMARK SMILES IDX 65 13 25 14 70 15 64 16 66 17 26 18 69 19 63 20 62 21 27 23
REMARK SMILES IDX 53 24 36 25 52 26 37 27 40 28 51 29 67 30 38 31 39 32 50 34
REMARK SMILES IDX 68 35 41 36 28 37 29 38 34 39 30 40 31 41 33 42 35 43 32 44
REMARK SMILES IDX 54 45 55 46 60 47 56 48 57 49 59 50 61 51 58 52 42 53 43 54
REMARK SMILES IDX 48 55 44 56 45 57 47 58 49 59 46 60 5 61 6 62 7 63 8 64 9 65
REMARK SMILES IDX 10 66 18 67 11 68 17 69 12 71 13 72 16 73 14 74 15 75
REMARK H PARENT 66 22 40 33 18 70
REMARK Flexibility Score: inf
ROOT
ATOM      1  C   UNL     1       4.167   0.887  -1.368  1.00  0.00     0.275 C 
ENDROOT
BRANCH   1   2
ATOM      2  O   UNL     1       3.102  -0.055  -1.141  1.00  0.00    -0.458 OA
BRANCH   2   3
ATOM      3  C   UNL     1       2.900  -0.961  -0.157  1.00  0.00     0.338 C 
ATOM      4  O   UNL     1       1.937  -1.721  -0.253  1.00  0.00    -0.246 OA
BRANCH   3   5
ATOM      5  C   UNL     1       3.687  -1.012   1.115  1.00  0.00     0.060 A 
ATOM      6  C   UNL     1       5.011  -0.602   1.284  1.00  0.00     0.016 A 
ATOM      7  C   UNL     1       3.017  -1.540   2.237  1.00  0.00     0.016 A 
ATOM      8  C   UNL     1       5.626  -0.650   2.539  1.00  0.00     0.010 A 
ATOM      9  C   UNL     1       3.625  -1.589   3.494  1.00  0.00     0.010 A 
ATOM     10  C   UNL     1       4.937  -1.139   3.651  1.00  0.00    -0.014 A 
BRANCH  10  11
ATOM     11  C   UNL     1       5.640  -1.282   4.944  1.00  0.00     0.031 A 
ATOM     12  C   UNL     1       6.170  -2.628   5.334  1.00  0.00     0.074 A 
ATOM     13  C   UNL     1       5.842  -0.210   5.731  1.00  0.00     0.049 A 
ATOM     14  N   UNL     1       6.871  -2.967   6.383  1.00  0.00    -0.248 NA
ATOM     15  C   UNL     1       5.897  -3.737   4.404  1.00  0.00     0.031 C 
ATOM     16  C   UNL     1       5.410   1.153   5.429  1.00  0.00     0.029 A 
ATOM     17  N   UNL     1       6.452  -0.100   6.953  1.00  0.00    -0.354 N 
ATOM     18  C   UNL     1       7.169  -4.311   6.214  1.00  0.00     0.074 A 
ATOM     19  C   UNL     1       6.510  -4.747   5.002  1.00  0.00     0.031 C 
ATOM     20  C   UNL     1       5.722   1.956   6.460  1.00  0.00     0.029 A 
ATOM     21  C   UNL     1       6.389   1.164   7.488  1.00  0.00     0.049 A 
ATOM     22  H   UNL     1       6.894  -0.855   7.404  1.00  0.00     0.167 HD
ATOM     23  C   UNL     1       7.956  -5.101   6.980  1.00  0.00     0.037 A 
ATOM     24  C   UNL     1       6.819   1.620   8.678  1.00  0.00     0.037 A 
ATOM     25  C   UNL     1       8.564  -4.676   8.210  1.00  0.00     0.049 A 
ATOM     26  C   UNL     1       7.550   0.680   9.592  1.00  0.00     0.074 A 
ATOM     27  C   UNL     1       9.359  -5.398   9.081  1.00  0.00     0.029 A 
ATOM     28  N   UNL     1       8.422  -3.406   8.754  1.00  0.00    -0.354 N 
ATOM     29  N   UNL     1       7.866  -0.578   9.401  1.00  0.00    -0.248 NA
ATOM     30  C   UNL     1       8.005   1.229  10.877  1.00  0.00     0.031 C 
ATOM     31  C   UNL     1       9.672  -4.574  10.169  1.00  0.00     0.029 A 
ATOM     32  C   UNL     1       9.100  -3.329   9.958  1.00  0.00     0.049 A 
ATOM     33  H   UNL     1       7.914  -2.670   8.344  1.00  0.00     0.167 HD
ATOM     34  C   UNL     1       8.591  -0.962  10.520  1.00  0.00     0.074 A 
ATOM     35  C   UNL     1       8.662   0.197  11.388  1.00  0.00     0.031 C 
ATOM     36  C   UNL     1       9.161  -2.159  10.797  1.00  0.00     0.037 A 
BRANCH  23  37
ATOM     37  C   UNL     1       8.192  -6.495   6.485  1.00  0.00     0.057 A 
ATOM     38  C   UNL     1       9.019  -6.739   5.379  1.00  0.00     0.134 A 
ATOM     39  C   UNL     1       7.574  -7.595   7.088  1.00  0.00     0.134 A 
ATOM     40  F   UNL     1       9.623  -5.723   4.744  1.00  0.00    -0.206 F 
ATOM     41  C   UNL     1       9.201  -8.027   4.874  1.00  0.00     0.040 A 
ATOM     42  C   UNL     1       7.763  -8.890   6.603  1.00  0.00     0.040 A 
ATOM     43  F   UNL     1       6.768  -7.428   8.146  1.00  0.00    -0.206 F 
ATOM     44  C   UNL     1       8.572  -9.108   5.488  1.00  0.00     0.006 A 
ENDBRANCH  23  37
BRANCH  24  45
ATOM     45  C   UNL     1       6.576   3.027   9.079  1.00  0.00     0.057 A 
ATOM     46  C   UNL     1       7.603   3.975   9.091  1.00  0.00     0.134 A 
ATOM     47  C   UNL     1       5.309   3.444   9.500  1.00  0.00     0.134 A 
ATOM     48  F   UNL     1       8.847   3.627   8.730  1.00  0.00    -0.206 F 
ATOM     49  C   UNL     1       7.380   5.287   9.515  1.00  0.00     0.040 A 
ATOM     50  C   UNL     1       5.065   4.757   9.905  1.00  0.00     0.040 A 
ATOM     51  F   UNL     1       4.293   2.573   9.546  1.00  0.00    -0.206 F 
ATOM     52  C   UNL     1       6.106   5.683   9.918  1.00  0.00     0.006 A 
ENDBRANCH  24  45
BRANCH  36  53
ATOM     53  C   UNL     1       9.952  -2.252  12.065  1.00  0.00     0.057 A 
ATOM     54  C   UNL     1       9.333  -2.340  13.317  1.00  0.00     0.134 A 
ATOM     55  C   UNL     1      11.351  -2.278  12.024  1.00  0.00     0.134 A 
ATOM     56  F   UNL     1       7.996  -2.300  13.419  1.00  0.00    -0.206 F 
ATOM     57  C   UNL     1      10.082  -2.434  14.490  1.00  0.00     0.040 A 
ATOM     58  C   UNL     1      12.110  -2.394  13.188  1.00  0.00     0.040 A 
ATOM     59  F   UNL     1      12.001  -2.200  10.853  1.00  0.00    -0.206 F 
ATOM     60  C   UNL     1      11.475  -2.467  14.427  1.00  0.00     0.006 A 
ENDBRANCH  36  53
ENDBRANCH  10  11
ENDBRANCH   3   5
ENDBRANCH   2   3
ENDBRANCH   1   2
BRANCH   1  61
ATOM     61  C   UNL     1       3.991   2.244  -0.678  1.00  0.00     0.275 C 
BRANCH  61  62
ATOM     62  O   UNL     1       3.540   2.151   0.681  1.00  0.00    -0.457 OA
BRANCH  62  63
ATOM     63  C   UNL     1       2.183   2.138   0.824  1.00  0.00     0.356 C 
ATOM     64  O   UNL     1       1.376   2.258  -0.086  1.00  0.00    -0.244 OA
BRANCH  63  65
ATOM     65  C   UNL     1       1.831   1.805   2.169  1.00  0.00     0.144 A 
ATOM     66  C   UNL     1       2.350   2.153   3.402  1.00  0.00     0.066 A 
ATOM     67  N   UNL     1       0.790   0.959   2.442  1.00  0.00    -0.271 N 
ATOM     68  C   UNL     1       1.596   1.406   4.334  1.00  0.00     0.096 A 
ATOM     69  N   UNL     1       0.673   0.645   3.741  1.00  0.00    -0.175 NA
ATOM     70  H   UNL     1       0.184   0.613   1.748  1.00  0.00     0.190 HD
BRANCH  68  71
ATOM     71  C   UNL     1       1.775   1.426   5.775  1.00  0.00     0.040 A 
ATOM     72  C   UNL     1       1.700   2.573   6.602  1.00  0.00     0.052 A 
ATOM     73  C   UNL     1       1.986   0.354   6.610  1.00  0.00     0.205 A 
ATOM     74  C   UNL     1       1.848   2.114   7.891  1.00  0.00     0.195 A 
ATOM     75  O   UNL     1       2.038   0.769   7.903  1.00  0.00    -0.472 OA
ENDBRANCH  68  71
ENDBRANCH  63  65
ENDBRANCH  62  63
ENDBRANCH  61  62
ENDBRANCH   1  61
TORSDOF 12
