REMARK SMILES Cc1nc2scc(C)n2c1CNc1ccc(C(=O)OCCOC(=O)c2ccc(-c3c4nc(c(-c5c(F)cccc5F)c5ccc([nH]5)c(-c5c(F)cccc5F)c5nc(c(-c6c(F)cccc6F)c6ccc3[nH]6)C=C5)C=C4)cc2)cc1
REMARK SMILES IDX 20 1 19 2 17 3 18 4 16 5 13 6 14 7 80 8 15 9 79 10 12 11
REMARK SMILES IDX 11 13 10 14 1 15 2 16 3 17 4 18 9 19 5 20 7 21 6 22 8 23
REMARK SMILES IDX 21 24 22 25 23 26 24 27 25 28 26 29 78 30 27 31 77 32 28 33
REMARK SMILES IDX 29 34 30 35 71 36 31 37 76 38 70 39 72 40 32 41 75 42 69 43
REMARK SMILES IDX 68 44 33 46 59 47 42 48 58 49 43 50 46 51 57 52 73 53 44 54
REMARK SMILES IDX 45 55 56 57 74 58 47 59 34 60 35 61 40 62 36 63 37 64 39 65
REMARK SMILES IDX 41 66 38 67 60 68 61 69 66 70 62 71 63 72 65 73 67 74 64 75
REMARK SMILES IDX 48 76 49 77 54 78 50 79 51 80 53 81 55 82 52 83
REMARK H PARENT 12 12 72 45 46 56
REMARK Flexibility Score: inf
ROOT
ATOM      1  C   UNL     1       4.119 -11.144   1.094  1.00  0.00     0.275 C 
ENDROOT
BRANCH   1   2
ATOM      2  O   UNL     1       3.707  -9.771   1.048  1.00  0.00    -0.458 OA
BRANCH   2   3
ATOM      3  C   UNL     1       2.558  -9.535   0.369  1.00  0.00     0.338 C 
ATOM      4  O   UNL     1       1.949 -10.336  -0.328  1.00  0.00    -0.246 OA
BRANCH   3   5
ATOM      5  C   UNL     1       2.062  -8.167   0.644  1.00  0.00     0.060 A 
ATOM      6  C   UNL     1       1.072  -5.551   0.868  1.00  0.00     0.034 A 
ATOM      7  C   UNL     1       0.204  -6.615   0.605  1.00  0.00     0.026 A 
ATOM      8  C   UNL     1       2.416  -5.835   1.143  1.00  0.00     0.026 A 
ATOM      9  C   UNL     1       0.697  -7.913   0.469  1.00  0.00     0.018 A 
ATOM     10  C   UNL     1       2.914  -7.135   1.040  1.00  0.00     0.018 A 
BRANCH   6  11
ATOM     11  N   UNL     1       0.625  -4.255   0.663  1.00  0.00    -0.379 N 
ATOM     12  H   UNL     1      -0.249  -3.970   1.015  1.00  0.00     0.160 HD
BRANCH  11  13
ATOM     13  C   UNL     1       1.456  -3.322  -0.075  1.00  0.00     0.169 C 
BRANCH  13  14
ATOM     14  C   UNL     1       0.715  -2.520  -1.078  1.00  0.00     0.066 A 
ATOM     15  C   UNL     1       0.854  -0.125  -0.098  1.00  0.00     0.069 C 
ATOM     16  C   UNL     1       0.452  -1.149  -1.092  1.00  0.00     0.062 A 
ATOM     17  N   UNL     1      -0.246  -0.777  -2.218  1.00  0.00    -0.224 NA
ATOM     18  C   UNL     1      -0.384  -1.895  -2.870  1.00  0.00     0.194 A 
ATOM     19  N   UNL     1       0.187  -2.984  -2.266  1.00  0.00    -0.290 N 
ATOM     20  S   UNL     1      -1.100  -2.293  -4.398  1.00  0.00    -0.105 S 
ATOM     21  C   UNL     1       0.086  -4.161  -3.005  1.00  0.00     0.032 A 
ATOM     22  C   UNL     1      -0.569  -3.954  -4.167  1.00  0.00     0.090 A 
ATOM     23  C   UNL     1       0.647  -5.481  -2.619  1.00  0.00     0.066 C 
ENDBRANCH  13  14
ENDBRANCH  11  13
ENDBRANCH   6  11
ENDBRANCH   3   5
ENDBRANCH   2   3
ENDBRANCH   1   2
BRANCH   1  24
ATOM     24  C   UNL     1       3.512 -11.854   2.296  1.00  0.00     0.275 C 
BRANCH  24  25
ATOM     25  O   UNL     1       2.106 -12.065   2.153  1.00  0.00    -0.458 OA
BRANCH  25  26
ATOM     26  C   UNL     1       1.332 -11.135   2.756  1.00  0.00     0.338 C 
ATOM     27  O   UNL     1       1.639  -9.994   3.058  1.00  0.00    -0.246 OA
BRANCH  26  28
ATOM     28  C   UNL     1       0.105 -11.771   3.244  1.00  0.00     0.060 A 
ATOM     29  C   UNL     1      -0.920 -10.944   3.711  1.00  0.00     0.016 A 
ATOM     30  C   UNL     1       0.087 -13.157   3.461  1.00  0.00     0.016 A 
ATOM     31  C   UNL     1      -1.919 -11.498   4.488  1.00  0.00     0.010 A 
ATOM     32  C   UNL     1      -0.902 -13.707   4.245  1.00  0.00     0.010 A 
ATOM     33  C   UNL     1      -1.872 -12.867   4.788  1.00  0.00    -0.014 A 
BRANCH  33  34
ATOM     34  C   UNL     1      -2.990 -13.444   5.516  1.00  0.00     0.031 A 
ATOM     35  C   UNL     1      -4.240 -13.441   4.716  1.00  0.00     0.074 A 
ATOM     36  C   UNL     1      -2.856 -14.064   6.705  1.00  0.00     0.049 A 
ATOM     37  N   UNL     1      -5.354 -12.852   4.990  1.00  0.00    -0.248 NA
ATOM     38  C   UNL     1      -4.197 -14.039   3.367  1.00  0.00     0.031 C 
ATOM     39  C   UNL     1      -1.600 -14.376   7.395  1.00  0.00     0.029 A 
ATOM     40  N   UNL     1      -3.798 -14.658   7.496  1.00  0.00    -0.354 N 
ATOM     41  C   UNL     1      -6.222 -13.201   3.957  1.00  0.00     0.074 A 
ATOM     42  C   UNL     1      -5.416 -13.756   2.908  1.00  0.00     0.031 C 
ATOM     43  C   UNL     1      -1.839 -15.291   8.360  1.00  0.00     0.029 A 
ATOM     44  C   UNL     1      -3.270 -15.532   8.441  1.00  0.00     0.049 A 
ATOM     45  H   UNL     1      -4.763 -14.483   7.406  1.00  0.00     0.167 HD
ATOM     46  C   UNL     1      -7.556 -13.304   4.197  1.00  0.00     0.037 A 
ATOM     47  C   UNL     1      -3.954 -16.431   9.190  1.00  0.00     0.037 A 
ATOM     48  C   UNL     1      -7.910 -12.605   5.405  1.00  0.00     0.049 A 
ATOM     49  C   UNL     1      -5.377 -16.021   9.204  1.00  0.00     0.074 A 
ATOM     50  C   UNL     1      -8.022 -11.296   5.813  1.00  0.00     0.029 A 
ATOM     51  N   UNL     1      -7.835 -13.382   6.528  1.00  0.00    -0.354 N 
ATOM     52  N   UNL     1      -5.823 -14.961   9.815  1.00  0.00    -0.248 NA
ATOM     53  C   UNL     1      -6.305 -16.635   8.260  1.00  0.00     0.031 C 
ATOM     54  C   UNL     1      -7.835 -11.306   7.228  1.00  0.00     0.029 A 
ATOM     55  C   UNL     1      -7.646 -12.622   7.646  1.00  0.00     0.049 A 
ATOM     56  H   UNL     1      -7.908 -14.364   6.530  1.00  0.00     0.167 HD
ATOM     57  C   UNL     1      -6.872 -14.532   9.027  1.00  0.00     0.074 A 
ATOM     58  C   UNL     1      -7.242 -15.686   8.219  1.00  0.00     0.031 C 
ATOM     59  C   UNL     1      -7.113 -13.201   8.860  1.00  0.00     0.037 A 
BRANCH  46  60
ATOM     60  C   UNL     1      -8.409 -14.461   3.702  1.00  0.00     0.057 A 
ATOM     61  C   UNL     1      -9.779 -14.471   4.029  1.00  0.00     0.134 A 
ATOM     62  C   UNL     1      -7.902 -15.697   3.244  1.00  0.00     0.134 A 
ATOM     63  F   UNL     1     -10.384 -13.364   4.487  1.00  0.00    -0.206 F 
ATOM     64  C   UNL     1     -10.555 -15.636   3.992  1.00  0.00     0.040 A 
ATOM     65  C   UNL     1      -8.682 -16.854   3.158  1.00  0.00     0.040 A 
ATOM     66  F   UNL     1      -6.612 -15.889   2.951  1.00  0.00    -0.206 F 
ATOM     67  C   UNL     1     -10.004 -16.837   3.566  1.00  0.00     0.006 A 
ENDBRANCH  46  60
BRANCH  47  68
ATOM     68  C   UNL     1      -3.525 -17.744   9.727  1.00  0.00     0.057 A 
ATOM     69  C   UNL     1      -4.276 -18.398  10.718  1.00  0.00     0.134 A 
ATOM     70  C   UNL     1      -2.541 -18.520   9.092  1.00  0.00     0.134 A 
ATOM     71  F   UNL     1      -5.259 -17.756  11.365  1.00  0.00    -0.206 F 
ATOM     72  C   UNL     1      -4.090 -19.753  11.026  1.00  0.00     0.040 A 
ATOM     73  C   UNL     1      -2.337 -19.870   9.398  1.00  0.00     0.040 A 
ATOM     74  F   UNL     1      -1.804 -18.021   8.090  1.00  0.00    -0.206 F 
ATOM     75  C   UNL     1      -3.127 -20.497  10.353  1.00  0.00     0.006 A 
ENDBRANCH  47  68
BRANCH  59  76
ATOM     76  C   UNL     1      -6.635 -12.271   9.929  1.00  0.00     0.057 A 
ATOM     77  C   UNL     1      -5.290 -12.035  10.243  1.00  0.00     0.134 A 
ATOM     78  C   UNL     1      -7.595 -11.517  10.614  1.00  0.00     0.134 A 
ATOM     79  F   UNL     1      -4.302 -12.654   9.584  1.00  0.00    -0.206 F 
ATOM     80  C   UNL     1      -4.924 -11.113  11.228  1.00  0.00     0.040 A 
ATOM     81  C   UNL     1      -7.240 -10.567  11.571  1.00  0.00     0.040 A 
ATOM     82  F   UNL     1      -8.900 -11.667  10.334  1.00  0.00    -0.206 F 
ATOM     83  C   UNL     1      -5.900 -10.371  11.889  1.00  0.00     0.006 A 
ENDBRANCH  59  76
ENDBRANCH  33  34
ENDBRANCH  26  28
ENDBRANCH  25  26
ENDBRANCH  24  25
ENDBRANCH   1  24
TORSDOF 14
