REMARK SMILES COc1cc(S(=O)(=O)CCO)cc(C(=O)OCCOC(=O)c2ccc(-c3c4nc(c(-c5c(F)cccc5F)c5ccc([nH]5)c(-c5c(F)cccc5F)c5nc(c(-c6c(F)cccc6F)c6ccc3[nH]6)C=C5)C=C4)cc2)c1OC
REMARK SMILES IDX 17 1 16 2 14 3 15 4 13 5 3 6 4 7 76 8 5 9 12 10 2 11 1 12
REMARK SMILES IDX 77 13 78 14 6 15 7 16 8 17 9 18 10 19 11 20 18 22 19 23
REMARK SMILES IDX 20 24 21 25 22 26 23 27 75 28 24 29 74 30 25 31 26 32 27 33
REMARK SMILES IDX 68 34 28 35 73 36 67 37 69 38 29 39 72 40 66 41 65 42 30 44
REMARK SMILES IDX 56 45 39 46 55 47 40 48 43 49 54 50 70 51 41 52 42 53 53 55
REMARK SMILES IDX 71 56 44 57 31 58 32 59 37 60 33 61 34 62 36 63 38 64 35 65
REMARK SMILES IDX 57 66 58 67 63 68 59 69 60 70 62 71 64 72 61 73 45 74 46 75
REMARK SMILES IDX 51 76 47 77 48 78 50 79 52 80 49 81
REMARK H PARENT 11 21 69 43 43 54
REMARK Flexibility Score: inf
ROOT
ATOM      1  C   UNL     1       6.211   1.311  -3.282  1.00  0.00     0.275 C 
ENDROOT
BRANCH   1   2
ATOM      2  O   UNL     1       4.865   0.818  -3.143  1.00  0.00    -0.458 OA
BRANCH   2   3
ATOM      3  C   UNL     1       3.865   1.704  -3.378  1.00  0.00     0.342 C 
ATOM      4  O   UNL     1       3.973   2.845  -3.785  1.00  0.00    -0.246 OA
BRANCH   3   5
ATOM      5  C   UNL     1       2.556   1.042  -3.186  1.00  0.00     0.107 A 
ATOM      6  C   UNL     1       0.960  -0.156  -1.847  1.00  0.00     0.162 A 
ATOM      7  C   UNL     1       0.037  -0.104  -2.901  1.00  0.00     0.070 A 
ATOM      8  C   UNL     1       2.237   0.407  -1.976  1.00  0.00     0.175 A 
ATOM      9  C   UNL     1       0.364   0.554  -4.091  1.00  0.00     0.072 A 
ATOM     10  C   UNL     1       1.625   1.120  -4.237  1.00  0.00     0.040 A 
BRANCH   6  11
ATOM     11  O   UNL     1       0.566  -0.799  -0.704  1.00  0.00    -0.493 OA
ATOM     12  C   UNL     1      -0.068   0.110   0.197  1.00  0.00     0.278 C 
ENDBRANCH   6  11
BRANCH   8  13
ATOM     13  O   UNL     1       3.175   0.494  -0.982  1.00  0.00    -0.492 OA
ATOM     14  C   UNL     1       3.258  -0.585  -0.060  1.00  0.00     0.278 C 
ENDBRANCH   8  13
BRANCH   9  15
ATOM     15  S   UNL     1      -0.892   0.615  -5.352  1.00  0.00     0.180 S 
ATOM     16  O   UNL     1      -1.066  -0.764  -5.773  1.00  0.00    -0.224 OA
ATOM     17  O   UNL     1      -2.007   1.346  -4.777  1.00  0.00    -0.224 OA
BRANCH  15  18
ATOM     18  C   UNL     1      -0.315   1.504  -6.773  1.00  0.00     0.170 C 
BRANCH  18  19
ATOM     19  C   UNL     1      -0.423   3.009  -6.638  1.00  0.00     0.172 C 
BRANCH  19  20
ATOM     20  O   UNL     1       0.600   3.507  -5.789  1.00  0.00    -0.395 OA
ATOM     21  H   UNL     1       0.511   3.112  -4.908  1.00  0.00     0.210 HD
ENDBRANCH  19  20
ENDBRANCH  18  19
ENDBRANCH  15  18
ENDBRANCH   9  15
ENDBRANCH   3   5
ENDBRANCH   2   3
ENDBRANCH   1   2
BRANCH   1  22
ATOM     22  C   UNL     1       6.911   0.598  -4.435  1.00  0.00     0.275 C 
BRANCH  22  23
ATOM     23  O   UNL     1       6.318   1.034  -5.671  1.00  0.00    -0.458 OA
BRANCH  23  24
ATOM     24  C   UNL     1       5.638   0.099  -6.369  1.00  0.00     0.338 C 
ATOM     25  O   UNL     1       5.563  -1.098  -6.153  1.00  0.00    -0.246 OA
BRANCH  24  26
ATOM     26  C   UNL     1       4.911   0.766  -7.459  1.00  0.00     0.060 A 
ATOM     27  C   UNL     1       3.958   1.728  -7.142  1.00  0.00     0.016 A 
ATOM     28  C   UNL     1       5.087   0.366  -8.782  1.00  0.00     0.016 A 
ATOM     29  C   UNL     1       3.111   2.220  -8.129  1.00  0.00     0.010 A 
ATOM     30  C   UNL     1       4.302   0.947  -9.788  1.00  0.00     0.010 A 
ATOM     31  C   UNL     1       3.271   1.853  -9.472  1.00  0.00    -0.014 A 
BRANCH  31  32
ATOM     32  C   UNL     1       2.344   2.377 -10.524  1.00  0.00     0.031 A 
ATOM     33  C   UNL     1       1.627   1.425 -11.452  1.00  0.00     0.074 A 
ATOM     34  C   UNL     1       2.105   3.700 -10.648  1.00  0.00     0.049 A 
ATOM     35  N   UNL     1       0.970   1.682 -12.556  1.00  0.00    -0.248 NA
ATOM     36  C   UNL     1       1.658  -0.003 -11.097  1.00  0.00     0.031 C 
ATOM     37  C   UNL     1       2.659   4.753  -9.794  1.00  0.00     0.029 A 
ATOM     38  N   UNL     1       1.318   4.389 -11.542  1.00  0.00    -0.354 N 
ATOM     39  C   UNL     1       0.587   0.448 -13.069  1.00  0.00     0.074 A 
ATOM     40  C   UNL     1       1.061  -0.558 -12.143  1.00  0.00     0.031 C 
ATOM     41  C   UNL     1       2.151   5.937 -10.163  1.00  0.00     0.029 A 
ATOM     42  C   UNL     1       1.336   5.752 -11.357  1.00  0.00     0.049 A 
ATOM     43  H   UNL     1       0.791   3.948 -12.247  1.00  0.00     0.167 HD
ATOM     44  C   UNL     1      -0.089   0.179 -14.212  1.00  0.00     0.037 A 
ATOM     45  C   UNL     1       0.818   6.753 -12.095  1.00  0.00     0.037 A 
ATOM     46  C   UNL     1      -0.639   1.179 -15.090  1.00  0.00     0.049 A 
ATOM     47  C   UNL     1       0.115   6.432 -13.382  1.00  0.00     0.074 A 
ATOM     48  C   UNL     1      -1.370   0.997 -16.252  1.00  0.00     0.029 A 
ATOM     49  N   UNL     1      -0.538   2.546 -14.892  1.00  0.00    -0.354 N 
ATOM     50  N   UNL     1      -0.170   5.262 -13.899  1.00  0.00    -0.248 NA
ATOM     51  C   UNL     1      -0.301   7.573 -14.211  1.00  0.00     0.031 C 
ATOM     52  C   UNL     1      -1.679   2.255 -16.778  1.00  0.00     0.029 A 
ATOM     53  C   UNL     1      -1.173   3.220 -15.923  1.00  0.00     0.049 A 
ATOM     54  H   UNL     1      -0.082   2.975 -14.133  1.00  0.00     0.167 HD
ATOM     55  C   UNL     1      -0.795   5.526 -15.110  1.00  0.00     0.074 A 
ATOM     56  C   UNL     1      -0.876   6.965 -15.239  1.00  0.00     0.031 C 
ATOM     57  C   UNL     1      -1.249   4.651 -16.039  1.00  0.00     0.037 A 
BRANCH  44  58
ATOM     58  C   UNL     1      -0.240  -1.258 -14.616  1.00  0.00     0.057 A 
ATOM     59  C   UNL     1      -1.154  -2.120 -14.000  1.00  0.00     0.134 A 
ATOM     60  C   UNL     1       0.501  -1.762 -15.694  1.00  0.00     0.134 A 
ATOM     61  F   UNL     1      -1.886  -1.701 -12.957  1.00  0.00    -0.206 F 
ATOM     62  C   UNL     1      -1.317  -3.438 -14.434  1.00  0.00     0.040 A 
ATOM     63  C   UNL     1       0.331  -3.069 -16.151  1.00  0.00     0.040 A 
ATOM     64  F   UNL     1       1.388  -0.984 -16.333  1.00  0.00    -0.206 F 
ATOM     65  C   UNL     1      -0.579  -3.912 -15.518  1.00  0.00     0.006 A 
ENDBRANCH  44  58
BRANCH  45  66
ATOM     66  C   UNL     1       1.018   8.166 -11.681  1.00  0.00     0.057 A 
ATOM     67  C   UNL     1      -0.063   8.964 -11.288  1.00  0.00     0.134 A 
ATOM     68  C   UNL     1       2.287   8.759 -11.688  1.00  0.00     0.134 A 
ATOM     69  F   UNL     1      -1.307   8.464 -11.289  1.00  0.00    -0.206 F 
ATOM     70  C   UNL     1       0.111  10.301 -10.925  1.00  0.00     0.040 A 
ATOM     71  C   UNL     1       2.480  10.083 -11.296  1.00  0.00     0.040 A 
ATOM     72  F   UNL     1       3.363   8.050 -12.060  1.00  0.00    -0.206 F 
ATOM     73  C   UNL     1       1.387  10.861 -10.920  1.00  0.00     0.006 A 
ENDBRANCH  45  66
BRANCH  57  74
ATOM     74  C   UNL     1      -1.889   5.227 -17.266  1.00  0.00     0.057 A 
ATOM     75  C   UNL     1      -1.126   5.815 -18.283  1.00  0.00     0.134 A 
ATOM     76  C   UNL     1      -3.276   5.162 -17.448  1.00  0.00     0.134 A 
ATOM     77  F   UNL     1       0.205   5.921 -18.159  1.00  0.00    -0.206 F 
ATOM     78  C   UNL     1      -1.724   6.333 -19.433  1.00  0.00     0.040 A 
ATOM     79  C   UNL     1      -3.882   5.658 -18.603  1.00  0.00     0.040 A 
ATOM     80  F   UNL     1      -4.060   4.607 -16.513  1.00  0.00    -0.206 F 
ATOM     81  C   UNL     1      -3.105   6.250 -19.597  1.00  0.00     0.006 A 
ENDBRANCH  57  74
ENDBRANCH  31  32
ENDBRANCH  24  26
ENDBRANCH  23  24
ENDBRANCH  22  23
ENDBRANCH   1  22
TORSDOF 17
