REMARK SMILES CC[C@@H](C)[C@@H](NC(=O)CCn1ccc2ccc(Br)cc21)C(=O)OCCOC(=O)c1ccc(-c2c3nc(c(-c4c(F)cccc4F)c4ccc([nH]4)c(-c4c(F)cccc4F)c4nc(c(-c5c(F)cccc5F)c5ccc2[nH]5)C=C4)C=C3)cc1
REMARK SMILES IDX 24 1 23 2 21 3 22 4 5 5 3 6 4 7 2 8 1 9 6 10 7 11 8 13 9 14
REMARK SMILES IDX 10 15 11 16 12 17 20 18 13 19 14 20 19 21 15 22 17 23 16 24
REMARK SMILES IDX 18 25 25 26 26 27 27 28 28 29 29 30 30 31 82 32 31 33 81 34
REMARK SMILES IDX 32 35 33 36 34 37 75 38 35 39 80 40 74 41 76 42 36 43 79 44
REMARK SMILES IDX 73 45 72 46 37 48 63 49 46 50 62 51 47 52 50 53 61 54 77 55
REMARK SMILES IDX 48 56 49 57 60 59 78 60 51 61 38 62 39 63 44 64 40 65 41 66
REMARK SMILES IDX 43 67 45 68 42 69 64 70 65 71 70 72 66 73 67 74 69 75 71 76
REMARK SMILES IDX 68 77 52 78 53 79 58 80 54 81 55 82 57 83 59 84 56 85
REMARK H PARENT 6 12 76 47 50 58
REMARK Flexibility Score: inf
ROOT
ATOM      1  C   UNL     1       1.891   5.795  -4.237  1.00  0.00     0.274 C 
ENDROOT
BRANCH   1   2
ATOM      2  O   UNL     1       2.072   5.056  -2.916  1.00  0.00    -0.461 OA
BRANCH   2   3
ATOM      3  C   UNL     1       1.828   5.464  -1.614  1.00  0.00     0.329 C 
ATOM      4  O   UNL     1       1.739   6.674  -1.371  1.00  0.00    -0.250 OA
BRANCH   3   5
ATOM      5  C   UNL     1       1.681   4.237  -0.249  1.00  0.00     0.195 C 
BRANCH   5   6
ATOM      6  C   UNL     1       1.694   2.500   0.116  1.00  0.00     0.019 C 
ATOM      7  C   UNL     1       0.924   1.337  -0.630  1.00  0.00     0.010 C 
BRANCH   6   8
ATOM      8  C   UNL     1       1.135   2.277   1.578  1.00  0.00     0.002 C 
ATOM      9  C   UNL     1       1.168   0.813   2.079  1.00  0.00     0.004 C 
ENDBRANCH   6   8
ENDBRANCH   5   6
BRANCH   5  10
ATOM     10  N   UNL     1       2.598   4.801   0.692  1.00  0.00    -0.342 N 
ATOM     11  C   UNL     1       3.917   4.939   0.421  1.00  0.00     0.222 C 
ATOM     12  H   UNL     1       2.259   5.097   1.568  1.00  0.00     0.164 HD
ATOM     13  O   UNL     1       4.638   5.382   1.316  1.00  0.00    -0.275 OA
BRANCH  11  14
ATOM     14  C   UNL     1       4.437   4.691  -1.015  1.00  0.00     0.122 C 
BRANCH  14  15
ATOM     15  C   UNL     1       4.442   3.278  -1.724  1.00  0.00     0.132 C 
BRANCH  15  16
ATOM     16  N   UNL     1       3.652   2.492  -2.710  1.00  0.00    -0.347 N 
ATOM     17  C   UNL     1       4.285   1.458  -3.394  1.00  0.00     0.087 A 
ATOM     18  C   UNL     1       2.358   2.385  -3.164  1.00  0.00     0.049 A 
ATOM     19  C   UNL     1       3.398   0.807  -4.237  1.00  0.00     0.028 A 
ATOM     20  C   UNL     1       2.136   1.404  -4.122  1.00  0.00    -0.000 A 
ATOM     21  C   UNL     1       1.192   2.920  -2.756  1.00  0.00     0.042 A 
ATOM     22  C   UNL     1       0.794   1.177  -4.620  1.00  0.00     0.011 A 
ATOM     23  C   UNL     1      -0.028   2.926  -3.323  1.00  0.00     0.020 A 
ATOM     24  C   UNL     1      -0.292   2.005  -4.263  1.00  0.00     0.016 A 
ATOM     25  Br  UNL     1      -0.808   4.378  -2.539  1.00  0.00    -0.051 Br
ENDBRANCH  15  16
ENDBRANCH  14  15
ENDBRANCH  11  14
ENDBRANCH   5  10
ENDBRANCH   3   5
ENDBRANCH   2   3
ENDBRANCH   1   2
BRANCH   1  26
ATOM     26  C   UNL     1       0.981   5.123  -5.420  1.00  0.00     0.275 C 
BRANCH  26  27
ATOM     27  O   UNL     1      -0.449   5.503  -5.366  1.00  0.00    -0.458 OA
BRANCH  27  28
ATOM     28  C   UNL     1      -1.484   4.688  -5.821  1.00  0.00     0.338 C 
ATOM     29  O   UNL     1      -1.385   3.724  -6.541  1.00  0.00    -0.246 OA
BRANCH  28  30
ATOM     30  C   UNL     1      -2.738   5.030  -5.000  1.00  0.00     0.060 A 
ATOM     31  C   UNL     1      -2.903   6.364  -4.627  1.00  0.00     0.016 A 
ATOM     32  C   UNL     1      -3.307   4.042  -4.172  1.00  0.00     0.016 A 
ATOM     33  C   UNL     1      -3.156   6.690  -3.284  1.00  0.00     0.010 A 
ATOM     34  C   UNL     1      -3.584   4.377  -2.816  1.00  0.00     0.010 A 
ATOM     35  C   UNL     1      -3.278   5.686  -2.316  1.00  0.00    -0.014 A 
BRANCH  35  36
ATOM     36  C   UNL     1      -3.279   6.039  -0.833  1.00  0.00     0.031 A 
ATOM     37  C   UNL     1      -4.691   5.973  -0.540  1.00  0.00     0.074 A 
ATOM     38  C   UNL     1      -2.491   6.415   0.232  1.00  0.00     0.049 A 
ATOM     39  N   UNL     1      -5.461   6.892  -1.005  1.00  0.00    -0.248 NA
ATOM     40  C   UNL     1      -5.334   4.711  -0.179  1.00  0.00     0.031 C 
ATOM     41  C   UNL     1      -1.045   6.398   0.443  1.00  0.00     0.029 A 
ATOM     42  N   UNL     1      -2.902   6.966   1.456  1.00  0.00    -0.354 N 
ATOM     43  C   UNL     1      -6.710   6.444  -0.710  1.00  0.00     0.074 A 
ATOM     44  C   UNL     1      -6.590   5.016  -0.530  1.00  0.00     0.031 C 
ATOM     45  C   UNL     1      -0.711   6.668   1.738  1.00  0.00     0.029 A 
ATOM     46  C   UNL     1      -1.898   7.122   2.440  1.00  0.00     0.049 A 
ATOM     47  H   UNL     1      -3.836   7.230   1.620  1.00  0.00     0.167 HD
ATOM     48  C   UNL     1      -7.566   7.356  -0.202  1.00  0.00     0.037 A 
ATOM     49  C   UNL     1      -1.987   7.713   3.675  1.00  0.00     0.037 A 
ATOM     50  C   UNL     1      -7.051   8.711  -0.354  1.00  0.00     0.049 A 
ATOM     51  C   UNL     1      -3.062   8.720   3.583  1.00  0.00     0.074 A 
ATOM     52  C   UNL     1      -6.812   9.589  -1.395  1.00  0.00     0.029 A 
ATOM     53  N   UNL     1      -6.243   9.112   0.680  1.00  0.00    -0.354 N 
ATOM     54  N   UNL     1      -2.933   9.845   2.943  1.00  0.00    -0.248 NA
ATOM     55  C   UNL     1      -4.413   8.377   4.001  1.00  0.00     0.031 C 
ATOM     56  C   UNL     1      -5.803  10.502  -0.955  1.00  0.00     0.029 A 
ATOM     57  C   UNL     1      -5.454  10.185   0.352  1.00  0.00     0.049 A 
ATOM     58  H   UNL     1      -6.230   8.676   1.563  1.00  0.00     0.167 HD
ATOM     59  C   UNL     1      -4.199  10.087   2.466  1.00  0.00     0.074 A 
ATOM     60  C   UNL     1      -5.089   9.285   3.295  1.00  0.00     0.031 C 
ATOM     61  C   UNL     1      -4.365  10.590   1.213  1.00  0.00     0.037 A 
BRANCH  48  62
ATOM     62  C   UNL     1      -8.522   6.990   0.883  1.00  0.00     0.057 A 
ATOM     63  C   UNL     1      -8.336   5.944   1.814  1.00  0.00     0.134 A 
ATOM     64  C   UNL     1      -9.550   7.889   1.170  1.00  0.00     0.134 A 
ATOM     65  F   UNL     1      -7.306   5.093   1.767  1.00  0.00    -0.206 F 
ATOM     66  C   UNL     1      -9.145   5.779   2.932  1.00  0.00     0.040 A 
ATOM     67  C   UNL     1     -10.324   7.772   2.324  1.00  0.00     0.040 A 
ATOM     68  F   UNL     1      -9.778   8.945   0.374  1.00  0.00    -0.206 F 
ATOM     69  C   UNL     1     -10.128   6.712   3.204  1.00  0.00     0.006 A 
ENDBRANCH  48  62
BRANCH  49  70
ATOM     70  C   UNL     1      -1.283   7.594   4.995  1.00  0.00     0.057 A 
ATOM     71  C   UNL     1      -0.906   6.336   5.484  1.00  0.00     0.134 A 
ATOM     72  C   UNL     1      -1.320   8.626   5.965  1.00  0.00     0.134 A 
ATOM     73  F   UNL     1      -0.879   5.275   4.665  1.00  0.00    -0.206 F 
ATOM     74  C   UNL     1      -0.652   6.100   6.849  1.00  0.00     0.040 A 
ATOM     75  C   UNL     1      -1.066   8.404   7.331  1.00  0.00     0.040 A 
ATOM     76  F   UNL     1      -1.686   9.871   5.631  1.00  0.00    -0.206 F 
ATOM     77  C   UNL     1      -0.754   7.129   7.782  1.00  0.00     0.006 A 
ENDBRANCH  49  70
BRANCH  61  78
ATOM     78  C   UNL     1      -3.296  11.507   0.698  1.00  0.00     0.057 A 
ATOM     79  C   UNL     1      -3.651  12.839   0.448  1.00  0.00     0.134 A 
ATOM     80  C   UNL     1      -1.965  11.148   0.438  1.00  0.00     0.134 A 
ATOM     81  F   UNL     1      -4.910  13.253   0.666  1.00  0.00    -0.206 F 
ATOM     82  C   UNL     1      -2.737  13.774  -0.039  1.00  0.00     0.040 A 
ATOM     83  C   UNL     1      -1.029  12.085  -0.020  1.00  0.00     0.040 A 
ATOM     84  F   UNL     1      -1.541   9.885   0.596  1.00  0.00    -0.206 F 
ATOM     85  C   UNL     1      -1.417  13.400  -0.266  1.00  0.00     0.006 A 
ENDBRANCH  61  78
ENDBRANCH  35  36
ENDBRANCH  28  30
ENDBRANCH  27  28
ENDBRANCH  26  27
ENDBRANCH   1  26
TORSDOF 17
