REMARK SMILES CCC[C@H](NC(=O)c1cc2ccccc2[nH]1)C(=O)OCCOC(=O)c1ccc(-c2c3nc(c(-c4c(F)cccc4F)c4ccc([nH]4)c(-c4c(F)cccc4F)c4nc(c(-c5c(F)cccc5F)c5ccc2[nH]5)C=C4)C=C3)cc1
REMARK SMILES IDX 20 1 19 2 17 3 18 4 4 5 3 6 2 7 1 8 5 9 6 10 7 12 8 13 9 14
REMARK SMILES IDX 16 15 10 16 15 17 11 19 14 20 12 21 13 22 21 23 22 24 23 25
REMARK SMILES IDX 24 26 25 27 26 28 78 29 27 30 77 31 28 32 29 33 30 34 71 35
REMARK SMILES IDX 31 36 76 37 70 38 72 39 32 40 75 41 69 42 68 43 33 45 59 46
REMARK SMILES IDX 42 47 58 48 43 49 46 50 57 51 73 52 44 53 45 54 56 56 74 57
REMARK SMILES IDX 47 58 34 59 35 60 40 61 36 62 37 63 39 64 41 65 38 66 60 67
REMARK SMILES IDX 61 68 66 69 62 70 63 71 65 72 67 73 64 74 48 75 49 76 54 77
REMARK SMILES IDX 50 78 51 79 53 80 55 81 52 82
REMARK H PARENT 5 11 16 18 72 44 46 55
REMARK Flexibility Score: inf
ROOT
ATOM      1  C   UNL     1       1.440  -5.794  -2.803  1.00  0.00     0.274 C 
ENDROOT
BRANCH   1   2
ATOM      2  O   UNL     1       0.855  -4.518  -2.475  1.00  0.00    -0.461 OA
BRANCH   2   3
ATOM      3  C   UNL     1       0.443  -4.379  -1.184  1.00  0.00     0.328 C 
ATOM      4  O   UNL     1       0.506  -5.266  -0.339  1.00  0.00    -0.250 OA
BRANCH   3   5
ATOM      5  C   UNL     1      -0.199  -3.008  -0.910  1.00  0.00     0.192 C 
BRANCH   5   6
ATOM      6  C   UNL     1      -1.729  -3.166  -0.938  1.00  0.00     0.037 C 
BRANCH   6   7
ATOM      7  C   UNL     1      -2.308  -4.105   0.132  1.00  0.00    -0.001 C 
ATOM      8  C   UNL     1      -1.840  -3.815   1.552  1.00  0.00     0.004 C 
ENDBRANCH   6   7
ENDBRANCH   5   6
BRANCH   5   9
ATOM      9  N   UNL     1       0.288  -1.976  -1.839  1.00  0.00    -0.337 N 
ATOM     10  C   UNL     1       0.121  -0.613  -1.805  1.00  0.00     0.268 C 
ATOM     11  H   UNL     1       0.813  -2.313  -2.600  1.00  0.00     0.164 HD
ATOM     12  O   UNL     1       0.618   0.074  -2.693  1.00  0.00    -0.268 OA
BRANCH  10  13
ATOM     13  C   UNL     1      -0.693  -0.064  -0.751  1.00  0.00     0.105 A 
ATOM     14  C   UNL     1      -1.866   0.660  -0.873  1.00  0.00     0.042 A 
ATOM     15  N   UNL     1      -0.443  -0.171   0.598  1.00  0.00    -0.351 N 
ATOM     16  C   UNL     1      -2.460   0.749   0.415  1.00  0.00     0.000 A 
ATOM     17  C   UNL     1      -1.551   0.206   1.322  1.00  0.00     0.046 A 
ATOM     18  H   UNL     1       0.408  -0.473   0.990  1.00  0.00     0.167 HD
ATOM     19  C   UNL     1      -3.704   1.203   0.889  1.00  0.00     0.010 A 
ATOM     20  C   UNL     1      -1.823   0.095   2.690  1.00  0.00     0.026 A 
ATOM     21  C   UNL     1      -4.007   1.067   2.249  1.00  0.00     0.001 A 
ATOM     22  C   UNL     1      -3.079   0.520   3.133  1.00  0.00     0.002 A 
ENDBRANCH  10  13
ENDBRANCH   5   9
ENDBRANCH   3   5
ENDBRANCH   2   3
ENDBRANCH   1   2
BRANCH   1  23
ATOM     23  C   UNL     1       2.971  -5.756  -2.762  1.00  0.00     0.275 C 
BRANCH  23  24
ATOM     24  O   UNL     1       3.483  -5.451  -1.450  1.00  0.00    -0.458 OA
BRANCH  24  25
ATOM     25  C   UNL     1       3.596  -4.128  -1.186  1.00  0.00     0.338 C 
ATOM     26  O   UNL     1       3.329  -3.207  -1.943  1.00  0.00    -0.246 OA
BRANCH  25  27
ATOM     27  C   UNL     1       3.934  -3.901   0.231  1.00  0.00     0.060 A 
ATOM     28  C   UNL     1       3.189  -2.935   0.916  1.00  0.00     0.016 A 
ATOM     29  C   UNL     1       5.003  -4.544   0.859  1.00  0.00     0.016 A 
ATOM     30  C   UNL     1       3.511  -2.598   2.226  1.00  0.00     0.010 A 
ATOM     31  C   UNL     1       5.339  -4.191   2.172  1.00  0.00     0.010 A 
ATOM     32  C   UNL     1       4.607  -3.203   2.853  1.00  0.00    -0.014 A 
BRANCH  32  33
ATOM     33  C   UNL     1       5.030  -2.704   4.183  1.00  0.00     0.031 A 
ATOM     34  C   UNL     1       6.174  -1.734   4.278  1.00  0.00     0.074 A 
ATOM     35  C   UNL     1       4.350  -3.059   5.287  1.00  0.00     0.049 A 
ATOM     36  N   UNL     1       6.694  -1.168   5.337  1.00  0.00    -0.248 NA
ATOM     37  C   UNL     1       6.813  -1.346   3.011  1.00  0.00     0.031 C 
ATOM     38  C   UNL     1       3.197  -3.958   5.316  1.00  0.00     0.029 A 
ATOM     39  N   UNL     1       4.530  -2.698   6.598  1.00  0.00    -0.354 N 
ATOM     40  C   UNL     1       7.728  -0.368   4.868  1.00  0.00     0.074 A 
ATOM     41  C   UNL     1       7.772  -0.533   3.430  1.00  0.00     0.031 C 
ATOM     42  C   UNL     1       2.773  -4.081   6.585  1.00  0.00     0.029 A 
ATOM     43  C   UNL     1       3.641  -3.293   7.458  1.00  0.00     0.049 A 
ATOM     44  H   UNL     1       5.230  -2.072   6.894  1.00  0.00     0.167 HD
ATOM     45  C   UNL     1       8.561   0.435   5.572  1.00  0.00     0.037 A 
ATOM     46  C   UNL     1       3.550  -3.223   8.800  1.00  0.00     0.037 A 
ATOM     47  C   UNL     1       8.509   0.609   6.999  1.00  0.00     0.049 A 
ATOM     48  C   UNL     1       4.512  -2.352   9.561  1.00  0.00     0.074 A 
ATOM     49  C   UNL     1       9.308   1.406   7.801  1.00  0.00     0.029 A 
ATOM     50  N   UNL     1       7.607  -0.026   7.839  1.00  0.00    -0.354 N 
ATOM     51  N   UNL     1       5.480  -1.593   9.106  1.00  0.00    -0.248 NA
ATOM     52  C   UNL     1       4.364  -2.322  11.024  1.00  0.00     0.031 C 
ATOM     53  C   UNL     1       8.911   1.226   9.131  1.00  0.00     0.029 A 
ATOM     54  C   UNL     1       7.838   0.349   9.152  1.00  0.00     0.049 A 
ATOM     55  H   UNL     1       6.906  -0.652   7.545  1.00  0.00     0.167 HD
ATOM     56  C   UNL     1       6.039  -0.980  10.220  1.00  0.00     0.074 A 
ATOM     57  C   UNL     1       5.292  -1.442  11.371  1.00  0.00     0.031 C 
ATOM     58  C   UNL     1       7.079  -0.113  10.285  1.00  0.00     0.037 A 
BRANCH  45  59
ATOM     59  C   UNL     1       9.621   1.168   4.806  1.00  0.00     0.057 A 
ATOM     60  C   UNL     1       9.323   2.277   4.004  1.00  0.00     0.134 A 
ATOM     61  C   UNL     1      10.963   0.778   4.899  1.00  0.00     0.134 A 
ATOM     62  F   UNL     1       8.055   2.690   3.860  1.00  0.00    -0.206 F 
ATOM     63  C   UNL     1      10.321   2.961   3.308  1.00  0.00     0.040 A 
ATOM     64  C   UNL     1      11.972   1.467   4.226  1.00  0.00     0.040 A 
ATOM     65  F   UNL     1      11.315  -0.275   5.653  1.00  0.00    -0.206 F 
ATOM     66  C   UNL     1      11.651   2.561   3.424  1.00  0.00     0.006 A 
ENDBRANCH  45  59
BRANCH  46  67
ATOM     67  C   UNL     1       2.519  -4.013   9.518  1.00  0.00     0.057 A 
ATOM     68  C   UNL     1       1.439  -3.394  10.156  1.00  0.00     0.134 A 
ATOM     69  C   UNL     1       2.607  -5.408   9.604  1.00  0.00     0.134 A 
ATOM     70  F   UNL     1       1.314  -2.059  10.128  1.00  0.00    -0.206 F 
ATOM     71  C   UNL     1       0.494  -4.131  10.872  1.00  0.00     0.040 A 
ATOM     72  C   UNL     1       1.656  -6.159  10.295  1.00  0.00     0.040 A 
ATOM     73  F   UNL     1       3.619  -6.061   9.012  1.00  0.00    -0.206 F 
ATOM     74  C   UNL     1       0.599  -5.519  10.939  1.00  0.00     0.006 A 
ENDBRANCH  46  67
BRANCH  58  75
ATOM     75  C   UNL     1       7.442   0.419  11.640  1.00  0.00     0.057 A 
ATOM     76  C   UNL     1       8.088  -0.373  12.597  1.00  0.00     0.134 A 
ATOM     77  C   UNL     1       7.162   1.748  11.981  1.00  0.00     0.134 A 
ATOM     78  F   UNL     1       8.372  -1.658  12.336  1.00  0.00    -0.206 F 
ATOM     79  C   UNL     1       8.418   0.130  13.856  1.00  0.00     0.040 A 
ATOM     80  C   UNL     1       7.510   2.270  13.227  1.00  0.00     0.040 A 
ATOM     81  F   UNL     1       6.553   2.562  11.106  1.00  0.00    -0.206 F 
ATOM     82  C   UNL     1       8.133   1.458  14.172  1.00  0.00     0.006 A 
ENDBRANCH  58  75
ENDBRANCH  32  33
ENDBRANCH  25  27
ENDBRANCH  24  25
ENDBRANCH  23  24
ENDBRANCH   1  23
TORSDOF 15
