REMARK SMILES Cc1ccc(-c2c(C)sc(NC(=O)[C@H]3CC=CC[C@H]3C(=O)OCCOC(=O)c3ccc(-c4c5nc(c(-c6c(F)cccc6F)c6ccc([nH]6)c(-c6c(F)cccc6F)c6nc(c(-c7c(F)cccc7F)c7ccc4[nH]7)C=C6)C=C5)cc3)c2C(N)=O)cc1
REMARK SMILES IDX 23 1 22 2 20 3 21 4 19 5 14 6 15 7 16 8 18 9 17 10 12 11
REMARK SMILES IDX 11 12 13 14 10 15 6 16 7 17 82 18 8 19 9 20 5 21 1 22 2 23
REMARK SMILES IDX 3 24 87 25 4 26 86 27 83 28 84 29 85 30 24 33 25 34 26 35
REMARK SMILES IDX 27 36 28 37 29 38 81 39 30 40 80 41 31 42 32 43 33 44 74 45
REMARK SMILES IDX 34 46 79 47 73 48 75 49 35 50 78 51 72 52 71 53 36 55 62 56
REMARK SMILES IDX 45 57 61 58 46 59 49 60 60 61 76 62 47 63 48 64 59 66 77 67
REMARK SMILES IDX 50 68 37 69 38 70 43 71 39 72 40 73 42 74 44 75 41 76 63 77
REMARK SMILES IDX 64 78 69 79 65 80 66 81 68 82 70 83 67 84 51 85 52 86 57 87
REMARK SMILES IDX 53 88 54 89 56 90 58 91 55 92
REMARK H PARENT 11 13 84 31 84 32 75 54 49 65
REMARK Flexibility Score: inf
ROOT
ATOM      1  C   UNL     1     -10.769  -3.496   1.647  1.00  0.00     0.274 C 
ENDROOT
BRANCH   1   2
ATOM      2  O   UNL     1      -9.543  -2.807   1.539  1.00  0.00    -0.462 OA
BRANCH   2   3
ATOM      3  C   UNL     1      -8.800  -3.243   0.480  1.00  0.00     0.310 C 
ATOM      4  O   UNL     1      -8.444  -4.406   0.386  1.00  0.00    -0.252 OA
BRANCH   3   5
ATOM      5  C   UNL     1      -8.897  -2.014  -0.605  1.00  0.00     0.116 C 
ATOM      6  C   UNL     1      -8.166  -0.483   0.425  1.00  0.00     0.097 C 
ATOM      7  C   UNL     1      -7.635   0.977  -0.516  1.00  0.00     0.041 C 
ATOM      8  C   UNL     1      -7.186   0.908  -2.225  1.00  0.00    -0.030 C 
ATOM      9  C   UNL     1      -8.601  -1.694  -2.792  1.00  0.00     0.043 C 
ATOM     10  C   UNL     1      -7.572  -0.083  -3.191  1.00  0.00    -0.030 C 
BRANCH   6  11
ATOM     11  C   UNL     1      -7.448  -0.700   1.774  1.00  0.00     0.229 C 
ATOM     12  N   UNL     1      -6.121  -0.694   2.060  1.00  0.00    -0.317 N 
ATOM     13  H   UNL     1      -5.929  -1.000   2.976  1.00  0.00     0.170 HD
ATOM     14  O   UNL     1      -8.150  -0.940   2.772  1.00  0.00    -0.274 OA
BRANCH  12  15
ATOM     15  C   UNL     1      -4.981  -0.357   1.366  1.00  0.00     0.109 A 
ATOM     16  C   UNL     1      -2.856  -0.110   0.454  1.00  0.00     0.010 A 
ATOM     17  C   UNL     1      -3.631   0.715  -0.346  1.00  0.00     0.012 A 
ATOM     18  C   UNL     1      -3.648  -0.736   1.526  1.00  0.00     0.082 A 
ATOM     19  C   UNL     1      -3.399   1.399  -1.652  1.00  0.00     0.057 C 
ATOM     20  S   UNL     1      -4.920   1.174   0.636  1.00  0.00    -0.122 S 
BRANCH  16  21
ATOM     21  C   UNL     1      -1.422  -0.127   0.248  1.00  0.00    -0.016 A 
ATOM     22  C   UNL     1       2.848  -0.052  -0.089  1.00  0.00     0.044 C 
ATOM     23  C   UNL     1       1.353  -0.065  -0.029  1.00  0.00    -0.051 A 
ATOM     24  C   UNL     1       0.656  -1.281  -0.094  1.00  0.00     0.004 A 
ATOM     25  C   UNL     1       0.649   1.127   0.146  1.00  0.00     0.004 A 
ATOM     26  C   UNL     1      -0.732  -1.313   0.030  1.00  0.00     0.009 A 
ATOM     27  C   UNL     1      -0.729   1.093   0.299  1.00  0.00     0.009 A 
ENDBRANCH  16  21
BRANCH  18  28
ATOM     28  C   UNL     1      -3.106  -1.578   2.594  1.00  0.00     0.252 C 
ATOM     29  N   UNL     1      -3.983  -2.266   3.386  1.00  0.00    -0.365 N 
ATOM     30  O   UNL     1      -1.909  -1.690   2.835  1.00  0.00    -0.269 OA
ATOM     31  H   UNL     1      -4.951  -2.200   3.222  1.00  0.00     0.159 HD
ATOM     32  H   UNL     1      -3.646  -2.827   4.122  1.00  0.00     0.159 HD
ENDBRANCH  18  28
ENDBRANCH  12  15
ENDBRANCH   6  11
ENDBRANCH   3   5
ENDBRANCH   2   3
ENDBRANCH   1   2
BRANCH   1  33
ATOM     33  C   UNL     1     -11.973  -2.941   0.812  1.00  0.00     0.275 C 
BRANCH  33  34
ATOM     34  O   UNL     1     -12.077  -1.607   0.110  1.00  0.00    -0.458 OA
BRANCH  34  35
ATOM     35  C   UNL     1     -11.814  -0.948  -1.071  1.00  0.00     0.338 C 
ATOM     36  O   UNL     1     -12.480  -0.001  -1.463  1.00  0.00    -0.246 OA
BRANCH  35  37
ATOM     37  C   UNL     1     -10.608  -1.299  -1.857  1.00  0.00     0.060 A 
ATOM     38  C   UNL     1      -9.094  -0.434  -1.553  1.00  0.00     0.016 A 
ATOM     39  C   UNL     1     -10.573  -2.853  -2.111  1.00  0.00     0.016 A 
ATOM     40  C   UNL     1      -7.379  -1.423  -1.434  1.00  0.00     0.010 A 
ATOM     41  C   UNL     1      -9.225  -3.692  -2.006  1.00  0.00     0.010 A 
ATOM     42  C   UNL     1      -7.571  -3.176  -1.759  1.00  0.00    -0.014 A 
BRANCH  42  43
ATOM     43  C   UNL     1      -6.733  -4.371  -2.033  1.00  0.00     0.031 A 
ATOM     44  C   UNL     1      -5.373  -4.470  -1.499  1.00  0.00     0.074 A 
ATOM     45  C   UNL     1      -7.276  -5.404  -2.773  1.00  0.00     0.049 A 
ATOM     46  N   UNL     1      -4.372  -4.929  -2.172  1.00  0.00    -0.248 NA
ATOM     47  C   UNL     1      -4.993  -3.965  -0.182  1.00  0.00     0.031 C 
ATOM     48  C   UNL     1      -6.950  -6.828  -2.811  1.00  0.00     0.029 A 
ATOM     49  N   UNL     1      -8.350  -5.354  -3.692  1.00  0.00    -0.354 N 
ATOM     50  C   UNL     1      -3.394  -5.188  -1.237  1.00  0.00     0.074 A 
ATOM     51  C   UNL     1      -3.706  -4.329  -0.119  1.00  0.00     0.031 C 
ATOM     52  C   UNL     1      -7.609  -7.430  -3.830  1.00  0.00     0.029 A 
ATOM     53  C   UNL     1      -8.353  -6.422  -4.561  1.00  0.00     0.049 A 
ATOM     54  H   UNL     1      -9.022  -4.634  -3.709  1.00  0.00     0.167 HD
ATOM     55  C   UNL     1      -2.675  -6.347  -1.320  1.00  0.00     0.037 A 
ATOM     56  C   UNL     1      -8.514  -6.174  -5.885  1.00  0.00     0.037 A 
ATOM     57  C   UNL     1      -3.218  -7.195  -2.388  1.00  0.00     0.049 A 
ATOM     58  C   UNL     1      -7.206  -6.522  -6.503  1.00  0.00     0.074 A 
ATOM     59  C   UNL     1      -4.017  -8.327  -2.346  1.00  0.00     0.029 A 
ATOM     60  N   UNL     1      -3.258  -6.748  -3.704  1.00  0.00    -0.354 N 
ATOM     61  N   UNL     1      -6.097  -6.525  -5.819  1.00  0.00    -0.248 NA
ATOM     62  C   UNL     1      -7.058  -7.034  -7.851  1.00  0.00     0.031 C 
ATOM     63  C   UNL     1      -4.452  -8.614  -3.665  1.00  0.00     0.029 A 
ATOM     64  C   UNL     1      -3.951  -7.633  -4.507  1.00  0.00     0.049 A 
ATOM     65  H   UNL     1      -2.848  -5.912  -4.022  1.00  0.00     0.167 HD
ATOM     66  C   UNL     1      -5.142  -7.183  -6.529  1.00  0.00     0.074 A 
ATOM     67  C   UNL     1      -5.778  -7.444  -7.811  1.00  0.00     0.031 C 
ATOM     68  C   UNL     1      -3.941  -7.494  -5.961  1.00  0.00     0.037 A 
BRANCH  55  69
ATOM     69  C   UNL     1      -1.764  -6.896  -0.231  1.00  0.00     0.057 A 
ATOM     70  C   UNL     1      -1.472  -8.275  -0.145  1.00  0.00     0.134 A 
ATOM     71  C   UNL     1      -1.112  -6.117   0.743  1.00  0.00     0.134 A 
ATOM     72  F   UNL     1      -1.905  -9.152  -1.059  1.00  0.00    -0.206 F 
ATOM     73  C   UNL     1      -0.691  -8.839   0.873  1.00  0.00     0.040 A 
ATOM     74  C   UNL     1      -0.354  -6.672   1.790  1.00  0.00     0.040 A 
ATOM     75  F   UNL     1      -1.125  -4.779   0.692  1.00  0.00    -0.206 F 
ATOM     76  C   UNL     1      -0.147  -8.041   1.862  1.00  0.00     0.006 A 
ENDBRANCH  55  69
BRANCH  56  77
ATOM     77  C   UNL     1      -9.394  -4.989  -6.165  1.00  0.00     0.057 A 
ATOM     78  C   UNL     1     -10.779  -5.122  -5.916  1.00  0.00     0.134 A 
ATOM     79  C   UNL     1      -8.908  -3.679  -6.242  1.00  0.00     0.134 A 
ATOM     80  F   UNL     1     -11.329  -6.344  -5.822  1.00  0.00    -0.206 F 
ATOM     81  C   UNL     1     -11.608  -4.025  -5.639  1.00  0.00     0.040 A 
ATOM     82  C   UNL     1      -9.735  -2.571  -5.986  1.00  0.00     0.040 A 
ATOM     83  F   UNL     1      -7.604  -3.446  -6.438  1.00  0.00    -0.206 F 
ATOM     84  C   UNL     1     -11.076  -2.742  -5.642  1.00  0.00     0.006 A 
ENDBRANCH  56  77
BRANCH  68  85
ATOM     85  C   UNL     1      -2.660  -7.799  -6.694  1.00  0.00     0.057 A 
ATOM     86  C   UNL     1      -2.481  -7.673  -8.075  1.00  0.00     0.134 A 
ATOM     87  C   UNL     1      -1.474  -8.087  -5.973  1.00  0.00     0.134 A 
ATOM     88  F   UNL     1      -3.459  -7.286  -8.897  1.00  0.00    -0.206 F 
ATOM     89  C   UNL     1      -1.245  -7.877  -8.695  1.00  0.00     0.040 A 
ATOM     90  C   UNL     1      -0.223  -8.210  -6.572  1.00  0.00     0.040 A 
ATOM     91  F   UNL     1      -1.445  -8.231  -4.641  1.00  0.00    -0.206 F 
ATOM     92  C   UNL     1      -0.107  -8.125  -7.945  1.00  0.00     0.006 A 
ENDBRANCH  68  85
ENDBRANCH  42  43
ENDBRANCH  35  37
ENDBRANCH  34  35
ENDBRANCH  33  34
ENDBRANCH   1  33
TORSDOF 15
