REMARK SMILES CCC[NH2+][C@]1(C(=O)OCCOC(=O)c2ccc(-c3c4nc(c(-c5c(F)cccc5F)c5ccc([nH]5)c(-c5c(F)cccc5F)c5nc(c(-c6c(F)cccc6F)c6ccc3[nH]6)C=C5)C=C4)cc2)CCC[C@@H]([N@@H+](C)[C@@H](C)C2CC2)C1
REMARK SMILES IDX 9 1 8 2 6 3 7 4 5 5 68 6 79 7 69 8 71 9 70 10 4 11 3 14 2 15
REMARK SMILES IDX 1 16 72 17 73 18 74 20 75 21 76 22 77 23 78 24 10 25 11 26
REMARK SMILES IDX 12 27 13 28 14 29 15 30 67 31 16 32 66 33 17 34 18 35 19 36
REMARK SMILES IDX 60 37 20 38 65 39 59 40 61 41 21 42 64 43 58 44 57 45 22 47
REMARK SMILES IDX 48 48 31 49 47 50 32 51 35 52 46 53 62 54 33 55 34 56 45 58
REMARK SMILES IDX 63 59 36 60 23 61 24 62 29 63 25 64 26 65 28 66 30 67 27 68
REMARK SMILES IDX 49 69 50 70 55 71 51 72 52 73 54 74 56 75 53 76 37 77 38 78
REMARK SMILES IDX 43 79 39 80 40 81 42 82 44 83 41 84
REMARK H PARENT 4 12 4 13 72 19 61 46 35 57
REMARK Flexibility Score: inf
ROOT
ATOM      1  C   UNL     1      -0.608   0.077   1.477  1.00  0.00     0.274 C 
ENDROOT
BRANCH   1   2
ATOM      2  O   UNL     1      -0.263   1.076   2.459  1.00  0.00    -0.457 OA
BRANCH   2   3
ATOM      3  C   UNL     1       1.063   1.200   2.750  1.00  0.00     0.368 C 
ATOM      4  O   UNL     1       1.955   0.627   2.126  1.00  0.00    -0.245 OA
BRANCH   3   5
ATOM      5  C   UNL     1       1.358   2.195   3.951  1.00  0.00     0.200 C 
ATOM      6  C   UNL     1       1.065   3.642   3.492  1.00  0.00     0.081 C 
ATOM      7  C   UNL     1       0.398   1.788   5.083  1.00  0.00     0.146 C 
ATOM      8  C   UNL     1       0.861   4.670   4.606  1.00  0.00     0.013 C 
ATOM      9  C   UNL     1       0.178   2.800   6.210  1.00  0.00     0.190 C 
ATOM     10  C   UNL     1      -0.119   4.208   5.673  1.00  0.00     0.065 C 
BRANCH   5  11
ATOM     11  N   UNL     1       2.786   1.931   4.284  1.00  0.00    -0.332 N 
ATOM     12  H   UNL     1       2.811   1.021   4.744  1.00  0.00     0.347 HD
ATOM     13  H   UNL     1       3.245   2.035   3.379  1.00  0.00     0.347 HD
BRANCH  11  14
ATOM     14  C   UNL     1       3.547   2.834   5.123  1.00  0.00     0.261 C 
BRANCH  14  15
ATOM     15  C   UNL     1       5.047   2.510   5.061  1.00  0.00     0.058 C 
ATOM     16  C   UNL     1       5.697   2.981   3.763  1.00  0.00     0.010 C 
ENDBRANCH  14  15
ENDBRANCH  11  14
ENDBRANCH   5  11
BRANCH   9  17
ATOM     17  N   UNL     1      -0.775   2.282   7.221  1.00  0.00    -0.332 N 
ATOM     18  C   UNL     1      -0.563   2.922   8.524  1.00  0.00     0.333 C 
ATOM     19  H   UNL     1      -0.499   1.301   7.198  1.00  0.00     0.348 HD
BRANCH  17  20
ATOM     20  C   UNL     1      -2.218   2.104   6.940  1.00  0.00     0.184 C 
ATOM     21  C   UNL     1      -3.051   3.365   6.665  1.00  0.00     0.075 C 
BRANCH  20  22
ATOM     22  C   UNL     1      -2.519   1.059   5.883  1.00  0.00     0.047 C 
ATOM     23  C   UNL     1      -1.939  -0.337   5.950  1.00  0.00     0.010 C 
ATOM     24  C   UNL     1      -3.401  -0.128   6.202  1.00  0.00     0.010 C 
ENDBRANCH  20  22
ENDBRANCH  17  20
ENDBRANCH   9  17
ENDBRANCH   3   5
ENDBRANCH   2   3
ENDBRANCH   1   2
BRANCH   1  25
ATOM     25  C   UNL     1      -0.998   0.725   0.154  1.00  0.00     0.275 C 
BRANCH  25  26
ATOM     26  O   UNL     1       0.102   1.507  -0.336  1.00  0.00    -0.458 OA
BRANCH  26  27
ATOM     27  C   UNL     1      -0.104   2.838  -0.390  1.00  0.00     0.338 C 
ATOM     28  O   UNL     1      -1.147   3.449  -0.183  1.00  0.00    -0.246 OA
BRANCH  27  29
ATOM     29  C   UNL     1       1.160   3.510  -0.702  1.00  0.00     0.060 A 
ATOM     30  C   UNL     1       2.222   3.415   0.196  1.00  0.00     0.016 A 
ATOM     31  C   UNL     1       1.256   4.336  -1.818  1.00  0.00     0.016 A 
ATOM     32  C   UNL     1       3.349   4.208   0.043  1.00  0.00     0.010 A 
ATOM     33  C   UNL     1       2.433   5.055  -2.031  1.00  0.00     0.010 A 
ATOM     34  C   UNL     1       3.478   5.019  -1.087  1.00  0.00    -0.014 A 
BRANCH  34  35
ATOM     35  C   UNL     1       4.688   5.849  -1.284  1.00  0.00     0.031 A 
ATOM     36  C   UNL     1       4.551   7.337  -1.403  1.00  0.00     0.074 A 
ATOM     37  C   UNL     1       5.898   5.269  -1.391  1.00  0.00     0.049 A 
ATOM     38  N   UNL     1       5.401   8.211  -1.871  1.00  0.00    -0.248 NA
ATOM     39  C   UNL     1       3.275   7.915  -0.952  1.00  0.00     0.031 C 
ATOM     40  C   UNL     1       6.176   3.841  -1.225  1.00  0.00     0.029 A 
ATOM     41  N   UNL     1       7.121   5.814  -1.690  1.00  0.00    -0.354 N 
ATOM     42  C   UNL     1       4.738   9.431  -1.843  1.00  0.00     0.074 A 
ATOM     43  C   UNL     1       3.422   9.188  -1.290  1.00  0.00     0.031 C 
ATOM     44  C   UNL     1       7.483   3.622  -1.427  1.00  0.00     0.029 A 
ATOM     45  C   UNL     1       8.112   4.873  -1.829  1.00  0.00     0.049 A 
ATOM     46  H   UNL     1       7.273   6.781  -1.795  1.00  0.00     0.167 HD
ATOM     47  C   UNL     1       5.188  10.636  -2.263  1.00  0.00     0.037 A 
ATOM     48  C   UNL     1       9.367   4.990  -2.299  1.00  0.00     0.037 A 
ATOM     49  C   UNL     1       6.519  10.866  -2.760  1.00  0.00     0.049 A 
ATOM     50  C   UNL     1       9.843   6.329  -2.777  1.00  0.00     0.074 A 
ATOM     51  C   UNL     1       7.089  12.050  -3.192  1.00  0.00     0.029 A 
ATOM     52  N   UNL     1       7.493   9.884  -2.876  1.00  0.00    -0.354 N 
ATOM     53  N   UNL     1       9.192   7.466  -2.818  1.00  0.00    -0.248 NA
ATOM     54  C   UNL     1      11.215   6.398  -3.295  1.00  0.00     0.031 C 
ATOM     55  C   UNL     1       8.402  11.779  -3.595  1.00  0.00     0.029 A 
ATOM     56  C   UNL     1       8.659  10.433  -3.382  1.00  0.00     0.049 A 
ATOM     57  H   UNL     1       7.373   8.938  -2.634  1.00  0.00     0.167 HD
ATOM     58  C   UNL     1      10.073   8.389  -3.362  1.00  0.00     0.074 A 
ATOM     59  C   UNL     1      11.311   7.680  -3.621  1.00  0.00     0.031 C 
ATOM     60  C   UNL     1       9.876   9.703  -3.628  1.00  0.00     0.037 A 
BRANCH  47  61
ATOM     61  C   UNL     1       4.215  11.776  -2.253  1.00  0.00     0.057 A 
ATOM     62  C   UNL     1       3.816  12.411  -1.071  1.00  0.00     0.134 A 
ATOM     63  C   UNL     1       3.672  12.246  -3.456  1.00  0.00     0.134 A 
ATOM     64  F   UNL     1       4.283  11.995   0.115  1.00  0.00    -0.206 F 
ATOM     65  C   UNL     1       2.893  13.460  -1.085  1.00  0.00     0.040 A 
ATOM     66  C   UNL     1       2.766  13.307  -3.484  1.00  0.00     0.040 A 
ATOM     67  F   UNL     1       4.013  11.680  -4.624  1.00  0.00    -0.206 F 
ATOM     68  C   UNL     1       2.369  13.913  -2.295  1.00  0.00     0.006 A 
ENDBRANCH  47  61
BRANCH  48  69
ATOM     69  C   UNL     1      10.220   3.782  -2.399  1.00  0.00     0.057 A 
ATOM     70  C   UNL     1      11.286   3.573  -1.520  1.00  0.00     0.134 A 
ATOM     71  C   UNL     1       9.952   2.781  -3.343  1.00  0.00     0.134 A 
ATOM     72  F   UNL     1      11.600   4.505  -0.608  1.00  0.00    -0.206 F 
ATOM     73  C   UNL     1      12.055   2.409  -1.570  1.00  0.00     0.040 A 
ATOM     74  C   UNL     1      10.697   1.603  -3.389  1.00  0.00     0.040 A 
ATOM     75  F   UNL     1       8.938   2.921  -4.208  1.00  0.00    -0.206 F 
ATOM     76  C   UNL     1      11.754   1.415  -2.501  1.00  0.00     0.006 A 
ENDBRANCH  48  69
BRANCH  60  77
ATOM     77  C   UNL     1      11.033  10.457  -4.204  1.00  0.00     0.057 A 
ATOM     78  C   UNL     1      11.379  10.348  -5.555  1.00  0.00     0.134 A 
ATOM     79  C   UNL     1      11.780  11.332  -3.406  1.00  0.00     0.134 A 
ATOM     80  F   UNL     1      10.708   9.515  -6.364  1.00  0.00    -0.206 F 
ATOM     81  C   UNL     1      12.440  11.077  -6.093  1.00  0.00     0.040 A 
ATOM     82  C   UNL     1      12.831  12.079  -3.935  1.00  0.00     0.040 A 
ATOM     83  F   UNL     1      11.491  11.480  -2.104  1.00  0.00    -0.206 F 
ATOM     84  C   UNL     1      13.166  11.950  -5.282  1.00  0.00     0.006 A 
ENDBRANCH  60  77
ENDBRANCH  34  35
ENDBRANCH  27  29
ENDBRANCH  26  27
ENDBRANCH  25  26
ENDBRANCH   1  25
TORSDOF 17
