REMARK SMILES CCN(CC(C)(C)O)C(=O)[C@H]1CC=CC[C@H]1C(=O)OCCOC(=O)c1ccc(-c2c3nc(c(-c4c(F)cccc4F)c4ccc([nH]4)c(-c4c(F)cccc4F)c4nc(c(-c5c(F)cccc5F)c5ccc2[nH]5)C=C4)C=C3)cc1
REMARK SMILES IDX 19 1 17 2 18 3 16 4 11 5 12 6 13 7 15 8 14 9 9 10 10 11 3 12
REMARK SMILES IDX 2 13 1 14 4 15 5 16 6 17 7 18 8 19 20 21 21 22 22 23 23 24
REMARK SMILES IDX 24 25 25 26 26 27 78 28 27 29 77 30 28 31 29 32 30 33 71 34
REMARK SMILES IDX 31 35 76 36 70 37 72 38 32 39 75 40 69 41 68 42 33 44 59 45
REMARK SMILES IDX 42 46 58 47 43 48 46 49 57 50 73 51 44 52 45 53 56 55 74 56
REMARK SMILES IDX 47 57 34 58 35 59 40 60 36 61 37 62 39 63 41 64 38 65 60 66
REMARK SMILES IDX 61 67 66 68 62 69 63 70 65 71 67 72 64 73 48 74 49 75 54 76
REMARK SMILES IDX 50 77 51 78 53 79 55 80 52 81
REMARK H PARENT 8 20 72 43 46 54
REMARK Flexibility Score: inf
ROOT
ATOM      1  O   UNL     1       2.468   0.152   2.970  1.00  0.00    -0.462 OA
ENDROOT
BRANCH   1   2
ATOM      2  C   UNL     1       3.716   0.004   3.475  1.00  0.00     0.310 C 
ATOM      3  O   UNL     1       4.286   0.835   4.174  1.00  0.00    -0.252 OA
BRANCH   2   4
ATOM      4  C   UNL     1       4.372  -1.311   3.109  1.00  0.00     0.115 C 
ATOM      5  C   UNL     1       3.457  -2.448   2.614  1.00  0.00     0.097 C 
ATOM      6  C   UNL     1       4.287  -3.732   2.381  1.00  0.00     0.041 C 
ATOM      7  C   UNL     1       5.689  -3.514   1.885  1.00  0.00    -0.030 C 
ATOM      8  C   UNL     1       5.573  -1.040   2.197  1.00  0.00     0.043 C 
ATOM      9  C   UNL     1       6.258  -2.306   1.776  1.00  0.00    -0.030 C 
BRANCH   5  10
ATOM     10  C   UNL     1       2.699  -2.117   1.324  1.00  0.00     0.226 C 
ATOM     11  O   UNL     1       3.325  -1.721   0.337  1.00  0.00    -0.275 OA
BRANCH  10  12
ATOM     12  N   UNL     1       1.317  -2.294   1.268  1.00  0.00    -0.340 N 
BRANCH  12  13
ATOM     13  C   UNL     1       0.668  -1.975  -0.008  1.00  0.00     0.116 C 
ATOM     14  C   UNL     1       0.440  -0.475  -0.162  1.00  0.00     0.027 C 
ENDBRANCH  12  13
BRANCH  12  15
ATOM     15  C   UNL     1       0.404  -2.574   2.396  1.00  0.00     0.154 C 
BRANCH  15  16
ATOM     16  C   UNL     1      -0.057  -4.052   2.565  1.00  0.00     0.077 C 
ATOM     17  C   UNL     1       1.056  -4.961   3.082  1.00  0.00     0.043 C 
ATOM     18  C   UNL     1      -1.241  -4.105   3.539  1.00  0.00     0.043 C 
BRANCH  16  19
ATOM     19  O   UNL     1      -0.524  -4.572   1.314  1.00  0.00    -0.389 OA
ATOM     20  H   UNL     1       0.199  -4.556   0.667  1.00  0.00     0.211 HD
ENDBRANCH  16  19
ENDBRANCH  15  16
ENDBRANCH  12  15
ENDBRANCH  10  12
ENDBRANCH   5  10
ENDBRANCH   2   4
ENDBRANCH   1   2
BRANCH   1  21
ATOM     21  C   UNL     1       1.806   1.395   3.277  1.00  0.00     0.274 C 
BRANCH  21  22
ATOM     22  C   UNL     1       0.728   1.172   4.333  1.00  0.00     0.275 C 
BRANCH  22  23
ATOM     23  O   UNL     1       1.317   0.632   5.530  1.00  0.00    -0.458 OA
BRANCH  23  24
ATOM     24  C   UNL     1       0.851  -0.575   5.918  1.00  0.00     0.338 C 
ATOM     25  O   UNL     1      -0.044  -1.233   5.420  1.00  0.00    -0.246 OA
BRANCH  24  26
ATOM     26  C   UNL     1       1.646  -1.061   7.051  1.00  0.00     0.060 A 
ATOM     27  C   UNL     1       2.764  -1.859   6.801  1.00  0.00     0.016 A 
ATOM     28  C   UNL     1       1.203  -0.833   8.355  1.00  0.00     0.016 A 
ATOM     29  C   UNL     1       3.437  -2.456   7.866  1.00  0.00     0.010 A 
ATOM     30  C   UNL     1       1.888  -1.420   9.421  1.00  0.00     0.010 A 
ATOM     31  C   UNL     1       2.993  -2.253   9.181  1.00  0.00    -0.014 A 
BRANCH  31  32
ATOM     32  C   UNL     1       3.658  -2.959  10.302  1.00  0.00     0.031 A 
ATOM     33  C   UNL     1       3.010  -4.163  10.923  1.00  0.00     0.074 A 
ATOM     34  C   UNL     1       4.849  -2.525  10.750  1.00  0.00     0.049 A 
ATOM     35  N   UNL     1       3.421  -4.901  11.923  1.00  0.00    -0.248 NA
ATOM     36  C   UNL     1       1.728  -4.594  10.344  1.00  0.00     0.031 C 
ATOM     37  C   UNL     1       5.582  -1.377  10.219  1.00  0.00     0.029 A 
ATOM     38  N   UNL     1       5.651  -3.004  11.754  1.00  0.00    -0.354 N 
ATOM     39  C   UNL     1       2.448  -5.875  12.100  1.00  0.00     0.074 A 
ATOM     40  C   UNL     1       1.416  -5.626  11.116  1.00  0.00     0.031 C 
ATOM     41  C   UNL     1       6.734  -1.244  10.898  1.00  0.00     0.029 A 
ATOM     42  C   UNL     1       6.805  -2.281  11.924  1.00  0.00     0.049 A 
ATOM     43  H   UNL     1       5.421  -3.790  12.300  1.00  0.00     0.167 HD
ATOM     44  C   UNL     1       2.420  -6.888  12.999  1.00  0.00     0.037 A 
ATOM     45  C   UNL     1       7.803  -2.434  12.814  1.00  0.00     0.037 A 
ATOM     46  C   UNL     1       3.447  -7.140  13.976  1.00  0.00     0.049 A 
ATOM     47  C   UNL     1       7.740  -3.555  13.810  1.00  0.00     0.074 A 
ATOM     48  C   UNL     1       3.508  -8.144  14.928  1.00  0.00     0.029 A 
ATOM     49  N   UNL     1       4.596  -6.379  14.124  1.00  0.00    -0.354 N 
ATOM     50  N   UNL     1       6.815  -4.471  13.966  1.00  0.00    -0.248 NA
ATOM     51  C   UNL     1       8.861  -3.664  14.755  1.00  0.00     0.031 C 
ATOM     52  C   UNL     1       4.685  -7.976  15.668  1.00  0.00     0.029 A 
ATOM     53  C   UNL     1       5.369  -6.885  15.157  1.00  0.00     0.049 A 
ATOM     54  H   UNL     1       4.829  -5.595  13.577  1.00  0.00     0.167 HD
ATOM     55  C   UNL     1       7.244  -5.269  15.017  1.00  0.00     0.074 A 
ATOM     56  C   UNL     1       8.522  -4.741  15.450  1.00  0.00     0.031 C 
ATOM     57  C   UNL     1       6.633  -6.341  15.577  1.00  0.00     0.037 A 
BRANCH  44  58
ATOM     58  C   UNL     1       1.225  -7.791  12.977  1.00  0.00     0.057 A 
ATOM     59  C   UNL     1       1.066  -8.775  11.994  1.00  0.00     0.134 A 
ATOM     60  C   UNL     1       0.236  -7.693  13.964  1.00  0.00     0.134 A 
ATOM     61  F   UNL     1       1.970  -8.907  11.012  1.00  0.00    -0.206 F 
ATOM     62  C   UNL     1      -0.044  -9.623  11.985  1.00  0.00     0.040 A 
ATOM     63  C   UNL     1      -0.869  -8.546  13.975  1.00  0.00     0.040 A 
ATOM     64  F   UNL     1       0.331  -6.771  14.934  1.00  0.00    -0.206 F 
ATOM     65  C   UNL     1      -1.012  -9.512  12.981  1.00  0.00     0.006 A 
ENDBRANCH  44  58
BRANCH  45  66
ATOM     66  C   UNL     1       8.952  -1.500  12.795  1.00  0.00     0.057 A 
ATOM     67  C   UNL     1      10.201  -1.903  12.311  1.00  0.00     0.134 A 
ATOM     68  C   UNL     1       8.827  -0.183  13.251  1.00  0.00     0.134 A 
ATOM     69  F   UNL     1      10.384  -3.160  11.881  1.00  0.00    -0.206 F 
ATOM     70  C   UNL     1      11.289  -1.030  12.286  1.00  0.00     0.040 A 
ATOM     71  C   UNL     1       9.902   0.706  13.215  1.00  0.00     0.040 A 
ATOM     72  F   UNL     1       7.653   0.260  13.726  1.00  0.00    -0.206 F 
ATOM     73  C   UNL     1      11.139   0.281  12.734  1.00  0.00     0.006 A 
ENDBRANCH  45  66
BRANCH  57  74
ATOM     74  C   UNL     1       7.349  -7.011  16.710  1.00  0.00     0.057 A 
ATOM     75  C   UNL     1       7.370  -6.452  17.994  1.00  0.00     0.134 A 
ATOM     76  C   UNL     1       8.013  -8.228  16.518  1.00  0.00     0.134 A 
ATOM     77  F   UNL     1       6.763  -5.280  18.235  1.00  0.00    -0.206 F 
ATOM     78  C   UNL     1       8.047  -7.071  19.045  1.00  0.00     0.040 A 
ATOM     79  C   UNL     1       8.679  -8.865  17.566  1.00  0.00     0.040 A 
ATOM     80  F   UNL     1       8.025  -8.815  15.312  1.00  0.00    -0.206 F 
ATOM     81  C   UNL     1       8.702  -8.284  18.832  1.00  0.00     0.006 A 
ENDBRANCH  57  74
ENDBRANCH  31  32
ENDBRANCH  24  26
ENDBRANCH  23  24
ENDBRANCH  22  23
ENDBRANCH  21  22
ENDBRANCH   1  21
TORSDOF 17
