REMARK SMILES COC(=O)[C@@H]1CN(C(=O)NC(=O)CCCC(=O)OCCOC(=O)c2ccc(-c3c4nc(c(-c5c(F)cccc5F)c5ccc([nH]5)c(-c5c(F)cccc5F)c5nc(c(-c6c(F)cccc6F)c6ccc3[nH]6)C=C5)C=C4)cc2)C[C@H]1C
REMARK SMILES IDX 16 1 17 2 15 3 14 4 13 5 11 6 8 7 9 8 10 9 12 11 7 12 5 13
REMARK SMILES IDX 6 14 79 15 78 16 80 17 3 18 4 19 2 20 1 21 18 22 19 23 20 24
REMARK SMILES IDX 21 25 22 26 23 27 24 28 25 29 77 30 26 31 76 32 27 33 28 34
REMARK SMILES IDX 29 35 70 36 30 37 75 38 69 39 71 40 31 41 74 42 68 43 67 44
REMARK SMILES IDX 32 46 58 47 41 48 57 49 42 50 45 51 56 52 72 53 43 54 44 55
REMARK SMILES IDX 55 57 73 58 46 59 33 60 34 61 39 62 35 63 36 64 38 65 40 66
REMARK SMILES IDX 37 67 59 68 60 69 65 70 61 71 62 72 64 73 66 74 63 75 47 76
REMARK SMILES IDX 48 77 53 78 49 79 50 80 52 81 54 82 51 83
REMARK H PARENT 10 10 71 45 45 56
REMARK Flexibility Score: inf
ROOT
ATOM      1  C   UNL     1       2.760  -0.824   3.152  1.00  0.00     0.305 C 
ATOM      2  O   UNL     1       1.504  -0.760   3.113  1.00  0.00    -0.252 OA
ENDROOT
BRANCH   1   3
ATOM      3  C   UNL     1       3.136  -2.361   2.940  1.00  0.00     0.123 C 
BRANCH   3   4
ATOM      4  C   UNL     1       2.918  -2.929   1.531  1.00  0.00     0.022 C 
BRANCH   4   5
ATOM      5  C   UNL     1       4.054  -2.907   0.516  1.00  0.00     0.101 C 
BRANCH   5   6
ATOM      6  C   UNL     1       5.436  -3.270   0.981  1.00  0.00     0.228 C 
ATOM      7  C   UNL     1       5.910  -1.783   3.028  1.00  0.00     0.324 C 
ATOM      8  O   UNL     1       6.503  -2.092   4.066  1.00  0.00    -0.248 OA
ATOM      9  N   UNL     1       6.152  -2.545   1.913  1.00  0.00    -0.278 N 
ATOM     10  H   UNL     1       7.117  -2.587   1.722  1.00  0.00     0.174 HD
ATOM     11  O   UNL     1       5.990  -4.260   0.486  1.00  0.00    -0.275 OA
BRANCH   7  12
ATOM     12  N   UNL     1       4.907  -0.863   3.059  1.00  0.00    -0.323 N 
ATOM     13  C   UNL     1       2.453   1.058   2.472  1.00  0.00     0.123 C 
ATOM     14  C   UNL     1       4.042   0.093   1.678  1.00  0.00     0.137 C 
ATOM     15  C   UNL     1       2.542   0.642   4.552  1.00  0.00     0.021 C 
ATOM     16  C   UNL     1       4.157  -0.554   4.764  1.00  0.00     0.125 C 
ATOM     17  C   UNL     1       2.917   1.505   5.904  1.00  0.00     0.010 C 
BRANCH  13  18
ATOM     18  C   UNL     1       1.354   0.968   1.377  1.00  0.00     0.310 C 
ATOM     19  O   UNL     1       0.672   1.921   1.025  1.00  0.00    -0.252 OA
BRANCH  18  20
ATOM     20  O   UNL     1       1.461  -0.170   0.644  1.00  0.00    -0.469 OA
ATOM     21  C   UNL     1       0.535  -0.299  -0.430  1.00  0.00     0.282 C 
ENDBRANCH  18  20
ENDBRANCH  13  18
ENDBRANCH   7  12
ENDBRANCH   5   6
ENDBRANCH   4   5
ENDBRANCH   3   4
ENDBRANCH   1   3
BRANCH   1  22
ATOM     22  O   UNL     1       3.914   0.686   3.418  1.00  0.00    -0.462 OA
BRANCH  22  23
ATOM     23  C   UNL     1       3.800   2.468   3.689  1.00  0.00     0.274 C 
BRANCH  23  24
ATOM     24  C   UNL     1       2.206   3.274   3.794  1.00  0.00     0.275 C 
BRANCH  24  25
ATOM     25  O   UNL     1       1.088   2.606   4.570  1.00  0.00    -0.458 OA
BRANCH  25  26
ATOM     26  C   UNL     1      -0.148   2.247   4.118  1.00  0.00     0.338 C 
ATOM     27  O   UNL     1      -0.659   2.611   3.074  1.00  0.00    -0.246 OA
BRANCH  26  28
ATOM     28  C   UNL     1      -0.912   1.299   5.014  1.00  0.00     0.060 A 
ATOM     29  C   UNL     1      -0.901  -0.087   4.783  1.00  0.00     0.016 A 
ATOM     30  C   UNL     1      -1.891   1.782   5.883  1.00  0.00     0.016 A 
ATOM     31  C   UNL     1      -1.748  -0.984   5.445  1.00  0.00     0.010 A 
ATOM     32  C   UNL     1      -2.807   0.895   6.500  1.00  0.00     0.010 A 
ATOM     33  C   UNL     1      -2.742  -0.493   6.280  1.00  0.00    -0.014 A 
BRANCH  33  34
ATOM     34  C   UNL     1      -3.784  -1.424   6.781  1.00  0.00     0.031 A 
ATOM     35  C   UNL     1      -5.059  -1.586   6.000  1.00  0.00     0.074 A 
ATOM     36  C   UNL     1      -3.559  -2.174   7.875  1.00  0.00     0.049 A 
ATOM     37  N   UNL     1      -6.178  -2.168   6.342  1.00  0.00    -0.248 NA
ATOM     38  C   UNL     1      -5.062  -1.029   4.637  1.00  0.00     0.031 C 
ATOM     39  C   UNL     1      -2.292  -2.236   8.603  1.00  0.00     0.029 A 
ATOM     40  N   UNL     1      -4.389  -3.015   8.573  1.00  0.00    -0.354 N 
ATOM     41  C   UNL     1      -7.034  -2.010   5.256  1.00  0.00     0.074 A 
ATOM     42  C   UNL     1      -6.296  -1.302   4.234  1.00  0.00     0.031 C 
ATOM     43  C   UNL     1      -2.443  -3.032   9.675  1.00  0.00     0.029 A 
ATOM     44  C   UNL     1      -3.831  -3.476   9.743  1.00  0.00     0.049 A 
ATOM     45  H   UNL     1      -5.291  -3.264   8.268  1.00  0.00     0.167 HD
ATOM     46  C   UNL     1      -8.326  -2.403   5.145  1.00  0.00     0.037 A 
ATOM     47  C   UNL     1      -4.403  -4.119  10.779  1.00  0.00     0.037 A 
ATOM     48  C   UNL     1      -9.029  -3.102   6.191  1.00  0.00     0.049 A 
ATOM     49  C   UNL     1      -5.873  -4.434  10.696  1.00  0.00     0.074 A 
ATOM     50  C   UNL     1     -10.353  -3.500   6.236  1.00  0.00     0.029 A 
ATOM     51  N   UNL     1      -8.448  -3.506   7.387  1.00  0.00    -0.354 N 
ATOM     52  N   UNL     1      -6.715  -4.195   9.717  1.00  0.00    -0.248 NA
ATOM     53  C   UNL     1      -6.479  -5.093  11.860  1.00  0.00     0.031 C 
ATOM     54  C   UNL     1     -10.583  -4.103   7.478  1.00  0.00     0.029 A 
ATOM     55  C   UNL     1      -9.389  -4.135   8.184  1.00  0.00     0.049 A 
ATOM     56  H   UNL     1      -7.505  -3.365   7.632  1.00  0.00     0.167 HD
ATOM     57  C   UNL     1      -7.939  -4.700  10.131  1.00  0.00     0.074 A 
ATOM     58  C   UNL     1      -7.727  -5.268  11.448  1.00  0.00     0.031 C 
ATOM     59  C   UNL     1      -9.133  -4.699   9.486  1.00  0.00     0.037 A 
BRANCH  46  60
ATOM     60  C   UNL     1      -9.072  -2.015   3.899  1.00  0.00     0.057 A 
ATOM     61  C   UNL     1      -8.820  -2.606   2.654  1.00  0.00     0.134 A 
ATOM     62  C   UNL     1     -10.069  -1.030   3.949  1.00  0.00     0.134 A 
ATOM     63  F   UNL     1      -7.869  -3.544   2.527  1.00  0.00    -0.206 F 
ATOM     64  C   UNL     1      -9.514  -2.216   1.504  1.00  0.00     0.040 A 
ATOM     65  C   UNL     1     -10.785  -0.649   2.812  1.00  0.00     0.040 A 
ATOM     66  F   UNL     1     -10.366  -0.420   5.107  1.00  0.00    -0.206 F 
ATOM     67  C   UNL     1     -10.503  -1.238   1.583  1.00  0.00     0.006 A 
ENDBRANCH  46  60
BRANCH  47  68
ATOM     68  C   UNL     1      -3.612  -4.433  11.999  1.00  0.00     0.057 A 
ATOM     69  C   UNL     1      -3.350  -5.753  12.382  1.00  0.00     0.134 A 
ATOM     70  C   UNL     1      -3.103  -3.417  12.821  1.00  0.00     0.134 A 
ATOM     71  F   UNL     1      -3.828  -6.774  11.655  1.00  0.00    -0.206 F 
ATOM     72  C   UNL     1      -2.622  -6.053  13.537  1.00  0.00     0.040 A 
ATOM     73  C   UNL     1      -2.350  -3.701  13.962  1.00  0.00     0.040 A 
ATOM     74  F   UNL     1      -3.319  -2.128  12.519  1.00  0.00    -0.206 F 
ATOM     75  C   UNL     1      -2.113  -5.023  14.327  1.00  0.00     0.006 A 
ENDBRANCH  47  68
BRANCH  59  76
ATOM     76  C   UNL     1     -10.274  -5.382  10.178  1.00  0.00     0.057 A 
ATOM     77  C   UNL     1     -10.906  -4.825  11.296  1.00  0.00     0.134 A 
ATOM     78  C   UNL     1     -10.762  -6.603   9.694  1.00  0.00     0.134 A 
ATOM     79  F   UNL     1     -10.475  -3.666  11.815  1.00  0.00    -0.206 F 
ATOM     80  C   UNL     1     -11.969  -5.474  11.926  1.00  0.00     0.040 A 
ATOM     81  C   UNL     1     -11.843  -7.245  10.298  1.00  0.00     0.040 A 
ATOM     82  F   UNL     1     -10.205  -7.182   8.620  1.00  0.00    -0.206 F 
ATOM     83  C   UNL     1     -12.444  -6.684  11.422  1.00  0.00     0.006 A 
ENDBRANCH  59  76
ENDBRANCH  33  34
ENDBRANCH  26  28
ENDBRANCH  25  26
ENDBRANCH  24  25
ENDBRANCH  23  24
ENDBRANCH  22  23
ENDBRANCH   1  22
TORSDOF 17
