REMARK SMILES Cc1ccc(C)c(Cn2nnc(C(=O)OCCOC(=O)c3ccc(-c4c5nc(c(-c6c(F)cccc6F)c6ccc([nH]6)c(-c6c(F)cccc6F)c6nc(c(-c7c(F)cccc7F)c7ccc4[nH]7)C=C6)C=C5)cc3)c2-c2cccc(Cl)c2)c1
REMARK SMILES IDX 16 1 15 2 13 3 14 4 12 5 9 6 10 7 75 8 11 9 8 10 7 11 1 12
REMARK SMILES IDX 2 13 3 14 83 15 4 16 5 17 6 18 76 19 77 20 82 21 78 22 80 23
REMARK SMILES IDX 79 24 81 25 17 26 18 27 19 28 20 29 21 30 22 31 74 32 23 33
REMARK SMILES IDX 73 34 24 35 25 36 26 37 67 38 27 39 72 40 66 41 68 42 28 43
REMARK SMILES IDX 71 44 65 45 64 46 29 48 55 49 38 50 54 51 39 52 42 53 53 54
REMARK SMILES IDX 69 55 40 56 41 57 52 59 70 60 43 61 30 62 31 63 36 64 32 65
REMARK SMILES IDX 33 66 35 67 37 68 34 69 56 70 57 71 62 72 58 73 59 74 61 75
REMARK SMILES IDX 63 76 60 77 44 78 45 79 50 80 46 81 47 82 49 83 51 84 48 85
REMARK H PARENT 68 47 42 58
REMARK Flexibility Score: inf
ROOT
ATOM      1  C   UNL     1      -8.166   1.091  -2.147  1.00  0.00     0.275 C 
ENDROOT
BRANCH   1   2
ATOM      2  O   UNL     1      -6.859   1.365  -1.580  1.00  0.00    -0.457 OA
BRANCH   2   3
ATOM      3  C   UNL     1      -6.288   2.603  -1.655  1.00  0.00     0.361 C 
ATOM      4  O   UNL     1      -6.922   3.611  -1.936  1.00  0.00    -0.244 OA
BRANCH   3   5
ATOM      5  C   UNL     1      -4.833   2.574  -1.428  1.00  0.00     0.198 A 
ATOM      6  N   UNL     1      -2.775   2.174  -0.756  1.00  0.00    -0.239 N 
ATOM      7  N   UNL     1      -2.743   3.199  -1.642  1.00  0.00    -0.066 NA
ATOM      8  C   UNL     1      -4.071   1.672  -0.682  1.00  0.00     0.104 A 
ATOM      9  N   UNL     1      -3.985   3.482  -2.008  1.00  0.00    -0.122 NA
BRANCH   6  10
ATOM     10  C   UNL     1      -1.696   2.136   0.246  1.00  0.00     0.182 C 
BRANCH  10  11
ATOM     11  C   UNL     1      -0.700   0.987   0.201  1.00  0.00    -0.023 A 
ATOM     12  C   UNL     1       3.019   0.557  -0.685  1.00  0.00     0.044 C 
ATOM     13  C   UNL     1       1.597   0.244  -0.315  1.00  0.00    -0.051 A 
ATOM     14  C   UNL     1       1.297  -1.030   0.160  1.00  0.00     0.004 A 
ATOM     15  C   UNL     1       0.576   1.212  -0.371  1.00  0.00     0.009 A 
ATOM     16  C   UNL     1       0.060  -1.271   0.740  1.00  0.00     0.004 A 
ATOM     17  C   UNL     1      -0.894  -0.244   0.862  1.00  0.00    -0.046 A 
ATOM     18  C   UNL     1      -1.984  -0.509   1.857  1.00  0.00     0.044 C 
ENDBRANCH  10  11
ENDBRANCH   6  10
BRANCH   8  19
ATOM     19  C   UNL     1      -4.523   0.510   0.060  1.00  0.00     0.004 A 
ATOM     20  C   UNL     1      -4.414  -0.767  -0.508  1.00  0.00     0.010 A 
ATOM     21  C   UNL     1      -5.190   0.668   1.280  1.00  0.00     0.031 A 
ATOM     22  C   UNL     1      -4.980  -1.874   0.128  1.00  0.00     0.002 A 
ATOM     23  C   UNL     1      -5.726  -0.446   1.924  1.00  0.00     0.041 A 
ATOM     24  C   UNL     1      -5.634  -1.713   1.349  1.00  0.00     0.020 A 
ATOM     25  Cl  UNL     1      -6.503  -0.255   3.446  1.00  0.00    -0.084 Cl
ENDBRANCH   8  19
ENDBRANCH   3   5
ENDBRANCH   2   3
ENDBRANCH   1   2
BRANCH   1  26
ATOM     26  C   UNL     1      -8.512   1.722  -3.515  1.00  0.00     0.275 C 
BRANCH  26  27
ATOM     27  O   UNL     1      -7.638   1.202  -4.527  1.00  0.00    -0.458 OA
BRANCH  27  28
ATOM     28  C   UNL     1      -6.615   1.978  -5.001  1.00  0.00     0.338 C 
ATOM     29  O   UNL     1      -6.561   3.168  -5.132  1.00  0.00    -0.246 OA
BRANCH  28  30
ATOM     30  C   UNL     1      -5.532   0.984  -5.174  1.00  0.00     0.060 A 
ATOM     31  C   UNL     1      -5.036   0.596  -6.414  1.00  0.00     0.016 A 
ATOM     32  C   UNL     1      -5.352   0.180  -4.061  1.00  0.00     0.016 A 
ATOM     33  C   UNL     1      -4.545  -0.710  -6.548  1.00  0.00     0.010 A 
ATOM     34  C   UNL     1      -5.034  -1.128  -4.221  1.00  0.00     0.010 A 
ATOM     35  C   UNL     1      -4.645  -1.592  -5.463  1.00  0.00    -0.014 A 
BRANCH  35  36
ATOM     36  C   UNL     1      -4.380  -3.016  -5.508  1.00  0.00     0.031 A 
ATOM     37  C   UNL     1      -3.321  -3.525  -4.587  1.00  0.00     0.074 A 
ATOM     38  C   UNL     1      -5.283  -3.925  -5.913  1.00  0.00     0.049 A 
ATOM     39  N   UNL     1      -2.057  -3.649  -4.823  1.00  0.00    -0.248 NA
ATOM     40  C   UNL     1      -3.680  -3.762  -3.175  1.00  0.00     0.031 C 
ATOM     41  C   UNL     1      -6.676  -3.778  -6.323  1.00  0.00     0.029 A 
ATOM     42  N   UNL     1      -5.074  -5.264  -5.956  1.00  0.00    -0.354 N 
ATOM     43  C   UNL     1      -1.507  -4.152  -3.646  1.00  0.00     0.074 A 
ATOM     44  C   UNL     1      -2.473  -3.871  -2.623  1.00  0.00     0.031 C 
ATOM     45  C   UNL     1      -7.223  -5.013  -6.461  1.00  0.00     0.029 A 
ATOM     46  C   UNL     1      -6.183  -6.015  -6.276  1.00  0.00     0.049 A 
ATOM     47  H   UNL     1      -4.196  -5.669  -5.771  1.00  0.00     0.167 HD
ATOM     48  C   UNL     1      -0.452  -5.019  -3.638  1.00  0.00     0.037 A 
ATOM     49  C   UNL     1      -6.205  -7.366  -6.348  1.00  0.00     0.037 A 
ATOM     50  C   UNL     1       0.071  -5.184  -4.977  1.00  0.00     0.049 A 
ATOM     51  C   UNL     1      -4.793  -7.841  -6.449  1.00  0.00     0.074 A 
ATOM     52  C   UNL     1       0.562  -4.337  -5.953  1.00  0.00     0.029 A 
ATOM     53  N   UNL     1      -0.243  -6.351  -5.638  1.00  0.00    -0.354 N 
ATOM     54  N   UNL     1      -4.011  -7.612  -7.470  1.00  0.00    -0.248 NA
ATOM     55  C   UNL     1      -4.102  -8.214  -5.221  1.00  0.00     0.031 C 
ATOM     56  C   UNL     1       0.030  -4.846  -7.179  1.00  0.00     0.029 A 
ATOM     57  C   UNL     1      -0.709  -5.993  -6.877  1.00  0.00     0.049 A 
ATOM     58  H   UNL     1      -0.152  -7.266  -5.288  1.00  0.00     0.167 HD
ATOM     59  C   UNL     1      -2.742  -7.430  -6.933  1.00  0.00     0.074 A 
ATOM     60  C   UNL     1      -2.843  -7.919  -5.561  1.00  0.00     0.031 C 
ATOM     61  C   UNL     1      -1.808  -6.647  -7.553  1.00  0.00     0.037 A 
BRANCH  48  62
ATOM     62  C   UNL     1      -0.105  -6.006  -2.536  1.00  0.00     0.057 A 
ATOM     63  C   UNL     1       1.079  -6.762  -2.667  1.00  0.00     0.134 A 
ATOM     64  C   UNL     1      -0.946  -6.427  -1.485  1.00  0.00     0.134 A 
ATOM     65  F   UNL     1       1.988  -6.465  -3.609  1.00  0.00    -0.206 F 
ATOM     66  C   UNL     1       1.349  -7.897  -1.893  1.00  0.00     0.040 A 
ATOM     67  C   UNL     1      -0.657  -7.525  -0.667  1.00  0.00     0.040 A 
ATOM     68  F   UNL     1      -2.134  -5.873  -1.229  1.00  0.00    -0.206 F 
ATOM     69  C   UNL     1       0.473  -8.290  -0.893  1.00  0.00     0.006 A 
ENDBRANCH  48  62
BRANCH  49  70
ATOM     70  C   UNL     1      -7.344  -8.274  -6.138  1.00  0.00     0.057 A 
ATOM     71  C   UNL     1      -7.365  -9.560  -6.690  1.00  0.00     0.134 A 
ATOM     72  C   UNL     1      -8.346  -7.981  -5.197  1.00  0.00     0.134 A 
ATOM     73  F   UNL     1      -6.421  -9.941  -7.561  1.00  0.00    -0.206 F 
ATOM     74  C   UNL     1      -8.331 -10.506  -6.324  1.00  0.00     0.040 A 
ATOM     75  C   UNL     1      -9.319  -8.912  -4.827  1.00  0.00     0.040 A 
ATOM     76  F   UNL     1      -8.361  -6.805  -4.550  1.00  0.00    -0.206 F 
ATOM     77  C   UNL     1      -9.308 -10.185  -5.386  1.00  0.00     0.006 A 
ENDBRANCH  49  70
BRANCH  61  78
ATOM     78  C   UNL     1      -2.085  -6.194  -8.961  1.00  0.00     0.057 A 
ATOM     79  C   UNL     1      -3.142  -5.340  -9.307  1.00  0.00     0.134 A 
ATOM     80  C   UNL     1      -1.153  -6.477  -9.965  1.00  0.00     0.134 A 
ATOM     81  F   UNL     1      -4.024  -4.926  -8.393  1.00  0.00    -0.206 F 
ATOM     82  C   UNL     1      -3.289  -4.823 -10.597  1.00  0.00     0.040 A 
ATOM     83  C   UNL     1      -1.268  -5.941 -11.251  1.00  0.00     0.040 A 
ATOM     84  F   UNL     1      -0.080  -7.237  -9.696  1.00  0.00    -0.206 F 
ATOM     85  C   UNL     1      -2.344  -5.117 -11.573  1.00  0.00     0.006 A 
ENDBRANCH  61  78
ENDBRANCH  35  36
ENDBRANCH  28  30
ENDBRANCH  27  28
ENDBRANCH  26  27
ENDBRANCH   1  26
TORSDOF 14
