REMARK SMILES Cc1n[nH]c(C)c1CC(=O)N1CC[C@H](C(=O)OCCOC(=O)c2ccc(-c3c4nc(c(-c5c(F)cccc5F)c5ccc([nH]5)c(-c5c(F)cccc5F)c5nc(c(-c6c(F)cccc6F)c6ccc3[nH]6)C=C5)C=C4)cc2)[C@H]1C
REMARK SMILES IDX 18 1 17 2 15 3 16 4 14 5 11 6 12 7 77 8 13 9 78 10 9 11
REMARK SMILES IDX 10 12 8 13 7 14 1 15 2 16 3 17 4 18 5 19 6 21 19 22 20 23
REMARK SMILES IDX 21 24 22 25 23 26 24 27 76 28 25 29 75 30 26 31 27 32 28 33
REMARK SMILES IDX 69 34 29 35 74 36 68 37 70 38 30 39 73 40 67 41 66 42 31 44
REMARK SMILES IDX 57 45 40 46 56 47 41 48 44 49 55 50 71 51 42 52 43 53 54 55
REMARK SMILES IDX 72 56 45 57 32 58 33 59 38 60 34 61 35 62 37 63 39 64 36 65
REMARK SMILES IDX 58 66 59 67 64 68 60 69 61 70 63 71 65 72 62 73 46 74 47 75
REMARK SMILES IDX 52 76 48 77 49 78 51 79 53 80 50 81
REMARK H PARENT 4 20 70 43 44 54
REMARK Flexibility Score: inf
ROOT
ATOM      1  C   UNL     1      -2.774  -0.088   5.025  1.00  0.00     0.274 C 
ENDROOT
BRANCH   1   2
ATOM      2  O   UNL     1      -1.555  -0.466   4.343  1.00  0.00    -0.462 OA
BRANCH   2   3
ATOM      3  C   UNL     1      -0.516  -0.803   5.146  1.00  0.00     0.311 C 
ATOM      4  O   UNL     1      -0.566  -0.825   6.373  1.00  0.00    -0.252 OA
BRANCH   3   5
ATOM      5  C   UNL     1       0.765  -1.155   4.413  1.00  0.00     0.123 C 
ATOM      6  N   UNL     1       0.424  -2.496   2.473  1.00  0.00    -0.339 N 
ATOM      7  C   UNL     1       0.416  -3.376   3.629  1.00  0.00     0.121 C 
ATOM      8  C   UNL     1       0.771  -1.123   2.872  1.00  0.00     0.096 C 
ATOM      9  C   UNL     1       1.158  -2.605   4.706  1.00  0.00     0.039 C 
ATOM     10  C   UNL     1       2.180  -0.741   2.407  1.00  0.00     0.032 C 
BRANCH   6  11
ATOM     11  C   UNL     1      -0.059  -2.978   1.272  1.00  0.00     0.227 C 
ATOM     12  O   UNL     1      -0.617  -4.085   1.244  1.00  0.00    -0.275 OA
BRANCH  11  13
ATOM     13  C   UNL     1       0.247  -2.308  -0.062  1.00  0.00     0.139 C 
BRANCH  13  14
ATOM     14  C   UNL     1       0.072  -0.837  -0.210  1.00  0.00     0.005 A 
ATOM     15  C   UNL     1      -2.485  -0.548   0.266  1.00  0.00     0.069 C 
ATOM     16  C   UNL     1      -1.117  -0.070  -0.057  1.00  0.00     0.063 A 
ATOM     17  N   UNL     1      -0.896   1.233  -0.263  1.00  0.00    -0.181 NA
ATOM     18  N   UNL     1       0.388   1.297  -0.632  1.00  0.00    -0.282 N 
ATOM     19  C   UNL     1       1.012   0.082  -0.657  1.00  0.00     0.036 A 
ATOM     20  H   UNL     1       0.841   2.140  -0.863  1.00  0.00     0.190 HD
ATOM     21  C   UNL     1       2.416  -0.058  -1.119  1.00  0.00     0.066 C 
ENDBRANCH  13  14
ENDBRANCH  11  13
ENDBRANCH   6  11
ENDBRANCH   3   5
ENDBRANCH   2   3
ENDBRANCH   1   2
BRANCH   1  22
ATOM     22  C   UNL     1      -3.773  -1.244   5.051  1.00  0.00     0.275 C 
BRANCH  22  23
ATOM     23  O   UNL     1      -3.182  -2.360   5.736  1.00  0.00    -0.458 OA
BRANCH  23  24
ATOM     24  C   UNL     1      -3.538  -3.586   5.294  1.00  0.00     0.338 C 
ATOM     25  O   UNL     1      -4.397  -3.836   4.456  1.00  0.00    -0.246 OA
BRANCH  24  26
ATOM     26  C   UNL     1      -2.706  -4.625   5.949  1.00  0.00     0.060 A 
ATOM     27  C   UNL     1      -1.452  -4.317   6.480  1.00  0.00     0.016 A 
ATOM     28  C   UNL     1      -3.142  -5.951   5.963  1.00  0.00     0.016 A 
ATOM     29  C   UNL     1      -0.598  -5.330   6.919  1.00  0.00     0.010 A 
ATOM     30  C   UNL     1      -2.329  -6.951   6.513  1.00  0.00     0.010 A 
ATOM     31  C   UNL     1      -1.031  -6.662   6.971  1.00  0.00    -0.014 A 
BRANCH  31  32
ATOM     32  C   UNL     1      -0.139  -7.749   7.475  1.00  0.00     0.031 A 
ATOM     33  C   UNL     1       0.114  -8.975   6.632  1.00  0.00     0.074 A 
ATOM     34  C   UNL     1       0.449  -7.664   8.687  1.00  0.00     0.049 A 
ATOM     35  N   UNL     1       0.614 -10.134   6.983  1.00  0.00    -0.248 NA
ATOM     36  C   UNL     1      -0.261  -8.892   5.211  1.00  0.00     0.031 C 
ATOM     37  C   UNL     1       0.356  -6.529   9.607  1.00  0.00     0.029 A 
ATOM     38  N   UNL     1       1.248  -8.562   9.358  1.00  0.00    -0.354 N 
ATOM     39  C   UNL     1       0.547 -10.937   5.851  1.00  0.00     0.074 A 
ATOM     40  C   UNL     1      -0.030 -10.130   4.796  1.00  0.00     0.031 C 
ATOM     41  C   UNL     1       1.099  -6.778  10.696  1.00  0.00     0.029 A 
ATOM     42  C   UNL     1       1.634  -8.130  10.605  1.00  0.00     0.049 A 
ATOM     43  H   UNL     1       1.517  -9.430   8.981  1.00  0.00     0.167 HD
ATOM     44  C   UNL     1       0.926 -12.229   5.706  1.00  0.00     0.037 A 
ATOM     45  C   UNL     1       2.292  -8.764  11.595  1.00  0.00     0.037 A 
ATOM     46  C   UNL     1       1.564 -13.013   6.732  1.00  0.00     0.049 A 
ATOM     47  C   UNL     1       2.688 -10.201  11.418  1.00  0.00     0.074 A 
ATOM     48  C   UNL     1       1.967 -14.337   6.684  1.00  0.00     0.029 A 
ATOM     49  N   UNL     1       1.924 -12.532   7.980  1.00  0.00    -0.354 N 
ATOM     50  N   UNL     1       2.516 -10.984  10.381  1.00  0.00    -0.248 NA
ATOM     51  C   UNL     1       3.343 -10.853  12.562  1.00  0.00     0.031 C 
ATOM     52  C   UNL     1       2.561 -14.661   7.908  1.00  0.00     0.029 A 
ATOM     53  C   UNL     1       2.553 -13.530   8.707  1.00  0.00     0.049 A 
ATOM     54  H   UNL     1       1.758 -11.617   8.303  1.00  0.00     0.167 HD
ATOM     55  C   UNL     1       3.042 -12.215  10.746  1.00  0.00     0.074 A 
ATOM     56  C   UNL     1       3.564 -12.071  12.088  1.00  0.00     0.031 C 
ATOM     57  C   UNL     1       3.078 -13.368  10.036  1.00  0.00     0.037 A 
BRANCH  44  58
ATOM     58  C   UNL     1       0.642 -12.898   4.394  1.00  0.00     0.057 A 
ATOM     59  C   UNL     1       1.414 -12.652   3.253  1.00  0.00     0.134 A 
ATOM     60  C   UNL     1      -0.380 -13.851   4.292  1.00  0.00     0.134 A 
ATOM     61  F   UNL     1       2.400 -11.743   3.283  1.00  0.00    -0.206 F 
ATOM     62  C   UNL     1       1.173 -13.324   2.053  1.00  0.00     0.040 A 
ATOM     63  C   UNL     1      -0.617 -14.545   3.105  1.00  0.00     0.040 A 
ATOM     64  F   UNL     1      -1.151 -14.138   5.352  1.00  0.00    -0.206 F 
ATOM     65  C   UNL     1       0.161 -14.280   1.979  1.00  0.00     0.006 A 
ENDBRANCH  44  58
BRANCH  45  66
ATOM     66  C   UNL     1       2.561  -8.064  12.876  1.00  0.00     0.057 A 
ATOM     67  C   UNL     1       3.864  -7.718  13.251  1.00  0.00     0.134 A 
ATOM     68  C   UNL     1       1.526  -7.739  13.762  1.00  0.00     0.134 A 
ATOM     69  F   UNL     1       4.900  -8.029  12.457  1.00  0.00    -0.206 F 
ATOM     70  C   UNL     1       4.130  -7.084  14.465  1.00  0.00     0.040 A 
ATOM     71  C   UNL     1       1.775  -7.080  14.966  1.00  0.00     0.040 A 
ATOM     72  F   UNL     1       0.256  -8.045  13.461  1.00  0.00    -0.206 F 
ATOM     73  C   UNL     1       3.082  -6.756  15.323  1.00  0.00     0.006 A 
ENDBRANCH  45  66
BRANCH  57  74
ATOM     74  C   UNL     1       3.731 -14.547  10.686  1.00  0.00     0.057 A 
ATOM     75  C   UNL     1       3.089 -15.281  11.691  1.00  0.00     0.134 A 
ATOM     76  C   UNL     1       5.009 -14.963  10.292  1.00  0.00     0.134 A 
ATOM     77  F   UNL     1       1.871 -14.922  12.122  1.00  0.00    -0.206 F 
ATOM     78  C   UNL     1       3.704 -16.378  12.295  1.00  0.00     0.040 A 
ATOM     79  C   UNL     1       5.626 -16.069  10.876  1.00  0.00     0.040 A 
ATOM     80  F   UNL     1       5.673 -14.303   9.332  1.00  0.00    -0.206 F 
ATOM     81  C   UNL     1       4.975 -16.777  11.884  1.00  0.00     0.006 A 
ENDBRANCH  57  74
ENDBRANCH  31  32
ENDBRANCH  24  26
ENDBRANCH  23  24
ENDBRANCH  22  23
ENDBRANCH   1  22
TORSDOF 14
