REMARK SMILES C[C@@H](C(=O)OCCOC(=O)c1ccc(-c2c3nc(c(-c4c(F)cccc4F)c4ccc([nH]4)c(-c4c(F)cccc4F)c4nc(c(-c5c(F)cccc5F)c5ccc2[nH]5)C=C4)C=C3)cc1)[C@@H](C)C(=O)c1cccc(Cl)c1
REMARK SMILES IDX 6 1 5 2 3 3 4 4 2 5 1 6 65 7 66 8 67 9 68 10 69 11 70 12
REMARK SMILES IDX 75 13 71 14 73 15 72 16 74 17 7 18 8 19 9 20 10 21 11 22
REMARK SMILES IDX 12 23 64 24 13 25 63 26 14 27 15 28 16 29 57 30 17 31 62 32
REMARK SMILES IDX 56 33 58 34 18 35 61 36 55 37 54 38 19 40 45 41 28 42 44 43
REMARK SMILES IDX 29 44 32 45 43 46 59 47 30 48 31 49 42 51 60 52 33 53 20 54
REMARK SMILES IDX 21 55 26 56 22 57 23 58 25 59 27 60 24 61 46 62 47 63 52 64
REMARK SMILES IDX 48 65 49 66 51 67 53 68 50 69 34 70 35 71 40 72 36 73 37 74
REMARK SMILES IDX 39 75 41 76 38 77
REMARK H PARENT 58 39 32 50
REMARK Flexibility Score: inf
ROOT
ATOM      1  C   UNL     1       2.731   1.746  -3.312  1.00  0.00     0.274 C 
ENDROOT
BRANCH   1   2
ATOM      2  O   UNL     1       2.310   1.363  -1.986  1.00  0.00    -0.462 OA
BRANCH   2   3
ATOM      3  C   UNL     1       1.255   2.043  -1.459  1.00  0.00     0.309 C 
ATOM      4  O   UNL     1       0.723   3.002  -1.997  1.00  0.00    -0.252 OA
BRANCH   3   5
ATOM      5  C   UNL     1       0.882   1.525  -0.066  1.00  0.00     0.106 C 
ATOM      6  C   UNL     1       1.172   0.018   0.053  1.00  0.00     0.021 C 
BRANCH   5   7
ATOM      7  C   UNL     1      -0.590   1.818   0.335  1.00  0.00     0.072 C 
ATOM      8  C   UNL     1      -0.861   1.659   1.834  1.00  0.00     0.017 C 
BRANCH   7   9
ATOM      9  C   UNL     1      -1.288   3.100  -0.147  1.00  0.00     0.166 C 
ATOM     10  O   UNL     1      -2.335   3.000  -0.794  1.00  0.00    -0.294 OA
BRANCH   9  11
ATOM     11  C   UNL     1      -0.848   4.479   0.235  1.00  0.00     0.019 A 
ATOM     12  C   UNL     1      -1.799   5.510   0.124  1.00  0.00     0.012 A 
ATOM     13  C   UNL     1       0.446   4.802   0.644  1.00  0.00     0.032 A 
ATOM     14  C   UNL     1      -1.462   6.835   0.408  1.00  0.00     0.002 A 
ATOM     15  C   UNL     1       0.782   6.132   0.907  1.00  0.00     0.041 A 
ATOM     16  C   UNL     1      -0.163   7.148   0.794  1.00  0.00     0.020 A 
ATOM     17  Cl  UNL     1       2.398   6.521   1.360  1.00  0.00    -0.084 Cl
ENDBRANCH   9  11
ENDBRANCH   7   9
ENDBRANCH   5   7
ENDBRANCH   3   5
ENDBRANCH   2   3
ENDBRANCH   1   2
BRANCH   1  18
ATOM     18  C   UNL     1       2.204   0.742  -4.333  1.00  0.00     0.275 C 
BRANCH  18  19
ATOM     19  O   UNL     1       0.768   0.803  -4.338  1.00  0.00    -0.458 OA
BRANCH  19  20
ATOM     20  C   UNL     1       0.119  -0.381  -4.352  1.00  0.00     0.338 C 
ATOM     21  O   UNL     1       0.605  -1.497  -4.442  1.00  0.00    -0.246 OA
BRANCH  20  22
ATOM     22  C   UNL     1      -1.327  -0.131  -4.227  1.00  0.00     0.060 A 
ATOM     23  C   UNL     1      -1.808   0.601  -3.143  1.00  0.00     0.016 A 
ATOM     24  C   UNL     1      -2.216  -0.694  -5.142  1.00  0.00     0.016 A 
ATOM     25  C   UNL     1      -3.180   0.732  -2.940  1.00  0.00     0.010 A 
ATOM     26  C   UNL     1      -3.592  -0.499  -4.975  1.00  0.00     0.010 A 
ATOM     27  C   UNL     1      -4.088   0.196  -3.858  1.00  0.00    -0.014 A 
BRANCH  27  28
ATOM     28  C   UNL     1      -5.550   0.303  -3.610  1.00  0.00     0.031 A 
ATOM     29  C   UNL     1      -6.353  -0.944  -3.362  1.00  0.00     0.074 A 
ATOM     30  C   UNL     1      -6.161   1.503  -3.567  1.00  0.00     0.049 A 
ATOM     31  N   UNL     1      -7.651  -1.097  -3.298  1.00  0.00    -0.248 NA
ATOM     32  C   UNL     1      -5.589  -2.185  -3.157  1.00  0.00     0.031 C 
ATOM     33  C   UNL     1      -5.497   2.801  -3.692  1.00  0.00     0.029 A 
ATOM     34  N   UNL     1      -7.486   1.822  -3.395  1.00  0.00    -0.354 N 
ATOM     35  C   UNL     1      -7.861  -2.454  -3.094  1.00  0.00     0.074 A 
ATOM     36  C   UNL     1      -6.558  -3.082  -3.041  1.00  0.00     0.031 C 
ATOM     37  C   UNL     1      -6.414   3.775  -3.575  1.00  0.00     0.029 A 
ATOM     38  C   UNL     1      -7.736   3.172  -3.437  1.00  0.00     0.049 A 
ATOM     39  H   UNL     1      -8.190   1.148  -3.256  1.00  0.00     0.167 HD
ATOM     40  C   UNL     1      -9.034  -3.117  -2.965  1.00  0.00     0.037 A 
ATOM     41  C   UNL     1      -8.901   3.847  -3.407  1.00  0.00     0.037 A 
ATOM     42  C   UNL     1     -10.329  -2.490  -2.971  1.00  0.00     0.049 A 
ATOM     43  C   UNL     1     -10.194   3.085  -3.332  1.00  0.00     0.074 A 
ATOM     44  C   UNL     1     -11.576  -3.081  -2.863  1.00  0.00     0.029 A 
ATOM     45  N   UNL     1     -10.540  -1.124  -3.072  1.00  0.00    -0.354 N 
ATOM     46  N   UNL     1     -10.388   1.794  -3.224  1.00  0.00    -0.248 NA
ATOM     47  C   UNL     1     -11.433   3.875  -3.401  1.00  0.00     0.031 C 
ATOM     48  C   UNL     1     -12.544  -2.072  -2.926  1.00  0.00     0.029 A 
ATOM     49  C   UNL     1     -11.898  -0.853  -3.041  1.00  0.00     0.049 A 
ATOM     50  H   UNL     1      -9.830  -0.447  -3.154  1.00  0.00     0.167 HD
ATOM     51  C   UNL     1     -11.765   1.616  -3.202  1.00  0.00     0.074 A 
ATOM     52  C   UNL     1     -12.360   2.934  -3.289  1.00  0.00     0.031 C 
ATOM     53  C   UNL     1     -12.473   0.464  -3.123  1.00  0.00     0.037 A 
BRANCH  40  54
ATOM     54  C   UNL     1      -8.968  -4.609  -2.849  1.00  0.00     0.057 A 
ATOM     55  C   UNL     1      -8.589  -5.247  -1.662  1.00  0.00     0.134 A 
ATOM     56  C   UNL     1      -9.308  -5.417  -3.941  1.00  0.00     0.134 A 
ATOM     57  F   UNL     1      -8.234  -4.527  -0.587  1.00  0.00    -0.206 F 
ATOM     58  C   UNL     1      -8.533  -6.639  -1.571  1.00  0.00     0.040 A 
ATOM     59  C   UNL     1      -9.275  -6.809  -3.857  1.00  0.00     0.040 A 
ATOM     60  F   UNL     1      -9.681  -4.865  -5.106  1.00  0.00    -0.206 F 
ATOM     61  C   UNL     1      -8.882  -7.423  -2.670  1.00  0.00     0.006 A 
ENDBRANCH  40  54
BRANCH  41  62
ATOM     62  C   UNL     1      -8.905   5.328  -3.498  1.00  0.00     0.057 A 
ATOM     63  C   UNL     1      -9.275   6.119  -2.405  1.00  0.00     0.134 A 
ATOM     64  C   UNL     1      -8.560   5.986  -4.685  1.00  0.00     0.134 A 
ATOM     65  F   UNL     1      -9.645   5.546  -1.250  1.00  0.00    -0.206 F 
ATOM     66  C   UNL     1      -9.310   7.513  -2.491  1.00  0.00     0.040 A 
ATOM     67  C   UNL     1      -8.567   7.378  -4.777  1.00  0.00     0.040 A 
ATOM     68  F   UNL     1      -8.203   5.284  -5.770  1.00  0.00    -0.206 F 
ATOM     69  C   UNL     1      -8.949   8.146  -3.679  1.00  0.00     0.006 A 
ENDBRANCH  41  62
BRANCH  53  70
ATOM     70  C   UNL     1     -13.966   0.580  -3.103  1.00  0.00     0.057 A 
ATOM     71  C   UNL     1     -14.696   0.848  -4.267  1.00  0.00     0.134 A 
ATOM     72  C   UNL     1     -14.682   0.389  -1.915  1.00  0.00     0.134 A 
ATOM     73  F   UNL     1     -14.065   1.055  -5.433  1.00  0.00    -0.206 F 
ATOM     74  C   UNL     1     -16.089   0.935  -4.248  1.00  0.00     0.040 A 
ATOM     75  C   UNL     1     -16.075   0.456  -1.887  1.00  0.00     0.040 A 
ATOM     76  F   UNL     1     -14.040   0.124  -0.768  1.00  0.00    -0.206 F 
ATOM     77  C   UNL     1     -16.782   0.733  -3.056  1.00  0.00     0.006 A 
ENDBRANCH  53  70
ENDBRANCH  27  28
ENDBRANCH  20  22
ENDBRANCH  19  20
ENDBRANCH  18  19
ENDBRANCH   1  18
TORSDOF 14
