REMARK SMILES O=C(OCCOC(=O)[C@H]1CS[C@H](c2cc(F)ccc2F)[NH2+]1)c1ccc(-c2c3nc(c(-c4c(F)cccc4F)c4ccc([nH]4)c(-c4c(F)cccc4F)c4nc(c(-c5c(F)cccc5F)c5ccc2[nH]5)C=C4)C=C3)cc1
REMARK SMILES IDX 4 1 3 2 2 3 1 4 22 5 23 6 75 7 24 8 74 9 25 10 26 11 27 12
REMARK SMILES IDX 68 13 28 14 73 15 67 16 69 17 29 18 72 19 66 20 65 21 30 23
REMARK SMILES IDX 56 24 39 25 55 26 40 27 43 28 54 29 70 30 41 31 42 32 53 34
REMARK SMILES IDX 71 35 44 36 31 37 32 38 37 39 33 40 34 41 36 42 38 43 35 44
REMARK SMILES IDX 57 45 58 46 63 47 59 48 60 49 62 50 64 51 61 52 45 53 46 54
REMARK SMILES IDX 51 55 47 56 48 57 50 58 52 59 49 60 5 61 6 62 7 63 8 64 9 65
REMARK SMILES IDX 10 66 21 67 11 68 12 69 13 72 14 73 19 74 15 75 18 76 20 77
REMARK SMILES IDX 16 78 17 79
REMARK H PARENT 69 22 43 33 21 70 21 71
REMARK Flexibility Score: inf
ROOT
ATOM      1  C   UNL     1       4.131   1.237   0.926  1.00  0.00     0.275 C 
ENDROOT
BRANCH   1   2
ATOM      2  O   UNL     1       3.053   1.149  -0.027  1.00  0.00    -0.458 OA
BRANCH   2   3
ATOM      3  C   UNL     1       2.865   0.307  -1.072  1.00  0.00     0.338 C 
ATOM      4  O   UNL     1       1.929   0.529  -1.839  1.00  0.00    -0.246 OA
BRANCH   3   5
ATOM      5  C   UNL     1       3.647  -0.956  -1.297  1.00  0.00     0.060 A 
ATOM      6  C   UNL     1       4.962  -1.198  -0.888  1.00  0.00     0.016 A 
ATOM      7  C   UNL     1       2.980  -1.988  -1.988  1.00  0.00     0.016 A 
ATOM      8  C   UNL     1       5.566  -2.447  -1.081  1.00  0.00     0.010 A 
ATOM      9  C   UNL     1       3.584  -3.233  -2.199  1.00  0.00     0.010 A 
ATOM     10  C   UNL     1       4.881  -3.475  -1.729  1.00  0.00    -0.014 A 
BRANCH  10  11
ATOM     11  C   UNL     1       5.555  -4.763  -2.010  1.00  0.00     0.031 A 
ATOM     12  C   UNL     1       6.120  -4.989  -3.375  1.00  0.00     0.074 A 
ATOM     13  C   UNL     1       5.675  -5.711  -1.061  1.00  0.00     0.049 A 
ATOM     14  N   UNL     1       6.775  -6.024  -3.827  1.00  0.00    -0.248 NA
ATOM     15  C   UNL     1       5.976  -3.889  -4.343  1.00  0.00     0.031 C 
ATOM     16  C   UNL     1       5.288  -5.558   0.335  1.00  0.00     0.029 A 
ATOM     17  N   UNL     1       6.126  -7.005  -1.126  1.00  0.00    -0.354 N 
ATOM     18  C   UNL     1       7.179  -5.675  -5.106  1.00  0.00     0.074 A 
ATOM     19  C   UNL     1       6.630  -4.368  -5.390  1.00  0.00     0.031 C 
ATOM     20  C   UNL     1       5.379  -6.739   0.965  1.00  0.00     0.029 A 
ATOM     21  C   UNL     1       5.895  -7.723   0.026  1.00  0.00     0.049 A 
ATOM     22  H   UNL     1       6.571  -7.383  -1.919  1.00  0.00     0.167 HD
ATOM     23  C   UNL     1       7.976  -6.373  -5.944  1.00  0.00     0.037 A 
ATOM     24  C   UNL     1       6.086  -9.027   0.292  1.00  0.00     0.037 A 
ATOM     25  C   UNL     1       8.476  -7.690  -5.658  1.00  0.00     0.049 A 
ATOM     26  C   UNL     1       6.805  -9.853  -0.736  1.00  0.00     0.074 A 
ATOM     27  C   UNL     1       9.296  -8.489  -6.433  1.00  0.00     0.029 A 
ATOM     28  N   UNL     1       8.174  -8.414  -4.512  1.00  0.00    -0.354 N 
ATOM     29  N   UNL     1       7.264  -9.483  -1.908  1.00  0.00    -0.248 NA
ATOM     30  C   UNL     1       7.092 -11.250  -0.388  1.00  0.00     0.031 C 
ATOM     31  C   UNL     1       9.439  -9.720  -5.784  1.00  0.00     0.029 A 
ATOM     32  C   UNL     1       8.753  -9.669  -4.580  1.00  0.00     0.049 A 
ATOM     33  H   UNL     1       7.629  -8.083  -3.762  1.00  0.00     0.167 HD
ATOM     34  C   UNL     1       7.950 -10.578  -2.409  1.00  0.00     0.074 A 
ATOM     35  C   UNL     1       7.839 -11.628  -1.415  1.00  0.00     0.031 C 
ATOM     36  C   UNL     1       8.631 -10.695  -3.575  1.00  0.00     0.037 A 
BRANCH  23  37
ATOM     37  C   UNL     1       8.334  -5.720  -7.242  1.00  0.00     0.057 A 
ATOM     38  C   UNL     1       9.232  -4.645  -7.299  1.00  0.00     0.134 A 
ATOM     39  C   UNL     1       7.780  -6.167  -8.445  1.00  0.00     0.134 A 
ATOM     40  F   UNL     1       9.779  -4.154  -6.176  1.00  0.00    -0.206 F 
ATOM     41  C   UNL     1       9.553  -4.027  -8.508  1.00  0.00     0.040 A 
ATOM     42  C   UNL     1       8.109  -5.571  -9.663  1.00  0.00     0.040 A 
ATOM     43  F   UNL     1       6.908  -7.186  -8.456  1.00  0.00    -0.206 F 
ATOM     44  C   UNL     1       8.995  -4.495  -9.696  1.00  0.00     0.006 A 
ENDBRANCH  23  37
BRANCH  24  45
ATOM     45  C   UNL     1       5.631  -9.620   1.576  1.00  0.00     0.057 A 
ATOM     46  C   UNL     1       6.537 -10.062   2.547  1.00  0.00     0.134 A 
ATOM     47  C   UNL     1       4.267  -9.803   1.842  1.00  0.00     0.134 A 
ATOM     48  F   UNL     1       7.856  -9.925   2.349  1.00  0.00    -0.206 F 
ATOM     49  C   UNL     1       6.108 -10.697   3.715  1.00  0.00     0.040 A 
ATOM     50  C   UNL     1       3.823 -10.418   3.015  1.00  0.00     0.040 A 
ATOM     51  F   UNL     1       3.344  -9.397   0.957  1.00  0.00    -0.206 F 
ATOM     52  C   UNL     1       4.747 -10.879   3.951  1.00  0.00     0.006 A 
ENDBRANCH  24  45
BRANCH  36  53
ATOM     53  C   UNL     1       9.338 -11.994  -3.817  1.00  0.00     0.057 A 
ATOM     54  C   UNL     1       8.640 -13.173  -4.106  1.00  0.00     0.134 A 
ATOM     55  C   UNL     1      10.737 -12.054  -3.798  1.00  0.00     0.134 A 
ATOM     56  F   UNL     1       7.298 -13.182  -4.121  1.00  0.00    -0.206 F 
ATOM     57  C   UNL     1       9.309 -14.373  -4.344  1.00  0.00     0.040 A 
ATOM     58  C   UNL     1      11.418 -13.240  -4.067  1.00  0.00     0.040 A 
ATOM     59  F   UNL     1      11.463 -10.957  -3.535  1.00  0.00    -0.206 F 
ATOM     60  C   UNL     1      10.703 -14.405  -4.334  1.00  0.00     0.006 A 
ENDBRANCH  36  53
ENDBRANCH  10  11
ENDBRANCH   3   5
ENDBRANCH   2   3
ENDBRANCH   1   2
BRANCH   1  61
ATOM     61  C   UNL     1       4.002   0.269   2.103  1.00  0.00     0.274 C 
BRANCH  61  62
ATOM     62  O   UNL     1       3.432  -0.972   1.673  1.00  0.00    -0.458 OA
BRANCH  62  63
ATOM     63  C   UNL     1       2.227  -1.335   2.208  1.00  0.00     0.365 C 
ATOM     64  O   UNL     1       1.678  -0.776   3.144  1.00  0.00    -0.245 OA
BRANCH  63  65
ATOM     65  C   UNL     1       1.656  -2.527   1.425  1.00  0.00     0.304 C 
ATOM     66  C   UNL     1       2.687  -3.646   1.356  1.00  0.00     0.153 C 
ATOM     67  N   UNL     1       0.374  -3.014   2.015  1.00  0.00    -0.319 N 
ATOM     68  S   UNL     1       1.984  -5.016   2.278  1.00  0.00    -0.087 SA
ATOM     69  C   UNL     1       0.306  -4.469   1.874  1.00  0.00     0.277 C 
ATOM     70  H   UNL     1      -0.412  -2.586   1.526  1.00  0.00     0.348 HD
ATOM     71  H   UNL     1       0.332  -2.762   3.003  1.00  0.00     0.348 HD
BRANCH  69  72
ATOM     72  C   UNL     1      -0.174  -5.014   0.535  1.00  0.00     0.059 A 
ATOM     73  C   UNL     1      -0.230  -6.414   0.352  1.00  0.00     0.053 A 
ATOM     74  C   UNL     1      -0.628  -4.221  -0.531  1.00  0.00     0.133 A 
ATOM     75  C   UNL     1      -0.713  -6.968  -0.834  1.00  0.00     0.123 A 
ATOM     76  C   UNL     1      -1.107  -4.782  -1.720  1.00  0.00     0.043 A 
ATOM     77  F   UNL     1      -0.621  -2.884  -0.460  1.00  0.00    -0.206 F 
ATOM     78  F   UNL     1      -0.763  -8.300  -0.965  1.00  0.00    -0.207 F 
ATOM     79  C   UNL     1      -1.155  -6.163  -1.872  1.00  0.00     0.042 A 
ENDBRANCH  69  72
ENDBRANCH  63  65
ENDBRANCH  62  63
ENDBRANCH  61  62
ENDBRANCH   1  61
TORSDOF 12
