REMARK SMILES Cc1nsc(NCC(C)C)c1C(=O)OCCOC(=O)c1ccc(-c2c3nc(c(-c4c(F)cccc4F)c4ccc([nH]4)c(-c4c(F)cccc4F)c4nc(c(-c5c(F)cccc5F)c5ccc2[nH]5)C=C4)C=C3)cc1
REMARK SMILES IDX 15 1 14 2 12 3 13 4 11 5 1 6 2 7 3 8 4 9 5 10 6 11 7 13 8 14
REMARK SMILES IDX 9 15 10 16 16 17 17 18 18 19 19 20 20 21 21 22 73 23 22 24
REMARK SMILES IDX 72 25 23 26 24 27 25 28 66 29 26 30 71 31 65 32 67 33 27 34
REMARK SMILES IDX 70 35 64 36 63 37 28 39 54 40 37 41 53 42 38 43 41 44 52 45
REMARK SMILES IDX 68 46 39 47 40 48 51 50 69 51 42 52 29 53 30 54 35 55 31 56
REMARK SMILES IDX 32 57 34 58 36 59 33 60 55 61 56 62 61 63 57 64 58 65 60 66
REMARK SMILES IDX 62 67 59 68 43 69 44 70 49 71 45 72 46 73 48 74 50 75 47 76
REMARK H PARENT 6 12 67 38 41 49
REMARK Flexibility Score: inf
ROOT
ATOM      1  C   UNL     1       2.850   2.626  -1.835  1.00  0.00     0.275 C 
ENDROOT
BRANCH   1   2
ATOM      2  O   UNL     1       2.251   1.871  -0.765  1.00  0.00    -0.458 OA
BRANCH   2   3
ATOM      3  C   UNL     1       2.159   2.495   0.454  1.00  0.00     0.343 C 
ATOM      4  O   UNL     1       2.719   3.549   0.712  1.00  0.00    -0.246 OA
BRANCH   3   5
ATOM      5  C   UNL     1       1.231   1.828   1.372  1.00  0.00     0.117 A 
ATOM      6  C   UNL     1       0.899  -0.454   0.121  1.00  0.00     0.069 C 
ATOM      7  C   UNL     1       0.660   0.507   1.236  1.00  0.00     0.068 A 
ATOM      8  N   UNL     1      -0.167   0.120   2.206  1.00  0.00    -0.195 NA
ATOM      9  S   UNL     1      -0.349   1.353   3.280  1.00  0.00    -0.018 S 
ATOM     10  C   UNL     1       0.708   2.463   2.502  1.00  0.00     0.124 A 
BRANCH  10  11
ATOM     11  N   UNL     1       0.971   3.737   2.908  1.00  0.00    -0.375 N 
ATOM     12  H   UNL     1       1.621   4.251   2.377  1.00  0.00     0.161 HD
BRANCH  11  13
ATOM     13  C   UNL     1       0.379   4.406   4.054  1.00  0.00     0.116 C 
BRANCH  13  14
ATOM     14  C   UNL     1       1.424   5.308   4.741  1.00  0.00     0.002 C 
ATOM     15  C   UNL     1       1.871   6.472   3.852  1.00  0.00     0.009 C 
ATOM     16  C   UNL     1       0.871   5.858   6.058  1.00  0.00     0.009 C 
ENDBRANCH  13  14
ENDBRANCH  11  13
ENDBRANCH  10  11
ENDBRANCH   3   5
ENDBRANCH   2   3
ENDBRANCH   1   2
BRANCH   1  17
ATOM     17  C   UNL     1       1.813   3.461  -2.579  1.00  0.00     0.275 C 
BRANCH  17  18
ATOM     18  O   UNL     1       1.371   4.550  -1.770  1.00  0.00    -0.458 OA
BRANCH  18  19
ATOM     19  C   UNL     1       0.277   4.287  -1.023  1.00  0.00     0.338 C 
ATOM     20  O   UNL     1      -0.265   3.201  -0.876  1.00  0.00    -0.246 OA
BRANCH  19  21
ATOM     21  C   UNL     1      -0.312   5.539  -0.548  1.00  0.00     0.060 A 
ATOM     22  C   UNL     1      -1.436   5.425   0.276  1.00  0.00     0.016 A 
ATOM     23  C   UNL     1       0.013   6.730  -1.211  1.00  0.00     0.016 A 
ATOM     24  C   UNL     1      -2.377   6.428   0.237  1.00  0.00     0.010 A 
ATOM     25  C   UNL     1      -0.930   7.725  -1.257  1.00  0.00     0.010 A 
ATOM     26  C   UNL     1      -2.151   7.510  -0.615  1.00  0.00    -0.014 A 
BRANCH  26  27
ATOM     27  C   UNL     1      -3.240   8.435  -0.848  1.00  0.00     0.031 A 
ATOM     28  C   UNL     1      -3.499   9.379   0.264  1.00  0.00     0.074 A 
ATOM     29  C   UNL     1      -3.817   8.500  -2.063  1.00  0.00     0.049 A 
ATOM     30  N   UNL     1      -4.622   9.656   0.839  1.00  0.00    -0.248 NA
ATOM     31  C   UNL     1      -2.329  10.026   0.885  1.00  0.00     0.031 C 
ATOM     32  C   UNL     1      -3.427   7.796  -3.292  1.00  0.00     0.029 A 
ATOM     33  N   UNL     1      -4.796   9.334  -2.492  1.00  0.00    -0.354 N 
ATOM     34  C   UNL     1      -4.329  10.624   1.795  1.00  0.00     0.074 A 
ATOM     35  C   UNL     1      -2.896  10.722   1.867  1.00  0.00     0.031 C 
ATOM     36  C   UNL     1      -3.989   8.417  -4.352  1.00  0.00     0.029 A 
ATOM     37  C   UNL     1      -4.845   9.487  -3.868  1.00  0.00     0.049 A 
ATOM     38  H   UNL     1      -5.418   9.790  -1.880  1.00  0.00     0.167 HD
ATOM     39  C   UNL     1      -5.289  11.413   2.344  1.00  0.00     0.037 A 
ATOM     40  C   UNL     1      -5.447  10.504  -4.532  1.00  0.00     0.037 A 
ATOM     41  C   UNL     1      -6.599  10.849   2.183  1.00  0.00     0.049 A 
ATOM     42  C   UNL     1      -6.399  11.149  -3.586  1.00  0.00     0.074 A 
ATOM     43  C   UNL     1      -7.200   9.686   2.624  1.00  0.00     0.029 A 
ATOM     44  N   UNL     1      -7.400  11.327   1.175  1.00  0.00    -0.354 N 
ATOM     45  N   UNL     1      -7.485  10.576  -3.142  1.00  0.00    -0.248 NA
ATOM     46  C   UNL     1      -5.904  12.250  -2.769  1.00  0.00     0.031 C 
ATOM     47  C   UNL     1      -8.043   9.277   1.553  1.00  0.00     0.029 A 
ATOM     48  C   UNL     1      -7.936  10.233   0.543  1.00  0.00     0.049 A 
ATOM     49  H   UNL     1      -7.558  12.272   0.949  1.00  0.00     0.167 HD
ATOM     50  C   UNL     1      -7.575  10.956  -1.808  1.00  0.00     0.074 A 
ATOM     51  C   UNL     1      -6.624  12.055  -1.660  1.00  0.00     0.031 C 
ATOM     52  C   UNL     1      -8.187  10.163  -0.879  1.00  0.00     0.037 A 
BRANCH  39  53
ATOM     53  C   UNL     1      -5.055  12.831   2.778  1.00  0.00     0.057 A 
ATOM     54  C   UNL     1      -6.018  13.491   3.557  1.00  0.00     0.134 A 
ATOM     55  C   UNL     1      -4.046  13.655   2.236  1.00  0.00     0.134 A 
ATOM     56  F   UNL     1      -7.039  12.817   4.106  1.00  0.00    -0.206 F 
ATOM     57  C   UNL     1      -6.007  14.879   3.739  1.00  0.00     0.040 A 
ATOM     58  C   UNL     1      -3.995  15.032   2.455  1.00  0.00     0.040 A 
ATOM     59  F   UNL     1      -3.118  13.185   1.392  1.00  0.00    -0.206 F 
ATOM     60  C   UNL     1      -4.995  15.655   3.185  1.00  0.00     0.006 A 
ENDBRANCH  39  53
BRANCH  40  61
ATOM     61  C   UNL     1      -4.999  11.131  -5.799  1.00  0.00     0.057 A 
ATOM     62  C   UNL     1      -5.846  11.965  -6.540  1.00  0.00     0.134 A 
ATOM     63  C   UNL     1      -3.653  11.106  -6.213  1.00  0.00     0.134 A 
ATOM     64  F   UNL     1      -7.134  12.106  -6.194  1.00  0.00    -0.206 F 
ATOM     65  C   UNL     1      -5.384  12.722  -7.627  1.00  0.00     0.040 A 
ATOM     66  C   UNL     1      -3.182  11.840  -7.305  1.00  0.00     0.040 A 
ATOM     67  F   UNL     1      -2.722  10.431  -5.524  1.00  0.00    -0.206 F 
ATOM     68  C   UNL     1      -4.048  12.661  -8.013  1.00  0.00     0.006 A 
ENDBRANCH  40  61
BRANCH  52  69
ATOM     69  C   UNL     1      -8.936   8.952  -1.366  1.00  0.00     0.057 A 
ATOM     70  C   UNL     1      -8.317   7.873  -2.015  1.00  0.00     0.134 A 
ATOM     71  C   UNL     1     -10.276   8.782  -1.004  1.00  0.00     0.134 A 
ATOM     72  F   UNL     1      -7.009   7.892  -2.293  1.00  0.00    -0.206 F 
ATOM     73  C   UNL     1      -9.008   6.702  -2.334  1.00  0.00     0.040 A 
ATOM     74  C   UNL     1     -10.970   7.602  -1.285  1.00  0.00     0.040 A 
ATOM     75  F   UNL     1     -10.918   9.740  -0.316  1.00  0.00    -0.206 F 
ATOM     76  C   UNL     1     -10.340   6.561  -1.961  1.00  0.00     0.006 A 
ENDBRANCH  52  69
ENDBRANCH  26  27
ENDBRANCH  19  21
ENDBRANCH  18  19
ENDBRANCH  17  18
ENDBRANCH   1  17
TORSDOF 14
