REMARK SMILES Cc1nc(Nc2ccc(F)cc2)nc(OCC(=O)OCCOC(=O)c2ccc(-c3c4nc(c(-c5c(F)cccc5F)c5ccc([nH]5)c(-c5c(F)cccc5F)c5nc(c(-c6c(F)cccc6F)c6ccc3[nH]6)C=C5)C=C4)cc2)c1CCO
REMARK SMILES IDX 19 1 17 2 18 3 16 4 15 5 14 6 1 7 2 8 3 9 79 10 4 11 13 12
REMARK SMILES IDX 80 13 81 14 82 15 5 17 6 19 7 20 12 21 8 22 11 23 9 24 10 25
REMARK SMILES IDX 20 26 21 27 22 28 23 29 24 30 25 31 26 32 78 33 27 34 77 35
REMARK SMILES IDX 28 36 29 37 30 38 71 39 31 40 76 41 70 42 72 43 32 44 75 45
REMARK SMILES IDX 69 46 68 47 33 49 59 50 42 51 58 52 43 53 46 54 57 55 73 56
REMARK SMILES IDX 44 57 45 58 56 60 74 61 47 62 34 63 35 64 40 65 36 66 37 67
REMARK SMILES IDX 39 68 41 69 38 70 60 71 61 72 66 73 62 74 63 75 65 76 67 77
REMARK SMILES IDX 64 78 48 79 49 80 54 81 50 82 51 83 53 84 55 85 52 86
REMARK H PARENT 82 16 5 18 72 48 46 59
REMARK Flexibility Score: inf
ROOT
ATOM      1  O   UNL     1       1.116  -2.954   2.630  1.00  0.00    -0.460 OA
ENDROOT
BRANCH   1   2
ATOM      2  C   UNL     1       1.171  -3.640   1.459  1.00  0.00     0.344 C 
ATOM      3  O   UNL     1       0.524  -4.655   1.215  1.00  0.00    -0.248 OA
BRANCH   2   4
ATOM      4  C   UNL     1       2.248  -3.115   0.500  1.00  0.00     0.353 C 
BRANCH   4   5
ATOM      5  O   UNL     1       2.538  -1.790   0.122  1.00  0.00    -0.465 OA
BRANCH   5   6
ATOM      6  C   UNL     1       1.572  -0.841   0.051  1.00  0.00     0.222 A 
ATOM      7  C   UNL     1      -1.924   0.233  -0.818  1.00  0.00     0.067 C 
ATOM      8  C   UNL     1      -0.500   0.137  -0.370  1.00  0.00     0.050 A 
ATOM      9  N   UNL     1      -0.037   1.304   0.102  1.00  0.00    -0.218 NA
ATOM     10  C   UNL     1       0.319  -0.977  -0.526  1.00  0.00     0.038 A 
ATOM     11  C   UNL     1       1.254   1.407   0.407  1.00  0.00     0.230 A 
ATOM     12  N   UNL     1       2.066   0.352   0.445  1.00  0.00    -0.177 NA
BRANCH  10  13
ATOM     13  C   UNL     1      -0.096  -2.136  -1.392  1.00  0.00     0.071 C 
BRANCH  13  14
ATOM     14  C   UNL     1       0.582  -2.174  -2.763  1.00  0.00     0.161 C 
BRANCH  14  15
ATOM     15  O   UNL     1       1.936  -2.589  -2.673  1.00  0.00    -0.396 OA
ATOM     16  H   UNL     1       2.431  -1.961  -2.124  1.00  0.00     0.210 HD
ENDBRANCH  14  15
ENDBRANCH  13  14
ENDBRANCH  10  13
BRANCH  11  17
ATOM     17  N   UNL     1       1.815   2.682   0.518  1.00  0.00    -0.324 N 
ATOM     18  H   UNL     1       2.774   2.736   0.733  1.00  0.00     0.170 HD
BRANCH  17  19
ATOM     19  C   UNL     1       1.123   3.889   0.348  1.00  0.00     0.041 A 
ATOM     20  C   UNL     1       0.025   4.198   1.167  1.00  0.00     0.029 A 
ATOM     21  C   UNL     1       1.406   4.727  -0.740  1.00  0.00     0.029 A 
ATOM     22  C   UNL     1      -0.761   5.324   0.923  1.00  0.00     0.041 A 
ATOM     23  C   UNL     1       0.605   5.845  -1.000  1.00  0.00     0.041 A 
ATOM     24  C   UNL     1      -0.468   6.133  -0.165  1.00  0.00     0.123 A 
ATOM     25  F   UNL     1      -1.243   7.195  -0.425  1.00  0.00    -0.207 F 
ENDBRANCH  17  19
ENDBRANCH  11  17
ENDBRANCH   5   6
ENDBRANCH   4   5
ENDBRANCH   2   4
ENDBRANCH   1   2
BRANCH   1  26
ATOM     26  C   UNL     1       0.359  -3.599   3.680  1.00  0.00     0.274 C 
BRANCH  26  27
ATOM     27  C   UNL     1      -1.081  -3.098   3.747  1.00  0.00     0.275 C 
BRANCH  27  28
ATOM     28  O   UNL     1      -1.790  -3.460   2.548  1.00  0.00    -0.458 OA
BRANCH  28  29
ATOM     29  C   UNL     1      -2.666  -2.534   2.094  1.00  0.00     0.338 C 
ATOM     30  O   UNL     1      -2.925  -1.465   2.620  1.00  0.00    -0.246 OA
BRANCH  29  31
ATOM     31  C   UNL     1      -3.278  -2.950   0.806  1.00  0.00     0.060 A 
ATOM     32  C   UNL     1      -2.643  -3.831  -0.070  1.00  0.00     0.016 A 
ATOM     33  C   UNL     1      -4.457  -2.313   0.402  1.00  0.00     0.016 A 
ATOM     34  C   UNL     1      -3.116  -3.971  -1.381  1.00  0.00     0.010 A 
ATOM     35  C   UNL     1      -4.971  -2.519  -0.883  1.00  0.00     0.010 A 
ATOM     36  C   UNL     1      -4.284  -3.316  -1.810  1.00  0.00    -0.014 A 
BRANCH  36  37
ATOM     37  C   UNL     1      -4.799  -3.454  -3.205  1.00  0.00     0.031 A 
ATOM     38  C   UNL     1      -5.043  -2.244  -4.075  1.00  0.00     0.074 A 
ATOM     39  C   UNL     1      -5.078  -4.674  -3.706  1.00  0.00     0.049 A 
ATOM     40  N   UNL     1      -5.704  -2.152  -5.203  1.00  0.00    -0.248 NA
ATOM     41  C   UNL     1      -4.466  -0.969  -3.622  1.00  0.00     0.031 C 
ATOM     42  C   UNL     1      -4.850  -5.946  -3.021  1.00  0.00     0.029 A 
ATOM     43  N   UNL     1      -5.623  -5.040  -4.913  1.00  0.00    -0.354 N 
ATOM     44  C   UNL     1      -5.660  -0.810  -5.568  1.00  0.00     0.074 A 
ATOM     45  C   UNL     1      -4.897  -0.123  -4.548  1.00  0.00     0.031 C 
ATOM     46  C   UNL     1      -5.218  -6.951  -3.826  1.00  0.00     0.029 A 
ATOM     47  C   UNL     1      -5.807  -6.394  -5.039  1.00  0.00     0.049 A 
ATOM     48  H   UNL     1      -5.859  -4.394  -5.618  1.00  0.00     0.167 HD
ATOM     49  C   UNL     1      -6.211  -0.208  -6.650  1.00  0.00     0.037 A 
ATOM     50  C   UNL     1      -6.437  -7.118  -5.983  1.00  0.00     0.037 A 
ATOM     51  C   UNL     1      -6.938  -0.892  -7.689  1.00  0.00     0.049 A 
ATOM     52  C   UNL     1      -7.113  -6.427  -7.126  1.00  0.00     0.074 A 
ATOM     53  C   UNL     1      -7.526  -0.359  -8.824  1.00  0.00     0.029 A 
ATOM     54  N   UNL     1      -7.163  -2.258  -7.728  1.00  0.00    -0.354 N 
ATOM     55  N   UNL     1      -7.156  -5.148  -7.404  1.00  0.00    -0.248 NA
ATOM     56  C   UNL     1      -7.860  -7.276  -8.065  1.00  0.00     0.031 C 
ATOM     57  C   UNL     1      -8.133  -1.399  -9.535  1.00  0.00     0.029 A 
ATOM     58  C   UNL     1      -7.893  -2.583  -8.860  1.00  0.00     0.049 A 
ATOM     59  H   UNL     1      -6.852  -2.902  -7.051  1.00  0.00     0.167 HD
ATOM     60  C   UNL     1      -7.941  -5.036  -8.543  1.00  0.00     0.074 A 
ATOM     61  C   UNL     1      -8.336  -6.378  -8.917  1.00  0.00     0.031 C 
ATOM     62  C   UNL     1      -8.303  -3.916  -9.212  1.00  0.00     0.037 A 
BRANCH  49  63
ATOM     63  C   UNL     1      -6.079   1.282  -6.777  1.00  0.00     0.057 A 
ATOM     64  C   UNL     1      -7.183   2.112  -6.543  1.00  0.00     0.134 A 
ATOM     65  C   UNL     1      -4.905   1.881  -7.245  1.00  0.00     0.134 A 
ATOM     66  F   UNL     1      -8.341   1.596  -6.104  1.00  0.00    -0.206 F 
ATOM     67  C   UNL     1      -7.130   3.485  -6.788  1.00  0.00     0.040 A 
ATOM     68  C   UNL     1      -4.834   3.257  -7.479  1.00  0.00     0.040 A 
ATOM     69  F   UNL     1      -3.811   1.141  -7.481  1.00  0.00    -0.206 F 
ATOM     70  C   UNL     1      -5.953   4.060  -7.262  1.00  0.00     0.006 A 
ENDBRANCH  49  63
BRANCH  50  71
ATOM     71  C   UNL     1      -6.505  -8.589  -5.827  1.00  0.00     0.057 A 
ATOM     72  C   UNL     1      -7.303  -9.178  -4.838  1.00  0.00     0.134 A 
ATOM     73  C   UNL     1      -5.716  -9.433  -6.614  1.00  0.00     0.134 A 
ATOM     74  F   UNL     1      -8.076  -8.415  -4.051  1.00  0.00    -0.206 F 
ATOM     75  C   UNL     1      -7.283 -10.552  -4.608  1.00  0.00     0.040 A 
ATOM     76  C   UNL     1      -5.703 -10.813  -6.410  1.00  0.00     0.040 A 
ATOM     77  F   UNL     1      -4.949  -8.924  -7.589  1.00  0.00    -0.206 F 
ATOM     78  C   UNL     1      -6.478 -11.374  -5.395  1.00  0.00     0.006 A 
ENDBRANCH  50  71
BRANCH  62  79
ATOM     79  C   UNL     1      -9.175  -4.090 -10.416  1.00  0.00     0.057 A 
ATOM     80  C   UNL     1      -8.645  -3.984 -11.708  1.00  0.00     0.134 A 
ATOM     81  C   UNL     1     -10.549  -4.328 -10.293  1.00  0.00     0.134 A 
ATOM     82  F   UNL     1      -7.337  -3.752 -11.890  1.00  0.00    -0.206 F 
ATOM     83  C   UNL     1      -9.454  -4.105 -12.838  1.00  0.00     0.040 A 
ATOM     84  C   UNL     1     -11.366  -4.466 -11.416  1.00  0.00     0.040 A 
ATOM     85  F   UNL     1     -11.111  -4.450  -9.081  1.00  0.00    -0.206 F 
ATOM     86  C   UNL     1     -10.819  -4.350 -12.693  1.00  0.00     0.006 A 
ENDBRANCH  62  79
ENDBRANCH  36  37
ENDBRANCH  29  31
ENDBRANCH  28  29
ENDBRANCH  27  28
ENDBRANCH  26  27
ENDBRANCH   1  26
TORSDOF 18
