REMARK SMILES Cc1cc(Nc2ccc(C(=O)OCCOC(=O)c3ccc(-c4c5nc(c(-c6c(F)cccc6F)c6ccc([nH]6)c(-c6c(F)cccc6F)c6nc(c(-c7c(F)cccc7F)c7ccc4[nH]7)C=C6)C=C5)cc3)cc2)nc(-n2nc(C)cc2C)n1
REMARK SMILES IDX 13 1 12 2 10 3 11 4 9 5 6 6 7 7 73 8 8 9 72 10 5 11 4 13
REMARK SMILES IDX 1 14 2 15 3 16 83 17 75 18 74 19 76 20 77 21 81 22 78 23
REMARK SMILES IDX 80 24 82 25 79 26 14 27 15 28 16 29 17 30 18 31 19 32 71 33
REMARK SMILES IDX 20 34 70 35 21 36 22 37 23 38 64 39 24 40 69 41 63 42 65 43
REMARK SMILES IDX 25 44 68 45 62 46 61 47 26 49 52 50 35 51 51 52 36 53 39 54
REMARK SMILES IDX 50 55 66 56 37 57 38 58 49 60 67 61 40 62 27 63 28 64 33 65
REMARK SMILES IDX 29 66 30 67 32 68 34 69 31 70 53 71 54 72 59 73 55 74 56 75
REMARK SMILES IDX 58 76 60 77 57 78 41 79 42 80 47 81 43 82 44 83 46 84 48 85
REMARK SMILES IDX 45 86
REMARK H PARENT 5 12 65 48 39 59
REMARK Flexibility Score: inf
ROOT
ATOM      1  C   UNL     1       9.431  -1.150   1.258  1.00  0.00     0.275 C 
ENDROOT
BRANCH   1   2
ATOM      2  O   UNL     1       8.006  -1.355   1.323  1.00  0.00    -0.458 OA
BRANCH   2   3
ATOM      3  C   UNL     1       7.358  -1.301   0.134  1.00  0.00     0.338 C 
ATOM      4  O   UNL     1       7.861  -1.081  -0.957  1.00  0.00    -0.246 OA
BRANCH   3   5
ATOM      5  C   UNL     1       5.928  -1.646   0.296  1.00  0.00     0.060 A 
ATOM      6  C   UNL     1       3.166  -2.147   0.381  1.00  0.00     0.040 A 
ATOM      7  C   UNL     1       3.936  -2.657  -0.662  1.00  0.00     0.027 A 
ATOM      8  C   UNL     1       3.799  -1.413   1.399  1.00  0.00     0.027 A 
ATOM      9  C   UNL     1       5.298  -2.375  -0.720  1.00  0.00     0.018 A 
ATOM     10  C   UNL     1       5.179  -1.181   1.376  1.00  0.00     0.018 A 
BRANCH   6  11
ATOM     11  N   UNL     1       1.763  -2.185   0.267  1.00  0.00    -0.340 N 
ATOM     12  H   UNL     1       1.317  -3.063   0.269  1.00  0.00     0.168 HD
BRANCH  11  13
ATOM     13  C   UNL     1       0.966  -1.030   0.150  1.00  0.00     0.136 A 
ATOM     14  C   UNL     1      -2.626   0.016   0.252  1.00  0.00     0.067 C 
ATOM     15  C   UNL     1      -1.128   0.034   0.251  1.00  0.00     0.045 A 
ATOM     16  C   UNL     1      -0.405  -1.142   0.239  1.00  0.00     0.070 A 
ATOM     17  N   UNL     1      -0.537   1.244   0.243  1.00  0.00    -0.216 NA
ATOM     18  C   UNL     1       0.805   1.263   0.085  1.00  0.00     0.252 A 
ATOM     19  N   UNL     1       1.567   0.162   0.010  1.00  0.00    -0.194 NA
BRANCH  18  20
ATOM     20  N   UNL     1       1.473   2.533   0.048  1.00  0.00    -0.203 N 
ATOM     21  N   UNL     1       2.521   2.773  -0.795  1.00  0.00    -0.170 NA
ATOM     22  C   UNL     1       1.188   3.646   0.826  1.00  0.00     0.045 A 
ATOM     23  C   UNL     1       2.758   4.084  -0.677  1.00  0.00     0.060 A 
ATOM     24  C   UNL     1       1.978   4.666   0.343  1.00  0.00     0.049 A 
ATOM     25  C   UNL     1       0.272   3.603   1.991  1.00  0.00     0.067 C 
ATOM     26  C   UNL     1       3.757   4.746  -1.550  1.00  0.00     0.069 C 
ENDBRANCH  18  20
ENDBRANCH  11  13
ENDBRANCH   6  11
ENDBRANCH   3   5
ENDBRANCH   2   3
ENDBRANCH   1   2
BRANCH   1  27
ATOM     27  C   UNL     1      10.182  -2.482   1.269  1.00  0.00     0.275 C 
BRANCH  27  28
ATOM     28  O   UNL     1       9.924  -3.216   0.058  1.00  0.00    -0.458 OA
BRANCH  28  29
ATOM     29  C   UNL     1       9.201  -4.349   0.205  1.00  0.00     0.338 C 
ATOM     30  O   UNL     1       8.781  -4.841   1.238  1.00  0.00    -0.246 OA
BRANCH  29  31
ATOM     31  C   UNL     1       8.954  -4.953  -1.113  1.00  0.00     0.060 A 
ATOM     32  C   UNL     1       8.094  -4.316  -2.002  1.00  0.00     0.016 A 
ATOM     33  C   UNL     1       9.456  -6.215  -1.413  1.00  0.00     0.016 A 
ATOM     34  C   UNL     1       7.636  -4.978  -3.137  1.00  0.00     0.010 A 
ATOM     35  C   UNL     1       9.095  -6.828  -2.617  1.00  0.00     0.010 A 
ATOM     36  C   UNL     1       8.151  -6.234  -3.477  1.00  0.00    -0.014 A 
BRANCH  36  37
ATOM     37  C   UNL     1       7.713  -6.937  -4.715  1.00  0.00     0.031 A 
ATOM     38  C   UNL     1       7.162  -8.335  -4.633  1.00  0.00     0.074 A 
ATOM     39  C   UNL     1       7.842  -6.348  -5.921  1.00  0.00     0.049 A 
ATOM     40  N   UNL     1       6.991  -9.218  -5.584  1.00  0.00    -0.248 NA
ATOM     41  C   UNL     1       6.773  -8.809  -3.296  1.00  0.00     0.031 C 
ATOM     42  C   UNL     1       8.312  -4.982  -6.157  1.00  0.00     0.029 A 
ATOM     43  N   UNL     1       7.606  -6.838  -7.184  1.00  0.00    -0.354 N 
ATOM     44  C   UNL     1       6.548 -10.373  -4.952  1.00  0.00     0.074 A 
ATOM     45  C   UNL     1       6.467 -10.076  -3.538  1.00  0.00     0.031 C 
ATOM     46  C   UNL     1       8.322  -4.739  -7.474  1.00  0.00     0.029 A 
ATOM     47  C   UNL     1       7.957  -5.961  -8.181  1.00  0.00     0.049 A 
ATOM     48  H   UNL     1       7.224  -7.729  -7.356  1.00  0.00     0.167 HD
ATOM     49  C   UNL     1       6.248 -11.574  -5.504  1.00  0.00     0.037 A 
ATOM     50  C   UNL     1       8.047  -6.131  -9.513  1.00  0.00     0.037 A 
ATOM     51  C   UNL     1       6.276 -11.843  -6.919  1.00  0.00     0.049 A 
ATOM     52  C   UNL     1       7.729  -7.470 -10.107  1.00  0.00     0.074 A 
ATOM     53  C   UNL     1       5.956 -13.015  -7.583  1.00  0.00     0.029 A 
ATOM     54  N   UNL     1       6.633 -10.919  -7.891  1.00  0.00    -0.354 N 
ATOM     55  N   UNL     1       7.365  -8.573  -9.500  1.00  0.00    -0.248 NA
ATOM     56  C   UNL     1       7.852  -7.596 -11.565  1.00  0.00     0.031 C 
ATOM     57  C   UNL     1       6.154 -12.811  -8.953  1.00  0.00     0.029 A 
ATOM     58  C   UNL     1       6.556 -11.499  -9.147  1.00  0.00     0.049 A 
ATOM     59  H   UNL     1       6.902  -9.989  -7.714  1.00  0.00     0.167 HD
ATOM     60  C   UNL     1       7.207  -9.523 -10.499  1.00  0.00     0.074 A 
ATOM     61  C   UNL     1       7.501  -8.860 -11.755  1.00  0.00     0.031 C 
ATOM     62  C   UNL     1       6.852 -10.825 -10.386  1.00  0.00     0.037 A 
BRANCH  49  63
ATOM     63  C   UNL     1       5.914 -12.700  -4.569  1.00  0.00     0.057 A 
ATOM     64  C   UNL     1       4.709 -12.756  -3.858  1.00  0.00     0.134 A 
ATOM     65  C   UNL     1       6.820 -13.754  -4.384  1.00  0.00     0.134 A 
ATOM     66  F   UNL     1       3.804 -11.773  -3.978  1.00  0.00    -0.206 F 
ATOM     67  C   UNL     1       4.430 -13.801  -2.974  1.00  0.00     0.040 A 
ATOM     68  C   UNL     1       6.541 -14.817  -3.524  1.00  0.00     0.040 A 
ATOM     69  F   UNL     1       7.991 -13.769  -5.039  1.00  0.00    -0.206 F 
ATOM     70  C   UNL     1       5.347 -14.838  -2.808  1.00  0.00     0.006 A 
ENDBRANCH  49  63
BRANCH  50  71
ATOM     71  C   UNL     1       8.520  -5.005 -10.356  1.00  0.00     0.057 A 
ATOM     72  C   UNL     1       7.642  -4.303 -11.187  1.00  0.00     0.134 A 
ATOM     73  C   UNL     1       9.850  -4.567 -10.302  1.00  0.00     0.134 A 
ATOM     74  F   UNL     1       6.362  -4.688 -11.295  1.00  0.00    -0.206 F 
ATOM     75  C   UNL     1       8.067  -3.200 -11.929  1.00  0.00     0.040 A 
ATOM     76  C   UNL     1      10.283  -3.451 -11.018  1.00  0.00     0.040 A 
ATOM     77  F   UNL     1      10.738  -5.196  -9.518  1.00  0.00    -0.206 F 
ATOM     78  C   UNL     1       9.389  -2.764 -11.836  1.00  0.00     0.006 A 
ENDBRANCH  50  71
BRANCH  62  79
ATOM     79  C   UNL     1       6.734 -11.612 -11.655  1.00  0.00     0.057 A 
ATOM     80  C   UNL     1       7.862 -12.059 -12.354  1.00  0.00     0.134 A 
ATOM     81  C   UNL     1       5.475 -11.960 -12.162  1.00  0.00     0.134 A 
ATOM     82  F   UNL     1       9.094 -11.745 -11.927  1.00  0.00    -0.206 F 
ATOM     83  C   UNL     1       7.741 -12.813 -13.522  1.00  0.00     0.040 A 
ATOM     84  C   UNL     1       5.343 -12.730 -13.317  1.00  0.00     0.040 A 
ATOM     85  F   UNL     1       4.356 -11.566 -11.535  1.00  0.00    -0.206 F 
ATOM     86  C   UNL     1       6.478 -13.156 -14.003  1.00  0.00     0.006 A 
ENDBRANCH  62  79
ENDBRANCH  36  37
ENDBRANCH  29  31
ENDBRANCH  28  29
ENDBRANCH  27  28
ENDBRANCH   1  27
TORSDOF 14
