REMARK SMILES O=C(CC1(C(=O)OCCOC(=O)c2ccc(-c3c4nc(c(-c5c(F)cccc5F)c5ccc([nH]5)c(-c5c(F)cccc5F)c5nc(c(-c6c(F)cccc6F)c6ccc3[nH]6)C=C5)C=C4)cc2)CCCCC1)Nc1ccc(N2CCOC2=O)cc1
REMARK SMILES IDX 8 1 7 2 5 3 6 4 4 5 67 6 71 7 68 8 70 9 69 10 3 11 2 12 1 13
REMARK SMILES IDX 72 14 73 16 74 17 84 18 75 19 83 20 76 21 77 22 78 23 81 24
REMARK SMILES IDX 79 25 80 26 82 27 9 28 10 29 11 30 12 31 13 32 14 33 66 34
REMARK SMILES IDX 15 35 65 36 16 37 17 38 18 39 59 40 19 41 64 42 58 43 60 44
REMARK SMILES IDX 20 45 63 46 57 47 56 48 21 50 47 51 30 52 46 53 31 54 34 55
REMARK SMILES IDX 45 56 61 57 32 58 33 59 44 61 62 62 35 63 22 64 23 65 28 66
REMARK SMILES IDX 24 67 25 68 27 69 29 70 26 71 48 72 49 73 54 74 50 75 51 76
REMARK SMILES IDX 53 77 55 78 52 79 36 80 37 81 42 82 38 83 39 84 41 85 43 86
REMARK SMILES IDX 40 87
REMARK H PARENT 72 15 60 49 34 60
REMARK Flexibility Score: inf
ROOT
ATOM      1  C   UNL     1       5.030  -3.005  -2.116  1.00  0.00     0.274 C 
ENDROOT
BRANCH   1   2
ATOM      2  O   UNL     1       5.072  -3.003  -0.676  1.00  0.00    -0.462 OA
BRANCH   2   3
ATOM      3  C   UNL     1       5.850  -2.076  -0.043  1.00  0.00     0.312 C 
ATOM      4  O   UNL     1       6.915  -1.643  -0.467  1.00  0.00    -0.252 OA
BRANCH   3   5
ATOM      5  C   UNL     1       5.100  -1.460   1.162  1.00  0.00     0.077 C 
ATOM      6  C   UNL     1       5.943  -1.396   2.459  1.00  0.00     0.019 C 
ATOM      7  C   UNL     1       3.860  -2.343   1.536  1.00  0.00     0.019 C 
ATOM      8  C   UNL     1       6.401  -2.767   2.961  1.00  0.00     0.001 C 
ATOM      9  C   UNL     1       4.265  -3.763   2.000  1.00  0.00     0.001 C 
ATOM     10  C   UNL     1       5.256  -3.757   3.155  1.00  0.00     0.000 C 
BRANCH   5  11
ATOM     11  C   UNL     1       4.782   0.038   0.689  1.00  0.00     0.119 C 
BRANCH  11  12
ATOM     12  C   UNL     1       4.261   0.074  -0.745  1.00  0.00     0.225 C 
ATOM     13  O   UNL     1       3.559  -0.875  -1.054  1.00  0.00    -0.275 OA
ATOM     14  N   UNL     1       4.465   1.134  -1.603  1.00  0.00    -0.326 N 
ATOM     15  H   UNL     1       5.036   1.881  -1.310  1.00  0.00     0.169 HD
BRANCH  14  16
ATOM     16  C   UNL     1       3.868   1.185  -2.918  1.00  0.00     0.041 A 
ATOM     17  C   UNL     1       3.797   0.103  -3.798  1.00  0.00     0.028 A 
ATOM     18  C   UNL     1       3.230   2.344  -3.337  1.00  0.00     0.028 A 
ATOM     19  C   UNL     1       2.945   0.086  -4.929  1.00  0.00     0.028 A 
ATOM     20  C   UNL     1       2.373   2.341  -4.467  1.00  0.00     0.028 A 
ATOM     21  C   UNL     1       2.155   1.190  -5.241  1.00  0.00     0.047 A 
BRANCH  21  22
ATOM     22  N   UNL     1       1.119   1.115  -6.223  1.00  0.00    -0.274 N 
ATOM     23  C   UNL     1       0.611  -0.112  -6.772  1.00  0.00     0.171 C 
ATOM     24  C   UNL     1       0.429   2.178  -6.776  1.00  0.00     0.414 C 
ATOM     25  C   UNL     1      -0.629   0.313  -7.527  1.00  0.00     0.257 C 
ATOM     26  O   UNL     1      -0.545   1.732  -7.626  1.00  0.00    -0.447 OA
ATOM     27  O   UNL     1       0.617   3.382  -6.599  1.00  0.00    -0.224 OA
ENDBRANCH  21  22
ENDBRANCH  14  16
ENDBRANCH  11  12
ENDBRANCH   5  11
ENDBRANCH   3   5
ENDBRANCH   2   3
ENDBRANCH   1   2
BRANCH   1  28
ATOM     28  C   UNL     1       3.587  -3.381  -2.620  1.00  0.00     0.275 C 
BRANCH  28  29
ATOM     29  O   UNL     1       2.640  -2.264  -2.705  1.00  0.00    -0.458 OA
BRANCH  29  30
ATOM     30  C   UNL     1       1.425  -2.296  -2.079  1.00  0.00     0.338 C 
ATOM     31  O   UNL     1       0.851  -3.302  -1.695  1.00  0.00    -0.246 OA
BRANCH  30  32
ATOM     32  C   UNL     1       0.870  -0.902  -1.867  1.00  0.00     0.060 A 
ATOM     33  C   UNL     1       0.968  -0.262  -0.617  1.00  0.00     0.016 A 
ATOM     34  C   UNL     1       0.262  -0.196  -2.897  1.00  0.00     0.016 A 
ATOM     35  C   UNL     1       0.619   1.100  -0.441  1.00  0.00     0.010 A 
ATOM     36  C   UNL     1      -0.105   1.159  -2.722  1.00  0.00     0.010 A 
ATOM     37  C   UNL     1       0.094   1.845  -1.500  1.00  0.00    -0.014 A 
BRANCH  37  38
ATOM     38  C   UNL     1      -0.506   3.218  -1.310  1.00  0.00     0.031 A 
ATOM     39  C   UNL     1      -2.007   3.306  -1.429  1.00  0.00     0.074 A 
ATOM     40  C   UNL     1       0.178   4.360  -1.064  1.00  0.00     0.049 A 
ATOM     41  N   UNL     1      -2.794   4.340  -1.577  1.00  0.00    -0.248 NA
ATOM     42  C   UNL     1      -2.709   2.013  -1.421  1.00  0.00     0.031 C 
ATOM     43  C   UNL     1       1.614   4.472  -0.831  1.00  0.00     0.029 A 
ATOM     44  N   UNL     1      -0.260   5.670  -0.980  1.00  0.00    -0.354 N 
ATOM     45  C   UNL     1      -4.066   3.810  -1.761  1.00  0.00     0.074 A 
ATOM     46  C   UNL     1      -3.929   2.372  -1.772  1.00  0.00     0.031 C 
ATOM     47  C   UNL     1       1.946   5.769  -0.667  1.00  0.00     0.029 A 
ATOM     48  C   UNL     1       0.745   6.596  -0.777  1.00  0.00     0.049 A 
ATOM     49  H   UNL     1      -1.209   5.922  -1.058  1.00  0.00     0.167 HD
ATOM     50  C   UNL     1      -5.256   4.449  -1.866  1.00  0.00     0.037 A 
ATOM     51  C   UNL     1       0.698   7.946  -0.686  1.00  0.00     0.037 A 
ATOM     52  C   UNL     1      -5.417   5.869  -1.747  1.00  0.00     0.049 A 
ATOM     53  C   UNL     1      -0.641   8.650  -0.799  1.00  0.00     0.074 A 
ATOM     54  C   UNL     1      -6.578   6.618  -1.802  1.00  0.00     0.029 A 
ATOM     55  N   UNL     1      -4.375   6.754  -1.510  1.00  0.00    -0.354 N 
ATOM     56  N   UNL     1      -1.834   8.138  -0.988  1.00  0.00    -0.248 NA
ATOM     57  C   UNL     1      -0.643  10.119  -0.670  1.00  0.00     0.031 C 
ATOM     58  C   UNL     1      -6.237   7.960  -1.604  1.00  0.00     0.029 A 
ATOM     59  C   UNL     1      -4.869   8.041  -1.394  1.00  0.00     0.049 A 
ATOM     60  H   UNL     1      -3.426   6.503  -1.435  1.00  0.00     0.167 HD
ATOM     61  C   UNL     1      -2.723   9.207  -0.957  1.00  0.00     0.074 A 
ATOM     62  C   UNL     1      -1.938  10.399  -0.721  1.00  0.00     0.031 C 
ATOM     63  C   UNL     1      -4.071   9.206  -1.111  1.00  0.00     0.037 A 
BRANCH  50  64
ATOM     64  C   UNL     1      -6.457   3.583  -2.119  1.00  0.00     0.057 A 
ATOM     65  C   UNL     1      -6.928   2.670  -1.163  1.00  0.00     0.134 A 
ATOM     66  C   UNL     1      -7.086   3.587  -3.370  1.00  0.00     0.134 A 
ATOM     67  F   UNL     1      -6.355   2.600   0.049  1.00  0.00    -0.206 F 
ATOM     68  C   UNL     1      -7.921   1.739  -1.469  1.00  0.00     0.040 A 
ATOM     69  C   UNL     1      -8.110   2.687  -3.674  1.00  0.00     0.040 A 
ATOM     70  F   UNL     1      -6.699   4.443  -4.327  1.00  0.00    -0.206 F 
ATOM     71  C   UNL     1      -8.512   1.744  -2.730  1.00  0.00     0.006 A 
ENDBRANCH  50  64
BRANCH  51  72
ATOM     72  C   UNL     1       1.931   8.760  -0.449  1.00  0.00     0.057 A 
ATOM     73  C   UNL     1       2.114   9.472   0.747  1.00  0.00     0.134 A 
ATOM     74  C   UNL     1       2.911   8.925  -1.435  1.00  0.00     0.134 A 
ATOM     75  F   UNL     1       1.199   9.392   1.725  1.00  0.00    -0.206 F 
ATOM     76  C   UNL     1       3.201  10.332   0.941  1.00  0.00     0.040 A 
ATOM     77  C   UNL     1       4.017   9.763  -1.246  1.00  0.00     0.040 A 
ATOM     78  F   UNL     1       2.805   8.286  -2.609  1.00  0.00    -0.206 F 
ATOM     79  C   UNL     1       4.159  10.478  -0.058  1.00  0.00     0.006 A 
ENDBRANCH  51  72
BRANCH  63  80
ATOM     80  C   UNL     1      -4.797  10.512  -0.964  1.00  0.00     0.057 A 
ATOM     81  C   UNL     1      -4.757  11.500  -1.954  1.00  0.00     0.134 A 
ATOM     82  C   UNL     1      -5.625  10.738   0.145  1.00  0.00     0.134 A 
ATOM     83  F   UNL     1      -3.976  11.349  -3.034  1.00  0.00    -0.206 F 
ATOM     84  C   UNL     1      -5.510  12.671  -1.844  1.00  0.00     0.040 A 
ATOM     85  C   UNL     1      -6.401  11.892   0.253  1.00  0.00     0.040 A 
ATOM     86  F   UNL     1      -5.715   9.826   1.125  1.00  0.00    -0.206 F 
ATOM     87  C   UNL     1      -6.344  12.863  -0.744  1.00  0.00     0.006 A 
ENDBRANCH  63  80
ENDBRANCH  37  38
ENDBRANCH  30  32
ENDBRANCH  29  30
ENDBRANCH  28  29
ENDBRANCH   1  28
TORSDOF 15
