REMARK SMILES CCN1C(=O)[C@H](CC(=O)Nc2ccc(C(=O)OCCOC(=O)c3ccc(-c4c5nc(c(-c6c(F)cccc6F)c6ccc([nH]6)c(-c6c(F)cccc6F)c6nc(c(-c7c(F)cccc7F)c7ccc4[nH]7)C=C6)C=C5)cc3)cc2)S/C1=[NH+]\c1ccc(Cl)cc1
REMARK SMILES IDX 18 1 17 2 15 3 16 4 14 5 11 6 12 7 78 8 13 9 77 10 10 11
REMARK SMILES IDX 8 12 9 13 7 15 6 16 3 17 4 18 80 19 5 20 79 21 81 22 2 24
REMARK SMILES IDX 1 25 82 26 83 27 88 28 84 29 87 30 85 31 86 32 19 33 20 34
REMARK SMILES IDX 21 35 22 36 23 37 24 38 76 39 25 40 75 41 26 42 27 43 28 44
REMARK SMILES IDX 69 45 29 46 74 47 68 48 70 49 30 50 73 51 67 52 66 53 31 55
REMARK SMILES IDX 57 56 40 57 56 58 41 59 44 60 55 61 71 62 42 63 43 64 54 66
REMARK SMILES IDX 72 67 45 68 32 69 33 70 38 71 34 72 35 73 37 74 39 75 36 76
REMARK SMILES IDX 58 77 59 78 64 79 60 80 61 81 63 82 65 83 62 84 46 85 47 86
REMARK SMILES IDX 52 87 48 88 49 89 51 90 53 91 50 92
REMARK H PARENT 10 14 81 23 70 54 44 65
REMARK Flexibility Score: inf
ROOT
ATOM      1  C   UNL     1       0.410  -0.228   3.855  1.00  0.00     0.275 C 
ENDROOT
BRANCH   1   2
ATOM      2  O   UNL     1       1.073   0.076   2.611  1.00  0.00    -0.458 OA
BRANCH   2   3
ATOM      3  C   UNL     1       2.409   0.266   2.682  1.00  0.00     0.338 C 
ATOM      4  O   UNL     1       3.134   0.138   3.657  1.00  0.00    -0.246 OA
BRANCH   3   5
ATOM      5  C   UNL     1       2.904   0.731   1.379  1.00  0.00     0.060 A 
ATOM      6  C   UNL     1       3.682   1.721  -1.121  1.00  0.00     0.041 A 
ATOM      7  C   UNL     1       3.715   0.348  -0.868  1.00  0.00     0.027 A 
ATOM      8  C   UNL     1       3.405   2.590  -0.065  1.00  0.00     0.027 A 
ATOM      9  C   UNL     1       3.294  -0.146   0.366  1.00  0.00     0.018 A 
ATOM     10  C   UNL     1       3.003   2.102   1.180  1.00  0.00     0.018 A 
BRANCH   6  11
ATOM     11  N   UNL     1       3.839   2.089  -2.464  1.00  0.00    -0.326 N 
ATOM     12  C   UNL     1       3.423   3.162  -3.190  1.00  0.00     0.226 C 
ATOM     13  O   UNL     1       3.637   3.148  -4.407  1.00  0.00    -0.275 OA
ATOM     14  H   UNL     1       4.357   1.438  -2.991  1.00  0.00     0.169 HD
BRANCH  12  15
ATOM     15  C   UNL     1       2.722   4.348  -2.578  1.00  0.00     0.128 C 
BRANCH  15  16
ATOM     16  C   UNL     1       1.242   4.181  -2.241  1.00  0.00     0.183 C 
ATOM     17  N   UNL     1       0.126   2.785  -0.615  1.00  0.00    -0.190 N 
ATOM     18  C   UNL     1       0.701   2.807  -1.873  1.00  0.00     0.324 C 
ATOM     19  C   UNL     1       0.054   3.985   0.057  1.00  0.00     0.319 C 
ATOM     20  O   UNL     1       0.729   1.869  -2.663  1.00  0.00    -0.245 OA
ATOM     21  S   UNL     1       0.791   5.270  -0.856  1.00  0.00    -0.022 SA
ATOM     22  N   UNL     1      -0.518   4.075   1.213  1.00  0.00    -0.235 N 
ATOM     23  H   UNL     1      -0.809   3.249   1.662  1.00  0.00     0.313 HD
BRANCH  17  24
ATOM     24  C   UNL     1      -0.570   1.628  -0.040  1.00  0.00     0.243 C 
ATOM     25  C   UNL     1      -0.284   0.248  -0.601  1.00  0.00     0.054 C 
ENDBRANCH  17  24
BRANCH  22  26
ATOM     26  C   UNL     1      -0.740   5.301   1.852  1.00  0.00     0.125 A 
ATOM     27  C   UNL     1      -0.181   5.553   3.108  1.00  0.00     0.053 A 
ATOM     28  C   UNL     1      -1.650   6.222   1.319  1.00  0.00     0.053 A 
ATOM     29  C   UNL     1      -0.509   6.720   3.810  1.00  0.00     0.025 A 
ATOM     30  C   UNL     1      -1.972   7.392   2.007  1.00  0.00     0.025 A 
ATOM     31  C   UNL     1      -1.402   7.635   3.254  1.00  0.00     0.041 A 
ATOM     32  Cl  UNL     1      -1.828   9.057   4.121  1.00  0.00    -0.084 Cl
ENDBRANCH  22  26
ENDBRANCH  15  16
ENDBRANCH  12  15
ENDBRANCH   6  11
ENDBRANCH   3   5
ENDBRANCH   2   3
ENDBRANCH   1   2
BRANCH   1  33
ATOM     33  C   UNL     1      -0.098  -1.668   3.883  1.00  0.00     0.275 C 
BRANCH  33  34
ATOM     34  O   UNL     1       1.005  -2.584   3.768  1.00  0.00    -0.458 OA
BRANCH  34  35
ATOM     35  C   UNL     1       1.137  -3.155   2.551  1.00  0.00     0.338 C 
ATOM     36  O   UNL     1       0.391  -3.053   1.592  1.00  0.00    -0.246 OA
BRANCH  35  37
ATOM     37  C   UNL     1       2.439  -3.822   2.444  1.00  0.00     0.060 A 
ATOM     38  C   UNL     1       3.541  -3.010   2.227  1.00  0.00     0.016 A 
ATOM     39  C   UNL     1       2.548  -5.199   2.284  1.00  0.00     0.016 A 
ATOM     40  C   UNL     1       4.689  -3.527   1.656  1.00  0.00     0.010 A 
ATOM     41  C   UNL     1       3.781  -5.743   1.897  1.00  0.00     0.010 A 
ATOM     42  C   UNL     1       4.854  -4.908   1.531  1.00  0.00    -0.014 A 
BRANCH  42  43
ATOM     43  C   UNL     1       6.147  -5.442   1.019  1.00  0.00     0.031 A 
ATOM     44  C   UNL     1       6.169  -6.412  -0.132  1.00  0.00     0.074 A 
ATOM     45  C   UNL     1       7.309  -5.033   1.574  1.00  0.00     0.049 A 
ATOM     46  N   UNL     1       7.157  -7.149  -0.570  1.00  0.00    -0.248 NA
ATOM     47  C   UNL     1       4.913  -6.592  -0.881  1.00  0.00     0.031 C 
ATOM     48  C   UNL     1       7.439  -4.051   2.658  1.00  0.00     0.029 A 
ATOM     49  N   UNL     1       8.610  -5.384   1.305  1.00  0.00    -0.354 N 
ATOM     50  C   UNL     1       6.625  -7.932  -1.588  1.00  0.00     0.074 A 
ATOM     51  C   UNL     1       5.230  -7.573  -1.716  1.00  0.00     0.031 C 
ATOM     52  C   UNL     1       8.735  -3.843   2.922  1.00  0.00     0.029 A 
ATOM     53  C   UNL     1       9.523  -4.778   2.137  1.00  0.00     0.049 A 
ATOM     54  H   UNL     1       8.864  -6.008   0.587  1.00  0.00     0.167 HD
ATOM     55  C   UNL     1       7.252  -8.873  -2.334  1.00  0.00     0.037 A 
ATOM     56  C   UNL     1      10.836  -5.004   2.319  1.00  0.00     0.037 A 
ATOM     57  C   UNL     1       8.658  -9.169  -2.235  1.00  0.00     0.049 A 
ATOM     58  C   UNL     1      11.492  -6.082   1.510  1.00  0.00     0.074 A 
ATOM     59  C   UNL     1       9.400 -10.082  -2.964  1.00  0.00     0.029 A 
ATOM     60  N   UNL     1       9.536  -8.548  -1.359  1.00  0.00    -0.354 N 
ATOM     61  N   UNL     1      10.970  -6.854   0.588  1.00  0.00    -0.248 NA
ATOM     62  C   UNL     1      12.912  -6.337   1.779  1.00  0.00     0.031 C 
ATOM     63  C   UNL     1      10.715 -10.052  -2.491  1.00  0.00     0.029 A 
ATOM     64  C   UNL     1      10.807  -9.077  -1.511  1.00  0.00     0.049 A 
ATOM     65  H   UNL     1       9.293  -7.837  -0.723  1.00  0.00     0.167 HD
ATOM     66  C   UNL     1      12.000  -7.675   0.155  1.00  0.00     0.074 A 
ATOM     67  C   UNL     1      13.182  -7.287   0.897  1.00  0.00     0.031 C 
ATOM     68  C   UNL     1      11.970  -8.666  -0.768  1.00  0.00     0.037 A 
BRANCH  55  69
ATOM     69  C   UNL     1       6.426  -9.691  -3.286  1.00  0.00     0.057 A 
ATOM     70  C   UNL     1       5.914  -9.171  -4.481  1.00  0.00     0.134 A 
ATOM     71  C   UNL     1       6.202 -11.051  -3.027  1.00  0.00     0.134 A 
ATOM     72  F   UNL     1       6.078  -7.875  -4.785  1.00  0.00    -0.206 F 
ATOM     73  C   UNL     1       5.200  -9.971  -5.378  1.00  0.00     0.040 A 
ATOM     74  C   UNL     1       5.515 -11.866  -3.928  1.00  0.00     0.040 A 
ATOM     75  F   UNL     1       6.669 -11.615  -1.903  1.00  0.00    -0.206 F 
ATOM     76  C   UNL     1       5.009 -11.326  -5.107  1.00  0.00     0.006 A 
ENDBRANCH  55  69
BRANCH  56  77
ATOM     77  C   UNL     1      11.586  -4.267   3.371  1.00  0.00     0.057 A 
ATOM     78  C   UNL     1      12.633  -3.397   3.049  1.00  0.00     0.134 A 
ATOM     79  C   UNL     1      11.282  -4.429   4.731  1.00  0.00     0.134 A 
ATOM     80  F   UNL     1      12.987  -3.212   1.769  1.00  0.00    -0.206 F 
ATOM     81  C   UNL     1      13.364  -2.735   4.037  1.00  0.00     0.040 A 
ATOM     82  C   UNL     1      11.979  -3.744   5.727  1.00  0.00     0.040 A 
ATOM     83  F   UNL     1      10.286  -5.242   5.112  1.00  0.00    -0.206 F 
ATOM     84  C   UNL     1      13.033  -2.902   5.381  1.00  0.00     0.006 A 
ENDBRANCH  56  77
BRANCH  68  85
ATOM     85  C   UNL     1      13.267  -9.360  -1.056  1.00  0.00     0.057 A 
ATOM     86  C   UNL     1      13.858 -10.238  -0.139  1.00  0.00     0.134 A 
ATOM     87  C   UNL     1      13.921  -9.159  -2.278  1.00  0.00     0.134 A 
ATOM     88  F   UNL     1      13.290 -10.457   1.057  1.00  0.00    -0.206 F 
ATOM     89  C   UNL     1      15.068 -10.872  -0.418  1.00  0.00     0.040 A 
ATOM     90  C   UNL     1      15.114  -9.813  -2.581  1.00  0.00     0.040 A 
ATOM     91  F   UNL     1      13.402  -8.335  -3.202  1.00  0.00    -0.206 F 
ATOM     92  C   UNL     1      15.696 -10.666  -1.645  1.00  0.00     0.006 A 
ENDBRANCH  68  85
ENDBRANCH  42  43
ENDBRANCH  35  37
ENDBRANCH  34  35
ENDBRANCH  33  34
ENDBRANCH   1  33
TORSDOF 16
