REMARK SMILES O=C(OCCOC(=O)c1nc(NC[C@H]2c3ccccc3CSc3ccccc32)c2ccccc2n1)c1ccc(-c2c3nc(c(-c4c(F)cccc4F)c4ccc([nH]4)c(-c4c(F)cccc4F)c4nc(c(-c5c(F)cccc5F)c5ccc2[nH]5)C=C4)C=C3)cc1
REMARK SMILES IDX 5 1 4 2 3 3 2 4 1 5 36 6 37 7 89 8 38 9 88 10 39 11 40 12
REMARK SMILES IDX 41 13 82 14 42 15 87 16 81 17 83 18 43 19 86 20 80 21 79 22
REMARK SMILES IDX 44 24 70 25 53 26 69 27 54 28 57 29 68 30 84 31 55 32 56 33
REMARK SMILES IDX 67 35 85 36 58 37 45 38 46 39 51 40 47 41 48 42 50 43 52 44
REMARK SMILES IDX 49 45 71 46 72 47 77 48 73 49 74 50 76 51 78 52 75 53 59 54
REMARK SMILES IDX 60 55 65 56 61 57 62 58 64 59 66 60 63 61 6 62 7 63 8 64
REMARK SMILES IDX 9 65 10 66 35 67 11 68 34 69 29 70 33 71 30 72 32 73 31 74
REMARK SMILES IDX 12 75 13 77 14 78 15 79 28 80 16 81 20 82 23 83 27 84 17 85
REMARK SMILES IDX 19 86 21 87 22 88 24 89 26 90 18 91 25 92
REMARK H PARENT 83 23 57 34 12 76
REMARK Flexibility Score: inf
ROOT
ATOM      1  C   UNL     1       3.532   2.629   0.194  1.00  0.00     0.275 C 
ENDROOT
BRANCH   1   2
ATOM      2  C   UNL     1       4.482   1.823  -0.704  1.00  0.00     0.275 C 
BRANCH   2   3
ATOM      3  O   UNL     1       4.004   0.565  -1.208  1.00  0.00    -0.458 OA
BRANCH   3   4
ATOM      4  C   UNL     1       3.455  -0.387  -0.425  1.00  0.00     0.338 C 
ATOM      5  O   UNL     1       2.413  -0.931  -0.769  1.00  0.00    -0.246 OA
BRANCH   4   6
ATOM      6  C   UNL     1       4.149  -0.793   0.838  1.00  0.00     0.060 A 
ATOM      7  C   UNL     1       3.380  -1.484   1.772  1.00  0.00     0.016 A 
ATOM      8  C   UNL     1       5.483  -0.537   1.155  1.00  0.00     0.016 A 
ATOM      9  C   UNL     1       3.864  -1.805   3.033  1.00  0.00     0.010 A 
ATOM     10  C   UNL     1       5.984  -0.850   2.431  1.00  0.00     0.010 A 
ATOM     11  C   UNL     1       5.163  -1.458   3.388  1.00  0.00    -0.014 A 
BRANCH  11  12
ATOM     12  C   UNL     1       5.637  -1.834   4.737  1.00  0.00     0.031 A 
ATOM     13  C   UNL     1       5.766  -0.807   5.825  1.00  0.00     0.074 A 
ATOM     14  C   UNL     1       5.843  -3.140   4.986  1.00  0.00     0.049 A 
ATOM     15  N   UNL     1       6.025  -0.984   7.097  1.00  0.00    -0.248 NA
ATOM     16  C   UNL     1       5.556   0.599   5.448  1.00  0.00     0.031 C 
ATOM     17  C   UNL     1       5.672  -4.219   4.007  1.00  0.00     0.029 A 
ATOM     18  N   UNL     1       6.227  -3.785   6.129  1.00  0.00    -0.354 N 
ATOM     19  C   UNL     1       5.951   0.275   7.681  1.00  0.00     0.074 A 
ATOM     20  C   UNL     1       5.688   1.218   6.615  1.00  0.00     0.031 C 
ATOM     21  C   UNL     1       5.957  -5.391   4.592  1.00  0.00     0.029 A 
ATOM     22  C   UNL     1       6.373  -5.141   5.965  1.00  0.00     0.049 A 
ATOM     23  H   UNL     1       6.383  -3.324   6.984  1.00  0.00     0.167 HD
ATOM     24  C   UNL     1       6.068   0.600   8.992  1.00  0.00     0.037 A 
ATOM     25  C   UNL     1       6.828  -6.070   6.823  1.00  0.00     0.037 A 
ATOM     26  C   UNL     1       6.416  -0.350  10.018  1.00  0.00     0.049 A 
ATOM     27  C   UNL     1       7.197  -5.634   8.209  1.00  0.00     0.074 A 
ATOM     28  C   UNL     1       6.566  -0.146  11.378  1.00  0.00     0.029 A 
ATOM     29  N   UNL     1       6.720  -1.685   9.779  1.00  0.00    -0.354 N 
ATOM     30  N   UNL     1       7.042  -4.459   8.771  1.00  0.00    -0.248 NA
ATOM     31  C   UNL     1       7.812  -6.645   9.074  1.00  0.00     0.031 C 
ATOM     32  C   UNL     1       7.034  -1.339  11.948  1.00  0.00     0.029 A 
ATOM     33  C   UNL     1       7.130  -2.299  10.952  1.00  0.00     0.049 A 
ATOM     34  H   UNL     1       6.654  -2.130   8.904  1.00  0.00     0.167 HD
ATOM     35  C   UNL     1       7.520  -4.592  10.066  1.00  0.00     0.074 A 
ATOM     36  C   UNL     1       7.958  -5.969  10.204  1.00  0.00     0.031 C 
ATOM     37  C   UNL     1       7.586  -3.663  11.053  1.00  0.00     0.037 A 
BRANCH  24  38
ATOM     38  C   UNL     1       5.853   2.038   9.375  1.00  0.00     0.057 A 
ATOM     39  C   UNL     1       6.932   2.877   9.672  1.00  0.00     0.134 A 
ATOM     40  C   UNL     1       4.570   2.593   9.475  1.00  0.00     0.134 A 
ATOM     41  F   UNL     1       8.189   2.414   9.615  1.00  0.00    -0.206 F 
ATOM     42  C   UNL     1       6.741   4.214  10.036  1.00  0.00     0.040 A 
ATOM     43  C   UNL     1       4.365   3.932   9.816  1.00  0.00     0.040 A 
ATOM     44  F   UNL     1       3.486   1.847   9.238  1.00  0.00    -0.206 F 
ATOM     45  C   UNL     1       5.455   4.748  10.099  1.00  0.00     0.006 A 
ENDBRANCH  24  38
BRANCH  25  46
ATOM     46  C   UNL     1       7.002  -7.473   6.372  1.00  0.00     0.057 A 
ATOM     47  C   UNL     1       7.952  -7.806   5.396  1.00  0.00     0.134 A 
ATOM     48  C   UNL     1       6.224  -8.511   6.893  1.00  0.00     0.134 A 
ATOM     49  F   UNL     1       8.734  -6.857   4.859  1.00  0.00    -0.206 F 
ATOM     50  C   UNL     1       8.107  -9.115   4.939  1.00  0.00     0.040 A 
ATOM     51  C   UNL     1       6.386  -9.831   6.463  1.00  0.00     0.040 A 
ATOM     52  F   UNL     1       5.315  -8.261   7.846  1.00  0.00    -0.206 F 
ATOM     53  C   UNL     1       7.324 -10.133   5.477  1.00  0.00     0.006 A 
ENDBRANCH  25  46
BRANCH  37  54
ATOM     54  C   UNL     1       8.150  -4.133  12.360  1.00  0.00     0.057 A 
ATOM     55  C   UNL     1       7.315  -4.350  13.463  1.00  0.00     0.134 A 
ATOM     56  C   UNL     1       9.516  -4.403  12.515  1.00  0.00     0.134 A 
ATOM     57  F   UNL     1       5.998  -4.109  13.380  1.00  0.00    -0.206 F 
ATOM     58  C   UNL     1       7.819  -4.828  14.673  1.00  0.00     0.040 A 
ATOM     59  C   UNL     1      10.026  -4.908  13.712  1.00  0.00     0.040 A 
ATOM     60  F   UNL     1      10.362  -4.238  11.487  1.00  0.00    -0.206 F 
ATOM     61  C   UNL     1       9.176  -5.118  14.796  1.00  0.00     0.006 A 
ENDBRANCH  37  54
ENDBRANCH  11  12
ENDBRANCH   4   6
ENDBRANCH   3   4
ENDBRANCH   2   3
ENDBRANCH   1   2
BRANCH   1  62
ATOM     62  O   UNL     1       3.024   1.897   1.323  1.00  0.00    -0.456 OA
BRANCH  62  63
ATOM     63  C   UNL     1       1.658   1.809   1.429  1.00  0.00     0.376 C 
ATOM     64  O   UNL     1       0.851   2.299   0.650  1.00  0.00    -0.242 OA
BRANCH  63  65
ATOM     65  C   UNL     1       1.290   0.981   2.628  1.00  0.00     0.241 A 
ATOM     66  N   UNL     1       0.609  -0.163   2.388  1.00  0.00    -0.204 NA
ATOM     67  N   UNL     1       1.825   1.367   3.807  1.00  0.00    -0.222 NA
ATOM     68  C   UNL     1       0.548  -1.033   3.407  1.00  0.00     0.138 A 
ATOM     69  C   UNL     1       1.643   0.537   4.837  1.00  0.00     0.077 A 
ATOM     70  C   UNL     1       1.006  -0.703   4.700  1.00  0.00     0.043 A 
ATOM     71  C   UNL     1       2.159   0.873   6.083  1.00  0.00     0.029 A 
ATOM     72  C   UNL     1       0.909  -1.570   5.819  1.00  0.00     0.014 A 
ATOM     73  C   UNL     1       2.084   0.000   7.174  1.00  0.00     0.002 A 
ATOM     74  C   UNL     1       1.456  -1.224   7.046  1.00  0.00     0.001 A 
BRANCH  68  75
ATOM     75  N   UNL     1       0.207  -2.353   3.159  1.00  0.00    -0.368 N 
ATOM     76  H   UNL     1       0.572  -3.016   3.788  1.00  0.00     0.162 HD
BRANCH  75  77
ATOM     77  C   UNL     1      -0.625  -2.887   2.084  1.00  0.00     0.127 C 
BRANCH  77  78
ATOM     78  C   UNL     1      -0.421  -4.484   1.924  1.00  0.00     0.070 C 
ATOM     79  C   UNL     1       0.744  -4.830   0.948  1.00  0.00    -0.035 A 
ATOM     80  C   UNL     1      -0.477  -5.208   3.337  1.00  0.00    -0.025 A 
ATOM     81  C   UNL     1       1.434  -3.852   0.213  1.00  0.00     0.005 A 
ATOM     82  C   UNL     1       1.102  -6.152   0.631  1.00  0.00    -0.034 A 
ATOM     83  C   UNL     1       0.134  -6.421   3.741  1.00  0.00     0.011 A 
ATOM     84  C   UNL     1      -1.270  -4.582   4.345  1.00  0.00     0.005 A 
ATOM     85  C   UNL     1       2.543  -4.139  -0.599  1.00  0.00     0.000 A 
ATOM     86  C   UNL     1       2.252  -6.443  -0.146  1.00  0.00     0.005 A 
ATOM     87  C   UNL     1       0.320  -7.312   1.152  1.00  0.00     0.110 C 
ATOM     88  S   UNL     1       0.947  -7.690   2.781  1.00  0.00    -0.121 SA
ATOM     89  C   UNL     1       0.082  -6.832   5.099  1.00  0.00     0.015 A 
ATOM     90  C   UNL     1      -1.320  -5.007   5.678  1.00  0.00     0.000 A 
ATOM     91  C   UNL     1       2.992  -5.435  -0.735  1.00  0.00     0.000 A 
ATOM     92  C   UNL     1      -0.616  -6.124   6.066  1.00  0.00     0.001 A 
ENDBRANCH  77  78
ENDBRANCH  75  77
ENDBRANCH  68  75
ENDBRANCH  63  65
ENDBRANCH  62  63
ENDBRANCH   1  62
TORSDOF 14
