REMARK SMILES CC(C)[C@@H]1SC[C@@H](C(=O)OCCOC(=O)c2ccc(-c3c4nc(c(-c5c(F)cccc5F)c5ccc([nH]5)c(-c5c(F)cccc5F)c5nc(c(-c6c(F)cccc6F)c6ccc3[nH]6)C=C5)C=C4)cc2)N1C(=O)COCC[NH3+]
REMARK SMILES IDX 8 1 9 2 7 3 4 4 5 5 70 6 6 7 2 8 1 9 3 10 71 11 72 12 73 13
REMARK SMILES IDX 74 14 75 15 76 16 77 17 10 21 11 22 12 23 13 24 14 25 15 26
REMARK SMILES IDX 16 27 17 28 69 29 18 30 68 31 19 32 20 33 21 34 62 35 22 36
REMARK SMILES IDX 67 37 61 38 63 39 23 40 66 41 60 42 59 43 24 45 50 46 33 47
REMARK SMILES IDX 49 48 34 49 37 50 48 51 64 52 35 53 36 54 47 56 65 57 38 58
REMARK SMILES IDX 25 59 26 60 31 61 27 62 28 63 30 64 32 65 29 66 51 67 52 68
REMARK SMILES IDX 57 69 53 70 54 71 56 72 58 73 55 74 39 75 40 76 45 77 41 78
REMARK SMILES IDX 42 79 44 80 46 81 43 82
REMARK H PARENT 77 18 77 19 77 20 63 44 37 55
REMARK Flexibility Score: inf
ROOT
ATOM      1  C   UNL     1      -0.280  -2.032   1.362  1.00  0.00     0.329 C 
ATOM      2  O   UNL     1      -0.235  -3.199   0.981  1.00  0.00    -0.250 OA
ENDROOT
BRANCH   1   3
ATOM      3  C   UNL     1      -1.458  -1.110   1.004  1.00  0.00     0.206 C 
ATOM      4  C   UNL     1      -0.957   1.317   0.887  1.00  0.00     0.146 C 
ATOM      5  S   UNL     1      -0.600   0.629  -0.782  1.00  0.00    -0.134 SA
ATOM      6  N   UNL     1      -1.506   0.204   1.669  1.00  0.00    -0.314 N 
ATOM      7  C   UNL     1      -1.462  -0.928  -0.503  1.00  0.00     0.109 C 
BRANCH   4   8
ATOM      8  C   UNL     1      -1.823   2.609   0.810  1.00  0.00     0.016 C 
ATOM      9  C   UNL     1      -1.356   3.622  -0.246  1.00  0.00     0.010 C 
ATOM     10  C   UNL     1      -3.328   2.365   0.637  1.00  0.00     0.010 C 
ENDBRANCH   4   8
BRANCH   6  11
ATOM     11  C   UNL     1      -1.928   0.212   2.986  1.00  0.00     0.250 C 
ATOM     12  O   UNL     1      -2.373  -0.819   3.498  1.00  0.00    -0.272 OA
BRANCH  11  13
ATOM     13  C   UNL     1      -1.911   1.495   3.822  1.00  0.00     0.260 C 
BRANCH  13  14
ATOM     14  O   UNL     1      -0.655   2.104   4.043  1.00  0.00    -0.366 OA
BRANCH  14  15
ATOM     15  C   UNL     1       0.166   1.392   4.978  1.00  0.00     0.222 C 
BRANCH  15  16
ATOM     16  C   UNL     1      -0.131   1.736   6.452  1.00  0.00     0.287 C 
BRANCH  16  17
ATOM     17  N   UNL     1      -1.248   0.995   7.039  1.00  0.00    -0.356 N 
ATOM     18  H   UNL     1      -2.108   1.225   6.540  1.00  0.00     0.344 HD
ATOM     19  H   UNL     1      -1.347   1.250   8.021  1.00  0.00     0.344 HD
ATOM     20  H   UNL     1      -1.069  -0.006   6.964  1.00  0.00     0.344 HD
ENDBRANCH  16  17
ENDBRANCH  15  16
ENDBRANCH  14  15
ENDBRANCH  13  14
ENDBRANCH  11  13
ENDBRANCH   6  11
ENDBRANCH   1   3
BRANCH   1  21
ATOM     21  O   UNL     1       0.708  -1.412   2.066  1.00  0.00    -0.461 OA
BRANCH  21  22
ATOM     22  C   UNL     1       1.843  -2.243   2.384  1.00  0.00     0.274 C 
BRANCH  22  23
ATOM     23  C   UNL     1       1.743  -2.782   3.807  1.00  0.00     0.275 C 
BRANCH  23  24
ATOM     24  O   UNL     1       0.483  -3.450   3.981  1.00  0.00    -0.458 OA
BRANCH  24  25
ATOM     25  C   UNL     1      -0.248  -3.027   5.035  1.00  0.00     0.338 C 
ATOM     26  O   UNL     1       0.092  -2.219   5.889  1.00  0.00    -0.246 OA
BRANCH  25  27
ATOM     27  C   UNL     1      -1.521  -3.762   5.086  1.00  0.00     0.060 A 
ATOM     28  C   UNL     1      -2.411  -3.741   4.011  1.00  0.00     0.016 A 
ATOM     29  C   UNL     1      -1.867  -4.401   6.276  1.00  0.00     0.016 A 
ATOM     30  C   UNL     1      -3.687  -4.284   4.153  1.00  0.00     0.010 A 
ATOM     31  C   UNL     1      -3.113  -5.015   6.391  1.00  0.00     0.010 A 
ATOM     32  C   UNL     1      -4.046  -4.929   5.344  1.00  0.00    -0.014 A 
BRANCH  32  33
ATOM     33  C   UNL     1      -5.406  -5.490   5.524  1.00  0.00     0.031 A 
ATOM     34  C   UNL     1      -6.328  -4.902   6.554  1.00  0.00     0.074 A 
ATOM     35  C   UNL     1      -5.800  -6.542   4.784  1.00  0.00     0.049 A 
ATOM     36  N   UNL     1      -7.481  -5.347   6.984  1.00  0.00    -0.248 NA
ATOM     37  C   UNL     1      -5.888  -3.652   7.194  1.00  0.00     0.031 C 
ATOM     38  C   UNL     1      -5.013  -7.172   3.724  1.00  0.00     0.029 A 
ATOM     39  N   UNL     1      -6.960  -7.270   4.819  1.00  0.00    -0.354 N 
ATOM     40  C   UNL     1      -7.883  -4.460   7.974  1.00  0.00     0.074 A 
ATOM     41  C   UNL     1      -6.849  -3.452   8.084  1.00  0.00     0.031 C 
ATOM     42  C   UNL     1      -5.721  -8.182   3.195  1.00  0.00     0.029 A 
ATOM     43  C   UNL     1      -6.979  -8.310   3.924  1.00  0.00     0.049 A 
ATOM     44  H   UNL     1      -7.708  -7.067   5.427  1.00  0.00     0.167 HD
ATOM     45  C   UNL     1      -9.011  -4.489   8.724  1.00  0.00     0.037 A 
ATOM     46  C   UNL     1      -7.892  -9.279   3.735  1.00  0.00     0.037 A 
ATOM     47  C   UNL     1     -10.051  -5.474   8.582  1.00  0.00     0.049 A 
ATOM     48  C   UNL     1      -9.112  -9.317   4.608  1.00  0.00     0.074 A 
ATOM     49  C   UNL     1     -11.249  -5.572   9.268  1.00  0.00     0.029 A 
ATOM     50  N   UNL     1     -10.016  -6.532   7.686  1.00  0.00    -0.354 N 
ATOM     51  N   UNL     1      -9.472  -8.490   5.559  1.00  0.00    -0.248 NA
ATOM     52  C   UNL     1     -10.041 -10.435   4.395  1.00  0.00     0.031 C 
ATOM     53  C   UNL     1     -11.924  -6.710   8.810  1.00  0.00     0.029 A 
ATOM     54  C   UNL     1     -11.162  -7.300   7.814  1.00  0.00     0.049 A 
ATOM     55  H   UNL     1      -9.285  -6.712   7.052  1.00  0.00     0.167 HD
ATOM     56  C   UNL     1     -10.677  -8.975   6.048  1.00  0.00     0.074 A 
ATOM     57  C   UNL     1     -10.990 -10.165   5.281  1.00  0.00     0.031 C 
ATOM     58  C   UNL     1     -11.454  -8.480   7.042  1.00  0.00     0.037 A 
BRANCH  45  59
ATOM     59  C   UNL     1      -9.155  -3.443   9.789  1.00  0.00     0.057 A 
ATOM     60  C   UNL     1      -9.449  -2.108   9.488  1.00  0.00     0.134 A 
ATOM     61  C   UNL     1      -9.006  -3.784  11.140  1.00  0.00     0.134 A 
ATOM     62  F   UNL     1      -9.590  -1.713   8.214  1.00  0.00    -0.206 F 
ATOM     63  C   UNL     1      -9.564  -1.143  10.491  1.00  0.00     0.040 A 
ATOM     64  C   UNL     1      -9.140  -2.833  12.152  1.00  0.00     0.040 A 
ATOM     65  F   UNL     1      -8.727  -5.047  11.497  1.00  0.00    -0.206 F 
ATOM     66  C   UNL     1      -9.413  -1.506  11.828  1.00  0.00     0.006 A 
ENDBRANCH  45  59
BRANCH  46  67
ATOM     67  C   UNL     1      -7.675 -10.296   2.679  1.00  0.00     0.057 A 
ATOM     68  C   UNL     1      -8.433 -10.280   1.504  1.00  0.00     0.134 A 
ATOM     69  C   UNL     1      -6.690 -11.283   2.803  1.00  0.00     0.134 A 
ATOM     70  F   UNL     1      -9.403  -9.369   1.339  1.00  0.00    -0.206 F 
ATOM     71  C   UNL     1      -8.220 -11.212   0.487  1.00  0.00     0.040 A 
ATOM     72  C   UNL     1      -6.453 -12.208   1.785  1.00  0.00     0.040 A 
ATOM     73  F   UNL     1      -5.929 -11.347   3.905  1.00  0.00    -0.206 F 
ATOM     74  C   UNL     1      -7.222 -12.175   0.624  1.00  0.00     0.006 A 
ENDBRANCH  46  67
BRANCH  58  75
ATOM     75  C   UNL     1     -12.729  -9.212   7.331  1.00  0.00     0.057 A 
ATOM     76  C   UNL     1     -12.738 -10.424   8.032  1.00  0.00     0.134 A 
ATOM     77  C   UNL     1     -13.961  -8.685   6.924  1.00  0.00     0.134 A 
ATOM     78  F   UNL     1     -11.588 -10.986   8.434  1.00  0.00    -0.206 F 
ATOM     79  C   UNL     1     -13.930 -11.097   8.302  1.00  0.00     0.040 A 
ATOM     80  C   UNL     1     -15.160  -9.340   7.205  1.00  0.00     0.040 A 
ATOM     81  F   UNL     1     -14.018  -7.526   6.252  1.00  0.00    -0.206 F 
ATOM     82  C   UNL     1     -15.146 -10.552   7.892  1.00  0.00     0.006 A 
ENDBRANCH  58  75
ENDBRANCH  32  33
ENDBRANCH  25  27
ENDBRANCH  24  25
ENDBRANCH  23  24
ENDBRANCH  22  23
ENDBRANCH  21  22
ENDBRANCH   1  21
TORSDOF 18
