REMARK SMILES O=C(Cc1ccc(-c2ccn(C(F)F)c(=O)c2)cc1)OCCOC(=O)c1ccc(-c2c3nc(c(-c4c(F)cccc4F)c4ccc([nH]4)c(-c4c(F)cccc4F)c4nc(c(-c5c(F)cccc5F)c5ccc2[nH]5)C=C4)C=C3)cc1
REMARK SMILES IDX 21 1 20 2 2 3 1 4 3 5 4 6 5 7 19 8 6 9 18 10 7 11 8 12 9 13
REMARK SMILES IDX 17 14 10 15 15 16 11 17 16 18 12 19 13 20 14 21 22 22 23 23
REMARK SMILES IDX 24 24 25 25 26 26 27 27 79 28 28 29 78 30 29 31 30 32 31 33
REMARK SMILES IDX 72 34 32 35 77 36 71 37 73 38 33 39 76 40 70 41 69 42 34 44
REMARK SMILES IDX 60 45 43 46 59 47 44 48 47 49 58 50 74 51 45 52 46 53 57 55
REMARK SMILES IDX 75 56 48 57 35 58 36 59 41 60 37 61 38 62 40 63 42 64 39 65
REMARK SMILES IDX 61 66 62 67 67 68 63 69 64 70 66 71 68 72 65 73 49 74 50 75
REMARK SMILES IDX 55 76 51 77 52 78 54 79 56 80 53 81
REMARK H PARENT 73 43 47 54
REMARK Flexibility Score: inf
ROOT
ATOM      1  C   UNL     1       4.226   0.862  -0.824  1.00  0.00     0.274 C 
ENDROOT
BRANCH   1   2
ATOM      2  O   UNL     1       2.853   0.428  -0.912  1.00  0.00    -0.462 OA
BRANCH   2   3
ATOM      3  C   UNL     1       2.353  -0.657  -0.271  1.00  0.00     0.310 C 
ATOM      4  O   UNL     1       1.377  -1.250  -0.727  1.00  0.00    -0.252 OA
BRANCH   3   5
ATOM      5  C   UNL     1       2.951  -1.055   1.060  1.00  0.00     0.158 C 
BRANCH   5   6
ATOM      6  C   UNL     1       3.903  -2.216   1.019  1.00  0.00    -0.037 A 
ATOM      7  C   UNL     1       3.433  -3.514   0.806  1.00  0.00     0.005 A 
ATOM      8  C   UNL     1       5.275  -2.004   1.209  1.00  0.00     0.005 A 
ATOM      9  C   UNL     1       4.331  -4.578   0.730  1.00  0.00     0.009 A 
ATOM     10  C   UNL     1       6.174  -3.061   1.103  1.00  0.00     0.009 A 
ATOM     11  C   UNL     1       5.710  -4.354   0.844  1.00  0.00    -0.018 A 
BRANCH  11  12
ATOM     12  C   UNL     1       6.683  -5.440   0.637  1.00  0.00    -0.011 A 
ATOM     13  C   UNL     1       7.730  -5.763   1.586  1.00  0.00     0.027 A 
ATOM     14  C   UNL     1       6.631  -6.104  -0.531  1.00  0.00     0.080 A 
ATOM     15  C   UNL     1       8.642  -6.699   1.297  1.00  0.00     0.095 A 
ATOM     16  C   UNL     1       7.622  -7.161  -0.858  1.00  0.00     0.255 A 
ATOM     17  N   UNL     1       8.598  -7.388   0.099  1.00  0.00    -0.258 N 
ATOM     18  O   UNL     1       7.521  -7.744  -1.932  1.00  0.00    -0.269 OA
BRANCH  17  19
ATOM     19  C   UNL     1       9.586  -8.386  -0.212  1.00  0.00     0.451 C 
ATOM     20  F   UNL     1       9.011  -9.596  -0.413  1.00  0.00    -0.185 F 
ATOM     21  F   UNL     1      10.274  -8.055  -1.332  1.00  0.00    -0.185 F 
ENDBRANCH  17  19
ENDBRANCH  11  12
ENDBRANCH   5   6
ENDBRANCH   3   5
ENDBRANCH   2   3
ENDBRANCH   1   2
BRANCH   1  22
ATOM     22  C   UNL     1       4.368   2.200  -0.093  1.00  0.00     0.275 C 
BRANCH  22  23
ATOM     23  O   UNL     1       4.001   2.061   1.291  1.00  0.00    -0.458 OA
BRANCH  23  24
ATOM     24  C   UNL     1       2.722   2.406   1.589  1.00  0.00     0.338 C 
ATOM     25  O   UNL     1       1.926   2.961   0.852  1.00  0.00    -0.246 OA
BRANCH  24  26
ATOM     26  C   UNL     1       2.347   1.812   2.894  1.00  0.00     0.060 A 
ATOM     27  C   UNL     1       1.056   1.282   3.019  1.00  0.00     0.016 A 
ATOM     28  C   UNL     1       3.249   1.719   3.961  1.00  0.00     0.016 A 
ATOM     29  C   UNL     1       0.652   0.692   4.217  1.00  0.00     0.010 A 
ATOM     30  C   UNL     1       2.840   1.134   5.165  1.00  0.00     0.010 A 
ATOM     31  C   UNL     1       1.530   0.645   5.308  1.00  0.00    -0.014 A 
BRANCH  31  32
ATOM     32  C   UNL     1       1.014   0.261   6.644  1.00  0.00     0.031 A 
ATOM     33  C   UNL     1       0.536   1.350   7.566  1.00  0.00     0.074 A 
ATOM     34  C   UNL     1       0.939  -1.025   7.031  1.00  0.00     0.049 A 
ATOM     35  N   UNL     1       0.004   1.258   8.758  1.00  0.00    -0.248 NA
ATOM     36  C   UNL     1       0.678   2.730   7.073  1.00  0.00     0.031 C 
ATOM     37  C   UNL     1       1.350  -2.178   6.235  1.00  0.00     0.029 A 
ATOM     38  N   UNL     1       0.483  -1.570   8.207  1.00  0.00    -0.354 N 
ATOM     39  C   UNL     1      -0.266   2.562   9.149  1.00  0.00     0.074 A 
ATOM     40  C   UNL     1       0.202   3.430   8.090  1.00  0.00     0.031 C 
ATOM     41  C   UNL     1       1.132  -3.299   6.948  1.00  0.00     0.029 A 
ATOM     42  C   UNL     1       0.577  -2.939   8.253  1.00  0.00     0.049 A 
ATOM     43  H   UNL     1       0.124  -1.030   8.947  1.00  0.00     0.167 HD
ATOM     44  C   UNL     1      -0.866   3.002  10.280  1.00  0.00     0.037 A 
ATOM     45  C   UNL     1       0.252  -3.800   9.238  1.00  0.00     0.037 A 
ATOM     46  C   UNL     1      -1.320   2.151  11.345  1.00  0.00     0.049 A 
ATOM     47  C   UNL     1      -0.345  -3.280  10.521  1.00  0.00     0.074 A 
ATOM     48  C   UNL     1      -1.954   2.507  12.523  1.00  0.00     0.029 A 
ATOM     49  N   UNL     1      -1.176   0.773  11.368  1.00  0.00    -0.354 N 
ATOM     50  N   UNL     1      -0.649  -2.050  10.856  1.00  0.00    -0.248 NA
ATOM     51  C   UNL     1      -0.651  -4.275  11.561  1.00  0.00     0.031 C 
ATOM     52  C   UNL     1      -2.155   1.347  13.278  1.00  0.00     0.029 A 
ATOM     53  C   UNL     1      -1.686   0.265  12.551  1.00  0.00     0.049 A 
ATOM     54  H   UNL     1      -0.772   0.235  10.649  1.00  0.00     0.167 HD
ATOM     55  C   UNL     1      -1.213  -2.128  12.124  1.00  0.00     0.074 A 
ATOM     56  C   UNL     1      -1.213  -3.526  12.499  1.00  0.00     0.031 C 
ATOM     57  C   UNL     1      -1.693  -1.130  12.907  1.00  0.00     0.037 A 
BRANCH  44  58
ATOM     58  C   UNL     1      -1.051   4.481  10.419  1.00  0.00     0.057 A 
ATOM     59  C   UNL     1      -2.013   5.174   9.671  1.00  0.00     0.134 A 
ATOM     60  C   UNL     1      -0.268   5.220  11.314  1.00  0.00     0.134 A 
ATOM     61  F   UNL     1      -2.780   4.524   8.783  1.00  0.00    -0.206 F 
ATOM     62  C   UNL     1      -2.174   6.554   9.793  1.00  0.00     0.040 A 
ATOM     63  C   UNL     1      -0.436   6.597  11.461  1.00  0.00     0.040 A 
ATOM     64  F   UNL     1       0.670   4.615  12.057  1.00  0.00    -0.206 F 
ATOM     65  C   UNL     1      -1.387   7.269  10.695  1.00  0.00     0.006 A 
ENDBRANCH  44  58
BRANCH  45  66
ATOM     66  C   UNL     1       0.471  -5.257   9.060  1.00  0.00     0.057 A 
ATOM     67  C   UNL     1      -0.607  -6.139   8.923  1.00  0.00     0.134 A 
ATOM     68  C   UNL     1       1.758  -5.806   9.077  1.00  0.00     0.134 A 
ATOM     69  F   UNL     1      -1.864  -5.674   8.930  1.00  0.00    -0.206 F 
ATOM     70  C   UNL     1      -0.414  -7.519   8.829  1.00  0.00     0.040 A 
ATOM     71  C   UNL     1       1.966  -7.182   8.963  1.00  0.00     0.040 A 
ATOM     72  F   UNL     1       2.832  -5.014   9.210  1.00  0.00    -0.206 F 
ATOM     73  C   UNL     1       0.877  -8.043   8.847  1.00  0.00     0.006 A 
ENDBRANCH  45  66
BRANCH  57  74
ATOM     74  C   UNL     1      -2.294  -1.512  14.228  1.00  0.00     0.057 A 
ATOM     75  C   UNL     1      -1.504  -1.916  15.312  1.00  0.00     0.134 A 
ATOM     76  C   UNL     1      -3.678  -1.429  14.431  1.00  0.00     0.134 A 
ATOM     77  F   UNL     1      -0.174  -2.027  15.179  1.00  0.00    -0.206 F 
ATOM     78  C   UNL     1      -2.072  -2.241  16.546  1.00  0.00     0.040 A 
ATOM     79  C   UNL     1      -4.254  -1.728  15.666  1.00  0.00     0.040 A 
ATOM     80  F   UNL     1      -4.490  -1.039  13.437  1.00  0.00    -0.206 F 
ATOM     81  C   UNL     1      -3.450  -2.140  16.727  1.00  0.00     0.006 A 
ENDBRANCH  57  74
ENDBRANCH  31  32
ENDBRANCH  24  26
ENDBRANCH  23  24
ENDBRANCH  22  23
ENDBRANCH   1  22
TORSDOF 14
