REMARK SMILES NS(=O)(=O)c1ccc(-n2nc(C(=O)OCCOC(=O)c3ccc(-c4c5nc(c(-c6c(F)cccc6F)c6ccc([nH]6)c(-c6c(F)cccc6F)c6nc(c(-c7c(F)cccc7F)c7ccc4[nH]7)C=C6)C=C5)cc3)cc2-c2cc3ccccc3s2)cc1
REMARK SMILES IDX 15 1 14 2 12 3 13 4 11 5 9 6 10 7 75 8 74 9 8 10 5 11 6 12
REMARK SMILES IDX 86 13 7 14 85 15 2 16 3 17 4 18 1 19 76 22 77 23 84 24 78 25
REMARK SMILES IDX 83 26 79 27 82 28 80 29 81 30 16 31 17 32 18 33 19 34 20 35
REMARK SMILES IDX 21 36 73 37 22 38 72 39 23 40 24 41 25 42 66 43 26 44 71 45
REMARK SMILES IDX 65 46 67 47 27 48 70 49 64 50 63 51 28 53 54 54 37 55 53 56
REMARK SMILES IDX 38 57 41 58 52 59 68 60 39 61 40 62 51 64 69 65 42 66 29 67
REMARK SMILES IDX 30 68 35 69 31 70 32 71 34 72 36 73 33 74 55 75 56 76 61 77
REMARK SMILES IDX 57 78 58 79 60 80 62 81 59 82 43 83 44 84 49 85 45 86 46 87
REMARK SMILES IDX 48 88 50 89 47 90
REMARK H PARENT 1 20 1 21 67 52 41 63
REMARK Flexibility Score: inf
ROOT
ATOM      1  C   UNL     1       4.718 -10.035  -6.403  1.00  0.00     0.275 C 
ENDROOT
BRANCH   1   2
ATOM      2  O   UNL     1       3.769  -9.169  -5.756  1.00  0.00    -0.457 OA
BRANCH   2   3
ATOM      3  C   UNL     1       4.151  -8.540  -4.591  1.00  0.00     0.358 C 
ATOM      4  O   UNL     1       5.137  -8.856  -3.936  1.00  0.00    -0.244 OA
BRANCH   3   5
ATOM      5  C   UNL     1       3.241  -7.427  -4.273  1.00  0.00     0.171 A 
ATOM      6  N   UNL     1       2.047  -6.085  -3.127  1.00  0.00    -0.231 N 
ATOM      7  N   UNL     1       3.294  -6.637  -3.180  1.00  0.00    -0.160 NA
ATOM      8  C   UNL     1       1.252  -6.543  -4.150  1.00  0.00     0.085 A 
ATOM      9  C   UNL     1       2.142  -7.054  -5.073  1.00  0.00     0.068 A 
BRANCH   6  10
ATOM     10  C   UNL     1       1.738  -5.055  -2.220  1.00  0.00     0.065 A 
ATOM     11  C   UNL     1       1.068  -2.954  -0.541  1.00  0.00     0.082 A 
ATOM     12  C   UNL     1       0.398  -4.180  -0.427  1.00  0.00     0.024 A 
ATOM     13  C   UNL     1       2.070  -2.771  -1.500  1.00  0.00     0.024 A 
ATOM     14  C   UNL     1       0.720  -5.233  -1.283  1.00  0.00     0.030 A 
ATOM     15  C   UNL     1       2.424  -3.837  -2.330  1.00  0.00     0.030 A 
BRANCH  11  16
ATOM     16  S   UNL     1       0.601  -1.654   0.563  1.00  0.00     0.238 S 
ATOM     17  O   UNL     1       1.272  -1.864   1.820  1.00  0.00    -0.207 OA
ATOM     18  O   UNL     1      -0.830  -1.464   0.459  1.00  0.00    -0.207 OA
BRANCH  16  19
ATOM     19  N   UNL     1       1.275  -0.260  -0.091  1.00  0.00    -0.225 NA
ATOM     20  H   UNL     1       1.044   0.539   0.500  1.00  0.00     0.137 HD
ATOM     21  H   UNL     1       0.901  -0.109  -1.028  1.00  0.00     0.137 HD
ENDBRANCH  16  19
ENDBRANCH  11  16
ENDBRANCH   6  10
BRANCH   8  22
ATOM     22  C   UNL     1      -0.172  -6.757  -4.204  1.00  0.00     0.054 A 
ATOM     23  C   UNL     1      -1.021  -6.363  -5.234  1.00  0.00     0.031 A 
ATOM     24  S   UNL     1      -0.670  -8.415  -3.883  1.00  0.00    -0.134 S 
ATOM     25  C   UNL     1      -0.991  -7.442  -6.215  1.00  0.00    -0.007 A 
ATOM     26  C   UNL     1      -0.605  -8.649  -5.610  1.00  0.00     0.035 A 
ATOM     27  C   UNL     1      -1.107  -7.413  -7.622  1.00  0.00     0.009 A 
ATOM     28  C   UNL     1      -0.195  -9.768  -6.349  1.00  0.00     0.019 A 
ATOM     29  C   UNL     1      -0.662  -8.510  -8.370  1.00  0.00     0.001 A 
ATOM     30  C   UNL     1      -0.176  -9.653  -7.741  1.00  0.00     0.001 A 
ENDBRANCH   8  22
ENDBRANCH   3   5
ENDBRANCH   2   3
ENDBRANCH   1   2
BRANCH   1  31
ATOM     31  C   UNL     1       5.614  -9.244  -7.350  1.00  0.00     0.275 C 
BRANCH  31  32
ATOM     32  O   UNL     1       6.436  -8.366  -6.592  1.00  0.00    -0.458 OA
BRANCH  32  33
ATOM     33  C   UNL     1       5.911  -7.143  -6.358  1.00  0.00     0.338 C 
ATOM     34  O   UNL     1       4.834  -6.721  -6.748  1.00  0.00    -0.246 OA
BRANCH  33  35
ATOM     35  C   UNL     1       6.903  -6.324  -5.658  1.00  0.00     0.060 A 
ATOM     36  C   UNL     1       6.552  -4.986  -5.468  1.00  0.00     0.016 A 
ATOM     37  C   UNL     1       8.232  -6.766  -5.666  1.00  0.00     0.016 A 
ATOM     38  C   UNL     1       7.536  -4.048  -5.650  1.00  0.00     0.010 A 
ATOM     39  C   UNL     1       9.206  -5.832  -5.873  1.00  0.00     0.010 A 
ATOM     40  C   UNL     1       8.815  -4.501  -5.983  1.00  0.00    -0.014 A 
BRANCH  40  41
ATOM     41  C   UNL     1       9.787  -3.533  -6.420  1.00  0.00     0.031 A 
ATOM     42  C   UNL     1      10.333  -2.750  -5.297  1.00  0.00     0.074 A 
ATOM     43  C   UNL     1      10.209  -3.488  -7.696  1.00  0.00     0.049 A 
ATOM     44  N   UNL     1      10.166  -1.494  -5.053  1.00  0.00    -0.248 NA
ATOM     45  C   UNL     1      10.967  -3.504  -4.202  1.00  0.00     0.031 C 
ATOM     46  C   UNL     1       9.918  -4.412  -8.796  1.00  0.00     0.029 A 
ATOM     47  N   UNL     1      11.105  -2.631  -8.247  1.00  0.00    -0.354 N 
ATOM     48  C   UNL     1      10.868  -1.261  -3.878  1.00  0.00     0.074 A 
ATOM     49  C   UNL     1      11.138  -2.546  -3.293  1.00  0.00     0.031 C 
ATOM     50  C   UNL     1      10.802  -4.202  -9.800  1.00  0.00     0.029 A 
ATOM     51  C   UNL     1      11.626  -3.056  -9.463  1.00  0.00     0.049 A 
ATOM     52  H   UNL     1      11.364  -1.782  -7.822  1.00  0.00     0.167 HD
ATOM     53  C   UNL     1      11.432  -0.051  -3.629  1.00  0.00     0.037 A 
ATOM     54  C   UNL     1      12.739  -2.541 -10.043  1.00  0.00     0.037 A 
ATOM     55  C   UNL     1      10.842   0.983  -4.439  1.00  0.00     0.049 A 
ATOM     56  C   UNL     1      12.968  -1.200  -9.429  1.00  0.00     0.074 A 
ATOM     57  C   UNL     1       9.561   1.482  -4.581  1.00  0.00     0.029 A 
ATOM     58  N   UNL     1      11.527   1.393  -5.557  1.00  0.00    -0.354 N 
ATOM     59  N   UNL     1      12.162  -0.185  -9.596  1.00  0.00    -0.248 NA
ATOM     60  C   UNL     1      13.798  -1.146  -8.231  1.00  0.00     0.031 C 
ATOM     61  C   UNL     1       9.414   1.728  -5.978  1.00  0.00     0.029 A 
ATOM     62  C   UNL     1      10.629   1.428  -6.595  1.00  0.00     0.049 A 
ATOM     63  H   UNL     1      12.484   1.620  -5.606  1.00  0.00     0.167 HD
ATOM     64  C   UNL     1      12.078   0.416  -8.346  1.00  0.00     0.074 A 
ATOM     65  C   UNL     1      13.149  -0.191  -7.557  1.00  0.00     0.031 C 
ATOM     66  C   UNL     1      10.973   1.125  -7.965  1.00  0.00     0.037 A 
BRANCH  53  67
ATOM     67  C   UNL     1      12.768   0.099  -2.954  1.00  0.00     0.057 A 
ATOM     68  C   UNL     1      13.193   1.377  -2.561  1.00  0.00     0.134 A 
ATOM     69  C   UNL     1      13.765  -0.902  -2.929  1.00  0.00     0.134 A 
ATOM     70  F   UNL     1      12.343   2.415  -2.565  1.00  0.00    -0.206 F 
ATOM     71  C   UNL     1      14.524   1.650  -2.230  1.00  0.00     0.040 A 
ATOM     72  C   UNL     1      15.082  -0.652  -2.544  1.00  0.00     0.040 A 
ATOM     73  F   UNL     1      13.553  -2.147  -3.372  1.00  0.00    -0.206 F 
ATOM     74  C   UNL     1      15.475   0.636  -2.225  1.00  0.00     0.006 A 
ENDBRANCH  53  67
BRANCH  54  75
ATOM     75  C   UNL     1      13.805  -3.294 -10.746  1.00  0.00     0.057 A 
ATOM     76  C   UNL     1      14.758  -2.642 -11.540  1.00  0.00     0.134 A 
ATOM     77  C   UNL     1      14.074  -4.644 -10.449  1.00  0.00     0.134 A 
ATOM     78  F   UNL     1      14.621  -1.341 -11.835  1.00  0.00    -0.206 F 
ATOM     79  C   UNL     1      15.912  -3.292 -12.005  1.00  0.00     0.040 A 
ATOM     80  C   UNL     1      15.216  -5.305 -10.911  1.00  0.00     0.040 A 
ATOM     81  F   UNL     1      13.281  -5.346  -9.626  1.00  0.00    -0.206 F 
ATOM     82  C   UNL     1      16.147  -4.626 -11.684  1.00  0.00     0.006 A 
ENDBRANCH  54  75
BRANCH  66  83
ATOM     83  C   UNL     1       9.915   1.397  -9.001  1.00  0.00     0.057 A 
ATOM     84  C   UNL     1       9.145   0.394  -9.613  1.00  0.00     0.134 A 
ATOM     85  C   UNL     1       9.537   2.719  -9.252  1.00  0.00     0.134 A 
ATOM     86  F   UNL     1       9.363  -0.900  -9.351  1.00  0.00    -0.206 F 
ATOM     87  C   UNL     1       8.076   0.694 -10.463  1.00  0.00     0.040 A 
ATOM     88  C   UNL     1       8.451   3.033 -10.074  1.00  0.00     0.040 A 
ATOM     89  F   UNL     1      10.184   3.731  -8.654  1.00  0.00    -0.206 F 
ATOM     90  C   UNL     1       7.721   2.019 -10.690  1.00  0.00     0.006 A 
ENDBRANCH  66  83
ENDBRANCH  40  41
ENDBRANCH  33  35
ENDBRANCH  32  33
ENDBRANCH  31  32
ENDBRANCH   1  31
TORSDOF 15
