REMARK SMILES Cc1ccc(C(=O)OCCOC(=O)c2ccc(-c3c4nc(c(-c5c(F)cccc5F)c5ccc([nH]5)c(-c5c(F)cccc5F)c5nc(c(-c6c(F)cccc6F)c6ccc3[nH]6)C=C5)C=C4)cc2)c2c1N[C@H](c1ccccc1F)[C@H]1CC=C[C@@H]21
REMARK SMILES IDX 10 1 9 2 8 3 6 4 7 5 5 6 1 7 2 8 3 9 69 10 4 11 68 12 70 13
REMARK SMILES IDX 83 14 71 15 79 17 82 18 80 19 81 20 72 21 73 22 77 23 74 24
REMARK SMILES IDX 76 25 78 26 75 27 11 28 12 29 13 30 14 31 15 32 67 33 16 34
REMARK SMILES IDX 66 35 17 36 18 37 19 38 60 39 20 40 65 41 59 42 61 43 21 44
REMARK SMILES IDX 64 45 58 46 57 47 22 49 48 50 31 51 47 52 32 53 35 54 46 55
REMARK SMILES IDX 62 56 33 57 34 58 45 60 63 61 36 62 23 63 24 64 29 65 25 66
REMARK SMILES IDX 26 67 28 68 30 69 27 70 49 71 50 72 55 73 51 74 52 75 54 76
REMARK SMILES IDX 56 77 53 78 37 79 38 80 43 81 39 82 40 83 42 84 44 85 41 86
REMARK H PARENT 70 16 61 48 35 59
REMARK Flexibility Score: inf
ROOT
ATOM      1  C   UNL     1      -0.034  -2.336   7.807  1.00  0.00     0.275 C 
ENDROOT
BRANCH   1   2
ATOM      2  C   UNL     1      -0.808  -2.993   6.665  1.00  0.00     0.275 C 
BRANCH   2   3
ATOM      3  O   UNL     1      -0.373  -2.470   5.391  1.00  0.00    -0.458 OA
BRANCH   3   4
ATOM      4  C   UNL     1      -1.218  -1.603   4.769  1.00  0.00     0.338 C 
ATOM      5  O   UNL     1      -2.283  -1.221   5.220  1.00  0.00    -0.246 OA
BRANCH   4   6
ATOM      6  C   UNL     1      -0.632  -1.178   3.455  1.00  0.00     0.065 A 
ATOM      7  C   UNL     1       1.313  -0.209  -0.275  1.00  0.00     0.046 C 
ATOM      8  C   UNL     1       0.628  -0.493   1.036  1.00  0.00    -0.028 A 
ATOM      9  C   UNL     1       0.695  -1.803   1.530  1.00  0.00     0.006 A 
ATOM     10  C   UNL     1      -0.046   0.506   1.773  1.00  0.00     0.042 A 
ATOM     11  C   UNL     1       0.091  -2.138   2.736  1.00  0.00     0.016 A 
ATOM     12  C   UNL     1      -0.763   0.142   2.941  1.00  0.00    -0.003 A 
ATOM     13  N   UNL     1       0.004   1.833   1.358  1.00  0.00    -0.377 N 
ATOM     14  C   UNL     1      -1.579   1.189   3.664  1.00  0.00     0.050 C 
ATOM     15  C   UNL     1      -1.063   2.742   1.716  1.00  0.00     0.117 C 
ATOM     16  H   UNL     1       0.765   2.153   0.822  1.00  0.00     0.161 HD
ATOM     17  C   UNL     1      -1.379   2.650   3.213  1.00  0.00     0.031 C 
ATOM     18  C   UNL     1      -3.075   1.052   3.576  1.00  0.00    -0.023 C 
ATOM     19  C   UNL     1      -2.714   3.364   3.507  1.00  0.00     0.034 C 
ATOM     20  C   UNL     1      -3.691   2.239   3.539  1.00  0.00    -0.030 C 
BRANCH  15  21
ATOM     21  C   UNL     1      -0.767   4.156   1.229  1.00  0.00     0.010 A 
ATOM     22  C   UNL     1      -1.259   4.561  -0.025  1.00  0.00     0.009 A 
ATOM     23  C   UNL     1      -0.116   5.122   2.009  1.00  0.00     0.128 A 
ATOM     24  C   UNL     1      -1.173   5.897  -0.433  1.00  0.00     0.001 A 
ATOM     25  C   UNL     1      -0.049   6.458   1.618  1.00  0.00     0.039 A 
ATOM     26  F   UNL     1       0.446   4.795   3.178  1.00  0.00    -0.207 F 
ATOM     27  C   UNL     1      -0.591   6.850   0.399  1.00  0.00     0.003 A 
ENDBRANCH  15  21
ENDBRANCH   4   6
ENDBRANCH   3   4
ENDBRANCH   2   3
ENDBRANCH   1   2
BRANCH   1  28
ATOM     28  O   UNL     1      -0.419  -0.955   7.900  1.00  0.00    -0.458 OA
BRANCH  28  29
ATOM     29  C   UNL     1       0.578  -0.041   7.979  1.00  0.00     0.338 C 
ATOM     30  O   UNL     1       1.770  -0.271   8.091  1.00  0.00    -0.246 OA
BRANCH  29  31
ATOM     31  C   UNL     1       0.016   1.331   7.868  1.00  0.00     0.060 A 
ATOM     32  C   UNL     1      -1.211   1.553   7.254  1.00  0.00     0.016 A 
ATOM     33  C   UNL     1       0.770   2.432   8.281  1.00  0.00     0.016 A 
ATOM     34  C   UNL     1      -1.603   2.855   6.927  1.00  0.00     0.010 A 
ATOM     35  C   UNL     1       0.314   3.741   8.037  1.00  0.00     0.010 A 
ATOM     36  C   UNL     1      -0.847   3.984   7.281  1.00  0.00    -0.014 A 
BRANCH  36  37
ATOM     37  C   UNL     1      -1.200   5.370   6.787  1.00  0.00     0.031 A 
ATOM     38  C   UNL     1      -0.132   6.279   6.193  1.00  0.00     0.074 A 
ATOM     39  C   UNL     1      -2.469   5.840   6.768  1.00  0.00     0.049 A 
ATOM     40  N   UNL     1      -0.183   7.565   5.926  1.00  0.00    -0.248 NA
ATOM     41  C   UNL     1       1.162   5.665   5.863  1.00  0.00     0.031 C 
ATOM     42  C   UNL     1      -3.663   5.115   7.200  1.00  0.00     0.029 A 
ATOM     43  N   UNL     1      -2.973   7.047   6.326  1.00  0.00    -0.354 N 
ATOM     44  C   UNL     1       1.086   7.918   5.476  1.00  0.00     0.074 A 
ATOM     45  C   UNL     1       1.886   6.713   5.497  1.00  0.00     0.031 C 
ATOM     46  C   UNL     1      -4.755   5.837   6.908  1.00  0.00     0.029 A 
ATOM     47  C   UNL     1      -4.342   7.145   6.415  1.00  0.00     0.049 A 
ATOM     48  H   UNL     1      -2.404   7.772   5.979  1.00  0.00     0.167 HD
ATOM     49  C   UNL     1       1.551   9.127   5.072  1.00  0.00     0.037 A 
ATOM     50  C   UNL     1      -5.184   8.177   6.198  1.00  0.00     0.037 A 
ATOM     51  C   UNL     1       0.759  10.323   4.951  1.00  0.00     0.049 A 
ATOM     52  C   UNL     1      -4.637   9.533   5.853  1.00  0.00     0.074 A 
ATOM     53  C   UNL     1       1.163  11.593   4.567  1.00  0.00     0.029 A 
ATOM     54  N   UNL     1      -0.604  10.395   5.178  1.00  0.00    -0.354 N 
ATOM     55  N   UNL     1      -3.407   9.887   5.579  1.00  0.00    -0.248 NA
ATOM     56  C   UNL     1      -5.599  10.648   5.842  1.00  0.00     0.031 C 
ATOM     57  C   UNL     1       0.049  12.439   4.590  1.00  0.00     0.029 A 
ATOM     58  C   UNL     1      -1.055  11.687   4.952  1.00  0.00     0.049 A 
ATOM     59  H   UNL     1      -1.171   9.640   5.459  1.00  0.00     0.167 HD
ATOM     60  C   UNL     1      -3.447  11.260   5.368  1.00  0.00     0.074 A 
ATOM     61  C   UNL     1      -4.826  11.672   5.511  1.00  0.00     0.031 C 
ATOM     62  C   UNL     1      -2.423  12.104   5.096  1.00  0.00     0.037 A 
BRANCH  49  63
ATOM     63  C   UNL     1       3.016   9.236   4.757  1.00  0.00     0.057 A 
ATOM     64  C   UNL     1       3.878   9.900   5.642  1.00  0.00     0.134 A 
ATOM     65  C   UNL     1       3.565   8.740   3.569  1.00  0.00     0.134 A 
ATOM     66  F   UNL     1       3.411  10.413   6.790  1.00  0.00    -0.206 F 
ATOM     67  C   UNL     1       5.233  10.067   5.354  1.00  0.00     0.040 A 
ATOM     68  C   UNL     1       4.925   8.879   3.283  1.00  0.00     0.040 A 
ATOM     69  F   UNL     1       2.794   8.094   2.683  1.00  0.00    -0.206 F 
ATOM     70  C   UNL     1       5.761   9.550   4.174  1.00  0.00     0.006 A 
ENDBRANCH  49  63
BRANCH  50  71
ATOM     71  C   UNL     1      -6.648   8.006   6.402  1.00  0.00     0.057 A 
ATOM     72  C   UNL     1      -7.185   7.764   7.673  1.00  0.00     0.134 A 
ATOM     73  C   UNL     1      -7.547   8.126   5.336  1.00  0.00     0.134 A 
ATOM     74  F   UNL     1      -6.380   7.656   8.740  1.00  0.00    -0.206 F 
ATOM     75  C   UNL     1      -8.557   7.616   7.872  1.00  0.00     0.040 A 
ATOM     76  C   UNL     1      -8.925   8.016   5.527  1.00  0.00     0.040 A 
ATOM     77  F   UNL     1      -7.099   8.401   4.102  1.00  0.00    -0.206 F 
ATOM     78  C   UNL     1      -9.433   7.750   6.798  1.00  0.00     0.006 A 
ENDBRANCH  50  71
BRANCH  62  79
ATOM     79  C   UNL     1      -2.759  13.555   4.913  1.00  0.00     0.057 A 
ATOM     80  C   UNL     1      -2.739  14.142   3.642  1.00  0.00     0.134 A 
ATOM     81  C   UNL     1      -3.102  14.373   5.997  1.00  0.00     0.134 A 
ATOM     82  F   UNL     1      -2.415  13.416   2.561  1.00  0.00    -0.206 F 
ATOM     83  C   UNL     1      -3.050  15.490   3.455  1.00  0.00     0.040 A 
ATOM     84  C   UNL     1      -3.437  15.717   5.820  1.00  0.00     0.040 A 
ATOM     85  F   UNL     1      -3.157  13.868   7.239  1.00  0.00    -0.206 F 
ATOM     86  C   UNL     1      -3.408  16.280   4.546  1.00  0.00     0.006 A 
ENDBRANCH  62  79
ENDBRANCH  36  37
ENDBRANCH  29  31
ENDBRANCH  28  29
ENDBRANCH   1  28
TORSDOF 12
