REMARK SMILES CCN(C(=O)c1ccc(C)cc1F)[C@@H]1COC[C@@H]1C(=O)OCCOC(=O)c1ccc(-c2c3nc(c(-c4c(F)cccc4F)c4ccc([nH]4)c(-c4c(F)cccc4F)c4nc(c(-c5c(F)cccc5F)c5ccc2[nH]5)C=C4)C=C3)cc1
REMARK SMILES IDX 22 1 21 2 19 3 20 4 18 5 14 6 15 7 16 8 17 9 3 10 2 11 1 12
REMARK SMILES IDX 4 13 5 14 6 15 7 16 12 17 8 18 11 19 13 20 9 21 10 22 23 23
REMARK SMILES IDX 24 24 25 25 26 26 27 27 28 28 80 29 29 30 79 31 30 32 31 33
REMARK SMILES IDX 32 34 73 35 33 36 78 37 72 38 74 39 34 40 77 41 71 42 70 43
REMARK SMILES IDX 35 45 61 46 44 47 60 48 45 49 48 50 59 51 75 52 46 53 47 54
REMARK SMILES IDX 58 56 76 57 49 58 36 59 37 60 42 61 38 62 39 63 41 64 43 65
REMARK SMILES IDX 40 66 62 67 63 68 68 69 64 70 65 71 67 72 69 73 66 74 50 75
REMARK SMILES IDX 51 76 56 77 52 78 53 79 55 80 57 81 54 82
REMARK H PARENT 74 44 48 55
REMARK Flexibility Score: inf
ROOT
ATOM      1  C   UNL     1      -0.060   2.372   5.620  1.00  0.00     0.274 C 
ENDROOT
BRANCH   1   2
ATOM      2  O   UNL     1       0.566   1.758   4.477  1.00  0.00    -0.462 OA
BRANCH   2   3
ATOM      3  C   UNL     1       1.915   1.691   4.477  1.00  0.00     0.313 C 
ATOM      4  O   UNL     1       2.595   1.971   5.460  1.00  0.00    -0.252 OA
BRANCH   3   5
ATOM      5  C   UNL     1       2.513   1.402   3.108  1.00  0.00     0.150 C 
ATOM      6  C   UNL     1       2.065   0.238   2.216  1.00  0.00     0.127 C 
ATOM      7  C   UNL     1       2.759  -0.959   2.862  1.00  0.00     0.186 C 
ATOM      8  O   UNL     1       3.957  -0.467   3.476  1.00  0.00    -0.378 OA
ATOM      9  C   UNL     1       3.967   0.967   3.334  1.00  0.00     0.177 C 
BRANCH   6  10
ATOM     10  N   UNL     1       0.680  -0.044   1.803  1.00  0.00    -0.333 N 
BRANCH  10  11
ATOM     11  C   UNL     1       0.539  -0.955   0.648  1.00  0.00     0.117 C 
ATOM     12  C   UNL     1       0.958  -0.305  -0.669  1.00  0.00     0.027 C 
ENDBRANCH  10  11
BRANCH  10  13
ATOM     13  C   UNL     1      -0.319   0.919   1.992  1.00  0.00     0.257 C 
ATOM     14  O   UNL     1      -0.038   2.114   1.924  1.00  0.00    -0.269 OA
BRANCH  13  15
ATOM     15  C   UNL     1      -1.732   0.473   2.259  1.00  0.00     0.075 A 
ATOM     16  C   UNL     1      -2.116  -0.874   2.365  1.00  0.00     0.017 A 
ATOM     17  C   UNL     1      -2.728   1.439   2.425  1.00  0.00     0.136 A 
ATOM     18  C   UNL     1      -3.469  -1.237   2.448  1.00  0.00     0.004 A 
ATOM     19  C   UNL     1      -4.075   1.083   2.550  1.00  0.00     0.043 A 
ATOM     20  F   UNL     1      -2.437   2.746   2.487  1.00  0.00    -0.206 F 
ATOM     21  C   UNL     1      -4.463  -0.258   2.497  1.00  0.00    -0.048 A 
ATOM     22  C   UNL     1      -5.916  -0.626   2.537  1.00  0.00     0.044 C 
ENDBRANCH  13  15
ENDBRANCH  10  13
ENDBRANCH   6  10
ENDBRANCH   3   5
ENDBRANCH   2   3
ENDBRANCH   1   2
BRANCH   1  23
ATOM     23  C   UNL     1      -0.847   1.336   6.410  1.00  0.00     0.275 C 
BRANCH  23  24
ATOM     24  O   UNL     1       0.049   0.318   6.885  1.00  0.00    -0.458 OA
BRANCH  24  25
ATOM     25  C   UNL     1       0.003  -0.851   6.215  1.00  0.00     0.338 C 
ATOM     26  O   UNL     1      -0.775  -1.191   5.333  1.00  0.00    -0.246 OA
BRANCH  25  27
ATOM     27  C   UNL     1       1.087  -1.718   6.681  1.00  0.00     0.060 A 
ATOM     28  C   UNL     1       2.403  -1.408   6.346  1.00  0.00     0.016 A 
ATOM     29  C   UNL     1       0.783  -2.907   7.342  1.00  0.00     0.016 A 
ATOM     30  C   UNL     1       3.419  -2.320   6.604  1.00  0.00     0.010 A 
ATOM     31  C   UNL     1       1.817  -3.778   7.685  1.00  0.00     0.010 A 
ATOM     32  C   UNL     1       3.142  -3.501   7.302  1.00  0.00    -0.014 A 
BRANCH  32  33
ATOM     33  C   UNL     1       4.236  -4.440   7.652  1.00  0.00     0.031 A 
ATOM     34  C   UNL     1       4.223  -5.847   7.129  1.00  0.00     0.074 A 
ATOM     35  C   UNL     1       5.223  -4.030   8.470  1.00  0.00     0.049 A 
ATOM     36  N   UNL     1       4.955  -6.869   7.490  1.00  0.00    -0.248 NA
ATOM     37  C   UNL     1       3.245  -6.152   6.072  1.00  0.00     0.031 C 
ATOM     38  C   UNL     1       5.363  -2.678   9.018  1.00  0.00     0.029 A 
ATOM     39  N   UNL     1       6.290  -4.713   8.996  1.00  0.00    -0.354 N 
ATOM     40  C   UNL     1       4.493  -7.948   6.748  1.00  0.00     0.074 A 
ATOM     41  C   UNL     1       3.422  -7.456   5.908  1.00  0.00     0.031 C 
ATOM     42  C   UNL     1       6.458  -2.627   9.790  1.00  0.00     0.029 A 
ATOM     43  C   UNL     1       7.050  -3.958   9.855  1.00  0.00     0.049 A 
ATOM     44  H   UNL     1       6.491  -5.652   8.778  1.00  0.00     0.167 HD
ATOM     45  C   UNL     1       4.922  -9.232   6.779  1.00  0.00     0.037 A 
ATOM     46  C   UNL     1       8.078  -4.307  10.649  1.00  0.00     0.037 A 
ATOM     47  C   UNL     1       6.021  -9.698   7.584  1.00  0.00     0.049 A 
ATOM     48  C   UNL     1       8.534  -5.735  10.663  1.00  0.00     0.074 A 
ATOM     49  C   UNL     1       6.549 -10.974   7.669  1.00  0.00     0.029 A 
ATOM     50  N   UNL     1       6.771  -8.897   8.432  1.00  0.00    -0.354 N 
ATOM     51  N   UNL     1       8.060  -6.757   9.993  1.00  0.00    -0.248 NA
ATOM     52  C   UNL     1       9.653  -6.063  11.555  1.00  0.00     0.031 C 
ATOM     53  C   UNL     1       7.602 -10.951   8.591  1.00  0.00     0.029 A 
ATOM     54  C   UNL     1       7.751  -9.654   9.053  1.00  0.00     0.049 A 
ATOM     55  H   UNL     1       6.628  -7.933   8.573  1.00  0.00     0.167 HD
ATOM     56  C   UNL     1       8.823  -7.849  10.378  1.00  0.00     0.074 A 
ATOM     57  C   UNL     1       9.807  -7.360  11.324  1.00  0.00     0.031 C 
ATOM     58  C   UNL     1       8.716  -9.143   9.992  1.00  0.00     0.037 A 
BRANCH  45  59
ATOM     59  C   UNL     1       4.181 -10.235   5.946  1.00  0.00     0.057 A 
ATOM     60  C   UNL     1       4.334 -10.310   4.557  1.00  0.00     0.134 A 
ATOM     61  C   UNL     1       3.337 -11.173   6.556  1.00  0.00     0.134 A 
ATOM     62  F   UNL     1       5.115  -9.431   3.910  1.00  0.00    -0.206 F 
ATOM     63  C   UNL     1       3.666 -11.276   3.801  1.00  0.00     0.040 A 
ATOM     64  C   UNL     1       2.680 -12.156   5.814  1.00  0.00     0.040 A 
ATOM     65  F   UNL     1       3.149 -11.157   7.884  1.00  0.00    -0.206 F 
ATOM     66  C   UNL     1       2.842 -12.207   4.431  1.00  0.00     0.006 A 
ENDBRANCH  45  59
BRANCH  46  67
ATOM     67  C   UNL     1       8.706  -3.289  11.526  1.00  0.00     0.057 A 
ATOM     68  C   UNL     1       9.992  -2.805  11.268  1.00  0.00     0.134 A 
ATOM     69  C   UNL     1       8.024  -2.758  12.628  1.00  0.00     0.134 A 
ATOM     70  F   UNL     1      10.703  -3.292  10.240  1.00  0.00    -0.206 F 
ATOM     71  C   UNL     1      10.581  -1.832  12.076  1.00  0.00     0.040 A 
ATOM     72  C   UNL     1       8.590  -1.766  13.430  1.00  0.00     0.040 A 
ATOM     73  F   UNL     1       6.785  -3.178  12.925  1.00  0.00    -0.206 F 
ATOM     74  C   UNL     1       9.875  -1.303  13.156  1.00  0.00     0.006 A 
ENDBRANCH  46  67
BRANCH  58  75
ATOM     75  C   UNL     1       9.698 -10.106  10.583  1.00  0.00     0.057 A 
ATOM     76  C   UNL     1       9.571 -10.565  11.899  1.00  0.00     0.134 A 
ATOM     77  C   UNL     1      10.769 -10.590   9.823  1.00  0.00     0.134 A 
ATOM     78  F   UNL     1       8.573 -10.124  12.681  1.00  0.00    -0.206 F 
ATOM     79  C   UNL     1      10.490 -11.461  12.447  1.00  0.00     0.040 A 
ATOM     80  C   UNL     1      11.683 -11.500  10.354  1.00  0.00     0.040 A 
ATOM     81  F   UNL     1      10.940 -10.190   8.554  1.00  0.00    -0.206 F 
ATOM     82  C   UNL     1      11.547 -11.934  11.672  1.00  0.00     0.006 A 
ENDBRANCH  58  75
ENDBRANCH  32  33
ENDBRANCH  25  27
ENDBRANCH  24  25
ENDBRANCH  23  24
ENDBRANCH   1  23
TORSDOF 15
