REMARK SMILES O=C(COc1ccc(N2C[C@@H](C(=O)OCCOC(=O)c3ccc(-c4c5nc(c(-c6c(F)cccc6F)c6ccc([nH]6)c(-c6c(F)cccc6F)c6nc(c(-c7c(F)cccc7F)c7ccc4[nH]7)C=C6)C=C5)cc3)CC2=O)cc1)Nc1ccc(Cl)cc1Cl
REMARK SMILES IDX 14 1 12 2 13 3 11 4 9 5 10 6 75 7 74 8 76 9 8 10 5 11 6 12
REMARK SMILES IDX 78 13 7 14 77 15 4 16 3 17 2 18 1 19 79 20 80 22 81 23 86 24
REMARK SMILES IDX 82 25 85 26 87 27 83 28 84 29 15 30 16 31 17 32 18 33 19 34
REMARK SMILES IDX 20 35 21 36 73 37 22 38 72 39 23 40 24 41 25 42 66 43 26 44
REMARK SMILES IDX 71 45 65 46 67 47 27 48 70 49 64 50 63 51 28 53 54 54 37 55
REMARK SMILES IDX 53 56 38 57 41 58 52 59 68 60 39 61 40 62 51 64 69 65 42 66
REMARK SMILES IDX 29 67 30 68 35 69 31 70 32 71 34 72 36 73 33 74 55 75 56 76
REMARK SMILES IDX 61 77 57 78 58 79 60 80 62 81 59 82 43 83 44 84 49 85 45 86
REMARK SMILES IDX 46 87 48 88 50 89 47 90
REMARK H PARENT 79 21 67 52 41 63
REMARK Flexibility Score: inf
ROOT
ATOM      1  O   UNL     1      -1.674  -0.501   8.932  1.00  0.00    -0.462 OA
ENDROOT
BRANCH   1   2
ATOM      2  C   UNL     1      -0.525   0.215   8.908  1.00  0.00     0.311 C 
ATOM      3  O   UNL     1      -0.368   1.312   9.429  1.00  0.00    -0.252 OA
BRANCH   2   4
ATOM      4  C   UNL     1       0.592  -0.496   8.193  1.00  0.00     0.128 C 
ATOM      5  N   UNL     1       1.577  -0.714   6.106  1.00  0.00    -0.312 N 
ATOM      6  C   UNL     1       1.015   0.287   6.973  1.00  0.00     0.141 C 
ATOM      7  C   UNL     1       1.198  -2.007   6.484  1.00  0.00     0.227 C 
ATOM      8  C   UNL     1       0.302  -1.896   7.683  1.00  0.00     0.117 C 
ATOM      9  O   UNL     1       1.496  -3.073   5.966  1.00  0.00    -0.274 OA
BRANCH   5  10
ATOM     10  C   UNL     1       2.227  -0.384   4.901  1.00  0.00     0.044 A 
ATOM     11  C   UNL     1       3.383   0.283   2.433  1.00  0.00     0.120 A 
ATOM     12  C   UNL     1       3.611   1.090   3.542  1.00  0.00     0.048 A 
ATOM     13  C   UNL     1       2.626  -0.875   2.569  1.00  0.00     0.048 A 
ATOM     14  C   UNL     1       3.012   0.771   4.770  1.00  0.00     0.030 A 
ATOM     15  C   UNL     1       2.056  -1.206   3.789  1.00  0.00     0.030 A 
BRANCH  11  16
ATOM     16  O   UNL     1       3.979   0.591   1.239  1.00  0.00    -0.484 OA
BRANCH  16  17
ATOM     17  C   UNL     1       3.042   1.141   0.305  1.00  0.00     0.329 C 
BRANCH  17  18
ATOM     18  C   UNL     1       2.135   0.105  -0.373  1.00  0.00     0.262 C 
ATOM     19  O   UNL     1       0.933   0.310  -0.508  1.00  0.00    -0.271 OA
ATOM     20  N   UNL     1       2.818  -1.066  -0.688  1.00  0.00    -0.322 N 
ATOM     21  H   UNL     1       3.801  -1.047  -0.648  1.00  0.00     0.170 HD
BRANCH  20  22
ATOM     22  C   UNL     1       2.197  -2.282  -1.061  1.00  0.00     0.060 A 
ATOM     23  C   UNL     1       2.696  -3.432  -0.424  1.00  0.00     0.029 A 
ATOM     24  C   UNL     1       1.124  -2.420  -1.958  1.00  0.00     0.066 A 
ATOM     25  C   UNL     1       2.077  -4.672  -0.596  1.00  0.00     0.023 A 
ATOM     26  C   UNL     1       0.509  -3.667  -2.133  1.00  0.00     0.043 A 
ATOM     27  Cl  UNL     1       0.621  -1.160  -3.031  1.00  0.00    -0.082 Cl
ATOM     28  C   UNL     1       0.976  -4.780  -1.438  1.00  0.00     0.042 A 
ATOM     29  Cl  UNL     1       0.207  -6.305  -1.645  1.00  0.00    -0.084 Cl
ENDBRANCH  20  22
ENDBRANCH  17  18
ENDBRANCH  16  17
ENDBRANCH  11  16
ENDBRANCH   5  10
ENDBRANCH   2   4
ENDBRANCH   1   2
BRANCH   1  30
ATOM     30  C   UNL     1      -2.743  -0.004   9.758  1.00  0.00     0.274 C 
BRANCH  30  31
ATOM     31  C   UNL     1      -2.863  -0.836  11.039  1.00  0.00     0.275 C 
BRANCH  31  32
ATOM     32  O   UNL     1      -1.726  -0.648  11.907  1.00  0.00    -0.458 OA
BRANCH  32  33
ATOM     33  C   UNL     1      -0.710  -1.520  11.710  1.00  0.00     0.338 C 
ATOM     34  O   UNL     1      -0.659  -2.428  10.899  1.00  0.00    -0.246 OA
BRANCH  33  35
ATOM     35  C   UNL     1       0.451  -1.136  12.525  1.00  0.00     0.060 A 
ATOM     36  C   UNL     1       1.580  -0.669  11.854  1.00  0.00     0.016 A 
ATOM     37  C   UNL     1       0.487  -1.345  13.902  1.00  0.00     0.016 A 
ATOM     38  C   UNL     1       2.768  -0.447  12.534  1.00  0.00     0.010 A 
ATOM     39  C   UNL     1       1.676  -1.089  14.598  1.00  0.00     0.010 A 
ATOM     40  C   UNL     1       2.827  -0.656  13.914  1.00  0.00    -0.014 A 
BRANCH  40  41
ATOM     41  C   UNL     1       4.118  -0.458  14.612  1.00  0.00     0.031 A 
ATOM     42  C   UNL     1       4.870  -1.641  15.146  1.00  0.00     0.074 A 
ATOM     43  C   UNL     1       4.639   0.780  14.712  1.00  0.00     0.049 A 
ATOM     44  N   UNL     1       5.962  -1.669  15.865  1.00  0.00    -0.248 NA
ATOM     45  C   UNL     1       4.321  -2.969  14.830  1.00  0.00     0.031 C 
ATOM     46  C   UNL     1       4.035   1.998  14.168  1.00  0.00     0.029 A 
ATOM     47  N   UNL     1       5.799   1.215  15.298  1.00  0.00    -0.354 N 
ATOM     48  C   UNL     1       6.212  -3.011  16.120  1.00  0.00     0.074 A 
ATOM     49  C   UNL     1       5.156  -3.767  15.480  1.00  0.00     0.031 C 
ATOM     50  C   UNL     1       4.838   3.040  14.433  1.00  0.00     0.029 A 
ATOM     51  C   UNL     1       5.977   2.574  15.216  1.00  0.00     0.049 A 
ATOM     52  H   UNL     1       6.443   0.611  15.735  1.00  0.00     0.167 HD
ATOM     53  C   UNL     1       7.229  -3.558  16.826  1.00  0.00     0.037 A 
ATOM     54  C   UNL     1       6.934   3.359  15.744  1.00  0.00     0.037 A 
ATOM     55  C   UNL     1       8.294  -2.802  17.430  1.00  0.00     0.049 A 
ATOM     56  C   UNL     1       8.022   2.732  16.568  1.00  0.00     0.074 A 
ATOM     57  C   UNL     1       9.374  -3.264  18.161  1.00  0.00     0.029 A 
ATOM     58  N   UNL     1       8.416  -1.422  17.364  1.00  0.00    -0.354 N 
ATOM     59  N   UNL     1       8.225   1.466  16.840  1.00  0.00    -0.248 NA
ATOM     60  C   UNL     1       9.002   3.644  17.173  1.00  0.00     0.031 C 
ATOM     61  C   UNL     1      10.133  -2.159  18.565  1.00  0.00     0.029 A 
ATOM     62  C   UNL     1       9.544  -1.013  18.054  1.00  0.00     0.049 A 
ATOM     63  H   UNL     1       7.792  -0.822  16.895  1.00  0.00     0.167 HD
ATOM     64  C   UNL     1       9.363   1.426  17.634  1.00  0.00     0.074 A 
ATOM     65  C   UNL     1       9.814   2.794  17.788  1.00  0.00     0.031 C 
ATOM     66  C   UNL     1       9.976   0.354  18.191  1.00  0.00     0.037 A 
BRANCH  53  67
ATOM     67  C   UNL     1       7.214  -5.045  17.015  1.00  0.00     0.057 A 
ATOM     68  C   UNL     1       7.549  -5.929  15.982  1.00  0.00     0.134 A 
ATOM     69  C   UNL     1       6.879  -5.596  18.258  1.00  0.00     0.134 A 
ATOM     70  F   UNL     1       7.862  -5.464  14.764  1.00  0.00    -0.206 F 
ATOM     71  C   UNL     1       7.533  -7.312  16.175  1.00  0.00     0.040 A 
ATOM     72  C   UNL     1       6.880  -6.976  18.469  1.00  0.00     0.040 A 
ATOM     73  F   UNL     1       6.550  -4.803  19.288  1.00  0.00    -0.206 F 
ATOM     74  C   UNL     1       7.203  -7.838  17.424  1.00  0.00     0.006 A 
ENDBRANCH  53  67
BRANCH  54  75
ATOM     75  C   UNL     1       6.885   4.827  15.538  1.00  0.00     0.057 A 
ATOM     76  C   UNL     1       7.820   5.475  14.726  1.00  0.00     0.134 A 
ATOM     77  C   UNL     1       5.900   5.614  16.147  1.00  0.00     0.134 A 
ATOM     78  F   UNL     1       8.799   4.776  14.133  1.00  0.00    -0.206 F 
ATOM     79  C   UNL     1       7.785   6.857  14.532  1.00  0.00     0.040 A 
ATOM     80  C   UNL     1       5.838   6.993  15.944  1.00  0.00     0.040 A 
ATOM     81  F   UNL     1       4.974   5.050  16.936  1.00  0.00    -0.206 F 
ATOM     82  C   UNL     1       6.787   7.619  15.138  1.00  0.00     0.006 A 
ENDBRANCH  54  75
BRANCH  66  83
ATOM     83  C   UNL     1      11.213   0.621  18.992  1.00  0.00     0.057 A 
ATOM     84  C   UNL     1      11.151   1.165  20.280  1.00  0.00     0.134 A 
ATOM     85  C   UNL     1      12.477   0.304  18.480  1.00  0.00     0.134 A 
ATOM     86  F   UNL     1       9.970   1.504  20.819  1.00  0.00    -0.206 F 
ATOM     87  C   UNL     1      12.306   1.402  21.026  1.00  0.00     0.040 A 
ATOM     88  C   UNL     1      13.638   0.517  19.224  1.00  0.00     0.040 A 
ATOM     89  F   UNL     1      12.602  -0.225  17.253  1.00  0.00    -0.206 F 
ATOM     90  C   UNL     1      13.554   1.072  20.499  1.00  0.00     0.006 A 
ENDBRANCH  66  83
ENDBRANCH  40  41
ENDBRANCH  33  35
ENDBRANCH  32  33
ENDBRANCH  31  32
ENDBRANCH  30  31
ENDBRANCH   1  30
TORSDOF 16
