REMARK SMILES Cc1c(C(=O)Nc2ccc(C(=O)Nc3ccccc3C(=O)OCCOC(=O)c3ccc(-c4c5nc(c(-c6c(F)cccc6F)c6ccc([nH]6)c(-c6c(F)cccc6F)c6nc(c(-c7c(F)cccc7F)c7ccc4[nH]7)C=C6)C=C5)cc3)cc2)cccc1[N+](=O)[O-]
REMARK SMILES IDX 22 1 20 2 21 3 19 4 14 5 15 6 16 7 18 8 17 9 13 10 11 11
REMARK SMILES IDX 12 12 10 14 7 15 8 16 83 17 9 18 82 19 6 20 4 21 5 22 3 24
REMARK SMILES IDX 1 25 2 26 87 27 84 28 86 29 85 30 88 31 89 32 90 33 23 34
REMARK SMILES IDX 24 35 25 36 26 37 27 38 28 39 29 40 81 41 30 42 80 43 31 44
REMARK SMILES IDX 32 45 33 46 74 47 34 48 79 49 73 50 75 51 35 52 78 53 72 54
REMARK SMILES IDX 71 55 36 57 62 58 45 59 61 60 46 61 49 62 60 63 76 64 47 65
REMARK SMILES IDX 48 66 59 68 77 69 50 70 37 71 38 72 43 73 39 74 40 75 42 76
REMARK SMILES IDX 44 77 41 78 63 79 64 80 69 81 65 82 66 83 68 84 70 85 67 86
REMARK SMILES IDX 51 87 52 88 57 89 53 90 54 91 56 92 58 93 55 94
REMARK H PARENT 13 13 6 23 75 56 49 67
REMARK Flexibility Score: inf
ROOT
ATOM      1  O   UNL     1       4.213   0.002   2.273  1.00  0.00    -0.458 OA
ENDROOT
BRANCH   1   2
ATOM      2  C   UNL     1       3.470   0.622   3.234  1.00  0.00     0.340 C 
ATOM      3  O   UNL     1       3.182   0.048   4.285  1.00  0.00    -0.246 OA
BRANCH   2   4
ATOM      4  C   UNL     1       2.872   1.992   2.965  1.00  0.00     0.083 A 
ATOM      5  C   UNL     1       3.173   3.006   2.021  1.00  0.00     0.056 A 
ATOM      6  C   UNL     1       2.465   4.237   2.101  1.00  0.00     0.027 A 
ATOM      7  C   UNL     1       1.417   4.451   2.991  1.00  0.00     0.002 A 
ATOM      8  C   UNL     1       1.798   2.258   3.866  1.00  0.00     0.018 A 
ATOM      9  C   UNL     1       1.070   3.448   3.870  1.00  0.00     0.001 A 
BRANCH   5  10
ATOM     10  N   UNL     1       4.046   3.029   0.912  1.00  0.00    -0.321 N 
ATOM     11  C   UNL     1       4.295   2.205  -0.162  1.00  0.00     0.255 C 
ATOM     12  O   UNL     1       5.079   2.623  -1.018  1.00  0.00    -0.269 OA
ATOM     13  H   UNL     1       4.617   3.831   0.905  1.00  0.00     0.170 HD
BRANCH  11  14
ATOM     14  C   UNL     1       3.661   0.892  -0.364  1.00  0.00     0.040 A 
ATOM     15  C   UNL     1       2.508  -1.618  -0.686  1.00  0.00     0.041 A 
ATOM     16  C   UNL     1       2.020  -0.741   0.268  1.00  0.00     0.027 A 
ATOM     17  C   UNL     1       3.686  -1.320  -1.370  1.00  0.00     0.027 A 
ATOM     18  C   UNL     1       2.487   0.555   0.289  1.00  0.00     0.016 A 
ATOM     19  C   UNL     1       4.264  -0.054  -1.204  1.00  0.00     0.016 A 
BRANCH  15  20
ATOM     20  N   UNL     1       1.709  -2.686  -1.106  1.00  0.00    -0.322 N 
ATOM     21  C   UNL     1       0.318  -2.709  -1.163  1.00  0.00     0.256 C 
ATOM     22  O   UNL     1      -0.265  -3.767  -1.392  1.00  0.00    -0.269 OA
ATOM     23  H   UNL     1       2.178  -3.504  -1.391  1.00  0.00     0.170 HD
BRANCH  21  24
ATOM     24  C   UNL     1      -0.504  -1.463  -0.925  1.00  0.00     0.049 A 
ATOM     25  C   UNL     1       0.635  -0.045  -2.717  1.00  0.00     0.053 C 
ATOM     26  C   UNL     1      -0.246  -0.187  -1.502  1.00  0.00     0.039 A 
ATOM     27  C   UNL     1      -0.831   0.943  -0.872  1.00  0.00     0.273 A 
ATOM     28  C   UNL     1      -1.509  -1.600   0.050  1.00  0.00     0.014 A 
ATOM     29  C   UNL     1      -1.821   0.787   0.114  1.00  0.00     0.086 A 
ATOM     30  C   UNL     1      -2.194  -0.486   0.533  1.00  0.00     0.008 A 
BRANCH  27  31
ATOM     31  N   UNL     1      -0.344   2.322  -1.104  1.00  0.00     0.063 N 
ATOM     32  O   UNL     1      -1.098   3.255  -0.792  1.00  0.00    -0.258 OA
ATOM     33  O   UNL     1       0.814   2.478  -1.512  1.00  0.00    -0.258 OA
ENDBRANCH  27  31
ENDBRANCH  21  24
ENDBRANCH  15  20
ENDBRANCH  11  14
ENDBRANCH   5  10
ENDBRANCH   2   4
ENDBRANCH   1   2
BRANCH   1  34
ATOM     34  C   UNL     1       4.444  -1.390   2.581  1.00  0.00     0.275 C 
BRANCH  34  35
ATOM     35  C   UNL     1       5.258  -2.268   1.593  1.00  0.00     0.275 C 
BRANCH  35  36
ATOM     36  O   UNL     1       6.003  -1.735   0.464  1.00  0.00    -0.458 OA
BRANCH  36  37
ATOM     37  C   UNL     1       6.959  -0.780   0.431  1.00  0.00     0.338 C 
ATOM     38  O   UNL     1       7.576  -0.458  -0.577  1.00  0.00    -0.246 OA
BRANCH  37  39
ATOM     39  C   UNL     1       7.121  -0.059   1.673  1.00  0.00     0.060 A 
ATOM     40  C   UNL     1       6.764   1.296   1.704  1.00  0.00     0.016 A 
ATOM     41  C   UNL     1       7.429  -0.795   2.811  1.00  0.00     0.016 A 
ATOM     42  C   UNL     1       6.589   1.921   2.919  1.00  0.00     0.010 A 
ATOM     43  C   UNL     1       7.184  -0.213   4.021  1.00  0.00     0.010 A 
ATOM     44  C   UNL     1       6.844   1.159   4.055  1.00  0.00    -0.014 A 
BRANCH  44  45
ATOM     45  C   UNL     1       7.408   1.794   5.226  1.00  0.00     0.031 A 
ATOM     46  C   UNL     1       6.646   1.867   6.469  1.00  0.00     0.074 A 
ATOM     47  C   UNL     1       8.748   1.796   5.039  1.00  0.00     0.049 A 
ATOM     48  N   UNL     1       7.048   2.458   7.534  1.00  0.00    -0.248 NA
ATOM     49  C   UNL     1       5.296   1.323   6.609  1.00  0.00     0.031 C 
ATOM     50  C   UNL     1       9.859   1.585   5.939  1.00  0.00     0.029 A 
ATOM     51  N   UNL     1       9.373   2.001   3.794  1.00  0.00    -0.354 N 
ATOM     52  C   UNL     1       6.266   1.967   8.561  1.00  0.00     0.074 A 
ATOM     53  C   UNL     1       5.080   1.465   7.920  1.00  0.00     0.031 C 
ATOM     54  C   UNL     1      10.991   1.972   5.311  1.00  0.00     0.029 A 
ATOM     55  C   UNL     1      10.598   2.598   4.047  1.00  0.00     0.049 A 
ATOM     56  H   UNL     1       9.008   1.765   2.910  1.00  0.00     0.167 HD
ATOM     57  C   UNL     1       6.850   1.789   9.783  1.00  0.00     0.037 A 
ATOM     58  C   UNL     1      10.680   3.933   3.763  1.00  0.00     0.037 A 
ATOM     59  C   UNL     1       8.247   2.235   9.714  1.00  0.00     0.049 A 
ATOM     60  C   UNL     1      10.772   4.712   5.051  1.00  0.00     0.074 A 
ATOM     61  C   UNL     1       9.428   1.531   9.532  1.00  0.00     0.029 A 
ATOM     62  N   UNL     1       8.531   3.561   9.396  1.00  0.00    -0.354 N 
ATOM     63  N   UNL     1      10.149   4.400   6.157  1.00  0.00    -0.248 NA
ATOM     64  C   UNL     1      11.703   5.820   5.207  1.00  0.00     0.031 C 
ATOM     65  C   UNL     1      10.405   2.434   9.034  1.00  0.00     0.029 A 
ATOM     66  C   UNL     1       9.812   3.679   8.888  1.00  0.00     0.049 A 
ATOM     67  H   UNL     1       7.905   4.311   9.515  1.00  0.00     0.167 HD
ATOM     68  C   UNL     1      10.660   5.156   7.179  1.00  0.00     0.074 A 
ATOM     69  C   UNL     1      11.604   6.050   6.527  1.00  0.00     0.031 C 
ATOM     70  C   UNL     1      10.333   4.979   8.495  1.00  0.00     0.037 A 
BRANCH  57  71
ATOM     71  C   UNL     1       6.311   0.889  10.882  1.00  0.00     0.057 A 
ATOM     72  C   UNL     1       7.183   0.308  11.826  1.00  0.00     0.134 A 
ATOM     73  C   UNL     1       4.962   0.531  11.060  1.00  0.00     0.134 A 
ATOM     74  F   UNL     1       8.486   0.614  11.867  1.00  0.00    -0.206 F 
ATOM     75  C   UNL     1       6.769  -0.617  12.796  1.00  0.00     0.040 A 
ATOM     76  C   UNL     1       4.536  -0.420  12.005  1.00  0.00     0.040 A 
ATOM     77  F   UNL     1       3.977   1.122  10.374  1.00  0.00    -0.206 F 
ATOM     78  C   UNL     1       5.443  -1.006  12.873  1.00  0.00     0.006 A 
ENDBRANCH  57  71
BRANCH  58  79
ATOM     79  C   UNL     1       9.903   4.344   2.540  1.00  0.00     0.057 A 
ATOM     80  C   UNL     1      10.206   3.733   1.302  1.00  0.00     0.134 A 
ATOM     81  C   UNL     1       8.705   5.066   2.589  1.00  0.00     0.134 A 
ATOM     82  F   UNL     1      11.333   3.015   1.166  1.00  0.00    -0.206 F 
ATOM     83  C   UNL     1       9.329   3.763   0.209  1.00  0.00     0.040 A 
ATOM     84  C   UNL     1       7.824   5.117   1.492  1.00  0.00     0.040 A 
ATOM     85  F   UNL     1       8.314   5.667   3.720  1.00  0.00    -0.206 F 
ATOM     86  C   UNL     1       8.121   4.441   0.309  1.00  0.00     0.006 A 
ENDBRANCH  58  79
BRANCH  70  87
ATOM     87  C   UNL     1      10.556   6.003   9.578  1.00  0.00     0.057 A 
ATOM     88  C   UNL     1      10.650   7.379   9.335  1.00  0.00     0.134 A 
ATOM     89  C   UNL     1      10.479   5.638  10.943  1.00  0.00     0.134 A 
ATOM     90  F   UNL     1      10.605   7.884   8.095  1.00  0.00    -0.206 F 
ATOM     91  C   UNL     1      10.728   8.318  10.368  1.00  0.00     0.040 A 
ATOM     92  C   UNL     1      10.476   6.572  11.978  1.00  0.00     0.040 A 
ATOM     93  F   UNL     1      10.360   4.361  11.337  1.00  0.00    -0.206 F 
ATOM     94  C   UNL     1      10.621   7.919  11.693  1.00  0.00     0.006 A 
ENDBRANCH  70  87
ENDBRANCH  44  45
ENDBRANCH  37  39
ENDBRANCH  36  37
ENDBRANCH  35  36
ENDBRANCH  34  35
ENDBRANCH   1  34
TORSDOF 16
