REMARK SMILES C[C@H](NC(=O)OCc1ccccc1)C(=O)NCC(=O)N1CCC[C@H]1C(=O)OCCOC(=O)c1ccc(-c2c3nc(c(-c4c(F)cccc4F)c4ccc([nH]4)c(-c4c(F)cccc4F)c4nc(c(-c5c(F)cccc5F)c5ccc2[nH]5)C=C4)C=C3)cc1
REMARK SMILES IDX 20 1 21 2 22 3 23 4 24 5 18 6 19 7 17 8 16 9 14 10 15 11
REMARK SMILES IDX 2 13 1 14 3 15 4 16 5 18 6 19 7 20 8 21 9 22 13 23 10 24
REMARK SMILES IDX 12 25 11 26 25 27 26 28 27 29 28 30 29 31 30 32 31 33 32 34
REMARK SMILES IDX 33 35 34 36 86 37 35 38 85 39 36 40 37 41 38 42 79 43 39 44
REMARK SMILES IDX 84 45 78 46 80 47 40 48 83 49 77 50 76 51 41 53 67 54 50 55
REMARK SMILES IDX 66 56 51 57 54 58 65 59 81 60 52 61 53 62 64 64 82 65 55 66
REMARK SMILES IDX 42 67 43 68 48 69 44 70 45 71 47 72 49 73 46 74 68 75 69 76
REMARK SMILES IDX 74 77 70 78 71 79 73 80 75 81 72 82 56 83 57 84 62 85 58 86
REMARK SMILES IDX 59 87 61 88 63 89 60 90
REMARK H PARENT 16 12 3 17 80 52 54 63
REMARK Flexibility Score: inf
ROOT
ATOM      1  N   UNL     1      -1.038   1.596  -1.376  1.00  0.00    -0.327 N 
ATOM      2  C   UNL     1      -1.314   0.182  -1.562  1.00  0.00     0.120 C 
ATOM      3  C   UNL     1      -0.419  -0.248  -2.719  1.00  0.00     0.024 C 
ATOM      4  C   UNL     1       0.150   1.044  -3.309  1.00  0.00     0.039 C 
ATOM      5  C   UNL     1      -0.611   2.181  -2.642  1.00  0.00     0.195 C 
ENDROOT
BRANCH   1   6
ATOM      6  C   UNL     1      -1.274   2.429  -0.315  1.00  0.00     0.242 C 
ATOM      7  O   UNL     1      -1.297   3.655  -0.487  1.00  0.00    -0.273 OA
BRANCH   6   8
ATOM      8  C   UNL     1      -1.257   1.913   1.128  1.00  0.00     0.216 C 
BRANCH   8   9
ATOM      9  N   UNL     1      -1.617   0.550   1.450  1.00  0.00    -0.345 N 
ATOM     10  C   UNL     1      -0.834  -0.503   1.815  1.00  0.00     0.242 C 
ATOM     11  O   UNL     1      -1.409  -1.561   2.090  1.00  0.00    -0.273 OA
ATOM     12  H   UNL     1      -2.580   0.352   1.396  1.00  0.00     0.164 HD
BRANCH  10  13
ATOM     13  C   UNL     1       0.707  -0.406   1.903  1.00  0.00     0.171 C 
ATOM     14  C   UNL     1       1.162   0.356   3.136  1.00  0.00     0.042 C 
BRANCH  13  15
ATOM     15  N   UNL     1       1.275  -0.042   0.608  1.00  0.00    -0.310 N 
ATOM     16  C   UNL     1       2.041   0.993   0.178  1.00  0.00     0.408 C 
ATOM     17  H   UNL     1       1.057  -0.685  -0.105  1.00  0.00     0.167 HD
ATOM     18  O   UNL     1       2.310   1.097  -1.006  1.00  0.00    -0.225 OA
BRANCH  16  19
ATOM     19  O   UNL     1       2.451   1.837   1.149  1.00  0.00    -0.445 OA
BRANCH  19  20
ATOM     20  C   UNL     1       3.266   2.928   0.682  1.00  0.00     0.270 C 
BRANCH  20  21
ATOM     21  C   UNL     1       4.636   2.508   0.194  1.00  0.00    -0.011 A 
ATOM     22  C   UNL     1       5.329   1.441   0.782  1.00  0.00     0.007 A 
ATOM     23  C   UNL     1       5.239   3.202  -0.867  1.00  0.00     0.007 A 
ATOM     24  C   UNL     1       6.580   1.054   0.297  1.00  0.00     0.000 A 
ATOM     25  C   UNL     1       6.493   2.819  -1.345  1.00  0.00     0.000 A 
ATOM     26  C   UNL     1       7.161   1.742  -0.767  1.00  0.00     0.000 A 
ENDBRANCH  20  21
ENDBRANCH  19  20
ENDBRANCH  16  19
ENDBRANCH  13  15
ENDBRANCH  10  13
ENDBRANCH   8   9
ENDBRANCH   6   8
ENDBRANCH   1   6
BRANCH   5  27
ATOM     27  C   UNL     1      -1.845   2.627  -3.439  1.00  0.00     0.328 C 
ATOM     28  O   UNL     1      -2.797   1.898  -3.700  1.00  0.00    -0.250 OA
BRANCH  27  29
ATOM     29  O   UNL     1      -1.741   3.931  -3.811  1.00  0.00    -0.461 OA
BRANCH  29  30
ATOM     30  C   UNL     1      -2.837   4.479  -4.564  1.00  0.00     0.274 C 
BRANCH  30  31
ATOM     31  C   UNL     1      -2.417   4.696  -6.016  1.00  0.00     0.275 C 
BRANCH  31  32
ATOM     32  O   UNL     1      -2.240   3.432  -6.685  1.00  0.00    -0.458 OA
BRANCH  32  33
ATOM     33  C   UNL     1      -0.967   2.979  -6.709  1.00  0.00     0.338 C 
ATOM     34  O   UNL     1       0.030   3.528  -6.271  1.00  0.00    -0.246 OA
BRANCH  33  35
ATOM     35  C   UNL     1      -0.919   1.623  -7.266  1.00  0.00     0.060 A 
ATOM     36  C   UNL     1      -1.207   0.558  -6.420  1.00  0.00     0.016 A 
ATOM     37  C   UNL     1      -0.370   1.390  -8.524  1.00  0.00     0.016 A 
ATOM     38  C   UNL     1      -0.795  -0.724  -6.758  1.00  0.00     0.010 A 
ATOM     39  C   UNL     1      -0.118   0.073  -8.929  1.00  0.00     0.010 A 
ATOM     40  C   UNL     1      -0.295  -1.001  -8.037  1.00  0.00    -0.014 A 
BRANCH  40  41
ATOM     41  C   UNL     1       0.010  -2.408  -8.430  1.00  0.00     0.031 A 
ATOM     42  C   UNL     1       1.351  -2.777  -9.009  1.00  0.00     0.074 A 
ATOM     43  C   UNL     1      -0.930  -3.365  -8.270  1.00  0.00     0.049 A 
ATOM     44  N   UNL     1       1.714  -3.881  -9.614  1.00  0.00    -0.248 NA
ATOM     45  C   UNL     1       2.422  -1.773  -8.909  1.00  0.00     0.031 C 
ATOM     46  C   UNL     1      -2.260  -3.164  -7.686  1.00  0.00     0.029 A 
ATOM     47  N   UNL     1      -0.916  -4.702  -8.586  1.00  0.00    -0.354 N 
ATOM     48  C   UNL     1       3.032  -3.685 -10.011  1.00  0.00     0.074 A 
ATOM     49  C   UNL     1       3.404  -2.352  -9.587  1.00  0.00     0.031 C 
ATOM     50  C   UNL     1      -2.912  -4.332  -7.647  1.00  0.00     0.029 A 
ATOM     51  C   UNL     1      -2.106  -5.338  -8.321  1.00  0.00     0.049 A 
ATOM     52  H   UNL     1      -0.131  -5.159  -8.966  1.00  0.00     0.167 HD
ATOM     53  C   UNL     1       3.852  -4.542 -10.667  1.00  0.00     0.037 A 
ATOM     54  C   UNL     1      -2.543  -6.568  -8.647  1.00  0.00     0.037 A 
ATOM     55  C   UNL     1       3.484  -5.883 -11.046  1.00  0.00     0.049 A 
ATOM     56  C   UNL     1      -1.642  -7.471  -9.433  1.00  0.00     0.074 A 
ATOM     57  C   UNL     1       4.243  -6.832 -11.711  1.00  0.00     0.029 A 
ATOM     58  N   UNL     1       2.256  -6.472 -10.780  1.00  0.00    -0.354 N 
ATOM     59  N   UNL     1      -0.419  -7.254  -9.852  1.00  0.00    -0.248 NA
ATOM     60  C   UNL     1      -2.187  -8.780  -9.812  1.00  0.00     0.031 C 
ATOM     61  C   UNL     1       3.460  -7.977 -11.885  1.00  0.00     0.029 A 
ATOM     62  C   UNL     1       2.231  -7.763 -11.283  1.00  0.00     0.049 A 
ATOM     63  H   UNL     1       1.512  -6.037 -10.304  1.00  0.00     0.167 HD
ATOM     64  C   UNL     1      -0.044  -8.403 -10.533  1.00  0.00     0.074 A 
ATOM     65  C   UNL     1      -1.158  -9.324 -10.445  1.00  0.00     0.031 C 
ATOM     66  C   UNL     1       1.116  -8.668 -11.181  1.00  0.00     0.037 A 
BRANCH  53  67
ATOM     67  C   UNL     1       5.224  -4.057 -11.043  1.00  0.00     0.057 A 
ATOM     68  C   UNL     1       6.235  -3.868 -10.093  1.00  0.00     0.134 A 
ATOM     69  C   UNL     1       5.557  -3.839 -12.388  1.00  0.00     0.134 A 
ATOM     70  F   UNL     1       5.984  -4.051  -8.788  1.00  0.00    -0.206 F 
ATOM     71  C   UNL     1       7.521  -3.464 -10.463  1.00  0.00     0.040 A 
ATOM     72  C   UNL     1       6.845  -3.461 -12.773  1.00  0.00     0.040 A 
ATOM     73  F   UNL     1       4.641  -4.010 -13.353  1.00  0.00    -0.206 F 
ATOM     74  C   UNL     1       7.831  -3.269 -11.808  1.00  0.00     0.006 A 
ENDBRANCH  53  67
BRANCH  54  75
ATOM     75  C   UNL     1      -3.930  -6.979  -8.305  1.00  0.00     0.057 A 
ATOM     76  C   UNL     1      -4.181  -8.012  -7.397  1.00  0.00     0.134 A 
ATOM     77  C   UNL     1      -5.041  -6.350  -8.886  1.00  0.00     0.134 A 
ATOM     78  F   UNL     1      -3.161  -8.668  -6.823  1.00  0.00    -0.206 F 
ATOM     79  C   UNL     1      -5.481  -8.419  -7.093  1.00  0.00     0.040 A 
ATOM     80  C   UNL     1      -6.346  -6.720  -8.563  1.00  0.00     0.040 A 
ATOM     81  F   UNL     1      -4.872  -5.346  -9.761  1.00  0.00    -0.206 F 
ATOM     82  C   UNL     1      -6.569  -7.766  -7.671  1.00  0.00     0.006 A 
ENDBRANCH  54  75
BRANCH  66  83
ATOM     83  C   UNL     1       1.244 -10.022 -11.812  1.00  0.00     0.057 A 
ATOM     84  C   UNL     1       0.532 -10.369 -12.968  1.00  0.00     0.134 A 
ATOM     85  C   UNL     1       2.106 -10.982 -11.268  1.00  0.00     0.134 A 
ATOM     86  F   UNL     1      -0.324  -9.499 -13.525  1.00  0.00    -0.206 F 
ATOM     87  C   UNL     1       0.655 -11.633 -13.546  1.00  0.00     0.040 A 
ATOM     88  C   UNL     1       2.259 -12.239 -11.854  1.00  0.00     0.040 A 
ATOM     89  F   UNL     1       2.821 -10.711 -10.166  1.00  0.00    -0.206 F 
ATOM     90  C   UNL     1       1.526 -12.569 -12.992  1.00  0.00     0.006 A 
ENDBRANCH  66  83
ENDBRANCH  40  41
ENDBRANCH  33  35
ENDBRANCH  32  33
ENDBRANCH  31  32
ENDBRANCH  30  31
ENDBRANCH  29  30
ENDBRANCH  27  29
ENDBRANCH   5  27
TORSDOF 19
