REMARK SMILES Cc1ccc(S(=O)(=O)Nc2cc(C(=O)OCCOC(=O)c3ccc(-c4c5nc(c(-c6c(F)cccc6F)c6ccc([nH]6)c(-c6c(F)cccc6F)c6nc(c(-c7c(F)cccc7F)c7ccc4[nH]7)C=C6)C=C5)cc3)cnc2N2CCCC2)c(C)c1
REMARK SMILES IDX 16 1 15 2 13 3 14 4 12 5 10 6 11 7 77 8 76 9 75 10 9 11 6 13
REMARK SMILES IDX 7 14 8 15 5 16 1 17 2 18 3 19 85 20 4 21 83 22 84 23 78 24
REMARK SMILES IDX 79 25 82 26 80 27 81 28 17 29 18 30 19 31 20 32 21 33 22 34
REMARK SMILES IDX 74 35 23 36 73 37 24 38 25 39 26 40 67 41 27 42 72 43 66 44
REMARK SMILES IDX 68 45 28 46 71 47 65 48 64 49 29 51 55 52 38 53 54 54 39 55
REMARK SMILES IDX 42 56 53 57 69 58 40 59 41 60 52 62 70 63 43 64 30 65 31 66
REMARK SMILES IDX 36 67 32 68 33 69 35 70 37 71 34 72 56 73 57 74 62 75 58 76
REMARK SMILES IDX 59 77 61 78 63 79 60 80 44 81 45 82 50 83 46 84 47 85 49 86
REMARK SMILES IDX 51 87 48 88
REMARK H PARENT 9 12 68 50 42 61
REMARK Flexibility Score: inf
ROOT
ATOM      1  C   UNL     1       2.786  -2.184   3.428  1.00  0.00     0.275 C 
ENDROOT
BRANCH   1   2
ATOM      2  O   UNL     1       1.698  -2.814   2.722  1.00  0.00    -0.458 OA
BRANCH   2   3
ATOM      3  C   UNL     1       1.932  -3.092   1.419  1.00  0.00     0.339 C 
ATOM      4  O   UNL     1       2.946  -2.852   0.783  1.00  0.00    -0.246 OA
BRANCH   3   5
ATOM      5  C   UNL     1       0.782  -3.785   0.822  1.00  0.00     0.080 A 
ATOM      6  C   UNL     1      -1.536  -3.890   0.290  1.00  0.00     0.092 A 
ATOM      7  C   UNL     1      -0.521  -3.408   1.111  1.00  0.00     0.048 A 
ATOM      8  C   UNL     1      -1.262  -4.888  -0.677  1.00  0.00     0.153 A 
ATOM      9  N   UNL     1      -0.000  -5.293  -0.916  1.00  0.00    -0.236 NA
ATOM     10  C   UNL     1       0.990  -4.699  -0.205  1.00  0.00     0.129 A 
BRANCH   6  11
ATOM     11  N   UNL     1      -2.843  -3.308   0.382  1.00  0.00    -0.276 N 
ATOM     12  H   UNL     1      -3.576  -3.819   0.796  1.00  0.00     0.180 HD
BRANCH  11  13
ATOM     13  S   UNL     1      -3.140  -1.734  -0.221  1.00  0.00     0.262 S 
ATOM     14  O   UNL     1      -3.912  -1.111   0.836  1.00  0.00    -0.201 OA
ATOM     15  O   UNL     1      -3.712  -1.891  -1.541  1.00  0.00    -0.201 OA
BRANCH  13  16
ATOM     16  C   UNL     1      -1.627  -0.785  -0.443  1.00  0.00     0.090 A 
ATOM     17  C   UNL     1       2.254   1.103  -0.292  1.00  0.00     0.044 C 
ATOM     18  C   UNL     1       0.898   0.471  -0.406  1.00  0.00    -0.051 A 
ATOM     19  C   UNL     1       0.724  -0.742  -1.072  1.00  0.00     0.005 A 
ATOM     20  C   UNL     1      -0.233   1.130   0.080  1.00  0.00     0.008 A 
ATOM     21  C   UNL     1      -0.537  -1.349  -1.118  1.00  0.00     0.023 A 
ATOM     22  C   UNL     1      -1.511   0.536   0.029  1.00  0.00    -0.030 A 
ATOM     23  C   UNL     1      -2.675   1.399   0.431  1.00  0.00     0.046 C 
ENDBRANCH  13  16
ENDBRANCH  11  13
ENDBRANCH   6  11
BRANCH   8  24
ATOM     24  N   UNL     1      -2.302  -5.458  -1.397  1.00  0.00    -0.355 N 
ATOM     25  C   UNL     1      -2.635  -4.877  -2.691  1.00  0.00     0.118 C 
ATOM     26  C   UNL     1      -2.284  -6.918  -1.552  1.00  0.00     0.118 C 
ATOM     27  C   UNL     1      -3.730  -5.819  -3.172  1.00  0.00     0.023 C 
ATOM     28  C   UNL     1      -3.238  -7.191  -2.724  1.00  0.00     0.023 C 
ENDBRANCH   8  24
ENDBRANCH   3   5
ENDBRANCH   2   3
ENDBRANCH   1   2
BRANCH   1  29
ATOM     29  C   UNL     1       3.557  -3.215   4.250  1.00  0.00     0.275 C 
BRANCH  29  30
ATOM     30  O   UNL     1       4.143  -4.189   3.368  1.00  0.00    -0.458 OA
BRANCH  30  31
ATOM     31  C   UNL     1       3.820  -5.482   3.600  1.00  0.00     0.338 C 
ATOM     32  O   UNL     1       3.158  -5.933   4.518  1.00  0.00    -0.246 OA
BRANCH  31  33
ATOM     33  C   UNL     1       4.394  -6.319   2.530  1.00  0.00     0.060 A 
ATOM     34  C   UNL     1       4.123  -6.015   1.198  1.00  0.00     0.016 A 
ATOM     35  C   UNL     1       5.143  -7.449   2.844  1.00  0.00     0.016 A 
ATOM     36  C   UNL     1       4.543  -6.858   0.176  1.00  0.00     0.010 A 
ATOM     37  C   UNL     1       5.657  -8.241   1.811  1.00  0.00     0.010 A 
ATOM     38  C   UNL     1       5.354  -7.960   0.465  1.00  0.00    -0.014 A 
BRANCH  38  39
ATOM     39  C   UNL     1       5.899  -8.800  -0.634  1.00  0.00     0.031 A 
ATOM     40  C   UNL     1       5.611 -10.273  -0.675  1.00  0.00     0.074 A 
ATOM     41  C   UNL     1       6.673  -8.247  -1.590  1.00  0.00     0.049 A 
ATOM     42  N   UNL     1       6.174 -11.206  -1.399  1.00  0.00    -0.248 NA
ATOM     43  C   UNL     1       4.560 -10.765   0.230  1.00  0.00     0.031 C 
ATOM     44  C   UNL     1       7.000  -6.824  -1.702  1.00  0.00     0.029 A 
ATOM     45  N   UNL     1       7.334  -8.820  -2.649  1.00  0.00    -0.354 N 
ATOM     46  C   UNL     1       5.598 -12.401  -0.991  1.00  0.00     0.074 A 
ATOM     47  C   UNL     1       4.629 -12.075   0.035  1.00  0.00     0.031 C 
ATOM     48  C   UNL     1       7.777  -6.632  -2.777  1.00  0.00     0.029 A 
ATOM     49  C   UNL     1       8.084  -7.926  -3.374  1.00  0.00     0.049 A 
ATOM     50  H   UNL     1       7.276  -9.779  -2.867  1.00  0.00     0.167 HD
ATOM     51  C   UNL     1       5.863 -13.655  -1.428  1.00  0.00     0.037 A 
ATOM     52  C   UNL     1       8.972  -8.123  -4.366  1.00  0.00     0.037 A 
ATOM     53  C   UNL     1       6.782 -13.966  -2.491  1.00  0.00     0.049 A 
ATOM     54  C   UNL     1       9.274  -9.521  -4.813  1.00  0.00     0.074 A 
ATOM     55  C   UNL     1       7.078 -15.201  -3.042  1.00  0.00     0.029 A 
ATOM     56  N   UNL     1       7.547 -13.030  -3.171  1.00  0.00    -0.354 N 
ATOM     57  N   UNL     1       8.761 -10.650  -4.387  1.00  0.00    -0.248 NA
ATOM     58  C   UNL     1      10.301  -9.678  -5.852  1.00  0.00     0.031 C 
ATOM     59  C   UNL     1       8.050 -15.016  -4.032  1.00  0.00     0.029 A 
ATOM     60  C   UNL     1       8.335 -13.663  -4.119  1.00  0.00     0.049 A 
ATOM     61  H   UNL     1       7.532 -12.060  -3.005  1.00  0.00     0.167 HD
ATOM     62  C   UNL     1       9.412 -11.652  -5.093  1.00  0.00     0.074 A 
ATOM     63  C   UNL     1      10.335 -10.996  -5.997  1.00  0.00     0.031 C 
ATOM     64  C   UNL     1       9.265 -12.995  -4.992  1.00  0.00     0.037 A 
BRANCH  51  65
ATOM     65  C   UNL     1       5.183 -14.790  -0.722  1.00  0.00     0.057 A 
ATOM     66  C   UNL     1       3.831 -15.092  -0.918  1.00  0.00     0.134 A 
ATOM     67  C   UNL     1       5.910 -15.608   0.153  1.00  0.00     0.134 A 
ATOM     68  F   UNL     1       3.077 -14.337  -1.731  1.00  0.00    -0.206 F 
ATOM     69  C   UNL     1       3.220 -16.157  -0.253  1.00  0.00     0.040 A 
ATOM     70  C   UNL     1       5.316 -16.688   0.807  1.00  0.00     0.040 A 
ATOM     71  F   UNL     1       7.211 -15.374   0.382  1.00  0.00    -0.206 F 
ATOM     72  C   UNL     1       3.964 -16.961   0.608  1.00  0.00     0.006 A 
ENDBRANCH  51  65
BRANCH  52  73
ATOM     73  C   UNL     1       9.692  -6.960  -4.941  1.00  0.00     0.057 A 
ATOM     74  C   UNL     1       9.407  -6.495  -6.228  1.00  0.00     0.134 A 
ATOM     75  C   UNL     1      10.654  -6.264  -4.198  1.00  0.00     0.134 A 
ATOM     76  F   UNL     1       8.513  -7.135  -6.995  1.00  0.00    -0.206 F 
ATOM     77  C   UNL     1      10.049  -5.372  -6.754  1.00  0.00     0.040 A 
ATOM     78  C   UNL     1      11.285  -5.127  -4.702  1.00  0.00     0.040 A 
ATOM     79  F   UNL     1      10.968  -6.662  -2.956  1.00  0.00    -0.206 F 
ATOM     80  C   UNL     1      10.983  -4.678  -5.986  1.00  0.00     0.006 A 
ENDBRANCH  52  73
BRANCH  64  81
ATOM     81  C   UNL     1      10.135 -13.838  -5.872  1.00  0.00     0.057 A 
ATOM     82  C   UNL     1      11.487 -14.046  -5.572  1.00  0.00     0.134 A 
ATOM     83  C   UNL     1       9.614 -14.468  -7.007  1.00  0.00     0.134 A 
ATOM     84  F   UNL     1      12.046 -13.455  -4.506  1.00  0.00    -0.206 F 
ATOM     85  C   UNL     1      12.296 -14.845  -6.382  1.00  0.00     0.040 A 
ATOM     86  C   UNL     1      10.408 -15.283  -7.814  1.00  0.00     0.040 A 
ATOM     87  F   UNL     1       8.325 -14.309  -7.344  1.00  0.00    -0.206 F 
ATOM     88  C   UNL     1      11.754 -15.470  -7.504  1.00  0.00     0.006 A 
ENDBRANCH  64  81
ENDBRANCH  38  39
ENDBRANCH  31  33
ENDBRANCH  30  31
ENDBRANCH  29  30
ENDBRANCH   1  29
TORSDOF 15
