REMARK SMILES O=C(N/N=C/c1ccccc1O)C(=O)Nc1cccc(C(=O)OCCOC(=O)c2ccc(-c3c4nc(c(-c5c(F)cccc5F)c5ccc([nH]5)c(-c5c(F)cccc5F)c5nc(c(-c6c(F)cccc6F)c6ccc3[nH]6)C=C5)C=C4)cc2)c1
REMARK SMILES IDX 23 1 21 2 22 3 20 4 16 5 17 6 83 7 18 8 19 9 15 10 13 11
REMARK SMILES IDX 14 12 2 14 1 15 3 16 4 18 5 19 6 20 7 21 11 22 8 23 10 24
REMARK SMILES IDX 9 25 12 26 24 28 25 29 26 30 27 31 28 32 29 33 30 34 82 35
REMARK SMILES IDX 31 36 81 37 32 38 33 39 34 40 75 41 35 42 80 43 74 44 76 45
REMARK SMILES IDX 36 46 79 47 73 48 72 49 37 51 63 52 46 53 62 54 47 55 50 56
REMARK SMILES IDX 61 57 77 58 48 59 49 60 60 62 78 63 51 64 38 65 39 66 44 67
REMARK SMILES IDX 40 68 41 69 43 70 45 71 42 72 64 73 65 74 70 75 66 76 67 77
REMARK SMILES IDX 69 78 71 79 68 80 52 81 53 82 58 83 54 84 55 85 57 86 59 87
REMARK SMILES IDX 56 88
REMARK H PARENT 15 13 3 17 12 27 76 50 50 61
REMARK Flexibility Score: inf
ROOT
ATOM      1  O   UNL     1       4.548   0.722  -3.925  1.00  0.00    -0.458 OA
ENDROOT
BRANCH   1   2
ATOM      2  C   UNL     1       4.937  -0.494  -3.475  1.00  0.00     0.338 C 
ATOM      3  O   UNL     1       4.977  -1.536  -4.110  1.00  0.00    -0.246 OA
BRANCH   2   4
ATOM      4  C   UNL     1       5.372  -0.421  -2.062  1.00  0.00     0.062 A 
ATOM      5  C   UNL     1       4.907   0.825   0.807  1.00  0.00     0.042 A 
ATOM      6  C   UNL     1       5.554  -0.688   1.579  1.00  0.00     0.026 A 
ATOM      7  C   UNL     1       4.848   0.994  -0.995  1.00  0.00     0.041 A 
ATOM      8  C   UNL     1       6.176  -2.056   0.512  1.00  0.00     0.003 A 
ATOM      9  C   UNL     1       6.066  -1.916  -1.292  1.00  0.00     0.016 A 
BRANCH   5  10
ATOM     10  N   UNL     1       3.879   1.408   1.558  1.00  0.00    -0.318 N 
ATOM     11  C   UNL     1       2.543   1.010   1.526  1.00  0.00     0.315 C 
ATOM     12  O   UNL     1       1.862   1.250   2.529  1.00  0.00    -0.263 OA
ATOM     13  H   UNL     1       4.117   2.155   2.154  1.00  0.00     0.170 HD
BRANCH  11  14
ATOM     14  C   UNL     1       1.834   0.286   0.358  1.00  0.00     0.329 C 
ATOM     15  O   UNL     1       0.716   0.677   0.020  1.00  0.00    -0.262 OA
ATOM     16  N   UNL     1       2.348  -0.896  -0.184  1.00  0.00    -0.239 N 
ATOM     17  H   UNL     1       1.911  -1.767  -0.040  1.00  0.00     0.194 HD
BRANCH  16  18
ATOM     18  N   UNL     1       3.492  -0.778  -0.927  1.00  0.00    -0.180 NA
ATOM     19  C   UNL     1       4.671  -0.890  -0.219  1.00  0.00     0.145 C 
BRANCH  19  20
ATOM     20  C   UNL     1       6.629  -0.057  -0.292  1.00  0.00     0.036 A 
ATOM     21  C   UNL     1       7.721  -0.100   0.791  1.00  0.00     0.013 A 
ATOM     22  C   UNL     1       7.447   0.685  -1.384  1.00  0.00     0.124 A 
ATOM     23  C   UNL     1       9.113   0.209   0.757  1.00  0.00     0.001 A 
ATOM     24  C   UNL     1       8.870   0.902  -1.452  1.00  0.00     0.047 A 
ATOM     25  C   UNL     1       9.704   0.630  -0.397  1.00  0.00     0.004 A 
BRANCH  22  26
ATOM     26  O   UNL     1       6.869   1.359  -2.466  1.00  0.00    -0.507 OA
ATOM     27  H   UNL     1       5.941   1.335  -2.592  1.00  0.00     0.293 HD
ENDBRANCH  22  26
ENDBRANCH  19  20
ENDBRANCH  16  18
ENDBRANCH  11  14
ENDBRANCH   5  10
ENDBRANCH   2   4
ENDBRANCH   1   2
BRANCH   1  28
ATOM     28  C   UNL     1       4.138   0.771  -5.301  1.00  0.00     0.275 C 
BRANCH  28  29
ATOM     29  C   UNL     1       5.284   1.206  -6.218  1.00  0.00     0.275 C 
BRANCH  29  30
ATOM     30  O   UNL     1       6.367   0.257  -6.195  1.00  0.00    -0.458 OA
BRANCH  30  31
ATOM     31  C   UNL     1       7.494   0.658  -5.570  1.00  0.00     0.338 C 
ATOM     32  O   UNL     1       7.739   1.741  -5.059  1.00  0.00    -0.246 OA
BRANCH  31  33
ATOM     33  C   UNL     1       8.432  -0.465  -5.456  1.00  0.00     0.060 A 
ATOM     34  C   UNL     1       8.254  -1.362  -4.405  1.00  0.00     0.016 A 
ATOM     35  C   UNL     1       9.575  -0.527  -6.250  1.00  0.00     0.016 A 
ATOM     36  C   UNL     1       9.226  -2.306  -4.110  1.00  0.00     0.010 A 
ATOM     37  C   UNL     1      10.531  -1.514  -5.988  1.00  0.00     0.010 A 
ATOM     38  C   UNL     1      10.374  -2.396  -4.902  1.00  0.00    -0.014 A 
BRANCH  38  39
ATOM     39  C   UNL     1      11.430  -3.378  -4.557  1.00  0.00     0.031 A 
ATOM     40  C   UNL     1      12.785  -2.896  -4.126  1.00  0.00     0.074 A 
ATOM     41  C   UNL     1      11.170  -4.698  -4.612  1.00  0.00     0.049 A 
ATOM     42  N   UNL     1      13.891  -3.574  -3.961  1.00  0.00    -0.248 NA
ATOM     43  C   UNL     1      12.914  -1.456  -3.852  1.00  0.00     0.031 C 
ATOM     44  C   UNL     1       9.877  -5.294  -4.950  1.00  0.00     0.029 A 
ATOM     45  N   UNL     1      11.987  -5.777  -4.390  1.00  0.00    -0.354 N 
ATOM     46  C   UNL     1      14.859  -2.639  -3.620  1.00  0.00     0.074 A 
ATOM     47  C   UNL     1      14.210  -1.346  -3.595  1.00  0.00     0.031 C 
ATOM     48  C   UNL     1       9.985  -6.631  -4.905  1.00  0.00     0.029 A 
ATOM     49  C   UNL     1      11.370  -6.984  -4.611  1.00  0.00     0.049 A 
ATOM     50  H   UNL     1      12.925  -5.694  -4.100  1.00  0.00     0.167 HD
ATOM     51  C   UNL     1      16.172  -2.846  -3.360  1.00  0.00     0.037 A 
ATOM     52  C   UNL     1      11.874  -8.231  -4.627  1.00  0.00     0.037 A 
ATOM     53  C   UNL     1      16.798  -4.142  -3.344  1.00  0.00     0.049 A 
ATOM     54  C   UNL     1      13.341  -8.431  -4.376  1.00  0.00     0.074 A 
ATOM     55  C   UNL     1      18.118  -4.460  -3.076  1.00  0.00     0.029 A 
ATOM     56  N   UNL     1      16.143  -5.338  -3.598  1.00  0.00    -0.354 N 
ATOM     57  N   UNL     1      14.262  -7.538  -4.105  1.00  0.00    -0.248 NA
ATOM     58  C   UNL     1      13.842  -9.810  -4.452  1.00  0.00     0.031 C 
ATOM     59  C   UNL     1      18.269  -5.846  -3.200  1.00  0.00     0.029 A 
ATOM     60  C   UNL     1      17.034  -6.394  -3.505  1.00  0.00     0.049 A 
ATOM     61  H   UNL     1      15.186  -5.424  -3.812  1.00  0.00     0.167 HD
ATOM     62  C   UNL     1      15.448  -8.246  -3.966  1.00  0.00     0.074 A 
ATOM     63  C   UNL     1      15.126  -9.645  -4.165  1.00  0.00     0.031 C 
ATOM     64  C   UNL     1      16.693  -7.780  -3.703  1.00  0.00     0.037 A 
BRANCH  51  65
ATOM     65  C   UNL     1      17.027  -1.640  -3.113  1.00  0.00     0.057 A 
ATOM     66  C   UNL     1      16.963  -0.909  -1.920  1.00  0.00     0.134 A 
ATOM     67  C   UNL     1      17.954  -1.223  -4.077  1.00  0.00     0.134 A 
ATOM     68  F   UNL     1      16.083  -1.244  -0.964  1.00  0.00    -0.206 F 
ATOM     69  C   UNL     1      17.778   0.204  -1.703  1.00  0.00     0.040 A 
ATOM     70  C   UNL     1      18.790  -0.126  -3.862  1.00  0.00     0.040 A 
ATOM     71  F   UNL     1      18.068  -1.880  -5.241  1.00  0.00    -0.206 F 
ATOM     72  C   UNL     1      18.700   0.594  -2.673  1.00  0.00     0.006 A 
ENDBRANCH  51  65
BRANCH  52  73
ATOM     73  C   UNL     1      10.989  -9.380  -4.939  1.00  0.00     0.057 A 
ATOM     74  C   UNL     1      10.647 -10.317  -3.958  1.00  0.00     0.134 A 
ATOM     75  C   UNL     1      10.460  -9.565  -6.222  1.00  0.00     0.134 A 
ATOM     76  F   UNL     1      11.142 -10.207  -2.717  1.00  0.00    -0.206 F 
ATOM     77  C   UNL     1       9.816 -11.401  -4.244  1.00  0.00     0.040 A 
ATOM     78  C   UNL     1       9.607 -10.628  -6.516  1.00  0.00     0.040 A 
ATOM     79  F   UNL     1      10.750  -8.699  -7.205  1.00  0.00    -0.206 F 
ATOM     80  C   UNL     1       9.287 -11.554  -5.525  1.00  0.00     0.006 A 
ENDBRANCH  52  73
BRANCH  64  81
ATOM     81  C   UNL     1      17.788  -8.796  -3.584  1.00  0.00     0.057 A 
ATOM     82  C   UNL     1      18.326  -9.434  -4.709  1.00  0.00     0.134 A 
ATOM     83  C   UNL     1      18.328  -9.118  -2.333  1.00  0.00     0.134 A 
ATOM     84  F   UNL     1      17.840  -9.179  -5.933  1.00  0.00    -0.206 F 
ATOM     85  C   UNL     1      19.351 -10.374  -4.590  1.00  0.00     0.040 A 
ATOM     86  C   UNL     1      19.368 -10.039  -2.204  1.00  0.00     0.040 A 
ATOM     87  F   UNL     1      17.860  -8.536  -1.219  1.00  0.00    -0.206 F 
ATOM     88  C   UNL     1      19.879 -10.674  -3.335  1.00  0.00     0.006 A 
ENDBRANCH  64  81
ENDBRANCH  38  39
ENDBRANCH  31  33
ENDBRANCH  30  31
ENDBRANCH  29  30
ENDBRANCH  28  29
ENDBRANCH   1  28
TORSDOF 16
