REMARK SMILES O=C(COc1ccc(Cl)c2ccccc12)N[C@@H](Cc1c[nH]c2ccccc12)C(=O)OCCOC(=O)c1ccc(-c2c3nc(c(-c4c(F)cccc4F)c4ccc([nH]4)c(-c4c(F)cccc4F)c4nc(c(-c5c(F)cccc5F)c5ccc2[nH]5)C=C4)C=C3)cc1
REMARK SMILES IDX 31 1 30 2 28 3 29 4 17 5 16 6 1 7 2 8 3 10 4 11 5 12 6 13
REMARK SMILES IDX 15 14 7 15 10 16 14 17 8 18 11 19 13 20 9 21 12 22 18 23
REMARK SMILES IDX 19 24 20 25 27 26 21 27 22 28 26 29 23 31 25 32 24 33 32 34
REMARK SMILES IDX 33 35 34 36 35 37 36 38 37 39 89 40 38 41 88 42 39 43 40 44
REMARK SMILES IDX 41 45 82 46 42 47 87 48 81 49 83 50 43 51 86 52 80 53 79 54
REMARK SMILES IDX 44 56 70 57 53 58 69 59 54 60 57 61 68 62 84 63 55 64 56 65
REMARK SMILES IDX 67 67 85 68 58 69 45 70 46 71 51 72 47 73 48 74 50 75 52 76
REMARK SMILES IDX 49 77 71 78 72 79 77 80 73 81 74 82 76 83 78 84 75 85 59 86
REMARK SMILES IDX 60 87 65 88 61 89 62 90 64 91 66 92 63 93
REMARK H PARENT 16 9 21 30 83 55 57 66
REMARK Flexibility Score: inf
ROOT
ATOM      1  C   UNL     1       4.042   0.764   5.162  1.00  0.00     0.274 C 
ENDROOT
BRANCH   1   2
ATOM      2  O   UNL     1       3.844   0.206   3.847  1.00  0.00    -0.461 OA
BRANCH   2   3
ATOM      3  C   UNL     1       2.946  -0.811   3.749  1.00  0.00     0.329 C 
ATOM      4  O   UNL     1       2.382  -1.336   4.704  1.00  0.00    -0.250 OA
BRANCH   3   5
ATOM      5  C   UNL     1       2.730  -1.279   2.301  1.00  0.00     0.196 C 
BRANCH   5   6
ATOM      6  N   UNL     1       3.123  -0.362   1.217  1.00  0.00    -0.339 N 
ATOM      7  O   UNL     1       1.352  -0.941  -0.100  1.00  0.00    -0.271 OA
ATOM      8  C   UNL     1       2.389  -0.294   0.053  1.00  0.00     0.258 C 
ATOM      9  H   UNL     1       3.919   0.208   1.325  1.00  0.00     0.164 HD
BRANCH   8  10
ATOM     10  C   UNL     1       2.950   0.570  -1.090  1.00  0.00     0.329 C 
BRANCH  10  11
ATOM     11  O   UNL     1       3.766   1.686  -0.785  1.00  0.00    -0.483 OA
BRANCH  11  12
ATOM     12  C   UNL     1       3.133   2.897  -0.615  1.00  0.00     0.128 A 
ATOM     13  C   UNL     1       1.882   3.005  -0.009  1.00  0.00     0.048 A 
ATOM     14  C   UNL     1       3.853   4.065  -0.977  1.00  0.00     0.025 A 
ATOM     15  C   UNL     1       1.385   4.253   0.353  1.00  0.00     0.025 A 
ATOM     16  C   UNL     1       3.348   5.344  -0.612  1.00  0.00     0.004 A 
ATOM     17  C   UNL     1       5.055   4.001  -1.715  1.00  0.00     0.012 A 
ATOM     18  C   UNL     1       2.122   5.406   0.089  1.00  0.00     0.049 A 
ATOM     19  C   UNL     1       4.096   6.492  -0.973  1.00  0.00     0.010 A 
ATOM     20  C   UNL     1       5.748   5.151  -2.094  1.00  0.00     0.001 A 
ATOM     21  Cl  UNL     1       1.455   6.899   0.666  1.00  0.00    -0.084 Cl
ATOM     22  C   UNL     1       5.274   6.397  -1.713  1.00  0.00     0.001 A 
ENDBRANCH  11  12
ENDBRANCH  10  11
ENDBRANCH   8  10
ENDBRANCH   5   6
BRANCH   5  23
ATOM     23  C   UNL     1       3.310  -2.690   2.122  1.00  0.00     0.074 C 
BRANCH  23  24
ATOM     24  C   UNL     1       4.771  -2.872   2.423  1.00  0.00    -0.020 A 
ATOM     25  C   UNL     1       5.781  -1.928   2.441  1.00  0.00     0.087 A 
ATOM     26  C   UNL     1       5.386  -4.128   2.748  1.00  0.00     0.003 A 
ATOM     27  N   UNL     1       6.949  -2.546   2.799  1.00  0.00    -0.361 N 
ATOM     28  C   UNL     1       6.740  -3.891   2.981  1.00  0.00     0.046 A 
ATOM     29  C   UNL     1       4.907  -5.450   2.865  1.00  0.00     0.010 A 
ATOM     30  H   UNL     1       7.815  -2.091   2.910  1.00  0.00     0.166 HD
ATOM     31  C   UNL     1       7.639  -4.905   3.328  1.00  0.00     0.026 A 
ATOM     32  C   UNL     1       5.793  -6.478   3.202  1.00  0.00     0.001 A 
ATOM     33  C   UNL     1       7.140  -6.207   3.431  1.00  0.00     0.002 A 
ENDBRANCH  23  24
ENDBRANCH   5  23
ENDBRANCH   3   5
ENDBRANCH   2   3
ENDBRANCH   1   2
BRANCH   1  34
ATOM     34  C   UNL     1       3.621   2.237   5.194  1.00  0.00     0.275 C 
BRANCH  34  35
ATOM     35  O   UNL     1       2.207   2.387   4.953  1.00  0.00    -0.458 OA
BRANCH  35  36
ATOM     36  C   UNL     1       1.885   2.409   3.639  1.00  0.00     0.338 C 
ATOM     37  O   UNL     1       2.660   2.358   2.701  1.00  0.00    -0.246 OA
BRANCH  36  38
ATOM     38  C   UNL     1       0.427   2.352   3.457  1.00  0.00     0.060 A 
ATOM     39  C   UNL     1      -0.101   1.258   2.766  1.00  0.00     0.016 A 
ATOM     40  C   UNL     1      -0.396   3.408   3.843  1.00  0.00     0.016 A 
ATOM     41  C   UNL     1      -1.455   1.208   2.455  1.00  0.00     0.010 A 
ATOM     42  C   UNL     1      -1.759   3.359   3.531  1.00  0.00     0.010 A 
ATOM     43  C   UNL     1      -2.294   2.260   2.833  1.00  0.00    -0.014 A 
BRANCH  43  44
ATOM     44  C   UNL     1      -3.733   2.207   2.492  1.00  0.00     0.031 A 
ATOM     45  C   UNL     1      -4.269   3.022   1.353  1.00  0.00     0.074 A 
ATOM     46  C   UNL     1      -4.550   1.415   3.209  1.00  0.00     0.049 A 
ATOM     47  N   UNL     1      -5.508   3.190   0.970  1.00  0.00    -0.248 NA
ATOM     48  C   UNL     1      -3.281   3.741   0.534  1.00  0.00     0.031 C 
ATOM     49  C   UNL     1      -4.128   0.535   4.300  1.00  0.00     0.029 A 
ATOM     50  N   UNL     1      -5.906   1.228   3.133  1.00  0.00    -0.354 N 
ATOM     51  C   UNL     1      -5.455   4.051  -0.118  1.00  0.00     0.074 A 
ATOM     52  C   UNL     1      -4.060   4.373  -0.335  1.00  0.00     0.031 C 
ATOM     53  C   UNL     1      -5.207  -0.088   4.801  1.00  0.00     0.029 A 
ATOM     54  C   UNL     1      -6.396   0.383   4.098  1.00  0.00     0.049 A 
ATOM     55  H   UNL     1      -6.473   1.658   2.452  1.00  0.00     0.167 HD
ATOM     56  C   UNL     1      -6.480   4.527  -0.862  1.00  0.00     0.037 A 
ATOM     57  C   UNL     1      -7.665   0.057   4.403  1.00  0.00     0.037 A 
ATOM     58  C   UNL     1      -7.863   4.184  -0.651  1.00  0.00     0.049 A 
ATOM     59  C   UNL     1      -8.787   0.654   3.601  1.00  0.00     0.074 A 
ATOM     60  C   UNL     1      -8.973   4.595  -1.370  1.00  0.00     0.029 A 
ATOM     61  N   UNL     1      -8.324   3.348   0.354  1.00  0.00    -0.354 N 
ATOM     62  N   UNL     1      -8.727   1.467   2.574  1.00  0.00    -0.248 NA
ATOM     63  C   UNL     1     -10.154   0.297   4.007  1.00  0.00     0.031 C 
ATOM     64  C   UNL     1     -10.110   4.039  -0.773  1.00  0.00     0.029 A 
ATOM     65  C   UNL     1      -9.704   3.251   0.292  1.00  0.00     0.049 A 
ATOM     66  H   UNL     1      -7.755   2.892   1.015  1.00  0.00     0.167 HD
ATOM     67  C   UNL     1     -10.042   1.698   2.195  1.00  0.00     0.074 A 
ATOM     68  C   UNL     1     -10.879   0.931   3.096  1.00  0.00     0.031 C 
ATOM     69  C   UNL     1     -10.517   2.475   1.191  1.00  0.00     0.037 A 
BRANCH  56  70
ATOM     70  C   UNL     1      -6.157   5.498  -1.957  1.00  0.00     0.057 A 
ATOM     71  C   UNL     1      -5.597   5.087  -3.171  1.00  0.00     0.134 A 
ATOM     72  C   UNL     1      -6.473   6.856  -1.814  1.00  0.00     0.134 A 
ATOM     73  F   UNL     1      -5.261   3.803  -3.366  1.00  0.00    -0.206 F 
ATOM     74  C   UNL     1      -5.355   5.995  -4.205  1.00  0.00     0.040 A 
ATOM     75  C   UNL     1      -6.254   7.769  -2.846  1.00  0.00     0.040 A 
ATOM     76  F   UNL     1      -7.017   7.312  -0.676  1.00  0.00    -0.206 F 
ATOM     77  C   UNL     1      -5.692   7.338  -4.047  1.00  0.00     0.006 A 
ENDBRANCH  56  70
BRANCH  57  78
ATOM     78  C   UNL     1      -7.949  -0.852   5.541  1.00  0.00     0.057 A 
ATOM     79  C   UNL     1      -8.467  -2.134   5.334  1.00  0.00     0.134 A 
ATOM     80  C   UNL     1      -7.733  -0.448   6.865  1.00  0.00     0.134 A 
ATOM     81  F   UNL     1      -8.719  -2.567   4.090  1.00  0.00    -0.206 F 
ATOM     82  C   UNL     1      -8.777  -2.978   6.402  1.00  0.00     0.040 A 
ATOM     83  C   UNL     1      -8.014  -1.290   7.941  1.00  0.00     0.040 A 
ATOM     84  F   UNL     1      -7.238   0.770   7.130  1.00  0.00    -0.206 F 
ATOM     85  C   UNL     1      -8.546  -2.557   7.710  1.00  0.00     0.006 A 
ENDBRANCH  57  78
BRANCH  69  86
ATOM     86  C   UNL     1     -12.002   2.501   0.995  1.00  0.00     0.057 A 
ATOM     87  C   UNL     1     -12.847   3.205   1.862  1.00  0.00     0.134 A 
ATOM     88  C   UNL     1     -12.589   1.838  -0.089  1.00  0.00     0.134 A 
ATOM     89  F   UNL     1     -12.346   3.848   2.928  1.00  0.00    -0.206 F 
ATOM     90  C   UNL     1     -14.229   3.231   1.668  1.00  0.00     0.040 A 
ATOM     91  C   UNL     1     -13.967   1.875  -0.306  1.00  0.00     0.040 A 
ATOM     92  F   UNL     1     -11.833   1.151  -0.959  1.00  0.00    -0.206 F 
ATOM     93  C   UNL     1     -14.791   2.568   0.578  1.00  0.00     0.006 A 
ENDBRANCH  69  86
ENDBRANCH  43  44
ENDBRANCH  36  38
ENDBRANCH  35  36
ENDBRANCH  34  35
ENDBRANCH   1  34
TORSDOF 17
