REMARK SMILES COc1ccc(C(F)(F)F)cc1-c1cc(N)cc(C(=O)OCCOC(=O)c2ccc(-c3c4nc(c(-c5c(F)cccc5F)c5ccc([nH]5)c(-c5c(F)cccc5F)c5nc(c(-c6c(F)cccc6F)c6ccc3[nH]6)C=C5)C=C4)cc2)c1
REMARK SMILES IDX 22 1 21 2 19 3 20 4 18 5 13 6 14 7 81 8 15 9 17 10 12 11
REMARK SMILES IDX 3 12 4 13 5 14 11 15 6 16 2 17 1 18 7 19 8 20 9 21 10 22
REMARK SMILES IDX 16 23 23 26 24 27 25 28 26 29 27 30 28 31 80 32 29 33 79 34
REMARK SMILES IDX 30 35 31 36 32 37 73 38 33 39 78 40 72 41 74 42 34 43 77 44
REMARK SMILES IDX 71 45 70 46 35 48 61 49 44 50 60 51 45 52 48 53 59 54 75 55
REMARK SMILES IDX 46 56 47 57 58 59 76 60 49 61 36 62 37 63 42 64 38 65 39 66
REMARK SMILES IDX 41 67 43 68 40 69 62 70 63 71 68 72 64 73 65 74 67 75 69 76
REMARK SMILES IDX 66 77 50 78 51 79 56 80 52 81 53 82 55 83 57 84 54 85
REMARK H PARENT 16 24 16 25 74 47 48 58
REMARK Flexibility Score: inf
ROOT
ATOM      1  C   UNL     1       4.548   1.068  -4.023  1.00  0.00     0.275 C 
ENDROOT
BRANCH   1   2
ATOM      2  O   UNL     1       4.245   1.048  -2.614  1.00  0.00    -0.458 OA
BRANCH   2   3
ATOM      3  C   UNL     1       4.049  -0.172  -2.058  1.00  0.00     0.338 C 
ATOM      4  O   UNL     1       4.062  -1.249  -2.633  1.00  0.00    -0.246 OA
BRANCH   3   5
ATOM      5  C   UNL     1       3.941  -0.048  -0.586  1.00  0.00     0.062 A 
ATOM      6  C   UNL     1       3.096   1.063   1.381  1.00  0.00    -0.012 A 
ATOM      7  C   UNL     1       3.695   0.065   2.176  1.00  0.00     0.034 A 
ATOM      8  C   UNL     1       3.321   1.052  -0.001  1.00  0.00     0.024 A 
ATOM      9  C   UNL     1       4.406  -0.989   1.609  1.00  0.00     0.033 A 
ATOM     10  C   UNL     1       4.409  -1.095   0.224  1.00  0.00     0.041 A 
BRANCH   6  11
ATOM     11  C   UNL     1       2.123   1.988   1.977  1.00  0.00     0.024 A 
ATOM     12  C   UNL     1       0.802   2.099   1.492  1.00  0.00     0.126 A 
ATOM     13  C   UNL     1      -0.118   2.946   2.110  1.00  0.00     0.047 A 
ATOM     14  C   UNL     1       0.250   3.677   3.239  1.00  0.00     0.017 A 
ATOM     15  C   UNL     1       2.478   2.751   3.105  1.00  0.00     0.025 A 
ATOM     16  C   UNL     1       1.554   3.593   3.745  1.00  0.00     0.056 A 
BRANCH  12  17
ATOM     17  O   UNL     1       0.361   1.477   0.347  1.00  0.00    -0.496 OA
ATOM     18  C   UNL     1       0.169   0.070   0.508  1.00  0.00     0.278 C 
ENDBRANCH  12  17
BRANCH  16  19
ATOM     19  C   UNL     1       1.951   4.402   4.955  1.00  0.00     0.416 C 
ATOM     20  F   UNL     1       1.818   5.742   4.752  1.00  0.00    -0.166 F 
ATOM     21  F   UNL     1       1.191   4.111   6.047  1.00  0.00    -0.166 F 
ATOM     22  F   UNL     1       3.244   4.209   5.341  1.00  0.00    -0.166 F 
ENDBRANCH  16  19
ENDBRANCH   6  11
BRANCH   9  23
ATOM     23  N   UNL     1       4.923  -2.001   2.402  1.00  0.00    -0.399 N 
ATOM     24  H   UNL     1       4.914  -1.912   3.382  1.00  0.00     0.156 HD
ATOM     25  H   UNL     1       5.299  -2.810   1.985  1.00  0.00     0.156 HD
ENDBRANCH   9  23
ENDBRANCH   3   5
ENDBRANCH   2   3
ENDBRANCH   1   2
BRANCH   1  26
ATOM     26  C   UNL     1       6.030   1.373  -4.242  1.00  0.00     0.275 C 
BRANCH  26  27
ATOM     27  O   UNL     1       6.828   0.291  -3.722  1.00  0.00    -0.458 OA
BRANCH  27  28
ATOM     28  C   UNL     1       7.692   0.610  -2.731  1.00  0.00     0.338 C 
ATOM     29  O   UNL     1       7.946   1.716  -2.286  1.00  0.00    -0.246 OA
BRANCH  28  30
ATOM     30  C   UNL     1       8.248  -0.626  -2.156  1.00  0.00     0.060 A 
ATOM     31  C   UNL     1       7.386  -1.452  -1.450  1.00  0.00     0.016 A 
ATOM     32  C   UNL     1       9.610  -0.903  -2.167  1.00  0.00     0.016 A 
ATOM     33  C   UNL     1       7.872  -2.492  -0.666  1.00  0.00     0.010 A 
ATOM     34  C   UNL     1      10.090  -2.027  -1.474  1.00  0.00     0.010 A 
ATOM     35  C   UNL     1       9.233  -2.815  -0.680  1.00  0.00    -0.014 A 
BRANCH  35  36
ATOM     36  C   UNL     1       9.731  -3.941   0.168  1.00  0.00     0.031 A 
ATOM     37  C   UNL     1      10.820  -3.713   1.188  1.00  0.00     0.074 A 
ATOM     38  C   UNL     1       9.180  -5.170   0.069  1.00  0.00     0.049 A 
ATOM     39  N   UNL     1      11.459  -4.587   1.928  1.00  0.00    -0.248 NA
ATOM     40  C   UNL     1      11.257  -2.325   1.394  1.00  0.00     0.031 C 
ATOM     41  C   UNL     1       8.097  -5.544  -0.844  1.00  0.00     0.029 A 
ATOM     42  N   UNL     1       9.444  -6.332   0.754  1.00  0.00    -0.354 N 
ATOM     43  C   UNL     1      12.415  -3.864   2.633  1.00  0.00     0.074 A 
ATOM     44  C   UNL     1      12.273  -2.481   2.230  1.00  0.00     0.031 C 
ATOM     45  C   UNL     1       7.754  -6.821  -0.625  1.00  0.00     0.029 A 
ATOM     46  C   UNL     1       8.654  -7.391   0.370  1.00  0.00     0.049 A 
ATOM     47  H   UNL     1      10.132  -6.401   1.455  1.00  0.00     0.167 HD
ATOM     48  C   UNL     1      13.327  -4.309   3.531  1.00  0.00     0.037 A 
ATOM     49  C   UNL     1       8.672  -8.687   0.736  1.00  0.00     0.037 A 
ATOM     50  C   UNL     1      13.431  -5.675   3.981  1.00  0.00     0.049 A 
ATOM     51  C   UNL     1       9.697  -9.158   1.726  1.00  0.00     0.074 A 
ATOM     52  C   UNL     1      14.302  -6.211   4.915  1.00  0.00     0.029 A 
ATOM     53  N   UNL     1      12.632  -6.718   3.539  1.00  0.00    -0.354 N 
ATOM     54  N   UNL     1      10.619  -8.469   2.352  1.00  0.00    -0.248 NA
ATOM     55  C   UNL     1       9.693 -10.592   2.048  1.00  0.00     0.031 C 
ATOM     56  C   UNL     1      14.059  -7.587   5.006  1.00  0.00     0.029 A 
ATOM     57  C   UNL     1      13.002  -7.899   4.167  1.00  0.00     0.049 A 
ATOM     58  H   UNL     1      11.908  -6.634   2.878  1.00  0.00     0.167 HD
ATOM     59  C   UNL     1      11.305  -9.383   3.142  1.00  0.00     0.074 A 
ATOM     60  C   UNL     1      10.667 -10.668   2.943  1.00  0.00     0.031 C 
ATOM     61  C   UNL     1      12.372  -9.177   3.951  1.00  0.00     0.037 A 
BRANCH  48  62
ATOM     62  C   UNL     1      14.322  -3.314   4.059  1.00  0.00     0.057 A 
ATOM     63  C   UNL     1      13.968  -2.298   4.955  1.00  0.00     0.134 A 
ATOM     64  C   UNL     1      15.669  -3.395   3.677  1.00  0.00     0.134 A 
ATOM     65  F   UNL     1      12.694  -2.155   5.352  1.00  0.00    -0.206 F 
ATOM     66  C   UNL     1      14.910  -1.381   5.428  1.00  0.00     0.040 A 
ATOM     67  C   UNL     1      16.624  -2.503   4.166  1.00  0.00     0.040 A 
ATOM     68  F   UNL     1      16.079  -4.349   2.828  1.00  0.00    -0.206 F 
ATOM     69  C   UNL     1      16.244  -1.486   5.038  1.00  0.00     0.006 A 
ENDBRANCH  48  62
BRANCH  49  70
ATOM     70  C   UNL     1       7.714  -9.642   0.121  1.00  0.00     0.057 A 
ATOM     71  C   UNL     1       6.693 -10.234   0.872  1.00  0.00     0.134 A 
ATOM     72  C   UNL     1       7.796  -9.982  -1.236  1.00  0.00     0.134 A 
ATOM     73  F   UNL     1       6.578  -9.970   2.182  1.00  0.00    -0.206 F 
ATOM     74  C   UNL     1       5.791 -11.133   0.299  1.00  0.00     0.040 A 
ATOM     75  C   UNL     1       6.883 -10.854  -1.829  1.00  0.00     0.040 A 
ATOM     76  F   UNL     1       8.753  -9.450  -2.010  1.00  0.00    -0.206 F 
ATOM     77  C   UNL     1       5.880 -11.438  -1.058  1.00  0.00     0.006 A 
ENDBRANCH  49  70
BRANCH  61  78
ATOM     78  C   UNL     1      12.901 -10.371   4.691  1.00  0.00     0.057 A 
ATOM     79  C   UNL     1      13.581 -11.405   4.035  1.00  0.00     0.134 A 
ATOM     80  C   UNL     1      12.720 -10.493   6.075  1.00  0.00     0.134 A 
ATOM     81  F   UNL     1      13.774 -11.357   2.708  1.00  0.00    -0.206 F 
ATOM     82  C   UNL     1      14.030 -12.535   4.721  1.00  0.00     0.040 A 
ATOM     83  C   UNL     1      13.189 -11.605   6.777  1.00  0.00     0.040 A 
ATOM     84  F   UNL     1      12.085  -9.536   6.767  1.00  0.00    -0.206 F 
ATOM     85  C   UNL     1      13.836 -12.635   6.098  1.00  0.00     0.006 A 
ENDBRANCH  61  78
ENDBRANCH  35  36
ENDBRANCH  28  30
ENDBRANCH  27  28
ENDBRANCH  26  27
ENDBRANCH   1  26
TORSDOF 15
