REMARK SMILES O=C(OCCOC(=O)c1cccn(Cc2ccc3c(c2)OC(F)(F)O3)c1=O)c1ccc(-c2c3nc(c(-c4c(F)cccc4F)c4ccc([nH]4)c(-c4c(F)cccc4F)c4nc(c(-c5c(F)cccc5F)c5ccc2[nH]5)C=C4)C=C3)cc1
REMARK SMILES IDX 4 1 3 2 2 3 1 4 28 5 29 6 81 7 30 8 80 9 31 10 32 11 33 12
REMARK SMILES IDX 74 13 34 14 79 15 73 16 75 17 35 18 78 19 72 20 71 21 36 23
REMARK SMILES IDX 62 24 45 25 61 26 46 27 49 28 60 29 76 30 47 31 48 32 59 34
REMARK SMILES IDX 77 35 50 36 37 37 38 38 43 39 39 40 40 41 42 42 44 43 41 44
REMARK SMILES IDX 63 45 64 46 69 47 65 48 66 49 68 50 70 51 67 52 51 53 52 54
REMARK SMILES IDX 57 55 53 56 54 57 56 58 58 59 55 60 5 61 6 62 7 63 8 64 9 65
REMARK SMILES IDX 10 66 26 67 11 68 13 69 27 70 12 71 14 72 15 73 16 74 20 75
REMARK SMILES IDX 17 76 19 77 18 78 21 79 25 80 22 81 23 82 24 83
REMARK H PARENT 75 22 49 33
REMARK Flexibility Score: inf
ROOT
ATOM      1  C   UNL     1       4.026   1.385  -0.837  1.00  0.00     0.275 C 
ENDROOT
BRANCH   1   2
ATOM      2  O   UNL     1       2.972   0.427  -1.040  1.00  0.00    -0.458 OA
BRANCH   2   3
ATOM      3  C   UNL     1       3.089  -0.917  -0.892  1.00  0.00     0.338 C 
ATOM      4  O   UNL     1       2.397  -1.679  -1.561  1.00  0.00    -0.246 OA
BRANCH   3   5
ATOM      5  C   UNL     1       3.816  -1.471   0.286  1.00  0.00     0.060 A 
ATOM      6  C   UNL     1       3.112  -2.400   1.060  1.00  0.00     0.016 A 
ATOM      7  C   UNL     1       5.123  -1.149   0.659  1.00  0.00     0.016 A 
ATOM      8  C   UNL     1       3.649  -2.883   2.254  1.00  0.00     0.010 A 
ATOM      9  C   UNL     1       5.673  -1.650   1.848  1.00  0.00     0.010 A 
ATOM     10  C   UNL     1       4.931  -2.497   2.674  1.00  0.00    -0.014 A 
BRANCH  10  11
ATOM     11  C   UNL     1       5.527  -3.131   3.876  1.00  0.00     0.031 A 
ATOM     12  C   UNL     1       5.823  -2.377   5.141  1.00  0.00     0.074 A 
ATOM     13  C   UNL     1       5.790  -4.449   3.814  1.00  0.00     0.049 A 
ATOM     14  N   UNL     1       6.072  -2.858   6.335  1.00  0.00    -0.248 NA
ATOM     15  C   UNL     1       5.823  -0.910   5.080  1.00  0.00     0.031 C 
ATOM     16  C   UNL     1       5.614  -5.284   2.623  1.00  0.00     0.029 A 
ATOM     17  N   UNL     1       6.258  -5.314   4.765  1.00  0.00    -0.354 N 
ATOM     18  C   UNL     1       6.163  -1.760   7.181  1.00  0.00     0.074 A 
ATOM     19  C   UNL     1       6.029  -0.582   6.352  1.00  0.00     0.031 C 
ATOM     20  C   UNL     1       5.952  -6.546   2.920  1.00  0.00     0.029 A 
ATOM     21  C   UNL     1       6.399  -6.599   4.306  1.00  0.00     0.049 A 
ATOM     22  H   UNL     1       6.472  -5.042   5.686  1.00  0.00     0.167 HD
ATOM     23  C   UNL     1       6.303  -1.746   8.529  1.00  0.00     0.037 A 
ATOM     24  C   UNL     1       6.851  -7.701   4.929  1.00  0.00     0.037 A 
ATOM     25  C   UNL     1       6.593  -2.912   9.325  1.00  0.00     0.049 A 
ATOM     26  C   UNL     1       7.229  -7.614   6.375  1.00  0.00     0.074 A 
ATOM     27  C   UNL     1       6.737  -3.014  10.698  1.00  0.00     0.029 A 
ATOM     28  N   UNL     1       6.863  -4.167   8.803  1.00  0.00    -0.354 N 
ATOM     29  N   UNL     1       7.111  -6.603   7.201  1.00  0.00    -0.248 NA
ATOM     30  C   UNL     1       7.798  -8.825   6.974  1.00  0.00     0.031 C 
ATOM     31  C   UNL     1       7.182  -4.311  10.995  1.00  0.00     0.029 A 
ATOM     32  C   UNL     1       7.256  -5.030   9.814  1.00  0.00     0.049 A 
ATOM     33  H   UNL     1       6.787  -4.411   7.852  1.00  0.00     0.167 HD
ATOM     34  C   UNL     1       7.575  -7.060   8.426  1.00  0.00     0.074 A 
ATOM     35  C   UNL     1       7.953  -8.447   8.235  1.00  0.00     0.031 C 
ATOM     36  C   UNL     1       7.673  -6.394   9.604  1.00  0.00     0.037 A 
BRANCH  23  37
ATOM     37  C   UNL     1       6.132  -0.432   9.234  1.00  0.00     0.057 A 
ATOM     38  C   UNL     1       7.218   0.263   9.774  1.00  0.00     0.134 A 
ATOM     39  C   UNL     1       4.854   0.100   9.451  1.00  0.00     0.134 A 
ATOM     40  F   UNL     1       8.467  -0.201   9.620  1.00  0.00    -0.206 F 
ATOM     41  C   UNL     1       7.040   1.444  10.500  1.00  0.00     0.040 A 
ATOM     42  C   UNL     1       4.661   1.287  10.161  1.00  0.00     0.040 A 
ATOM     43  F   UNL     1       3.771  -0.538   8.985  1.00  0.00    -0.206 F 
ATOM     44  C   UNL     1       5.758   1.961  10.693  1.00  0.00     0.006 A 
ENDBRANCH  23  37
BRANCH  24  45
ATOM     45  C   UNL     1       6.966  -8.968   4.171  1.00  0.00     0.057 A 
ATOM     46  C   UNL     1       7.899  -9.108   3.135  1.00  0.00     0.134 A 
ATOM     47  C   UNL     1       6.127 -10.053   4.438  1.00  0.00     0.134 A 
ATOM     48  F   UNL     1       8.727  -8.098   2.828  1.00  0.00    -0.206 F 
ATOM     49  C   UNL     1       7.977 -10.274   2.375  1.00  0.00     0.040 A 
ATOM     50  C   UNL     1       6.213 -11.236   3.704  1.00  0.00     0.040 A 
ATOM     51  F   UNL     1       5.225  -9.981   5.428  1.00  0.00    -0.206 F 
ATOM     52  C   UNL     1       7.134 -11.345   2.663  1.00  0.00     0.006 A 
ENDBRANCH  24  45
BRANCH  36  53
ATOM     53  C   UNL     1       8.218  -7.176  10.762  1.00  0.00     0.057 A 
ATOM     54  C   UNL     1       7.383  -7.589  11.807  1.00  0.00     0.134 A 
ATOM     55  C   UNL     1       9.562  -7.571  10.813  1.00  0.00     0.134 A 
ATOM     56  F   UNL     1       6.088  -7.240  11.824  1.00  0.00    -0.206 F 
ATOM     57  C   UNL     1       7.859  -8.384  12.850  1.00  0.00     0.040 A 
ATOM     58  C   UNL     1      10.042  -8.393  11.834  1.00  0.00     0.040 A 
ATOM     59  F   UNL     1      10.410  -7.225   9.832  1.00  0.00    -0.206 F 
ATOM     60  C   UNL     1       9.189  -8.802  12.856  1.00  0.00     0.006 A 
ENDBRANCH  36  53
ENDBRANCH  10  11
ENDBRANCH   3   5
ENDBRANCH   2   3
ENDBRANCH   1   2
BRANCH   1  61
ATOM     61  C   UNL     1       3.953   2.126   0.502  1.00  0.00     0.275 C 
BRANCH  61  62
ATOM     62  O   UNL     1       3.486   1.295   1.573  1.00  0.00    -0.458 OA
BRANCH  62  63
ATOM     63  C   UNL     1       2.144   1.358   1.804  1.00  0.00     0.343 C 
ATOM     64  O   UNL     1       1.353   2.082   1.230  1.00  0.00    -0.246 OA
BRANCH  63  65
ATOM     65  C   UNL     1       1.746   0.285   2.731  1.00  0.00     0.125 A 
ATOM     66  C   UNL     1       0.763  -0.538   2.326  1.00  0.00     0.023 A 
ATOM     67  C   UNL     1       2.403   0.068   4.048  1.00  0.00     0.265 A 
ATOM     68  C   UNL     1       0.388  -1.684   3.114  1.00  0.00     0.019 A 
ATOM     69  N   UNL     1       1.960  -1.048   4.771  1.00  0.00    -0.310 N 
ATOM     70  O   UNL     1       3.249   0.861   4.459  1.00  0.00    -0.268 OA
ATOM     71  C   UNL     1       0.991  -1.910   4.285  1.00  0.00     0.089 A 
BRANCH  69  72
ATOM     72  C   UNL     1       2.438  -1.245   6.138  1.00  0.00     0.161 C 
BRANCH  72  73
ATOM     73  C   UNL     1       1.402  -0.782   7.136  1.00  0.00    -0.024 A 
ATOM     74  C   UNL     1       0.690  -1.712   7.926  1.00  0.00     0.010 A 
ATOM     75  C   UNL     1       1.146   0.593   7.266  1.00  0.00     0.056 A 
ATOM     76  C   UNL     1      -0.266  -1.280   8.848  1.00  0.00     0.051 A 
ATOM     77  C   UNL     1       0.217   0.989   8.196  1.00  0.00     0.173 A 
ATOM     78  C   UNL     1      -0.469   0.078   8.969  1.00  0.00     0.172 A 
ATOM     79  O   UNL     1      -0.117   2.275   8.481  1.00  0.00    -0.395 OA
ATOM     80  O   UNL     1      -1.317   0.684   9.844  1.00  0.00    -0.395 OA
ATOM     81  C   UNL     1      -0.928   2.049   9.639  1.00  0.00     0.586 C 
ATOM     82  F   UNL     1      -0.232   2.463  10.729  1.00  0.00    -0.125 F 
ATOM     83  F   UNL     1      -2.042   2.815   9.550  1.00  0.00    -0.125 F 
ENDBRANCH  72  73
ENDBRANCH  69  72
ENDBRANCH  63  65
ENDBRANCH  62  63
ENDBRANCH  61  62
ENDBRANCH   1  61
TORSDOF 13
