REMARK SMILES CC1(C)C[C@@H]1[NH2+]Cc1ccc(C(=O)OCCOC(=O)c2ccc(-c3c4nc(c(-c5c(F)cccc5F)c5ccc([nH]5)c(-c5c(F)cccc5F)c5nc(c(-c6c(F)cccc6F)c6ccc3[nH]6)C=C5)C=C4)cc2)cn1
REMARK SMILES IDX 15 1 14 2 12 3 13 4 11 5 8 6 9 7 75 8 10 9 74 10 7 11 6 12
REMARK SMILES IDX 5 15 1 16 2 17 3 18 4 19 16 20 17 21 18 22 19 23 20 24 21 25
REMARK SMILES IDX 73 26 22 27 72 28 23 29 24 30 25 31 66 32 26 33 71 34 65 35
REMARK SMILES IDX 67 36 27 37 70 38 64 39 63 40 28 42 54 43 37 44 53 45 38 46
REMARK SMILES IDX 41 47 52 48 68 49 39 50 40 51 51 53 69 54 42 55 29 56 30 57
REMARK SMILES IDX 35 58 31 59 32 60 34 61 36 62 33 63 55 64 56 65 61 66 57 67
REMARK SMILES IDX 58 68 60 69 62 70 59 71 43 72 44 73 49 74 45 75 46 76 48 77
REMARK SMILES IDX 50 78 47 79
REMARK H PARENT 6 13 6 14 67 41 41 52
REMARK Flexibility Score: inf
ROOT
ATOM      1  C   UNL     1      -3.886   7.831   5.891  1.00  0.00     0.275 C 
ENDROOT
BRANCH   1   2
ATOM      2  O   UNL     1      -3.110   6.920   5.082  1.00  0.00    -0.458 OA
BRANCH   2   3
ATOM      3  C   UNL     1      -3.800   5.853   4.614  1.00  0.00     0.339 C 
ATOM      4  O   UNL     1      -4.964   5.583   4.853  1.00  0.00    -0.246 OA
BRANCH   3   5
ATOM      5  C   UNL     1      -3.002   5.062   3.666  1.00  0.00     0.078 A 
ATOM      6  C   UNL     1      -1.875   3.310   1.870  1.00  0.00     0.094 A 
ATOM      7  C   UNL     1      -1.145   3.702   2.998  1.00  0.00     0.031 A 
ATOM      8  N   UNL     1      -3.094   3.811   1.596  1.00  0.00    -0.254 NA
ATOM      9  C   UNL     1      -1.717   4.597   3.912  1.00  0.00     0.019 A 
ATOM     10  C   UNL     1      -3.626   4.647   2.504  1.00  0.00     0.127 A 
BRANCH   6  11
ATOM     11  C   UNL     1      -1.385   2.265   0.897  1.00  0.00     0.318 C 
BRANCH  11  12
ATOM     12  N   UNL     1      -1.137   0.979   1.545  1.00  0.00    -0.338 N 
ATOM     13  H   UNL     1      -0.360   1.108   2.193  1.00  0.00     0.346 HD
ATOM     14  H   UNL     1      -2.028   0.729   1.974  1.00  0.00     0.346 HD
BRANCH  12  15
ATOM     15  C   UNL     1      -0.806  -0.158   0.688  1.00  0.00     0.189 C 
ATOM     16  C   UNL     1       1.211  -1.579  -0.086  1.00  0.00     0.017 C 
ATOM     17  C   UNL     1       0.518  -0.243  -0.058  1.00  0.00     0.022 C 
ATOM     18  C   UNL     1       1.461   0.937  -0.118  1.00  0.00     0.017 C 
ATOM     19  C   UNL     1      -0.794  -0.121  -0.808  1.00  0.00     0.078 C 
ENDBRANCH  12  15
ENDBRANCH  11  12
ENDBRANCH   6  11
ENDBRANCH   3   5
ENDBRANCH   2   3
ENDBRANCH   1   2
BRANCH   1  20
ATOM     20  C   UNL     1      -4.385   9.028   5.077  1.00  0.00     0.275 C 
BRANCH  20  21
ATOM     21  O   UNL     1      -5.412   8.644   4.139  1.00  0.00    -0.458 OA
BRANCH  21  22
ATOM     22  C   UNL     1      -5.000   8.546   2.857  1.00  0.00     0.338 C 
ATOM     23  O   UNL     1      -3.871   8.732   2.429  1.00  0.00    -0.246 OA
BRANCH  22  24
ATOM     24  C   UNL     1      -6.082   8.081   1.975  1.00  0.00     0.060 A 
ATOM     25  C   UNL     1      -6.372   6.726   1.976  1.00  0.00     0.016 A 
ATOM     26  C   UNL     1      -6.583   8.892   0.962  1.00  0.00     0.016 A 
ATOM     27  C   UNL     1      -6.950   6.141   0.854  1.00  0.00     0.010 A 
ATOM     28  C   UNL     1      -7.357   8.322  -0.062  1.00  0.00     0.010 A 
ATOM     29  C   UNL     1      -7.498   6.926  -0.170  1.00  0.00    -0.014 A 
BRANCH  29  30
ATOM     30  C   UNL     1      -8.207   6.280  -1.323  1.00  0.00     0.031 A 
ATOM     31  C   UNL     1      -7.881   6.655  -2.753  1.00  0.00     0.074 A 
ATOM     32  C   UNL     1      -9.151   5.339  -1.100  1.00  0.00     0.049 A 
ATOM     33  N   UNL     1      -8.519   6.347  -3.857  1.00  0.00    -0.248 NA
ATOM     34  C   UNL     1      -6.700   7.504  -2.971  1.00  0.00     0.031 C 
ATOM     35  C   UNL     1      -9.562   4.839   0.215  1.00  0.00     0.029 A 
ATOM     36  N   UNL     1      -9.936   4.622  -1.973  1.00  0.00    -0.354 N 
ATOM     37  C   UNL     1      -7.858   7.014  -4.884  1.00  0.00     0.074 A 
ATOM     38  C   UNL     1      -6.777   7.755  -4.270  1.00  0.00     0.031 C 
ATOM     39  C   UNL     1     -10.461   3.860   0.062  1.00  0.00     0.029 A 
ATOM     40  C   UNL     1     -10.797   3.750  -1.349  1.00  0.00     0.049 A 
ATOM     41  H   UNL     1      -9.886   4.724  -2.951  1.00  0.00     0.167 HD
ATOM     42  C   UNL     1      -8.126   7.009  -6.214  1.00  0.00     0.037 A 
ATOM     43  C   UNL     1     -11.794   2.986  -1.833  1.00  0.00     0.037 A 
ATOM     44  C   UNL     1      -9.166   6.222  -6.830  1.00  0.00     0.049 A 
ATOM     45  C   UNL     1     -12.100   3.032  -3.299  1.00  0.00     0.074 A 
ATOM     46  C   UNL     1      -9.497   6.127  -8.172  1.00  0.00     0.029 A 
ATOM     47  N   UNL     1     -10.036   5.383  -6.148  1.00  0.00    -0.354 N 
ATOM     48  N   UNL     1     -11.497   3.705  -4.248  1.00  0.00    -0.248 NA
ATOM     49  C   UNL     1     -13.239   2.228  -3.758  1.00  0.00     0.031 C 
ATOM     50  C   UNL     1     -10.600   5.274  -8.295  1.00  0.00     0.029 A 
ATOM     51  C   UNL     1     -10.918   4.788  -7.038  1.00  0.00     0.049 A 
ATOM     52  H   UNL     1     -10.028   5.232  -5.176  1.00  0.00     0.167 HD
ATOM     53  C   UNL     1     -12.172   3.393  -5.419  1.00  0.00     0.074 A 
ATOM     54  C   UNL     1     -13.213   2.450  -5.064  1.00  0.00     0.031 C 
ATOM     55  C   UNL     1     -11.951   3.852  -6.675  1.00  0.00     0.037 A 
BRANCH  42  56
ATOM     56  C   UNL     1      -7.306   7.909  -7.100  1.00  0.00     0.057 A 
ATOM     57  C   UNL     1      -5.955   7.667  -7.377  1.00  0.00     0.134 A 
ATOM     58  C   UNL     1      -7.897   9.019  -7.721  1.00  0.00     0.134 A 
ATOM     59  F   UNL     1      -5.321   6.627  -6.813  1.00  0.00    -0.206 F 
ATOM     60  C   UNL     1      -5.215   8.510  -8.210  1.00  0.00     0.040 A 
ATOM     61  C   UNL     1      -7.177   9.851  -8.582  1.00  0.00     0.040 A 
ATOM     62  F   UNL     1      -9.192   9.306  -7.515  1.00  0.00    -0.206 F 
ATOM     63  C   UNL     1      -5.828   9.602  -8.821  1.00  0.00     0.006 A 
ENDBRANCH  42  56
BRANCH  43  64
ATOM     64  C   UNL     1     -12.611   2.158  -0.906  1.00  0.00     0.057 A 
ATOM     65  C   UNL     1     -12.574   0.761  -0.959  1.00  0.00     0.134 A 
ATOM     66  C   UNL     1     -13.445   2.744   0.057  1.00  0.00     0.134 A 
ATOM     67  F   UNL     1     -11.816   0.140  -1.874  1.00  0.00    -0.206 F 
ATOM     68  C   UNL     1     -13.344  -0.024  -0.098  1.00  0.00     0.040 A 
ATOM     69  C   UNL     1     -14.191   1.972   0.948  1.00  0.00     0.040 A 
ATOM     70  F   UNL     1     -13.524   4.078   0.165  1.00  0.00    -0.206 F 
ATOM     71  C   UNL     1     -14.148   0.582   0.865  1.00  0.00     0.006 A 
ENDBRANCH  43  64
BRANCH  55  72
ATOM     72  C   UNL     1     -12.833   3.306  -7.760  1.00  0.00     0.057 A 
ATOM     73  C   UNL     1     -14.188   3.647  -7.857  1.00  0.00     0.134 A 
ATOM     74  C   UNL     1     -12.316   2.431  -8.724  1.00  0.00     0.134 A 
ATOM     75  F   UNL     1     -14.750   4.466  -6.956  1.00  0.00    -0.206 F 
ATOM     76  C   UNL     1     -15.005   3.110  -8.854  1.00  0.00     0.040 A 
ATOM     77  C   UNL     1     -13.115   1.913  -9.744  1.00  0.00     0.040 A 
ATOM     78  F   UNL     1     -11.024   2.068  -8.694  1.00  0.00    -0.206 F 
ATOM     79  C   UNL     1     -14.467   2.245  -9.805  1.00  0.00     0.006 A 
ENDBRANCH  55  72
ENDBRANCH  29  30
ENDBRANCH  22  24
ENDBRANCH  21  22
ENDBRANCH  20  21
ENDBRANCH   1  20
TORSDOF 14
