REMARK SMILES COc1ccc(C(=O)Nc2ccccc2C(=O)N[C@@H](C(=O)OCCOC(=O)c2ccc(-c3c4nc(c(-c5c(F)cccc5F)c5ccc([nH]5)c(-c5c(F)cccc5F)c5nc(c(-c6c(F)cccc6F)c6ccc3[nH]6)C=C5)C=C4)cc2)C(C)C)cc1
REMARK SMILES IDX 22 1 20 2 21 3 19 4 18 5 16 6 17 7 15 9 10 10 11 11 12 12
REMARK SMILES IDX 14 13 13 14 9 15 7 16 8 17 6 19 3 20 4 21 86 22 5 23 85 24
REMARK SMILES IDX 2 25 1 26 82 27 83 28 84 29 23 30 24 31 25 32 26 33 27 34
REMARK SMILES IDX 28 35 29 36 81 37 30 38 80 39 31 40 32 41 33 42 74 43 34 44
REMARK SMILES IDX 79 45 73 46 75 47 35 48 78 49 72 50 71 51 36 53 62 54 45 55
REMARK SMILES IDX 61 56 46 57 49 58 60 59 76 60 47 61 48 62 59 64 77 65 50 66
REMARK SMILES IDX 37 67 38 68 43 69 39 70 40 71 42 72 44 73 41 74 63 75 64 76
REMARK SMILES IDX 69 77 65 78 66 79 68 80 70 81 67 82 51 83 52 84 57 85 53 86
REMARK SMILES IDX 54 87 56 88 58 89 55 90
REMARK H PARENT 18 8 9 18 75 52 49 63
REMARK Flexibility Score: inf
ROOT
ATOM      1  O   UNL     1       2.501  -8.807   1.637  1.00  0.00    -0.461 OA
ENDROOT
BRANCH   1   2
ATOM      2  C   UNL     1       2.434  -8.842   0.275  1.00  0.00     0.329 C 
ATOM      3  O   UNL     1       2.514  -9.871  -0.387  1.00  0.00    -0.250 OA
BRANCH   2   4
ATOM      4  C   UNL     1       2.151  -7.446  -0.362  1.00  0.00     0.195 C 
BRANCH   4   5
ATOM      5  N   UNL     1       2.289  -6.398   0.659  1.00  0.00    -0.338 N 
ATOM      6  C   UNL     1       3.325  -5.572   1.035  1.00  0.00     0.254 C 
ATOM      7  O   UNL     1       3.228  -5.080   2.164  1.00  0.00    -0.269 OA
ATOM      8  H   UNL     1       1.468  -6.256   1.184  1.00  0.00     0.164 HD
BRANCH   6   9
ATOM      9  C   UNL     1       4.545  -5.247   0.226  1.00  0.00     0.063 A 
ATOM     10  C   UNL     1       4.701  -5.335  -1.163  1.00  0.00     0.054 A 
ATOM     11  C   UNL     1       5.979  -5.243  -1.744  1.00  0.00     0.027 A 
ATOM     12  C   UNL     1       7.068  -4.816  -0.992  1.00  0.00     0.002 A 
ATOM     13  C   UNL     1       5.656  -4.779   0.961  1.00  0.00     0.016 A 
ATOM     14  C   UNL     1       6.891  -4.526   0.353  1.00  0.00     0.001 A 
BRANCH  10  15
ATOM     15  N   UNL     1       3.662  -5.325  -2.103  1.00  0.00    -0.321 N 
ATOM     16  C   UNL     1       2.691  -4.357  -2.234  1.00  0.00     0.255 C 
ATOM     17  O   UNL     1       2.011  -4.328  -3.258  1.00  0.00    -0.269 OA
ATOM     18  H   UNL     1       3.623  -6.082  -2.731  1.00  0.00     0.170 HD
BRANCH  16  19
ATOM     19  C   UNL     1       2.517  -3.278  -1.242  1.00  0.00     0.040 A 
ATOM     20  C   UNL     1       1.848  -1.100   0.347  1.00  0.00     0.118 A 
ATOM     21  C   UNL     1       1.222  -2.315   0.570  1.00  0.00     0.047 A 
ATOM     22  C   UNL     1       2.870  -0.985  -0.601  1.00  0.00     0.047 A 
ATOM     23  C   UNL     1       1.545  -3.389  -0.245  1.00  0.00     0.017 A 
ATOM     24  C   UNL     1       3.203  -2.077  -1.407  1.00  0.00     0.017 A 
BRANCH  20  25
ATOM     25  O   UNL     1       1.401  -0.029   1.068  1.00  0.00    -0.497 OA
ATOM     26  C   UNL     1       0.823   0.942   0.194  1.00  0.00     0.278 C 
ENDBRANCH  20  25
ENDBRANCH  16  19
ENDBRANCH  10  15
ENDBRANCH   6   9
ENDBRANCH   4   5
BRANCH   4  27
ATOM     27  C   UNL     1       0.721  -7.504  -0.993  1.00  0.00     0.017 C 
ATOM     28  C   UNL     1      -0.070  -6.226  -1.258  1.00  0.00     0.010 C 
ATOM     29  C   UNL     1       0.692  -8.341  -2.279  1.00  0.00     0.010 C 
ENDBRANCH   4  27
ENDBRANCH   2   4
ENDBRANCH   1   2
BRANCH   1  30
ATOM     30  C   UNL     1       2.715 -10.072   2.303  1.00  0.00     0.274 C 
BRANCH  30  31
ATOM     31  C   UNL     1       1.579 -10.352   3.285  1.00  0.00     0.275 C 
BRANCH  31  32
ATOM     32  O   UNL     1       0.336 -10.398   2.561  1.00  0.00    -0.458 OA
BRANCH  32  33
ATOM     33  C   UNL     1      -0.685  -9.677   3.086  1.00  0.00     0.338 C 
ATOM     34  O   UNL     1      -0.698  -9.092   4.154  1.00  0.00    -0.246 OA
BRANCH  33  35
ATOM     35  C   UNL     1      -1.803  -9.594   2.117  1.00  0.00     0.060 A 
ATOM     36  C   UNL     1      -1.527  -9.489   0.762  1.00  0.00     0.016 A 
ATOM     37  C   UNL     1      -3.114  -9.424   2.555  1.00  0.00     0.016 A 
ATOM     38  C   UNL     1      -2.496  -8.987  -0.110  1.00  0.00     0.010 A 
ATOM     39  C   UNL     1      -4.126  -9.113   1.632  1.00  0.00     0.010 A 
ATOM     40  C   UNL     1      -3.825  -8.811   0.290  1.00  0.00    -0.014 A 
BRANCH  40  41
ATOM     41  C   UNL     1      -4.871  -8.269  -0.647  1.00  0.00     0.031 A 
ATOM     42  C   UNL     1      -5.840  -7.207  -0.170  1.00  0.00     0.074 A 
ATOM     43  C   UNL     1      -4.975  -8.664  -1.936  1.00  0.00     0.049 A 
ATOM     44  N   UNL     1      -7.005  -6.861  -0.660  1.00  0.00    -0.248 NA
ATOM     45  C   UNL     1      -5.452  -6.447   1.029  1.00  0.00     0.031 C 
ATOM     46  C   UNL     1      -4.079  -9.587  -2.634  1.00  0.00     0.029 A 
ATOM     47  N   UNL     1      -5.891  -8.316  -2.905  1.00  0.00    -0.354 N 
ATOM     48  C   UNL     1      -7.534  -5.931   0.229  1.00  0.00     0.074 A 
ATOM     49  C   UNL     1      -6.549  -5.746   1.274  1.00  0.00     0.031 C 
ATOM     50  C   UNL     1      -4.428  -9.659  -3.925  1.00  0.00     0.029 A 
ATOM     51  C   UNL     1      -5.673  -8.930  -4.117  1.00  0.00     0.049 A 
ATOM     52  H   UNL     1      -6.631  -7.687  -2.745  1.00  0.00     0.167 HD
ATOM     53  C   UNL     1      -8.735  -5.303   0.187  1.00  0.00     0.037 A 
ATOM     54  C   UNL     1      -6.420  -8.983  -5.236  1.00  0.00     0.037 A 
ATOM     55  C   UNL     1      -9.669  -5.407  -0.905  1.00  0.00     0.049 A 
ATOM     56  C   UNL     1      -7.778  -8.346  -5.247  1.00  0.00     0.074 A 
ATOM     57  C   UNL     1     -10.917  -4.822  -1.039  1.00  0.00     0.029 A 
ATOM     58  N   UNL     1      -9.437  -6.117  -2.073  1.00  0.00    -0.354 N 
ATOM     59  N   UNL     1      -8.355  -7.616  -4.325  1.00  0.00    -0.248 NA
ATOM     60  C   UNL     1      -8.611  -8.591  -6.433  1.00  0.00     0.031 C 
ATOM     61  C   UNL     1     -11.451  -5.202  -2.276  1.00  0.00     0.029 A 
ATOM     62  C   UNL     1     -10.520  -5.992  -2.928  1.00  0.00     0.049 A 
ATOM     63  H   UNL     1      -8.621  -6.634  -2.267  1.00  0.00     0.167 HD
ATOM     64  C   UNL     1      -9.616  -7.310  -4.819  1.00  0.00     0.074 A 
ATOM     65  C   UNL     1      -9.713  -7.918  -6.130  1.00  0.00     0.031 C 
ATOM     66  C   UNL     1     -10.607  -6.598  -4.232  1.00  0.00     0.037 A 
BRANCH  53  67
ATOM     67  C   UNL     1      -9.137  -4.502   1.393  1.00  0.00     0.057 A 
ATOM     68  C   UNL     1      -8.561  -3.266   1.710  1.00  0.00     0.134 A 
ATOM     69  C   UNL     1     -10.129  -4.990   2.256  1.00  0.00     0.134 A 
ATOM     70  F   UNL     1      -7.597  -2.747   0.936  1.00  0.00    -0.206 F 
ATOM     71  C   UNL     1      -8.930  -2.564   2.861  1.00  0.00     0.040 A 
ATOM     72  C   UNL     1     -10.526  -4.285   3.393  1.00  0.00     0.040 A 
ATOM     73  F   UNL     1     -10.731  -6.163   2.006  1.00  0.00    -0.206 F 
ATOM     74  C   UNL     1      -9.917  -3.072   3.704  1.00  0.00     0.006 A 
ENDBRANCH  53  67
BRANCH  54  75
ATOM     75  C   UNL     1      -5.936  -9.751  -6.414  1.00  0.00     0.057 A 
ATOM     76  C   UNL     1      -5.579  -9.099  -7.599  1.00  0.00     0.134 A 
ATOM     77  C   UNL     1      -5.805 -11.145  -6.381  1.00  0.00     0.134 A 
ATOM     78  F   UNL     1      -5.714  -7.769  -7.705  1.00  0.00    -0.206 F 
ATOM     79  C   UNL     1      -5.101  -9.805  -8.705  1.00  0.00     0.040 A 
ATOM     80  C   UNL     1      -5.299 -11.860  -7.467  1.00  0.00     0.040 A 
ATOM     81  F   UNL     1      -6.137 -11.831  -5.277  1.00  0.00    -0.206 F 
ATOM     82  C   UNL     1      -4.948 -11.188  -8.635  1.00  0.00     0.006 A 
ENDBRANCH  54  75
BRANCH  66  83
ATOM     83  C   UNL     1     -11.868  -6.408  -5.019  1.00  0.00     0.057 A 
ATOM     84  C   UNL     1     -12.798  -7.442  -5.182  1.00  0.00     0.134 A 
ATOM     85  C   UNL     1     -12.163  -5.172  -5.606  1.00  0.00     0.134 A 
ATOM     86  F   UNL     1     -12.563  -8.656  -4.660  1.00  0.00    -0.206 F 
ATOM     87  C   UNL     1     -13.970  -7.258  -5.916  1.00  0.00     0.040 A 
ATOM     88  C   UNL     1     -13.342  -4.969  -6.324  1.00  0.00     0.040 A 
ATOM     89  F   UNL     1     -11.313  -4.140  -5.485  1.00  0.00    -0.206 F 
ATOM     90  C   UNL     1     -14.247  -6.016  -6.485  1.00  0.00     0.006 A 
ENDBRANCH  66  83
ENDBRANCH  40  41
ENDBRANCH  33  35
ENDBRANCH  32  33
ENDBRANCH  31  32
ENDBRANCH  30  31
ENDBRANCH   1  30
TORSDOF 17
