REMARK SMILES O=C(OCCOC(=O)[C@@H]1C=C[C@H](NC(=O)[C@@H]2Cc3ccccc3O2)C1)c1ccc(-c2c3nc(c(-c4c(F)cccc4F)c4ccc([nH]4)c(-c4c(F)cccc4F)c4nc(c(-c5c(F)cccc5F)c5ccc2[nH]5)C=C4)C=C3)cc1
REMARK SMILES IDX 4 1 3 2 2 3 1 4 26 5 27 6 79 7 28 8 78 9 29 10 30 11 31 12
REMARK SMILES IDX 72 13 32 14 77 15 71 16 73 17 33 18 76 19 70 20 69 21 34 23
REMARK SMILES IDX 60 24 43 25 59 26 44 27 47 28 58 29 74 30 45 31 46 32 57 34
REMARK SMILES IDX 75 35 48 36 35 37 36 38 41 39 37 40 38 41 40 42 42 43 39 44
REMARK SMILES IDX 61 45 62 46 67 47 63 48 64 49 66 50 68 51 65 52 49 53 50 54
REMARK SMILES IDX 55 55 51 56 52 57 54 58 56 59 53 60 5 61 6 62 7 63 8 64 9 65
REMARK SMILES IDX 10 66 25 67 11 68 12 69 13 70 14 71 15 73 16 74 17 75 24 76
REMARK SMILES IDX 18 77 23 78 19 79 22 80 20 81 21 82
REMARK H PARENT 73 22 47 33 13 72
REMARK Flexibility Score: inf
ROOT
ATOM      1  C   UNL     1       3.783   0.363   1.881  1.00  0.00     0.275 C 
ENDROOT
BRANCH   1   2
ATOM      2  O   UNL     1       3.901   0.725   3.284  1.00  0.00    -0.458 OA
BRANCH   2   3
ATOM      3  C   UNL     1       5.086   1.228   3.748  1.00  0.00     0.338 C 
ATOM      4  O   UNL     1       6.073   0.548   4.011  1.00  0.00    -0.246 OA
BRANCH   3   5
ATOM      5  C   UNL     1       4.960   2.688   4.070  1.00  0.00     0.060 A 
ATOM      6  C   UNL     1       4.325   3.470   3.136  1.00  0.00     0.016 A 
ATOM      7  C   UNL     1       5.412   3.354   5.215  1.00  0.00     0.016 A 
ATOM      8  C   UNL     1       4.052   4.824   3.351  1.00  0.00     0.010 A 
ATOM      9  C   UNL     1       5.166   4.764   5.409  1.00  0.00     0.010 A 
ATOM     10  C   UNL     1       4.459   5.523   4.465  1.00  0.00    -0.014 A 
BRANCH  10  11
ATOM     11  C   UNL     1       4.176   7.002   4.323  1.00  0.00     0.031 A 
ATOM     12  C   UNL     1       5.098   7.826   3.442  1.00  0.00     0.074 A 
ATOM     13  C   UNL     1       2.925   7.502   4.479  1.00  0.00     0.049 A 
ATOM     14  N   UNL     1       4.876   8.959   2.816  1.00  0.00    -0.248 NA
ATOM     15  C   UNL     1       6.415   7.241   3.172  1.00  0.00     0.031 C 
ATOM     16  C   UNL     1       1.788   6.782   5.040  1.00  0.00     0.029 A 
ATOM     17  N   UNL     1       2.375   8.705   4.067  1.00  0.00    -0.354 N 
ATOM     18  C   UNL     1       6.000   9.187   2.032  1.00  0.00     0.074 A 
ATOM     19  C   UNL     1       6.895   8.068   2.254  1.00  0.00     0.031 C 
ATOM     20  C   UNL     1       0.672   7.514   4.872  1.00  0.00     0.029 A 
ATOM     21  C   UNL     1       1.017   8.809   4.281  1.00  0.00     0.049 A 
ATOM     22  H   UNL     1       2.908   9.423   3.656  1.00  0.00     0.167 HD
ATOM     23  C   UNL     1       6.301  10.241   1.234  1.00  0.00     0.037 A 
ATOM     24  C   UNL     1       0.149   9.828   4.070  1.00  0.00     0.037 A 
ATOM     25  C   UNL     1       5.528  11.447   1.099  1.00  0.00     0.049 A 
ATOM     26  C   UNL     1       0.634  11.138   3.497  1.00  0.00     0.074 A 
ATOM     27  C   UNL     1       5.881  12.630   0.467  1.00  0.00     0.029 A 
ATOM     28  N   UNL     1       4.274  11.651   1.640  1.00  0.00    -0.354 N 
ATOM     29  N   UNL     1       1.748  11.403   2.864  1.00  0.00    -0.248 NA
ATOM     30  C   UNL     1      -0.250  12.308   3.655  1.00  0.00     0.031 C 
ATOM     31  C   UNL     1       4.883  13.580   0.713  1.00  0.00     0.029 A 
ATOM     32  C   UNL     1       3.875  12.965   1.433  1.00  0.00     0.049 A 
ATOM     33  H   UNL     1       3.740  10.966   2.103  1.00  0.00     0.167 HD
ATOM     34  C   UNL     1       1.698  12.759   2.549  1.00  0.00     0.074 A 
ATOM     35  C   UNL     1       0.431  13.259   3.030  1.00  0.00     0.031 C 
ATOM     36  C   UNL     1       2.636  13.512   1.923  1.00  0.00     0.037 A 
BRANCH  23  37
ATOM     37  C   UNL     1       7.636  10.204   0.558  1.00  0.00     0.057 A 
ATOM     38  C   UNL     1       7.843   9.539  -0.655  1.00  0.00     0.134 A 
ATOM     39  C   UNL     1       8.723  10.870   1.137  1.00  0.00     0.134 A 
ATOM     40  F   UNL     1       6.841   8.874  -1.250  1.00  0.00    -0.206 F 
ATOM     41  C   UNL     1       9.097   9.535  -1.268  1.00  0.00     0.040 A 
ATOM     42  C   UNL     1       9.975  10.883   0.528  1.00  0.00     0.040 A 
ATOM     43  F   UNL     1       8.578  11.520   2.301  1.00  0.00    -0.206 F 
ATOM     44  C   UNL     1      10.165  10.212  -0.678  1.00  0.00     0.006 A 
ENDBRANCH  23  37
BRANCH  24  45
ATOM     45  C   UNL     1      -1.273   9.724   4.519  1.00  0.00     0.057 A 
ATOM     46  C   UNL     1      -2.348   9.913   3.640  1.00  0.00     0.134 A 
ATOM     47  C   UNL     1      -1.587   9.531   5.872  1.00  0.00     0.134 A 
ATOM     48  F   UNL     1      -2.126  10.170   2.342  1.00  0.00    -0.206 F 
ATOM     49  C   UNL     1      -3.673   9.904   4.088  1.00  0.00     0.040 A 
ATOM     50  C   UNL     1      -2.905   9.480   6.326  1.00  0.00     0.040 A 
ATOM     51  F   UNL     1      -0.610   9.395   6.782  1.00  0.00    -0.206 F 
ATOM     52  C   UNL     1      -3.954   9.673   5.433  1.00  0.00     0.006 A 
ENDBRANCH  24  45
BRANCH  36  53
ATOM     53  C   UNL     1       2.354  14.977   1.729  1.00  0.00     0.057 A 
ATOM     54  C   UNL     1       2.328  15.872   2.809  1.00  0.00     0.134 A 
ATOM     55  C   UNL     1       2.124  15.511   0.454  1.00  0.00     0.134 A 
ATOM     56  F   UNL     1       2.535  15.433   4.060  1.00  0.00    -0.206 F 
ATOM     57  C   UNL     1       2.052  17.231   2.632  1.00  0.00     0.040 A 
ATOM     58  C   UNL     1       1.871  16.872   0.262  1.00  0.00     0.040 A 
ATOM     59  F   UNL     1       2.147  14.721  -0.630  1.00  0.00    -0.206 F 
ATOM     60  C   UNL     1       1.825  17.735   1.354  1.00  0.00     0.006 A 
ENDBRANCH  36  53
ENDBRANCH  10  11
ENDBRANCH   3   5
ENDBRANCH   2   3
ENDBRANCH   1   2
BRANCH   1  61
ATOM     61  C   UNL     1       2.306   0.095   1.512  1.00  0.00     0.274 C 
BRANCH  61  62
ATOM     62  O   UNL     1       1.453   1.103   2.078  1.00  0.00    -0.462 OA
BRANCH  62  63
ATOM     63  C   UNL     1       0.819   0.798   3.247  1.00  0.00     0.312 C 
ATOM     64  O   UNL     1       0.654  -0.335   3.680  1.00  0.00    -0.252 OA
BRANCH  63  65
ATOM     65  C   UNL     1       0.380   2.067   3.987  1.00  0.00     0.124 C 
ATOM     66  C   UNL     1      -0.756   2.810   3.376  1.00  0.00    -0.014 C 
ATOM     67  C   UNL     1       1.460   3.138   3.915  1.00  0.00     0.048 C 
ATOM     68  C   UNL     1      -0.340   3.874   2.667  1.00  0.00    -0.006 C 
ATOM     69  C   UNL     1       1.153   4.071   2.704  1.00  0.00     0.106 C 
BRANCH  69  70
ATOM     70  N   UNL     1       1.810   3.706   1.406  1.00  0.00    -0.347 N 
ATOM     71  C   UNL     1       2.243   4.606   0.436  1.00  0.00     0.261 C 
ATOM     72  H   UNL     1       1.948   2.748   1.225  1.00  0.00     0.164 HD
ATOM     73  O   UNL     1       1.368   5.089  -0.295  1.00  0.00    -0.271 OA
BRANCH  71  74
ATOM     74  C   UNL     1       3.819   4.811  -0.000  1.00  0.00     0.266 C 
ATOM     75  C   UNL     1       4.305   3.744  -1.006  1.00  0.00     0.095 C 
ATOM     76  O   UNL     1       4.946   5.113   0.852  1.00  0.00    -0.480 OA
ATOM     77  C   UNL     1       5.553   3.265  -0.357  1.00  0.00    -0.002 A 
ATOM     78  C   UNL     1       5.886   4.128   0.661  1.00  0.00     0.123 A 
ATOM     79  C   UNL     1       6.348   2.159  -0.623  1.00  0.00     0.008 A 
ATOM     80  C   UNL     1       6.993   3.908   1.474  1.00  0.00     0.047 A 
ATOM     81  C   UNL     1       7.445   1.896   0.209  1.00  0.00     0.001 A 
ATOM     82  C   UNL     1       7.761   2.761   1.264  1.00  0.00     0.004 A 
ENDBRANCH  71  74
ENDBRANCH  69  70
ENDBRANCH  63  65
ENDBRANCH  62  63
ENDBRANCH  61  62
ENDBRANCH   1  61
TORSDOF 13
