REMARK SMILES C[C@@H]1Oc2ccccc2N(CC(=O)OCCOC(=O)c2ccc(-c3c4nc(c(-c5c(F)cccc5F)c5ccc([nH]5)c(-c5c(F)cccc5F)c5nc(c(-c6c(F)cccc6F)c6ccc3[nH]6)C=C5)C=C4)cc2)C1=O
REMARK SMILES IDX 16 1 15 2 14 3 12 4 13 5 11 6 10 7 1 8 2 9 3 10 74 11 4 12
REMARK SMILES IDX 75 13 5 14 9 15 6 16 8 17 7 18 17 19 18 20 19 21 20 22 21 23
REMARK SMILES IDX 73 24 22 25 72 26 23 27 24 28 25 29 66 30 26 31 71 32 65 33
REMARK SMILES IDX 67 34 27 35 70 36 64 37 63 38 28 40 54 41 37 42 53 43 38 44
REMARK SMILES IDX 41 45 52 46 68 47 39 48 40 49 51 51 69 52 42 53 29 54 30 55
REMARK SMILES IDX 35 56 31 57 32 58 34 59 36 60 33 61 55 62 56 63 61 64 57 65
REMARK SMILES IDX 58 66 60 67 62 68 59 69 43 70 44 71 49 72 45 73 46 74 48 75
REMARK SMILES IDX 50 76 47 77
REMARK H PARENT 67 39 41 50
REMARK Flexibility Score: inf
ROOT
ATOM      1  C   UNL     1      -4.246  -4.411   0.983  1.00  0.00     0.275 C 
ENDROOT
BRANCH   1   2
ATOM      2  C   UNL     1      -4.022  -2.982   1.467  1.00  0.00     0.274 C 
BRANCH   2   3
ATOM      3  O   UNL     1      -2.623  -2.770   1.750  1.00  0.00    -0.461 OA
BRANCH   3   4
ATOM      4  C   UNL     1      -2.250  -2.751   3.060  1.00  0.00     0.326 C 
ATOM      5  O   UNL     1      -3.019  -2.890   4.007  1.00  0.00    -0.250 OA
BRANCH   4   6
ATOM      6  C   UNL     1      -0.741  -2.558   3.256  1.00  0.00     0.248 C 
BRANCH   6   7
ATOM      7  N   UNL     1       0.006  -2.492   2.005  1.00  0.00    -0.294 N 
ATOM      8  C   UNL     1      -0.840  -1.237  -0.942  1.00  0.00     0.064 C 
ATOM      9  C   UNL     1       0.436  -1.287  -0.103  1.00  0.00     0.259 C 
ATOM     10  O   UNL     1       1.250  -2.339  -0.585  1.00  0.00    -0.479 OA
ATOM     11  C   UNL     1       0.031  -1.260   1.369  1.00  0.00     0.268 C 
ATOM     12  C   UNL     1       1.136  -3.516   0.099  1.00  0.00     0.144 A 
ATOM     13  O   UNL     1      -0.365  -0.222   1.904  1.00  0.00    -0.270 OA
ATOM     14  C   UNL     1       1.671  -4.629  -0.561  1.00  0.00     0.049 A 
ATOM     15  C   UNL     1       0.564  -3.638   1.372  1.00  0.00     0.087 A 
ATOM     16  C   UNL     1       1.647  -5.883   0.040  1.00  0.00     0.004 A 
ATOM     17  C   UNL     1       0.597  -4.900   1.980  1.00  0.00     0.030 A 
ATOM     18  C   UNL     1       1.119  -6.017   1.317  1.00  0.00     0.002 A 
ENDBRANCH   6   7
ENDBRANCH   4   6
ENDBRANCH   3   4
ENDBRANCH   2   3
ENDBRANCH   1   2
BRANCH   1  19
ATOM     19  O   UNL     1      -3.852  -5.314   2.028  1.00  0.00    -0.458 OA
BRANCH  19  20
ATOM     20  C   UNL     1      -2.973  -6.277   1.673  1.00  0.00     0.338 C 
ATOM     21  O   UNL     1      -2.555  -6.540   0.561  1.00  0.00    -0.246 OA
BRANCH  20  22
ATOM     22  C   UNL     1      -2.564  -7.007   2.883  1.00  0.00     0.060 A 
ATOM     23  C   UNL     1      -2.707  -8.390   2.924  1.00  0.00     0.016 A 
ATOM     24  C   UNL     1      -1.947  -6.329   3.936  1.00  0.00     0.016 A 
ATOM     25  C   UNL     1      -2.248  -9.087   4.042  1.00  0.00     0.010 A 
ATOM     26  C   UNL     1      -1.389  -7.038   4.996  1.00  0.00     0.010 A 
ATOM     27  C   UNL     1      -1.563  -8.423   5.078  1.00  0.00    -0.014 A 
BRANCH  27  28
ATOM     28  C   UNL     1      -1.031  -9.198   6.228  1.00  0.00     0.031 A 
ATOM     29  C   UNL     1      -1.554  -8.981   7.621  1.00  0.00     0.074 A 
ATOM     30  C   UNL     1      -0.083 -10.129   6.007  1.00  0.00     0.049 A 
ATOM     31  N   UNL     1      -1.371  -9.715   8.691  1.00  0.00    -0.248 NA
ATOM     32  C   UNL     1      -2.363  -7.776   7.856  1.00  0.00     0.031 C 
ATOM     33  C   UNL     1       0.585 -10.368   4.726  1.00  0.00     0.029 A 
ATOM     34  N   UNL     1       0.456 -11.072   6.845  1.00  0.00    -0.354 N 
ATOM     35  C   UNL     1      -2.056  -9.072   9.713  1.00  0.00     0.074 A 
ATOM     36  C   UNL     1      -2.583  -7.845   9.160  1.00  0.00     0.031 C 
ATOM     37  C   UNL     1       1.379 -11.444   4.840  1.00  0.00     0.029 A 
ATOM     38  C   UNL     1       1.281 -11.962   6.201  1.00  0.00     0.049 A 
ATOM     39  H   UNL     1       0.269 -11.108   7.811  1.00  0.00     0.167 HD
ATOM     40  C   UNL     1      -2.267  -9.483  10.986  1.00  0.00     0.037 A 
ATOM     41  C   UNL     1       1.849 -13.098   6.644  1.00  0.00     0.037 A 
ATOM     42  C   UNL     1      -1.744 -10.705  11.537  1.00  0.00     0.049 A 
ATOM     43  C   UNL     1       1.581 -13.555   8.049  1.00  0.00     0.074 A 
ATOM     44  C   UNL     1      -1.940 -11.244  12.795  1.00  0.00     0.029 A 
ATOM     45  N   UNL     1      -0.908 -11.575  10.854  1.00  0.00    -0.354 N 
ATOM     46  N   UNL     1       0.826 -13.006   8.970  1.00  0.00    -0.248 NA
ATOM     47  C   UNL     1       2.229 -14.806   8.467  1.00  0.00     0.031 C 
ATOM     48  C   UNL     1      -1.196 -12.428  12.884  1.00  0.00     0.029 A 
ATOM     49  C   UNL     1      -0.567 -12.642  11.668  1.00  0.00     0.049 A 
ATOM     50  H   UNL     1      -0.602 -11.453   9.926  1.00  0.00     0.167 HD
ATOM     51  C   UNL     1       0.882 -13.859  10.064  1.00  0.00     0.074 A 
ATOM     52  C   UNL     1       1.735 -14.968   9.686  1.00  0.00     0.031 C 
ATOM     53  C   UNL     1       0.280 -13.738  11.273  1.00  0.00     0.037 A 
BRANCH  40  54
ATOM     54  C   UNL     1      -3.122  -8.603  11.851  1.00  0.00     0.057 A 
ATOM     55  C   UNL     1      -2.573  -7.879  12.915  1.00  0.00     0.134 A 
ATOM     56  C   UNL     1      -4.499  -8.466  11.618  1.00  0.00     0.134 A 
ATOM     57  F   UNL     1      -1.265  -7.968  13.197  1.00  0.00    -0.206 F 
ATOM     58  C   UNL     1      -3.359  -7.038  13.707  1.00  0.00     0.040 A 
ATOM     59  C   UNL     1      -5.289  -7.609  12.386  1.00  0.00     0.040 A 
ATOM     60  F   UNL     1      -5.085  -9.122  10.605  1.00  0.00    -0.206 F 
ATOM     61  C   UNL     1      -4.719  -6.894  13.437  1.00  0.00     0.006 A 
ENDBRANCH  40  54
BRANCH  41  62
ATOM     62  C   UNL     1       2.642 -13.940   5.715  1.00  0.00     0.057 A 
ATOM     63  C   UNL     1       3.920 -13.565   5.291  1.00  0.00     0.134 A 
ATOM     64  C   UNL     1       2.127 -15.149   5.232  1.00  0.00     0.134 A 
ATOM     65  F   UNL     1       4.462 -12.413   5.711  1.00  0.00    -0.206 F 
ATOM     66  C   UNL     1       4.660 -14.364   4.418  1.00  0.00     0.040 A 
ATOM     67  C   UNL     1       2.863 -15.967   4.375  1.00  0.00     0.040 A 
ATOM     68  F   UNL     1       0.910 -15.565   5.616  1.00  0.00    -0.206 F 
ATOM     69  C   UNL     1       4.134 -15.572   3.963  1.00  0.00     0.006 A 
ENDBRANCH  41  62
BRANCH  53  70
ATOM     70  C   UNL     1       0.502 -14.849  12.254  1.00  0.00     0.057 A 
ATOM     71  C   UNL     1      -0.526 -15.751  12.554  1.00  0.00     0.134 A 
ATOM     72  C   UNL     1       1.728 -15.022  12.908  1.00  0.00     0.134 A 
ATOM     73  F   UNL     1      -1.727 -15.636  11.966  1.00  0.00    -0.206 F 
ATOM     74  C   UNL     1      -0.341 -16.790  13.465  1.00  0.00     0.040 A 
ATOM     75  C   UNL     1       1.934 -16.072  13.804  1.00  0.00     0.040 A 
ATOM     76  F   UNL     1       2.757 -14.200  12.652  1.00  0.00    -0.206 F 
ATOM     77  C   UNL     1       0.895 -16.958  14.087  1.00  0.00     0.006 A 
ENDBRANCH  53  70
ENDBRANCH  27  28
ENDBRANCH  20  22
ENDBRANCH  19  20
ENDBRANCH   1  19
TORSDOF 12
