REMARK SMILES COc1ccc(-c2cc(CC3(C(=O)OCCOC(=O)c4ccc(-c5c6nc(c(-c7c(F)cccc7F)c7ccc([nH]7)c(-c7c(F)cccc7F)c7nc(c(-c8c(F)cccc8F)c8ccc5[nH]8)C=C7)C=C6)cc4)CCN(C(=O)C4CCCC4)CC3)on2)cc1
REMARK SMILES IDX 15 1 14 2 12 3 13 4 11 5 74 6 85 7 75 8 84 9 76 10 77 11
REMARK SMILES IDX 78 12 10 13 9 14 7 15 8 16 87 17 86 18 6 19 3 20 4 21 89 22
REMARK SMILES IDX 5 23 88 24 2 25 1 26 79 27 80 28 83 29 81 30 82 31 16 32
REMARK SMILES IDX 17 33 18 34 19 35 20 36 21 37 73 38 22 39 72 40 23 41 24 42
REMARK SMILES IDX 25 43 66 44 26 45 71 46 65 47 67 48 27 49 70 50 64 51 63 52
REMARK SMILES IDX 28 54 54 55 37 56 53 57 38 58 41 59 52 60 68 61 39 62 40 63
REMARK SMILES IDX 51 65 69 66 42 67 29 68 30 69 35 70 31 71 32 72 34 73 36 74
REMARK SMILES IDX 33 75 55 76 56 77 61 78 57 79 58 80 60 81 62 82 59 83 43 84
REMARK SMILES IDX 44 85 49 86 45 87 46 88 48 89 50 90 47 91
REMARK H PARENT 67 53 41 64
REMARK Flexibility Score: inf
ROOT
ATOM      1  C   UNL     1       4.057   8.014  11.567  1.00  0.00     0.274 C 
ENDROOT
BRANCH   1   2
ATOM      2  O   UNL     1       3.356   6.908  10.955  1.00  0.00    -0.462 OA
BRANCH   2   3
ATOM      3  C   UNL     1       3.566   6.704   9.630  1.00  0.00     0.312 C 
ATOM      4  O   UNL     1       4.356   7.356   8.953  1.00  0.00    -0.252 OA
BRANCH   3   5
ATOM      5  C   UNL     1       2.686   5.594   9.015  1.00  0.00     0.078 C 
ATOM      6  C   UNL     1       1.775   4.927  10.075  1.00  0.00     0.041 C 
ATOM      7  C   UNL     1       1.827   6.357   7.986  1.00  0.00     0.041 C 
ATOM      8  C   UNL     1       0.546   4.216   9.516  1.00  0.00     0.120 C 
ATOM      9  C   UNL     1       0.596   5.615   7.498  1.00  0.00     0.120 C 
ATOM     10  N   UNL     1      -0.192   5.067   8.586  1.00  0.00    -0.342 N 
ATOM     11  C   UNL     1      -1.579   5.066   8.658  1.00  0.00     0.225 C 
ATOM     12  O   UNL     1      -2.177   4.366   9.482  1.00  0.00    -0.275 OA
BRANCH   5  13
ATOM     13  C   UNL     1       3.689   4.589   8.377  1.00  0.00     0.097 C 
BRANCH  13  14
ATOM     14  C   UNL     1       3.175   3.633   7.369  1.00  0.00     0.138 A 
ATOM     15  C   UNL     1       2.397   2.456   5.676  1.00  0.00     0.114 A 
ATOM     16  C   UNL     1       3.082   3.653   5.998  1.00  0.00     0.077 A 
ATOM     17  N   UNL     1       2.191   1.715   6.774  1.00  0.00    -0.080 NA
ATOM     18  O   UNL     1       2.715   2.441   7.827  1.00  0.00    -0.361 OA
BRANCH  15  19
ATOM     19  C   UNL     1       1.880   2.067   4.379  1.00  0.00     0.004 A 
ATOM     20  C   UNL     1       0.861   1.384   1.860  1.00  0.00     0.118 A 
ATOM     21  C   UNL     1       0.030   1.961   2.822  1.00  0.00     0.047 A 
ATOM     22  C   UNL     1       2.209   1.167   2.152  1.00  0.00     0.047 A 
ATOM     23  C   UNL     1       0.531   2.290   4.082  1.00  0.00     0.014 A 
ATOM     24  C   UNL     1       2.720   1.509   3.410  1.00  0.00     0.014 A 
BRANCH  20  25
ATOM     25  O   UNL     1       0.258   1.109   0.664  1.00  0.00    -0.497 OA
ATOM     26  C   UNL     1       0.834   0.043  -0.083  1.00  0.00     0.278 C 
ENDBRANCH  20  25
ENDBRANCH  15  19
ENDBRANCH  13  14
ENDBRANCH   5  13
BRANCH  11  27
ATOM     27  C   UNL     1      -2.413   5.968   7.747  1.00  0.00     0.078 C 
ATOM     28  C   UNL     1      -2.118   7.457   7.914  1.00  0.00     0.013 C 
ATOM     29  C   UNL     1      -2.353   5.660   6.247  1.00  0.00     0.013 C 
ATOM     30  C   UNL     1      -2.475   8.069   6.569  1.00  0.00     0.001 C 
ATOM     31  C   UNL     1      -2.142   6.998   5.541  1.00  0.00     0.001 C 
ENDBRANCH  11  27
ENDBRANCH   3   5
ENDBRANCH   2   3
ENDBRANCH   1   2
BRANCH   1  32
ATOM     32  C   UNL     1       5.123   7.498  12.527  1.00  0.00     0.275 C 
BRANCH  32  33
ATOM     33  O   UNL     1       6.083   6.740  11.774  1.00  0.00    -0.458 OA
BRANCH  33  34
ATOM     34  C   UNL     1       6.316   5.477  12.198  1.00  0.00     0.338 C 
ATOM     35  O   UNL     1       5.913   4.947  13.217  1.00  0.00    -0.246 OA
BRANCH  34  36
ATOM     36  C   UNL     1       7.122   4.776  11.181  1.00  0.00     0.060 A 
ATOM     37  C   UNL     1       6.767   4.873   9.838  1.00  0.00     0.016 A 
ATOM     38  C   UNL     1       8.167   3.939  11.563  1.00  0.00     0.016 A 
ATOM     39  C   UNL     1       7.379   4.065   8.886  1.00  0.00     0.010 A 
ATOM     40  C   UNL     1       8.869   3.224  10.585  1.00  0.00     0.010 A 
ATOM     41  C   UNL     1       8.467   3.258   9.236  1.00  0.00    -0.014 A 
BRANCH  41  42
ATOM     42  C   UNL     1       9.175   2.448   8.204  1.00  0.00     0.031 A 
ATOM     43  C   UNL     1       9.349   0.966   8.394  1.00  0.00     0.074 A 
ATOM     44  C   UNL     1       9.672   3.030   7.094  1.00  0.00     0.049 A 
ATOM     45  N   UNL     1      10.149   0.140   7.769  1.00  0.00    -0.248 NA
ATOM     46  C   UNL     1       8.527   0.333   9.438  1.00  0.00     0.031 C 
ATOM     47  C   UNL     1       9.540   4.445   6.739  1.00  0.00     0.029 A 
ATOM     48  N   UNL     1      10.393   2.498   6.052  1.00  0.00    -0.354 N 
ATOM     49  C   UNL     1       9.984  -1.090   8.392  1.00  0.00     0.074 A 
ATOM     50  C   UNL     1       8.996  -0.906   9.435  1.00  0.00     0.031 C 
ATOM     51  C   UNL     1      10.120   4.660   5.550  1.00  0.00     0.029 A 
ATOM     52  C   UNL     1      10.763   3.428   5.111  1.00  0.00     0.049 A 
ATOM     53  H   UNL     1      10.623   1.543   5.987  1.00  0.00     0.167 HD
ATOM     54  C   UNL     1      10.608  -2.262   8.123  1.00  0.00     0.037 A 
ATOM     55  C   UNL     1      11.582   3.328   4.047  1.00  0.00     0.037 A 
ATOM     56  C   UNL     1      11.538  -2.456   7.042  1.00  0.00     0.049 A 
ATOM     57  C   UNL     1      12.281   2.030   3.778  1.00  0.00     0.074 A 
ATOM     58  C   UNL     1      12.214  -3.608   6.679  1.00  0.00     0.029 A 
ATOM     59  N   UNL     1      11.905  -1.475   6.134  1.00  0.00    -0.354 N 
ATOM     60  N   UNL     1      12.196   0.898   4.433  1.00  0.00    -0.248 NA
ATOM     61  C   UNL     1      13.217   2.005   2.646  1.00  0.00     0.031 C 
ATOM     62  C   UNL     1      13.009  -3.317   5.563  1.00  0.00     0.029 A 
ATOM     63  C   UNL     1      12.805  -1.991   5.216  1.00  0.00     0.049 A 
ATOM     64  H   UNL     1      11.575  -0.547   6.141  1.00  0.00     0.167 HD
ATOM     65  C   UNL     1      13.079   0.031   3.807  1.00  0.00     0.074 A 
ATOM     66  C   UNL     1      13.665   0.758   2.697  1.00  0.00     0.031 C 
ATOM     67  C   UNL     1      13.389  -1.247   4.130  1.00  0.00     0.037 A 
BRANCH  54  68
ATOM     68  C   UNL     1      10.335  -3.414   9.044  1.00  0.00     0.057 A 
ATOM     69  C   UNL     1       9.132  -4.129   9.011  1.00  0.00     0.134 A 
ATOM     70  C   UNL     1      11.304  -3.821   9.970  1.00  0.00     0.134 A 
ATOM     71  F   UNL     1       8.157  -3.779   8.158  1.00  0.00    -0.206 F 
ATOM     72  C   UNL     1       8.892  -5.192   9.883  1.00  0.00     0.040 A 
ATOM     73  C   UNL     1      11.085  -4.897  10.832  1.00  0.00     0.040 A 
ATOM     74  F   UNL     1      12.481  -3.181  10.050  1.00  0.00    -0.206 F 
ATOM     75  C   UNL     1       9.873  -5.582  10.794  1.00  0.00     0.006 A 
ENDBRANCH  54  68
BRANCH  55  76
ATOM     76  C   UNL     1      11.840   4.526   3.211  1.00  0.00     0.057 A 
ATOM     77  C   UNL     1      11.312   4.636   1.921  1.00  0.00     0.134 A 
ATOM     78  C   UNL     1      12.584   5.607   3.701  1.00  0.00     0.134 A 
ATOM     79  F   UNL     1      10.611   3.624   1.391  1.00  0.00    -0.206 F 
ATOM     80  C   UNL     1      11.509   5.782   1.149  1.00  0.00     0.040 A 
ATOM     81  C   UNL     1      12.768   6.768   2.951  1.00  0.00     0.040 A 
ATOM     82  F   UNL     1      13.112   5.562   4.933  1.00  0.00    -0.206 F 
ATOM     83  C   UNL     1      12.230   6.857   1.669  1.00  0.00     0.006 A 
ENDBRANCH  55  76
BRANCH  67  84
ATOM     84  C   UNL     1      14.409  -1.932   3.275  1.00  0.00     0.057 A 
ATOM     85  C   UNL     1      15.776  -1.662   3.415  1.00  0.00     0.134 A 
ATOM     86  C   UNL     1      14.027  -2.883   2.323  1.00  0.00     0.134 A 
ATOM     87  F   UNL     1      16.201  -0.748   4.300  1.00  0.00    -0.206 F 
ATOM     88  C   UNL     1      16.728  -2.306   2.625  1.00  0.00     0.040 A 
ATOM     89  C   UNL     1      14.971  -3.546   1.539  1.00  0.00     0.040 A 
ATOM     90  F   UNL     1      12.732  -3.186   2.144  1.00  0.00    -0.206 F 
ATOM     91  C   UNL     1      16.326  -3.255   1.687  1.00  0.00     0.006 A 
ENDBRANCH  67  84
ENDBRANCH  41  42
ENDBRANCH  34  36
ENDBRANCH  33  34
ENDBRANCH  32  33
ENDBRANCH   1  32
TORSDOF 16
