REMARK SMILES O=C(OCCOC(=O)c1ccc2c(c1)[C@@H](C1CCOCC1)C(=O)N2)c1ccc(-c2c3nc(c(-c4c(F)cccc4F)c4ccc([nH]4)c(-c4c(F)cccc4F)c4nc(c(-c5c(F)cccc5F)c5ccc2[nH]5)C=C4)C=C3)cc1
REMARK SMILES IDX 4 1 3 2 2 3 1 4 25 5 26 6 78 7 27 8 77 9 28 10 29 11 30 12
REMARK SMILES IDX 71 13 31 14 76 15 70 16 72 17 32 18 75 19 69 20 68 21 33 23
REMARK SMILES IDX 59 24 42 25 58 26 43 27 46 28 57 29 73 30 44 31 45 32 56 34
REMARK SMILES IDX 74 35 47 36 34 37 35 38 40 39 36 40 37 41 39 42 41 43 38 44
REMARK SMILES IDX 60 45 61 46 66 47 62 48 63 49 65 50 67 51 64 52 48 53 49 54
REMARK SMILES IDX 54 55 50 56 51 57 53 58 55 59 52 60 5 61 6 62 7 63 8 64 9 65
REMARK SMILES IDX 10 66 14 67 11 68 13 69 12 70 15 71 24 72 22 73 23 75 16 76
REMARK SMILES IDX 17 77 21 78 18 79 20 80 19 81
REMARK H PARENT 72 22 46 33 24 74
REMARK Flexibility Score: inf
ROOT
ATOM      1  C   UNL     1       4.085  -0.632  -1.619  1.00  0.00     0.275 C 
ENDROOT
BRANCH   1   2
ATOM      2  O   UNL     1       3.100  -1.054  -0.661  1.00  0.00    -0.458 OA
BRANCH   2   3
ATOM      3  C   UNL     1       2.954  -0.736   0.644  1.00  0.00     0.338 C 
ATOM      4  O   UNL     1       2.078  -1.305   1.295  1.00  0.00    -0.246 OA
BRANCH   3   5
ATOM      5  C   UNL     1       3.723   0.346   1.337  1.00  0.00     0.060 A 
ATOM      6  C   UNL     1       5.011   0.790   1.023  1.00  0.00     0.016 A 
ATOM      7  C   UNL     1       3.081   0.938   2.438  1.00  0.00     0.016 A 
ATOM      8  C   UNL     1       5.622   1.823   1.745  1.00  0.00     0.010 A 
ATOM      9  C   UNL     1       3.692   1.962   3.161  1.00  0.00     0.010 A 
ATOM     10  C   UNL     1       4.970   2.411   2.827  1.00  0.00    -0.014 A 
BRANCH  10  11
ATOM     11  C   UNL     1       5.683   3.362   3.710  1.00  0.00     0.031 A 
ATOM     12  C   UNL     1       6.127   2.886   5.064  1.00  0.00     0.074 A 
ATOM     13  C   UNL     1       5.946   4.618   3.304  1.00  0.00     0.049 A 
ATOM     14  N   UNL     1       6.825   3.513   5.974  1.00  0.00    -0.248 NA
ATOM     15  C   UNL     1       5.724   1.522   5.447  1.00  0.00     0.031 C 
ATOM     16  C   UNL     1       5.556   5.188   2.015  1.00  0.00     0.029 A 
ATOM     17  N   UNL     1       6.608   5.641   3.933  1.00  0.00    -0.354 N 
ATOM     18  C   UNL     1       6.952   2.616   7.027  1.00  0.00     0.074 A 
ATOM     19  C   UNL     1       6.195   1.436   6.680  1.00  0.00     0.031 C 
ATOM     20  C   UNL     1       5.987   6.460   1.946  1.00  0.00     0.029 A 
ATOM     21  C   UNL     1       6.689   6.791   3.183  1.00  0.00     0.049 A 
ATOM     22  H   UNL     1       6.989   5.561   4.836  1.00  0.00     0.167 HD
ATOM     23  C   UNL     1       7.674   2.744   8.164  1.00  0.00     0.037 A 
ATOM     24  C   UNL     1       7.287   7.965   3.459  1.00  0.00     0.037 A 
ATOM     25  C   UNL     1       8.433   3.915   8.499  1.00  0.00     0.049 A 
ATOM     26  C   UNL     1       8.059   8.098   4.746  1.00  0.00     0.074 A 
ATOM     27  C   UNL     1       9.220   4.151   9.610  1.00  0.00     0.029 A 
ATOM     28  N   UNL     1       8.492   5.057   7.713  1.00  0.00    -0.354 N 
ATOM     29  N   UNL     1       8.241   7.212   5.695  1.00  0.00    -0.248 NA
ATOM     30  C   UNL     1       8.734   9.382   4.984  1.00  0.00     0.031 C 
ATOM     31  C   UNL     1       9.732   5.449   9.510  1.00  0.00     0.029 A 
ATOM     32  C   UNL     1       9.295   6.006   8.318  1.00  0.00     0.049 A 
ATOM     33  H   UNL     1       8.029   5.175   6.851  1.00  0.00     0.167 HD
ATOM     34  C   UNL     1       9.091   7.809   6.617  1.00  0.00     0.074 A 
ATOM     35  C   UNL     1       9.386   9.135   6.112  1.00  0.00     0.031 C 
ATOM     36  C   UNL     1       9.591   7.307   7.773  1.00  0.00     0.037 A 
BRANCH  23  37
ATOM     37  C   UNL     1       7.660   1.575   9.104  1.00  0.00     0.057 A 
ATOM     38  C   UNL     1       8.299   0.368   8.785  1.00  0.00     0.134 A 
ATOM     39  C   UNL     1       6.958   1.635  10.313  1.00  0.00     0.134 A 
ATOM     40  F   UNL     1       8.968   0.238   7.629  1.00  0.00    -0.206 F 
ATOM     41  C   UNL     1       8.202  -0.751   9.614  1.00  0.00     0.040 A 
ATOM     42  C   UNL     1       6.876   0.530  11.162  1.00  0.00     0.040 A 
ATOM     43  F   UNL     1       6.324   2.760  10.677  1.00  0.00    -0.206 F 
ATOM     44  C   UNL     1       7.489  -0.670  10.808  1.00  0.00     0.006 A 
ENDBRANCH  23  37
BRANCH  24  45
ATOM     45  C   UNL     1       7.241   9.084   2.482  1.00  0.00     0.057 A 
ATOM     46  C   UNL     1       8.385   9.479   1.778  1.00  0.00     0.134 A 
ATOM     47  C   UNL     1       6.061   9.800   2.244  1.00  0.00     0.134 A 
ATOM     48  F   UNL     1       9.549   8.841   1.971  1.00  0.00    -0.206 F 
ATOM     49  C   UNL     1       8.367  10.562   0.896  1.00  0.00     0.040 A 
ATOM     50  C   UNL     1       6.024  10.872   1.349  1.00  0.00     0.040 A 
ATOM     51  F   UNL     1       4.926   9.464   2.874  1.00  0.00    -0.206 F 
ATOM     52  C   UNL     1       7.182  11.261   0.679  1.00  0.00     0.006 A 
ENDBRANCH  24  45
BRANCH  36  53
ATOM     53  C   UNL     1      10.553   8.168   8.533  1.00  0.00     0.057 A 
ATOM     54  C   UNL     1      10.133   9.289   9.259  1.00  0.00     0.134 A 
ATOM     55  C   UNL     1      11.914   7.838   8.576  1.00  0.00     0.134 A 
ATOM     56  F   UNL     1       8.845   9.663   9.245  1.00  0.00    -0.206 F 
ATOM     57  C   UNL     1      11.037  10.065   9.985  1.00  0.00     0.040 A 
ATOM     58  C   UNL     1      12.823   8.591   9.320  1.00  0.00     0.040 A 
ATOM     59  F   UNL     1      12.378   6.771   7.909  1.00  0.00    -0.206 F 
ATOM     60  C   UNL     1      12.385   9.711  10.023  1.00  0.00     0.006 A 
ENDBRANCH  36  53
ENDBRANCH  10  11
ENDBRANCH   3   5
ENDBRANCH   2   3
ENDBRANCH   1   2
BRANCH   1  61
ATOM     61  C   UNL     1       3.802   0.715  -2.289  1.00  0.00     0.275 C 
BRANCH  61  62
ATOM     62  O   UNL     1       3.415   1.755  -1.377  1.00  0.00    -0.458 OA
BRANCH  62  63
ATOM     63  C   UNL     1       2.074   1.893  -1.199  1.00  0.00     0.338 C 
ATOM     64  O   UNL     1       1.200   1.224  -1.724  1.00  0.00    -0.246 OA
BRANCH  63  65
ATOM     65  C   UNL     1       1.791   2.945  -0.194  1.00  0.00     0.060 A 
ATOM     66  C   UNL     1       2.497   4.166  -0.218  1.00  0.00     0.018 A 
ATOM     67  C   UNL     1       0.763   2.724   0.743  1.00  0.00     0.022 A 
ATOM     68  C   UNL     1       2.155   5.196   0.664  1.00  0.00     0.027 A 
ATOM     69  C   UNL     1       0.460   3.739   1.639  1.00  0.00    -0.011 A 
ATOM     70  C   UNL     1       1.128   4.960   1.555  1.00  0.00     0.045 A 
ATOM     71  C   UNL     1      -0.605   3.824   2.716  1.00  0.00     0.114 C 
ATOM     72  N   UNL     1       0.551   5.871   2.422  1.00  0.00    -0.325 N 
ATOM     73  C   UNL     1      -0.538   5.323   3.087  1.00  0.00     0.232 C 
ATOM     74  H   UNL     1       0.873   6.793   2.551  1.00  0.00     0.169 HD
ATOM     75  O   UNL     1      -1.281   5.925   3.845  1.00  0.00    -0.274 OA
BRANCH  71  76
ATOM     76  C   UNL     1      -0.350   2.914   3.942  1.00  0.00     0.010 C 
ATOM     77  C   UNL     1      -1.627   2.696   4.774  1.00  0.00     0.033 C 
ATOM     78  C   UNL     1       0.737   3.435   4.902  1.00  0.00     0.033 C 
ATOM     79  C   UNL     1      -1.349   1.812   5.992  1.00  0.00     0.160 C 
ATOM     80  C   UNL     1       0.937   2.450   6.047  1.00  0.00     0.160 C 
ATOM     81  O   UNL     1      -0.276   2.317   6.785  1.00  0.00    -0.381 OA
ENDBRANCH  71  76
ENDBRANCH  63  65
ENDBRANCH  62  63
ENDBRANCH  61  62
ENDBRANCH   1  61
TORSDOF 12
