REMARK SMILES Cc1ccc([C@@H]2[C@H](C(=O)OCCOC(=O)c3ccc(-c4c5nc(c(-c6c(F)cccc6F)c6ccc([nH]6)c(-c6c(F)cccc6F)c6nc(c(-c7c(F)cccc7F)c7ccc4[nH]7)C=C6)C=C5)cc3)c3ccccc3C(=O)N2c2ccccc2)cc1
REMARK SMILES IDX 12 1 11 2 10 3 8 4 9 5 7 6 6 7 78 8 70 9 76 10 71 11 75 12
REMARK SMILES IDX 77 13 72 14 74 15 73 16 5 17 1 18 2 19 3 20 86 21 4 22 85 23
REMARK SMILES IDX 79 24 80 25 84 26 81 27 83 28 82 29 13 30 14 31 15 32 16 33
REMARK SMILES IDX 17 34 69 35 18 36 68 37 19 38 20 39 21 40 62 41 22 42 67 43
REMARK SMILES IDX 61 44 63 45 23 46 66 47 60 48 59 49 24 51 50 52 33 53 49 54
REMARK SMILES IDX 34 55 37 56 48 57 64 58 35 59 36 60 47 62 65 63 38 64 25 65
REMARK SMILES IDX 26 66 31 67 27 68 28 69 30 70 32 71 29 72 51 73 52 74 57 75
REMARK SMILES IDX 53 76 54 77 56 78 58 79 55 80 39 81 40 82 45 83 41 84 42 85
REMARK SMILES IDX 44 86 46 87 43 88
REMARK H PARENT 63 50 37 61
REMARK Flexibility Score: inf
ROOT
ATOM      1  C   UNL     1      -5.345  -6.268   3.613  1.00  0.00     0.275 C 
ENDROOT
BRANCH   1   2
ATOM      2  C   UNL     1      -4.633  -5.119   4.975  1.00  0.00     0.274 C 
BRANCH   2   3
ATOM      3  O   UNL     1      -4.596  -3.405   4.782  1.00  0.00    -0.462 OA
BRANCH   3   4
ATOM      4  C   UNL     1      -3.466  -2.514   4.657  1.00  0.00     0.316 C 
ATOM      5  O   UNL     1      -2.492  -2.750   5.364  1.00  0.00    -0.251 OA
BRANCH   4   6
ATOM      6  C   UNL     1      -3.557  -0.940   3.765  1.00  0.00     0.157 C 
ATOM      7  C   UNL     1      -3.302  -0.310   2.146  1.00  0.00     0.140 C 
ATOM      8  N   UNL     1      -4.323  -0.799   1.153  1.00  0.00    -0.300 N 
ATOM      9  C   UNL     1      -4.972  -0.454   4.094  1.00  0.00    -0.019 A 
ATOM     10  C   UNL     1      -5.597  -0.261   1.546  1.00  0.00     0.259 C 
ATOM     11  C   UNL     1      -5.364  -0.541   5.444  1.00  0.00     0.005 A 
ATOM     12  C   UNL     1      -5.918  -0.201   3.064  1.00  0.00     0.044 A 
ATOM     13  O   UNL     1      -6.438   0.105   0.731  1.00  0.00    -0.269 OA
ATOM     14  C   UNL     1      -6.709  -0.591   5.762  1.00  0.00     0.000 A 
ATOM     15  C   UNL     1      -7.267  -0.163   3.432  1.00  0.00     0.014 A 
ATOM     16  C   UNL     1      -7.657  -0.412   4.758  1.00  0.00     0.001 A 
BRANCH   7  17
ATOM     17  C   UNL     1      -2.040   0.294   1.405  1.00  0.00    -0.024 A 
ATOM     18  C   UNL     1       1.874   0.930  -0.284  1.00  0.00     0.044 C 
ATOM     19  C   UNL     1       0.433   0.993   0.146  1.00  0.00    -0.051 A 
ATOM     20  C   UNL     1      -0.574   0.395  -0.595  1.00  0.00     0.004 A 
ATOM     21  C   UNL     1       0.070   1.547   1.374  1.00  0.00     0.004 A 
ATOM     22  C   UNL     1      -1.803   0.082   0.020  1.00  0.00     0.006 A 
ATOM     23  C   UNL     1      -1.151   1.198   2.000  1.00  0.00     0.006 A 
ENDBRANCH   7  17
BRANCH   8  24
ATOM     24  C   UNL     1      -4.303  -2.248   0.893  1.00  0.00     0.045 A 
ATOM     25  C   UNL     1      -4.795  -2.888   2.276  1.00  0.00     0.026 A 
ATOM     26  C   UNL     1      -3.393  -3.260  -0.277  1.00  0.00     0.026 A 
ATOM     27  C   UNL     1      -4.353  -4.483   2.775  1.00  0.00     0.002 A 
ATOM     28  C   UNL     1      -2.951  -4.994   0.035  1.00  0.00     0.002 A 
ATOM     29  C   UNL     1      -3.454  -5.725   1.610  1.00  0.00     0.000 A 
ENDBRANCH   8  24
ENDBRANCH   4   6
ENDBRANCH   3   4
ENDBRANCH   2   3
ENDBRANCH   1   2
BRANCH   1  30
ATOM     30  O   UNL     1      -5.597  -5.716   1.882  1.00  0.00    -0.458 OA
BRANCH  30  31
ATOM     31  C   UNL     1      -4.697  -4.472   0.959  1.00  0.00     0.338 C 
ATOM     32  O   UNL     1      -5.436  -4.262  -0.031  1.00  0.00    -0.246 OA
BRANCH  31  33
ATOM     33  C   UNL     1      -2.812  -3.824   1.794  1.00  0.00     0.060 A 
ATOM     34  C   UNL     1      -1.817  -2.786   1.589  1.00  0.00     0.016 A 
ATOM     35  C   UNL     1      -2.090  -4.596   3.001  1.00  0.00     0.016 A 
ATOM     36  C   UNL     1      -0.605  -2.517   2.316  1.00  0.00     0.010 A 
ATOM     37  C   UNL     1      -0.964  -4.386   3.730  1.00  0.00     0.010 A 
ATOM     38  C   UNL     1      -0.185  -3.354   3.323  1.00  0.00    -0.014 A 
BRANCH  38  39
ATOM     39  C   UNL     1       1.157  -3.563   3.804  1.00  0.00     0.031 A 
ATOM     40  C   UNL     1       1.463  -3.140   5.181  1.00  0.00     0.074 A 
ATOM     41  C   UNL     1       1.702  -4.584   3.089  1.00  0.00     0.049 A 
ATOM     42  N   UNL     1       2.643  -3.018   5.664  1.00  0.00    -0.248 NA
ATOM     43  C   UNL     1       0.451  -2.737   6.160  1.00  0.00     0.031 C 
ATOM     44  C   UNL     1       2.622  -5.646   3.445  1.00  0.00     0.029 A 
ATOM     45  N   UNL     1       1.424  -4.863   1.737  1.00  0.00    -0.354 N 
ATOM     46  C   UNL     1       2.487  -3.063   7.040  1.00  0.00     0.074 A 
ATOM     47  C   UNL     1       1.155  -2.606   7.285  1.00  0.00     0.031 C 
ATOM     48  C   UNL     1       3.095  -6.205   2.309  1.00  0.00     0.029 A 
ATOM     49  C   UNL     1       2.556  -5.469   1.171  1.00  0.00     0.049 A 
ATOM     50  H   UNL     1       0.581  -4.666   1.269  1.00  0.00     0.167 HD
ATOM     51  C   UNL     1       3.402  -3.765   7.769  1.00  0.00     0.037 A 
ATOM     52  C   UNL     1       3.293  -4.683   0.323  1.00  0.00     0.037 A 
ATOM     53  C   UNL     1       4.381  -4.353   6.847  1.00  0.00     0.049 A 
ATOM     54  C   UNL     1       4.411  -3.946   1.050  1.00  0.00     0.074 A 
ATOM     55  C   UNL     1       4.589  -5.610   6.310  1.00  0.00     0.029 A 
ATOM     56  N   UNL     1       5.076  -3.490   6.034  1.00  0.00    -0.354 N 
ATOM     57  N   UNL     1       4.770  -4.172   2.285  1.00  0.00    -0.248 NA
ATOM     58  C   UNL     1       5.171  -2.852   0.448  1.00  0.00     0.031 C 
ATOM     59  C   UNL     1       5.382  -5.452   5.122  1.00  0.00     0.029 A 
ATOM     60  C   UNL     1       5.644  -4.104   4.944  1.00  0.00     0.049 A 
ATOM     61  H   UNL     1       5.159  -2.525   6.214  1.00  0.00     0.167 HD
ATOM     62  C   UNL     1       5.712  -3.261   2.675  1.00  0.00     0.074 A 
ATOM     63  C   UNL     1       5.925  -2.449   1.486  1.00  0.00     0.031 C 
ATOM     64  C   UNL     1       6.239  -3.229   3.940  1.00  0.00     0.037 A 
BRANCH  51  65
ATOM     65  C   UNL     1       3.337  -4.139   9.232  1.00  0.00     0.057 A 
ATOM     66  C   UNL     1       4.298  -5.035   9.747  1.00  0.00     0.134 A 
ATOM     67  C   UNL     1       2.425  -3.668  10.195  1.00  0.00     0.134 A 
ATOM     68  F   UNL     1       5.280  -5.530   8.982  1.00  0.00    -0.206 F 
ATOM     69  C   UNL     1       4.324  -5.458  11.080  1.00  0.00     0.040 A 
ATOM     70  C   UNL     1       2.434  -4.092  11.535  1.00  0.00     0.040 A 
ATOM     71  F   UNL     1       1.498  -2.747   9.923  1.00  0.00    -0.206 F 
ATOM     72  C   UNL     1       3.386  -4.993  11.982  1.00  0.00     0.006 A 
ENDBRANCH  51  65
BRANCH  52  73
ATOM     73  C   UNL     1       2.409  -4.060  -0.713  1.00  0.00     0.057 A 
ATOM     74  C   UNL     1       1.930  -4.840  -1.784  1.00  0.00     0.134 A 
ATOM     75  C   UNL     1       1.670  -2.927  -0.389  1.00  0.00     0.134 A 
ATOM     76  F   UNL     1       2.591  -5.945  -2.156  1.00  0.00    -0.206 F 
ATOM     77  C   UNL     1       0.711  -4.571  -2.422  1.00  0.00     0.040 A 
ATOM     78  C   UNL     1       0.425  -2.711  -0.973  1.00  0.00     0.040 A 
ATOM     79  F   UNL     1       2.039  -2.132   0.625  1.00  0.00    -0.206 F 
ATOM     80  C   UNL     1      -0.074  -3.522  -1.980  1.00  0.00     0.006 A 
ENDBRANCH  52  73
BRANCH  64  81
ATOM     81  C   UNL     1       7.371  -2.308   4.340  1.00  0.00     0.057 A 
ATOM     82  C   UNL     1       8.443  -2.058   3.475  1.00  0.00     0.134 A 
ATOM     83  C   UNL     1       7.517  -1.755   5.635  1.00  0.00     0.134 A 
ATOM     84  F   UNL     1       8.508  -2.630   2.264  1.00  0.00    -0.206 F 
ATOM     85  C   UNL     1       9.519  -1.239   3.832  1.00  0.00     0.040 A 
ATOM     86  C   UNL     1       8.621  -1.001   6.027  1.00  0.00     0.040 A 
ATOM     87  F   UNL     1       6.598  -1.886   6.598  1.00  0.00    -0.206 F 
ATOM     88  C   UNL     1       9.616  -0.714   5.114  1.00  0.00     0.006 A 
ENDBRANCH  64  81
ENDBRANCH  38  39
ENDBRANCH  31  33
ENDBRANCH  30  31
ENDBRANCH   1  30
TORSDOF 13
