REMARK SMILES CC[C@]1(C(=O)OCCOC(=O)c2ccc(-c3c4nc(c(-c5c(F)cccc5F)c5ccc([nH]5)c(-c5c(F)cccc5F)c5nc(c(-c6c(F)cccc6F)c6ccc3[nH]6)C=C5)C=C4)cc2)CCC[N@@H+]([C@@H]2CCC[C@H](S(C)(=O)=O)C2)C1
REMARK SMILES IDX 7 1 6 2 4 3 5 4 3 5 66 6 80 7 67 8 69 9 68 10 2 12 1 13
REMARK SMILES IDX 70 14 71 15 79 16 72 17 74 18 73 19 75 20 76 21 77 22 78 23
REMARK SMILES IDX 8 24 9 25 10 26 11 27 12 28 13 29 65 30 14 31 64 32 15 33
REMARK SMILES IDX 16 34 17 35 58 36 18 37 63 38 57 39 59 40 19 41 62 42 56 43
REMARK SMILES IDX 55 44 20 46 46 47 29 48 45 49 30 50 33 51 44 52 60 53 31 54
REMARK SMILES IDX 32 55 43 57 61 58 34 59 21 60 22 61 27 62 23 63 24 64 26 65
REMARK SMILES IDX 28 66 25 67 47 68 48 69 53 70 49 71 50 72 52 73 54 74 51 75
REMARK SMILES IDX 35 76 36 77 41 78 37 79 38 80 40 81 42 82 39 83
REMARK H PARENT 69 11 59 45 33 56
REMARK Flexibility Score: inf
ROOT
ATOM      1  C   UNL     1       0.492  -4.725  -3.559  1.00  0.00     0.274 C 
ENDROOT
BRANCH   1   2
ATOM      2  O   UNL     1       0.750  -3.971  -2.356  1.00  0.00    -0.461 OA
BRANCH   2   3
ATOM      3  C   UNL     1       1.055  -2.654  -2.504  1.00  0.00     0.317 C 
ATOM      4  O   UNL     1       1.112  -2.081  -3.588  1.00  0.00    -0.251 OA
BRANCH   3   5
ATOM      5  C   UNL     1       1.281  -1.931  -1.161  1.00  0.00     0.117 C 
ATOM      6  C   UNL     1       1.450  -2.934   0.004  1.00  0.00     0.030 C 
ATOM      7  C   UNL     1       2.591  -1.134  -1.360  1.00  0.00     0.281 C 
ATOM      8  C   UNL     1       2.144  -2.356   1.235  1.00  0.00     0.063 C 
ATOM      9  N   UNL     1       3.048  -0.517  -0.111  1.00  0.00    -0.332 N 
ATOM     10  C   UNL     1       3.388  -1.547   0.874  1.00  0.00     0.262 C 
ATOM     11  H   UNL     1       2.277   0.006   0.304  1.00  0.00     0.348 HD
BRANCH   5  12
ATOM     12  C   UNL     1       0.050  -0.999  -0.980  1.00  0.00     0.021 C 
ATOM     13  C   UNL     1      -0.062  -0.080   0.226  1.00  0.00     0.005 C 
ENDBRANCH   5  12
BRANCH   9  14
ATOM     14  C   UNL     1       4.055   0.533  -0.327  1.00  0.00     0.185 C 
ATOM     15  C   UNL     1       5.462   0.020  -0.668  1.00  0.00     0.065 C 
ATOM     16  C   UNL     1       4.068   1.482   0.883  1.00  0.00     0.084 C 
ATOM     17  C   UNL     1       6.438   1.179  -0.848  1.00  0.00     0.007 C 
ATOM     18  C   UNL     1       5.096   2.612   0.746  1.00  0.00     0.114 C 
ATOM     19  C   UNL     1       6.481   2.066   0.393  1.00  0.00     0.020 C 
BRANCH  18  20
ATOM     20  S   UNL     1       5.113   3.564   2.283  1.00  0.00     0.150 S 
ATOM     21  C   UNL     1       6.395   4.772   2.065  1.00  0.00     0.158 C 
ATOM     22  O   UNL     1       3.860   4.291   2.361  1.00  0.00    -0.229 OA
ATOM     23  O   UNL     1       5.529   2.689   3.363  1.00  0.00    -0.229 OA
ENDBRANCH  18  20
ENDBRANCH   9  14
ENDBRANCH   3   5
ENDBRANCH   2   3
ENDBRANCH   1   2
BRANCH   1  24
ATOM     24  C   UNL     1      -0.976  -5.131  -3.603  1.00  0.00     0.275 C 
BRANCH  24  25
ATOM     25  O   UNL     1      -1.776  -3.941  -3.712  1.00  0.00    -0.458 OA
BRANCH  25  26
ATOM     26  C   UNL     1      -2.691  -3.747  -2.738  1.00  0.00     0.338 C 
ATOM     27  O   UNL     1      -2.996  -4.520  -1.841  1.00  0.00    -0.246 OA
BRANCH  26  28
ATOM     28  C   UNL     1      -3.289  -2.408  -2.881  1.00  0.00     0.060 A 
ATOM     29  C   UNL     1      -2.476  -1.298  -3.110  1.00  0.00     0.016 A 
ATOM     30  C   UNL     1      -4.653  -2.235  -2.654  1.00  0.00     0.016 A 
ATOM     31  C   UNL     1      -2.998  -0.013  -2.979  1.00  0.00     0.010 A 
ATOM     32  C   UNL     1      -5.198  -0.947  -2.661  1.00  0.00     0.010 A 
ATOM     33  C   UNL     1      -4.372   0.185  -2.781  1.00  0.00    -0.014 A 
BRANCH  33  34
ATOM     34  C   UNL     1      -4.947   1.559  -2.680  1.00  0.00     0.031 A 
ATOM     35  C   UNL     1      -5.797   1.944  -1.495  1.00  0.00     0.074 A 
ATOM     36  C   UNL     1      -4.729   2.470  -3.650  1.00  0.00     0.049 A 
ATOM     37  N   UNL     1      -6.591   2.975  -1.345  1.00  0.00    -0.248 NA
ATOM     38  C   UNL     1      -5.768   1.039  -0.336  1.00  0.00     0.031 C 
ATOM     39  C   UNL     1      -3.898   2.268  -4.838  1.00  0.00     0.029 A 
ATOM     40  N   UNL     1      -5.194   3.756  -3.789  1.00  0.00    -0.354 N 
ATOM     41  C   UNL     1      -7.215   2.798  -0.116  1.00  0.00     0.074 A 
ATOM     42  C   UNL     1      -6.696   1.570   0.448  1.00  0.00     0.031 C 
ATOM     43  C   UNL     1      -3.870   3.400  -5.556  1.00  0.00     0.029 A 
ATOM     44  C   UNL     1      -4.765   4.372  -4.940  1.00  0.00     0.049 A 
ATOM     45  H   UNL     1      -5.777   4.193  -3.128  1.00  0.00     0.167 HD
ATOM     46  C   UNL     1      -8.143   3.585   0.482  1.00  0.00     0.037 A 
ATOM     47  C   UNL     1      -5.090   5.563  -5.475  1.00  0.00     0.037 A 
ATOM     48  C   UNL     1      -8.596   4.848  -0.040  1.00  0.00     0.049 A 
ATOM     49  C   UNL     1      -6.109   6.425  -4.793  1.00  0.00     0.074 A 
ATOM     50  C   UNL     1      -9.517   5.728   0.503  1.00  0.00     0.029 A 
ATOM     51  N   UNL     1      -8.137   5.426  -1.214  1.00  0.00    -0.354 N 
ATOM     52  N   UNL     1      -6.763   6.202  -3.680  1.00  0.00    -0.248 NA
ATOM     53  C   UNL     1      -6.460   7.687  -5.458  1.00  0.00     0.031 C 
ATOM     54  C   UNL     1      -9.630   6.830  -0.353  1.00  0.00     0.029 A 
ATOM     55  C   UNL     1      -8.758   6.649  -1.413  1.00  0.00     0.049 A 
ATOM     56  H   UNL     1      -7.470   5.026  -1.817  1.00  0.00     0.167 HD
ATOM     57  C   UNL     1      -7.604   7.292  -3.511  1.00  0.00     0.074 A 
ATOM     58  C   UNL     1      -7.361   8.187  -4.624  1.00  0.00     0.031 C 
ATOM     59  C   UNL     1      -8.506   7.524  -2.527  1.00  0.00     0.037 A 
BRANCH  46  60
ATOM     60  C   UNL     1      -8.761   3.084   1.754  1.00  0.00     0.057 A 
ATOM     61  C   UNL     1      -8.078   3.098   2.975  1.00  0.00     0.134 A 
ATOM     62  C   UNL     1     -10.079   2.609   1.756  1.00  0.00     0.134 A 
ATOM     63  F   UNL     1      -6.809   3.528   3.039  1.00  0.00    -0.206 F 
ATOM     64  C   UNL     1      -8.676   2.638   4.151  1.00  0.00     0.040 A 
ATOM     65  C   UNL     1     -10.696   2.167   2.928  1.00  0.00     0.040 A 
ATOM     66  F   UNL     1     -10.793   2.574   0.620  1.00  0.00    -0.206 F 
ATOM     67  C   UNL     1      -9.992   2.176   4.129  1.00  0.00     0.006 A 
ENDBRANCH  46  60
BRANCH  47  68
ATOM     68  C   UNL     1      -4.472   5.980  -6.758  1.00  0.00     0.057 A 
ATOM     69  C   UNL     1      -3.511   6.995  -6.798  1.00  0.00     0.134 A 
ATOM     70  C   UNL     1      -4.798   5.349  -7.964  1.00  0.00     0.134 A 
ATOM     71  F   UNL     1      -3.174   7.651  -5.677  1.00  0.00    -0.206 F 
ATOM     72  C   UNL     1      -2.892   7.366  -7.992  1.00  0.00     0.040 A 
ATOM     73  C   UNL     1      -4.170   5.692  -9.161  1.00  0.00     0.040 A 
ATOM     74  F   UNL     1      -5.710   4.365  -7.989  1.00  0.00    -0.206 F 
ATOM     75  C   UNL     1      -3.214   6.705  -9.177  1.00  0.00     0.006 A 
ENDBRANCH  47  68
BRANCH  59  76
ATOM     76  C   UNL     1      -9.280   8.803  -2.608  1.00  0.00     0.057 A 
ATOM     77  C   UNL     1     -10.350   8.956  -3.498  1.00  0.00     0.134 A 
ATOM     78  C   UNL     1      -8.966   9.883  -1.774  1.00  0.00     0.134 A 
ATOM     79  F   UNL     1     -10.688   7.962  -4.332  1.00  0.00    -0.206 F 
ATOM     80  C   UNL     1     -11.072  10.148  -3.568  1.00  0.00     0.040 A 
ATOM     81  C   UNL     1      -9.691  11.074  -1.824  1.00  0.00     0.040 A 
ATOM     82  F   UNL     1      -7.954   9.796  -0.899  1.00  0.00    -0.206 F 
ATOM     83  C   UNL     1     -10.745  11.210  -2.726  1.00  0.00     0.006 A 
ENDBRANCH  59  76
ENDBRANCH  33  34
ENDBRANCH  26  28
ENDBRANCH  25  26
ENDBRANCH  24  25
ENDBRANCH   1  24
TORSDOF 14
