REMARK SMILES CCOC(=O)c1c(NC(=O)[C@@H]2[C@@H](C(=O)OCCOC(=O)c3ccc(-c4c5nc(c(-c6c(F)cccc6F)c6ccc([nH]6)c(-c6c(F)cccc6F)c6nc(c(-c7c(F)cccc7F)c7ccc4[nH]7)C=C6)C=C5)cc3)[C@@H]3C=C[C@H]2CC3)sc2c1CCC2
REMARK SMILES IDX 15 1 13 2 14 3 12 4 11 5 78 6 75 7 77 8 79 9 76 10 80 11
REMARK SMILES IDX 9 12 8 13 10 15 7 16 6 17 83 18 81 19 82 20 84 21 86 22
REMARK SMILES IDX 85 23 4 24 5 25 3 26 2 27 1 28 16 29 17 30 18 31 19 32 20 33
REMARK SMILES IDX 21 34 22 35 74 36 23 37 73 38 24 39 25 40 26 41 67 42 27 43
REMARK SMILES IDX 72 44 66 45 68 46 28 47 71 48 65 49 64 50 29 52 55 53 38 54
REMARK SMILES IDX 54 55 39 56 42 57 53 58 69 59 40 60 41 61 52 63 70 64 43 65
REMARK SMILES IDX 30 66 31 67 36 68 32 69 33 70 35 71 37 72 34 73 56 74 57 75
REMARK SMILES IDX 62 76 58 77 59 78 61 79 63 80 60 81 44 82 45 83 50 84 46 85
REMARK SMILES IDX 47 86 49 87 51 88 48 89
REMARK H PARENT 8 14 68 51 42 62
REMARK Flexibility Score: inf
ROOT
ATOM      1  O   UNL     1       8.745   4.055  -6.290  1.00  0.00    -0.462 OA
ENDROOT
BRANCH   1   2
ATOM      2  C   UNL     1       7.579   4.710  -6.024  1.00  0.00     0.310 C 
ATOM      3  O   UNL     1       6.978   5.403  -6.838  1.00  0.00    -0.252 OA
BRANCH   2   4
ATOM      4  C   UNL     1       7.163   4.558  -4.573  1.00  0.00     0.119 C 
ATOM      5  C   UNL     1       5.586   4.313  -4.400  1.00  0.00     0.100 C 
ATOM      6  C   UNL     1       5.067   5.602  -3.718  1.00  0.00     0.025 C 
ATOM      7  C   UNL     1       7.601   5.877  -3.845  1.00  0.00     0.026 C 
ATOM      8  C   UNL     1       5.728   5.709  -2.368  1.00  0.00    -0.027 C 
ATOM      9  C   UNL     1       5.410   6.825  -4.594  1.00  0.00     0.009 C 
ATOM     10  C   UNL     1       7.061   5.816  -2.429  1.00  0.00    -0.027 C 
ATOM     11  C   UNL     1       6.910   7.112  -4.486  1.00  0.00     0.009 C 
BRANCH   5  12
ATOM     12  C   UNL     1       5.307   2.950  -3.676  1.00  0.00     0.229 C 
ATOM     13  N   UNL     1       4.197   2.604  -2.942  1.00  0.00    -0.317 N 
ATOM     14  H   UNL     1       4.203   1.682  -2.598  1.00  0.00     0.170 HD
ATOM     15  O   UNL     1       6.156   2.046  -3.756  1.00  0.00    -0.274 OA
BRANCH  13  16
ATOM     16  C   UNL     1       3.079   3.331  -2.607  1.00  0.00     0.110 A 
ATOM     17  C   UNL     1       2.324   3.366  -1.430  1.00  0.00     0.098 A 
ATOM     18  C   UNL     1       1.734   4.663  -1.377  1.00  0.00    -0.017 A 
ATOM     19  S   UNL     1       2.206   4.206  -3.821  1.00  0.00    -0.122 S 
ATOM     20  C   UNL     1       1.758   5.271  -2.600  1.00  0.00     0.011 A 
ATOM     21  C   UNL     1       1.218   5.587  -0.332  1.00  0.00     0.038 C 
ATOM     22  C   UNL     1       1.460   6.715  -2.563  1.00  0.00     0.047 C 
ATOM     23  C   UNL     1       0.755   6.823  -1.178  1.00  0.00     0.010 C 
BRANCH  17  24
ATOM     24  C   UNL     1       2.284   2.373  -0.385  1.00  0.00     0.341 C 
ATOM     25  O   UNL     1       3.256   1.688  -0.035  1.00  0.00    -0.246 OA
BRANCH  24  26
ATOM     26  O   UNL     1       1.010   2.210   0.051  1.00  0.00    -0.462 OA
BRANCH  26  27
ATOM     27  C   UNL     1       0.681   1.052   0.831  1.00  0.00     0.230 C 
ATOM     28  C   UNL     1       0.895  -0.243   0.064  1.00  0.00     0.049 C 
ENDBRANCH  26  27
ENDBRANCH  24  26
ENDBRANCH  17  24
ENDBRANCH  13  16
ENDBRANCH   5  12
ENDBRANCH   2   4
ENDBRANCH   1   2
BRANCH   1  29
ATOM     29  C   UNL     1       9.255   4.206  -7.630  1.00  0.00     0.274 C 
BRANCH  29  30
ATOM     30  C   UNL     1       8.636   3.235  -8.632  1.00  0.00     0.275 C 
BRANCH  30  31
ATOM     31  O   UNL     1       7.277   3.553  -8.922  1.00  0.00    -0.458 OA
BRANCH  31  32
ATOM     32  C   UNL     1       6.379   2.977  -8.094  1.00  0.00     0.338 C 
ATOM     33  O   UNL     1       6.613   2.338  -7.080  1.00  0.00    -0.246 OA
BRANCH  32  34
ATOM     34  C   UNL     1       5.037   3.078  -8.667  1.00  0.00     0.060 A 
ATOM     35  C   UNL     1       3.987   2.584  -7.890  1.00  0.00     0.016 A 
ATOM     36  C   UNL     1       4.894   3.342 -10.036  1.00  0.00     0.016 A 
ATOM     37  C   UNL     1       2.861   2.133  -8.536  1.00  0.00     0.010 A 
ATOM     38  C   UNL     1       3.771   2.885 -10.681  1.00  0.00     0.010 A 
ATOM     39  C   UNL     1       2.820   2.200  -9.935  1.00  0.00    -0.014 A 
BRANCH  39  40
ATOM     40  C   UNL     1       1.693   1.586 -10.596  1.00  0.00     0.031 A 
ATOM     41  C   UNL     1       0.437   2.323 -10.353  1.00  0.00     0.074 A 
ATOM     42  C   UNL     1       1.811   0.500 -11.382  1.00  0.00     0.049 A 
ATOM     43  N   UNL     1      -0.546   1.965  -9.600  1.00  0.00    -0.248 NA
ATOM     44  C   UNL     1       0.360   3.712 -10.835  1.00  0.00     0.031 C 
ATOM     45  C   UNL     1       3.028  -0.137 -11.891  1.00  0.00     0.029 A 
ATOM     46  N   UNL     1       0.821  -0.229 -11.961  1.00  0.00    -0.354 N 
ATOM     47  C   UNL     1      -1.472   2.996  -9.690  1.00  0.00     0.074 A 
ATOM     48  C   UNL     1      -0.787   4.112 -10.286  1.00  0.00     0.031 C 
ATOM     49  C   UNL     1       2.700  -1.003 -12.879  1.00  0.00     0.029 A 
ATOM     50  C   UNL     1       1.253  -1.090 -12.963  1.00  0.00     0.049 A 
ATOM     51  H   UNL     1      -0.123  -0.154 -11.694  1.00  0.00     0.167 HD
ATOM     52  C   UNL     1      -2.797   2.748  -9.527  1.00  0.00     0.037 A 
ATOM     53  C   UNL     1       0.447  -1.754 -13.831  1.00  0.00     0.037 A 
ATOM     54  C   UNL     1      -3.013   1.490  -8.858  1.00  0.00     0.049 A 
ATOM     55  C   UNL     1      -0.909  -1.800 -13.223  1.00  0.00     0.074 A 
ATOM     56  C   UNL     1      -2.700   0.975  -7.615  1.00  0.00     0.029 A 
ATOM     57  N   UNL     1      -3.315   0.409  -9.649  1.00  0.00    -0.354 N 
ATOM     58  N   UNL     1      -1.198  -2.478 -12.147  1.00  0.00    -0.248 NA
ATOM     59  C   UNL     1      -1.827  -0.719 -13.544  1.00  0.00     0.031 C 
ATOM     60  C   UNL     1      -2.391  -0.398  -7.848  1.00  0.00     0.029 A 
ATOM     61  C   UNL     1      -2.590  -0.664  -9.204  1.00  0.00     0.049 A 
ATOM     62  H   UNL     1      -3.944   0.406 -10.406  1.00  0.00     0.167 HD
ATOM     63  C   UNL     1      -2.055  -1.655 -11.429  1.00  0.00     0.074 A 
ATOM     64  C   UNL     1      -2.470  -0.623 -12.377  1.00  0.00     0.031 C 
ATOM     65  C   UNL     1      -2.115  -1.724 -10.066  1.00  0.00     0.037 A 
BRANCH  52  66
ATOM     66  C   UNL     1      -3.868   3.412 -10.356  1.00  0.00     0.057 A 
ATOM     67  C   UNL     1      -5.216   3.179 -10.036  1.00  0.00     0.134 A 
ATOM     68  C   UNL     1      -3.644   4.005 -11.617  1.00  0.00     0.134 A 
ATOM     69  F   UNL     1      -5.557   2.602  -8.873  1.00  0.00    -0.206 F 
ATOM     70  C   UNL     1      -6.255   3.445 -10.935  1.00  0.00     0.040 A 
ATOM     71  C   UNL     1      -4.678   4.323 -12.499  1.00  0.00     0.040 A 
ATOM     72  F   UNL     1      -2.420   4.212 -12.113  1.00  0.00    -0.206 F 
ATOM     73  C   UNL     1      -5.986   4.012 -12.175  1.00  0.00     0.006 A 
ENDBRANCH  52  66
BRANCH  53  74
ATOM     74  C   UNL     1       0.658  -1.964 -15.284  1.00  0.00     0.057 A 
ATOM     75  C   UNL     1      -0.130  -2.874 -16.004  1.00  0.00     0.134 A 
ATOM     76  C   UNL     1       1.422  -1.067 -16.052  1.00  0.00     0.134 A 
ATOM     77  F   UNL     1      -0.930  -3.737 -15.362  1.00  0.00    -0.206 F 
ATOM     78  C   UNL     1      -0.175  -2.876 -17.406  1.00  0.00     0.040 A 
ATOM     79  C   UNL     1       1.389  -1.062 -17.451  1.00  0.00     0.040 A 
ATOM     80  F   UNL     1       2.151  -0.104 -15.472  1.00  0.00    -0.206 F 
ATOM     81  C   UNL     1       0.577  -1.959 -18.134  1.00  0.00     0.006 A 
ENDBRANCH  53  74
BRANCH  65  82
ATOM     82  C   UNL     1      -1.446  -2.894  -9.395  1.00  0.00     0.057 A 
ATOM     83  C   UNL     1      -0.064  -3.138  -9.414  1.00  0.00     0.134 A 
ATOM     84  C   UNL     1      -2.222  -3.725  -8.579  1.00  0.00     0.134 A 
ATOM     85  F   UNL     1       0.772  -2.341 -10.093  1.00  0.00    -0.206 F 
ATOM     86  C   UNL     1       0.509  -4.186  -8.685  1.00  0.00     0.040 A 
ATOM     87  C   UNL     1      -1.659  -4.752  -7.821  1.00  0.00     0.040 A 
ATOM     88  F   UNL     1      -3.545  -3.518  -8.470  1.00  0.00    -0.206 F 
ATOM     89  C   UNL     1      -0.289  -4.992  -7.879  1.00  0.00     0.006 A 
ENDBRANCH  65  82
ENDBRANCH  39  40
ENDBRANCH  32  34
ENDBRANCH  31  32
ENDBRANCH  30  31
ENDBRANCH  29  30
ENDBRANCH   1  29
TORSDOF 16
