REMARK SMILES CN(CC(=O)OCCOC(=O)c1ccc(-c2c3nc(c(-c4c(F)cccc4F)c4ccc([nH]4)c(-c4c(F)cccc4F)c4nc(c(-c5c(F)cccc5F)c5ccc2[nH]5)C=C4)C=C3)cc1)c1nc2cc(N)ccc2[nH]1
REMARK SMILES IDX 7 1 6 2 4 3 5 4 3 5 2 6 1 7 66 8 67 9 75 10 68 11 74 12
REMARK SMILES IDX 69 14 73 15 70 16 72 17 71 18 8 21 9 22 10 23 11 24 12 25
REMARK SMILES IDX 13 26 65 27 14 28 64 29 15 30 16 31 17 32 58 33 18 34 63 35
REMARK SMILES IDX 57 36 59 37 19 38 62 39 56 40 55 41 20 43 46 44 29 45 45 46
REMARK SMILES IDX 30 47 33 48 44 49 60 50 31 51 32 52 43 54 61 55 34 56 21 57
REMARK SMILES IDX 22 58 27 59 23 60 24 61 26 62 28 63 25 64 47 65 48 66 53 67
REMARK SMILES IDX 49 68 50 69 52 70 54 71 51 72 35 73 36 74 41 75 37 76 38 77
REMARK SMILES IDX 40 78 42 79 39 80
REMARK H PARENT 75 13 71 19 71 20 59 42 33 53
REMARK Flexibility Score: inf
ROOT
ATOM      1  C   UNL     1      -3.468  -1.520  -0.366  1.00  0.00     0.274 C 
ENDROOT
BRANCH   1   2
ATOM      2  O   UNL     1      -2.047  -1.280  -0.350  1.00  0.00    -0.461 OA
BRANCH   2   3
ATOM      3  C   UNL     1      -1.427  -1.592   0.821  1.00  0.00     0.325 C 
ATOM      4  O   UNL     1      -2.021  -1.902   1.855  1.00  0.00    -0.250 OA
BRANCH   3   5
ATOM      5  C   UNL     1       0.091  -1.478   0.798  1.00  0.00     0.241 C 
BRANCH   5   6
ATOM      6  N   UNL     1       0.733  -1.235  -0.501  1.00  0.00    -0.334 N 
ATOM      7  C   UNL     1       1.308   0.072  -0.741  1.00  0.00     0.147 C 
BRANCH   6   8
ATOM      8  C   UNL     1       0.875  -2.268  -1.368  1.00  0.00     0.204 A 
ATOM      9  N   UNL     1       0.189  -3.387  -1.417  1.00  0.00    -0.213 NA
ATOM     10  N   UNL     1       1.839  -2.259  -2.348  1.00  0.00    -0.324 N 
ATOM     11  C   UNL     1       0.653  -4.067  -2.522  1.00  0.00     0.093 A 
ATOM     12  C   UNL     1       1.714  -3.391  -3.107  1.00  0.00     0.067 A 
ATOM     13  H   UNL     1       2.512  -1.552  -2.482  1.00  0.00     0.170 HD
ATOM     14  C   UNL     1       0.217  -5.267  -3.105  1.00  0.00     0.056 A 
ATOM     15  C   UNL     1       2.405  -3.865  -4.222  1.00  0.00     0.030 A 
ATOM     16  C   UNL     1       0.827  -5.737  -4.275  1.00  0.00     0.034 A 
ATOM     17  C   UNL     1       1.938  -5.062  -4.786  1.00  0.00     0.028 A 
BRANCH  16  18
ATOM     18  N   UNL     1       0.409  -6.938  -4.840  1.00  0.00    -0.399 N 
ATOM     19  H   UNL     1      -0.375  -7.407  -4.474  1.00  0.00     0.156 HD
ATOM     20  H   UNL     1       0.897  -7.318  -5.606  1.00  0.00     0.156 HD
ENDBRANCH  16  18
ENDBRANCH   6   8
ENDBRANCH   5   6
ENDBRANCH   3   5
ENDBRANCH   2   3
ENDBRANCH   1   2
BRANCH   1  21
ATOM     21  C   UNL     1      -3.786  -2.919  -0.899  1.00  0.00     0.275 C 
BRANCH  21  22
ATOM     22  O   UNL     1      -3.040  -3.904  -0.169  1.00  0.00    -0.458 OA
BRANCH  22  23
ATOM     23  C   UNL     1      -2.815  -5.059  -0.841  1.00  0.00     0.338 C 
ATOM     24  O   UNL     1      -3.346  -5.398  -1.887  1.00  0.00    -0.246 OA
BRANCH  23  25
ATOM     25  C   UNL     1      -1.805  -5.893  -0.137  1.00  0.00     0.060 A 
ATOM     26  C   UNL     1      -0.908  -5.349   0.788  1.00  0.00     0.016 A 
ATOM     27  C   UNL     1      -1.694  -7.245  -0.485  1.00  0.00     0.016 A 
ATOM     28  C   UNL     1       0.104  -6.135   1.341  1.00  0.00     0.010 A 
ATOM     29  C   UNL     1      -0.712  -8.046   0.104  1.00  0.00     0.010 A 
ATOM     30  C   UNL     1       0.192  -7.498   1.026  1.00  0.00    -0.014 A 
BRANCH  30  31
ATOM     31  C   UNL     1       1.137  -8.383   1.751  1.00  0.00     0.031 A 
ATOM     32  C   UNL     1       2.292  -9.040   1.057  1.00  0.00     0.074 A 
ATOM     33  C   UNL     1       0.892  -8.645   3.049  1.00  0.00     0.049 A 
ATOM     34  N   UNL     1       3.115  -9.952   1.516  1.00  0.00    -0.248 NA
ATOM     35  C   UNL     1       2.558  -8.631  -0.330  1.00  0.00     0.031 C 
ATOM     36  C   UNL     1      -0.203  -8.070   3.834  1.00  0.00     0.029 A 
ATOM     37  N   UNL     1       1.533  -9.477   3.931  1.00  0.00    -0.354 N 
ATOM     38  C   UNL     1       3.984 -10.241   0.473  1.00  0.00     0.074 A 
ATOM     39  C   UNL     1       3.583  -9.413  -0.648  1.00  0.00     0.031 C 
ATOM     40  C   UNL     1      -0.157  -8.563   5.079  1.00  0.00     0.029 A 
ATOM     41  C   UNL     1       0.932  -9.529   5.165  1.00  0.00     0.049 A 
ATOM     42  H   UNL     1       2.344  -9.987   3.703  1.00  0.00     0.167 HD
ATOM     43  C   UNL     1       5.018 -11.117   0.457  1.00  0.00     0.037 A 
ATOM     44  C   UNL     1       1.200 -10.293   6.238  1.00  0.00     0.037 A 
ATOM     45  C   UNL     1       5.421 -11.933   1.578  1.00  0.00     0.049 A 
ATOM     46  C   UNL     1       2.326 -11.280   6.179  1.00  0.00     0.074 A 
ATOM     47  C   UNL     1       6.482 -12.819   1.662  1.00  0.00     0.029 A 
ATOM     48  N   UNL     1       4.779 -11.966   2.806  1.00  0.00    -0.354 N 
ATOM     49  N   UNL     1       3.144 -11.539   5.189  1.00  0.00    -0.248 NA
ATOM     50  C   UNL     1       2.560 -12.085   7.384  1.00  0.00     0.031 C 
ATOM     51  C   UNL     1       6.460 -13.416   2.929  1.00  0.00     0.029 A 
ATOM     52  C   UNL     1       5.409 -12.872   3.647  1.00  0.00     0.049 A 
ATOM     53  H   UNL     1       3.992 -11.425   3.047  1.00  0.00     0.167 HD
ATOM     54  C   UNL     1       3.994 -12.532   5.652  1.00  0.00     0.074 A 
ATOM     55  C   UNL     1       3.607 -12.812   7.020  1.00  0.00     0.031 C 
ATOM     56  C   UNL     1       5.003 -13.157   4.999  1.00  0.00     0.037 A 
BRANCH  43  57
ATOM     57  C   UNL     1       5.792 -11.261  -0.820  1.00  0.00     0.057 A 
ATOM     58  C   UNL     1       6.719 -10.297  -1.233  1.00  0.00     0.134 A 
ATOM     59  C   UNL     1       5.669 -12.417  -1.601  1.00  0.00     0.134 A 
ATOM     60  F   UNL     1       6.883  -9.166  -0.530  1.00  0.00    -0.206 F 
ATOM     61  C   UNL     1       7.491 -10.473  -2.383  1.00  0.00     0.040 A 
ATOM     62  C   UNL     1       6.448 -12.614  -2.743  1.00  0.00     0.040 A 
ATOM     63  F   UNL     1       4.807 -13.385  -1.255  1.00  0.00    -0.206 F 
ATOM     64  C   UNL     1       7.362 -11.639  -3.137  1.00  0.00     0.006 A 
ENDBRANCH  43  57
BRANCH  44  65
ATOM     65  C   UNL     1       0.365 -10.159   7.454  1.00  0.00     0.057 A 
ATOM     66  C   UNL     1       0.863  -9.537   8.602  1.00  0.00     0.134 A 
ATOM     67  C   UNL     1      -0.955 -10.623   7.485  1.00  0.00     0.134 A 
ATOM     68  F   UNL     1       2.128  -9.092   8.635  1.00  0.00    -0.206 F 
ATOM     69  C   UNL     1       0.078  -9.383   9.745  1.00  0.00     0.040 A 
ATOM     70  C   UNL     1      -1.759 -10.456   8.612  1.00  0.00     0.040 A 
ATOM     71  F   UNL     1      -1.488 -11.223   6.410  1.00  0.00    -0.206 F 
ATOM     72  C   UNL     1      -1.241  -9.837   9.748  1.00  0.00     0.006 A 
ENDBRANCH  44  65
BRANCH  56  73
ATOM     73  C   UNL     1       5.756 -14.198   5.771  1.00  0.00     0.057 A 
ATOM     74  C   UNL     1       5.200 -15.454   6.045  1.00  0.00     0.134 A 
ATOM     75  C   UNL     1       7.043 -13.938   6.258  1.00  0.00     0.134 A 
ATOM     76  F   UNL     1       3.963 -15.757   5.621  1.00  0.00    -0.206 F 
ATOM     77  C   UNL     1       5.885 -16.404   6.804  1.00  0.00     0.040 A 
ATOM     78  C   UNL     1       7.746 -14.888   7.000  1.00  0.00     0.040 A 
ATOM     79  F   UNL     1       7.633 -12.756   6.027  1.00  0.00    -0.206 F 
ATOM     80  C   UNL     1       7.163 -16.122   7.282  1.00  0.00     0.006 A 
ENDBRANCH  56  73
ENDBRANCH  30  31
ENDBRANCH  23  25
ENDBRANCH  22  23
ENDBRANCH  21  22
ENDBRANCH   1  21
TORSDOF 14
