REMARK SMILES CCC(CC)(NC(=O)CC1([NH3+])CCCC1)C(=O)OCCOC(=O)c1ccc(-c2c3nc(c(-c4c(F)cccc4F)c4ccc([nH]4)c(-c4c(F)cccc4F)c4nc(c(-c5c(F)cccc5F)c5ccc2[nH]5)C=C4)C=C3)cc1
REMARK SMILES IDX 19 1 18 2 16 3 17 4 3 5 2 6 1 7 4 8 5 9 6 10 7 11 8 13 9 14
REMARK SMILES IDX 10 15 12 16 15 17 13 18 14 19 11 20 20 24 21 25 22 26 23 27
REMARK SMILES IDX 24 28 25 29 77 30 26 31 76 32 27 33 28 34 29 35 70 36 30 37
REMARK SMILES IDX 75 38 69 39 71 40 31 41 74 42 68 43 67 44 32 46 58 47 41 48
REMARK SMILES IDX 57 49 42 50 45 51 56 52 72 53 43 54 44 55 55 57 73 58 46 59
REMARK SMILES IDX 33 60 34 61 39 62 35 63 36 64 38 65 40 66 37 67 59 68 60 69
REMARK SMILES IDX 65 70 61 71 62 72 64 73 66 74 63 75 47 76 48 77 53 78 49 79
REMARK SMILES IDX 50 80 52 81 54 82 51 83
REMARK H PARENT 6 12 11 21 11 22 11 23 71 45 45 56
REMARK Flexibility Score: inf
ROOT
ATOM      1  C   UNL     1       4.888  -1.822  -2.082  1.00  0.00     0.274 C 
ENDROOT
BRANCH   1   2
ATOM      2  O   UNL     1       3.518  -1.854  -2.569  1.00  0.00    -0.460 OA
BRANCH   2   3
ATOM      3  C   UNL     1       2.574  -2.094  -1.620  1.00  0.00     0.331 C 
ATOM      4  O   UNL     1       2.870  -2.276  -0.438  1.00  0.00    -0.249 OA
BRANCH   3   5
ATOM      5  C   UNL     1       1.070  -2.071  -2.088  1.00  0.00     0.137 C 
BRANCH   5   6
ATOM      6  C   UNL     1       0.389  -0.800  -1.490  1.00  0.00     0.037 C 
ATOM      7  C   UNL     1       0.343  -0.684   0.038  1.00  0.00     0.007 C 
ENDBRANCH   5   6
BRANCH   5   8
ATOM      8  C   UNL     1       0.447  -3.369  -1.432  1.00  0.00     0.037 C 
ATOM      9  C   UNL     1      -1.084  -3.457  -1.402  1.00  0.00     0.007 C 
ENDBRANCH   5   8
BRANCH   5  10
ATOM     10  N   UNL     1       0.696  -2.183  -3.545  1.00  0.00    -0.340 N 
ATOM     11  C   UNL     1       0.822  -1.460  -4.678  1.00  0.00     0.227 C 
ATOM     12  H   UNL     1       0.223  -3.029  -3.721  1.00  0.00     0.164 HD
ATOM     13  O   UNL     1      -0.144  -1.509  -5.452  1.00  0.00    -0.275 OA
BRANCH  11  14
ATOM     14  C   UNL     1       2.073  -0.755  -5.122  1.00  0.00     0.168 C 
BRANCH  14  15
ATOM     15  C   UNL     1       2.170   0.717  -4.753  1.00  0.00     0.103 C 
ATOM     16  C   UNL     1       3.122   1.489  -5.683  1.00  0.00     0.069 C 
ATOM     17  C   UNL     1       0.905   1.572  -4.869  1.00  0.00     0.069 C 
ATOM     18  C   UNL     1       2.879   2.957  -5.338  1.00  0.00     0.007 C 
ATOM     19  C   UNL     1       1.425   3.020  -4.856  1.00  0.00     0.007 C 
BRANCH  15  20
ATOM     20  N   UNL     1       2.647   0.799  -3.384  1.00  0.00    -0.352 N 
ATOM     21  H   UNL     1       3.491   0.236  -3.283  1.00  0.00     0.344 HD
ATOM     22  H   UNL     1       1.927   0.450  -2.751  1.00  0.00     0.344 HD
ATOM     23  H   UNL     1       2.857   1.771  -3.155  1.00  0.00     0.344 HD
ENDBRANCH  15  20
ENDBRANCH  14  15
ENDBRANCH  11  14
ENDBRANCH   5  10
ENDBRANCH   3   5
ENDBRANCH   2   3
ENDBRANCH   1   2
BRANCH   1  24
ATOM     24  C   UNL     1       5.697  -0.648  -2.658  1.00  0.00     0.275 C 
BRANCH  24  25
ATOM     25  O   UNL     1       5.127   0.645  -2.359  1.00  0.00    -0.458 OA
BRANCH  25  26
ATOM     26  C   UNL     1       5.205   1.089  -1.077  1.00  0.00     0.338 C 
ATOM     27  O   UNL     1       5.824   0.593  -0.166  1.00  0.00    -0.246 OA
BRANCH  26  28
ATOM     28  C   UNL     1       4.239   2.208  -0.940  1.00  0.00     0.060 A 
ATOM     29  C   UNL     1       2.935   1.880  -0.575  1.00  0.00     0.016 A 
ATOM     30  C   UNL     1       4.572   3.540  -1.185  1.00  0.00     0.016 A 
ATOM     31  C   UNL     1       1.951   2.869  -0.489  1.00  0.00     0.010 A 
ATOM     32  C   UNL     1       3.607   4.550  -0.986  1.00  0.00     0.010 A 
ATOM     33  C   UNL     1       2.294   4.228  -0.598  1.00  0.00    -0.014 A 
BRANCH  33  34
ATOM     34  C   UNL     1       1.353   5.259  -0.053  1.00  0.00     0.031 A 
ATOM     35  C   UNL     1       0.762   6.378  -0.870  1.00  0.00     0.074 A 
ATOM     36  C   UNL     1       1.035   5.182   1.259  1.00  0.00     0.049 A 
ATOM     37  N   UNL     1       0.032   7.392  -0.465  1.00  0.00    -0.248 NA
ATOM     38  C   UNL     1       1.007   6.361  -2.317  1.00  0.00     0.031 C 
ATOM     39  C   UNL     1       1.521   4.153   2.184  1.00  0.00     0.029 A 
ATOM     40  N   UNL     1       0.230   5.970   2.045  1.00  0.00    -0.354 N 
ATOM     41  C   UNL     1      -0.264   8.138  -1.599  1.00  0.00     0.074 A 
ATOM     42  C   UNL     1       0.369   7.459  -2.714  1.00  0.00     0.031 C 
ATOM     43  C   UNL     1       0.976   4.345   3.390  1.00  0.00     0.029 A 
ATOM     44  C   UNL     1       0.188   5.568   3.359  1.00  0.00     0.049 A 
ATOM     45  H   UNL     1      -0.267   6.747   1.701  1.00  0.00     0.167 HD
ATOM     46  C   UNL     1      -0.989   9.283  -1.700  1.00  0.00     0.037 A 
ATOM     47  C   UNL     1      -0.366   6.133   4.447  1.00  0.00     0.037 A 
ATOM     48  C   UNL     1      -1.615   9.972  -0.594  1.00  0.00     0.049 A 
ATOM     49  C   UNL     1      -1.097   7.432   4.317  1.00  0.00     0.074 A 
ATOM     50  C   UNL     1      -2.348  11.150  -0.616  1.00  0.00     0.029 A 
ATOM     51  N   UNL     1      -1.589   9.553   0.727  1.00  0.00    -0.354 N 
ATOM     52  N   UNL     1      -1.320   8.146   3.243  1.00  0.00    -0.248 NA
ATOM     53  C   UNL     1      -1.634   8.012   5.555  1.00  0.00     0.031 C 
ATOM     54  C   UNL     1      -2.732  11.463   0.694  1.00  0.00     0.029 A 
ATOM     55  C   UNL     1      -2.276  10.457   1.528  1.00  0.00     0.049 A 
ATOM     56  H   UNL     1      -1.148   8.735   1.050  1.00  0.00     0.167 HD
ATOM     57  C   UNL     1      -2.019   9.263   3.675  1.00  0.00     0.074 A 
ATOM     58  C   UNL     1      -2.213   9.114   5.102  1.00  0.00     0.031 C 
ATOM     59  C   UNL     1      -2.450  10.322   2.950  1.00  0.00     0.037 A 
BRANCH  46  60
ATOM     60  C   UNL     1      -1.139   9.904  -3.060  1.00  0.00     0.057 A 
ATOM     61  C   UNL     1      -2.040   9.400  -4.004  1.00  0.00     0.134 A 
ATOM     62  C   UNL     1      -0.459  11.087  -3.382  1.00  0.00     0.134 A 
ATOM     63  F   UNL     1      -2.723   8.272  -3.757  1.00  0.00    -0.206 F 
ATOM     64  C   UNL     1      -2.257  10.047  -5.224  1.00  0.00     0.040 A 
ATOM     65  C   UNL     1      -0.681  11.752  -4.590  1.00  0.00     0.040 A 
ATOM     66  F   UNL     1       0.406  11.632  -2.514  1.00  0.00    -0.206 F 
ATOM     67  C   UNL     1      -1.583  11.232  -5.515  1.00  0.00     0.006 A 
ENDBRANCH  46  60
BRANCH  47  68
ATOM     68  C   UNL     1      -0.179   5.496   5.773  1.00  0.00     0.057 A 
ATOM     69  C   UNL     1      -1.246   4.896   6.448  1.00  0.00     0.134 A 
ATOM     70  C   UNL     1       1.081   5.460   6.385  1.00  0.00     0.134 A 
ATOM     71  F   UNL     1      -2.479   4.921   5.921  1.00  0.00    -0.206 F 
ATOM     72  C   UNL     1      -1.068   4.285   7.690  1.00  0.00     0.040 A 
ATOM     73  C   UNL     1       1.279   4.826   7.610  1.00  0.00     0.040 A 
ATOM     74  F   UNL     1       2.143   6.014   5.782  1.00  0.00    -0.206 F 
ATOM     75  C   UNL     1       0.200   4.241   8.269  1.00  0.00     0.006 A 
ENDBRANCH  47  68
BRANCH  59  76
ATOM     76  C   UNL     1      -3.177  11.396   3.702  1.00  0.00     0.057 A 
ATOM     77  C   UNL     1      -2.504  12.275   4.561  1.00  0.00     0.134 A 
ATOM     78  C   UNL     1      -4.566  11.533   3.595  1.00  0.00     0.134 A 
ATOM     79  F   UNL     1      -1.175  12.181   4.724  1.00  0.00    -0.206 F 
ATOM     80  C   UNL     1      -3.191  13.231   5.312  1.00  0.00     0.040 A 
ATOM     81  C   UNL     1      -5.262  12.499   4.324  1.00  0.00     0.040 A 
ATOM     82  F   UNL     1      -5.271  10.724   2.789  1.00  0.00    -0.206 F 
ATOM     83  C   UNL     1      -4.575  13.345   5.193  1.00  0.00     0.006 A 
ENDBRANCH  59  76
ENDBRANCH  33  34
ENDBRANCH  26  28
ENDBRANCH  25  26
ENDBRANCH  24  25
ENDBRANCH   1  24
TORSDOF 17
