REMARK SMILES O=C(/C=C/c1c(Cl)cccc1Cl)NCC(=O)OCCOC(=O)c1ccc(-c2c3nc(c(-c4c(F)cccc4F)c4ccc([nH]4)c(-c4c(F)cccc4F)c4nc(c(-c5c(F)cccc5F)c5ccc2[nH]5)C=C4)C=C3)cc1
REMARK SMILES IDX 18 1 17 2 15 3 16 4 14 5 13 6 1 7 2 8 3 10 4 11 5 12 6 13
REMARK SMILES IDX 11 14 7 15 8 16 10 17 12 18 9 19 19 20 20 21 21 22 22 23
REMARK SMILES IDX 23 24 24 25 76 26 25 27 75 28 26 29 27 30 28 31 69 32 29 33
REMARK SMILES IDX 74 34 68 35 70 36 30 37 73 38 67 39 66 40 31 42 57 43 40 44
REMARK SMILES IDX 56 45 41 46 44 47 55 48 71 49 42 50 43 51 54 53 72 54 45 55
REMARK SMILES IDX 32 56 33 57 38 58 34 59 35 60 37 61 39 62 36 63 58 64 59 65
REMARK SMILES IDX 64 66 60 67 61 68 63 69 65 70 62 71 46 72 47 73 52 74 48 75
REMARK SMILES IDX 49 76 51 77 53 78 50 79
REMARK H PARENT 13 9 70 41 44 52
REMARK Flexibility Score: inf
ROOT
ATOM      1  C   UNL     1       2.881  -4.851   1.341  1.00  0.00     0.274 C 
ENDROOT
BRANCH   1   2
ATOM      2  O   UNL     1       2.499  -3.496   1.051  1.00  0.00    -0.461 OA
BRANCH   2   3
ATOM      3  C   UNL     1       1.790  -2.836   2.006  1.00  0.00     0.325 C 
ATOM      4  O   UNL     1       1.327  -3.352   3.017  1.00  0.00    -0.250 OA
BRANCH   3   5
ATOM      5  C   UNL     1       1.603  -1.362   1.666  1.00  0.00     0.239 C 
BRANCH   5   6
ATOM      6  N   UNL     1       2.491  -0.851   0.631  1.00  0.00    -0.342 N 
ATOM      7  O   UNL     1       0.845   0.260  -0.502  1.00  0.00    -0.270 OA
ATOM      8  C   UNL     1       2.026  -0.037  -0.359  1.00  0.00     0.244 C 
ATOM      9  H   UNL     1       3.444  -1.097   0.648  1.00  0.00     0.164 HD
BRANCH   8  10
ATOM     10  C   UNL     1       3.021   0.476  -1.330  1.00  0.00     0.072 C 
ATOM     11  C   UNL     1       4.304   0.759  -1.056  1.00  0.00     0.017 C 
BRANCH  11  12
ATOM     12  C   UNL     1       5.181   1.388  -2.068  1.00  0.00     0.012 A 
ATOM     13  C   UNL     1       4.947   2.693  -2.551  1.00  0.00     0.049 A 
ATOM     14  C   UNL     1       6.290   0.691  -2.585  1.00  0.00     0.049 A 
ATOM     15  Cl  UNL     1       3.665   3.691  -1.946  1.00  0.00    -0.084 Cl
ATOM     16  C   UNL     1       5.767   3.259  -3.536  1.00  0.00     0.021 A 
ATOM     17  C   UNL     1       7.112   1.265  -3.566  1.00  0.00     0.021 A 
ATOM     18  Cl  UNL     1       6.698  -0.906  -2.051  1.00  0.00    -0.084 Cl
ATOM     19  C   UNL     1       6.846   2.544  -4.047  1.00  0.00     0.003 A 
ENDBRANCH  11  12
ENDBRANCH   8  10
ENDBRANCH   5   6
ENDBRANCH   3   5
ENDBRANCH   2   3
ENDBRANCH   1   2
BRANCH   1  20
ATOM     20  C   UNL     1       4.396  -4.934   1.548  1.00  0.00     0.275 C 
BRANCH  20  21
ATOM     21  O   UNL     1       4.803  -4.294   2.775  1.00  0.00    -0.458 OA
BRANCH  21  22
ATOM     22  C   UNL     1       5.005  -2.958   2.692  1.00  0.00     0.338 C 
ATOM     23  O   UNL     1       4.901  -2.252   1.701  1.00  0.00    -0.246 OA
BRANCH  22  24
ATOM     24  C   UNL     1       5.253  -2.397   4.033  1.00  0.00     0.060 A 
ATOM     25  C   UNL     1       4.575  -1.221   4.368  1.00  0.00     0.016 A 
ATOM     26  C   UNL     1       6.189  -2.948   4.912  1.00  0.00     0.016 A 
ATOM     27  C   UNL     1       4.859  -0.569   5.564  1.00  0.00     0.010 A 
ATOM     28  C   UNL     1       6.473  -2.291   6.117  1.00  0.00     0.010 A 
ATOM     29  C   UNL     1       5.830  -1.082   6.433  1.00  0.00    -0.014 A 
BRANCH  29  30
ATOM     30  C   UNL     1       6.221  -0.276   7.614  1.00  0.00     0.031 A 
ATOM     31  C   UNL     1       7.491   0.528   7.580  1.00  0.00     0.074 A 
ATOM     32  C   UNL     1       5.397  -0.190   8.674  1.00  0.00     0.049 A 
ATOM     33  N   UNL     1       7.974   1.352   8.475  1.00  0.00    -0.248 NA
ATOM     34  C   UNL     1       8.327   0.387   6.378  1.00  0.00     0.031 C 
ATOM     35  C   UNL     1       4.124  -0.898   8.813  1.00  0.00     0.029 A 
ATOM     36  N   UNL     1       5.500   0.547   9.826  1.00  0.00    -0.354 N 
ATOM     37  C   UNL     1       9.170   1.823   7.949  1.00  0.00     0.074 A 
ATOM     38  C   UNL     1       9.354   1.172   6.669  1.00  0.00     0.031 C 
ATOM     39  C   UNL     1       3.554  -0.546   9.977  1.00  0.00     0.029 A 
ATOM     40  C   UNL     1       4.430   0.394  10.673  1.00  0.00     0.049 A 
ATOM     41  H   UNL     1       6.267   1.131  10.026  1.00  0.00     0.167 HD
ATOM     42  C   UNL     1      10.031   2.725   8.478  1.00  0.00     0.037 A 
ATOM     43  C   UNL     1       4.185   0.951  11.874  1.00  0.00     0.037 A 
ATOM     44  C   UNL     1       9.844   3.384   9.744  1.00  0.00     0.049 A 
ATOM     45  C   UNL     1       5.166   1.937  12.447  1.00  0.00     0.074 A 
ATOM     46  C   UNL     1      10.662   4.313  10.363  1.00  0.00     0.029 A 
ATOM     47  N   UNL     1       8.758   3.186  10.583  1.00  0.00    -0.354 N 
ATOM     48  N   UNL     1       6.288   2.381  11.934  1.00  0.00    -0.248 NA
ATOM     49  C   UNL     1       4.841   2.505  13.763  1.00  0.00     0.031 C 
ATOM     50  C   UNL     1      10.085   4.655  11.592  1.00  0.00     0.029 A 
ATOM     51  C   UNL     1       8.890   3.967  11.719  1.00  0.00     0.049 A 
ATOM     52  H   UNL     1       8.005   2.579  10.399  1.00  0.00     0.167 HD
ATOM     53  C   UNL     1       6.790   3.295  12.851  1.00  0.00     0.074 A 
ATOM     54  C   UNL     1       5.841   3.355  13.944  1.00  0.00     0.031 C 
ATOM     55  C   UNL     1       7.934   4.020  12.794  1.00  0.00     0.037 A 
BRANCH  42  56
ATOM     56  C   UNL     1      11.268   3.037   7.689  1.00  0.00     0.057 A 
ATOM     57  C   UNL     1      11.227   3.829   6.535  1.00  0.00     0.134 A 
ATOM     58  C   UNL     1      12.517   2.559   8.104  1.00  0.00     0.134 A 
ATOM     59  F   UNL     1      10.059   4.302   6.076  1.00  0.00    -0.206 F 
ATOM     60  C   UNL     1      12.385   4.119   5.810  1.00  0.00     0.040 A 
ATOM     61  C   UNL     1      13.683   2.860   7.400  1.00  0.00     0.040 A 
ATOM     62  F   UNL     1      12.624   1.797   9.203  1.00  0.00    -0.206 F 
ATOM     63  C   UNL     1      13.618   3.639   6.246  1.00  0.00     0.006 A 
ENDBRANCH  42  56
BRANCH  43  64
ATOM     64  C   UNL     1       2.950   0.599  12.616  1.00  0.00     0.057 A 
ATOM     65  C   UNL     1       1.910   1.521  12.777  1.00  0.00     0.134 A 
ATOM     66  C   UNL     1       2.790  -0.665  13.198  1.00  0.00     0.134 A 
ATOM     67  F   UNL     1       2.017   2.755  12.262  1.00  0.00    -0.206 F 
ATOM     68  C   UNL     1       0.761   1.206  13.504  1.00  0.00     0.040 A 
ATOM     69  C   UNL     1       1.637  -1.001  13.908  1.00  0.00     0.040 A 
ATOM     70  F   UNL     1       3.752  -1.592  13.077  1.00  0.00    -0.206 F 
ATOM     71  C   UNL     1       0.621  -0.060  14.068  1.00  0.00     0.006 A 
ENDBRANCH  43  64
BRANCH  55  72
ATOM     72  C   UNL     1       8.201   4.960  13.932  1.00  0.00     0.057 A 
ATOM     73  C   UNL     1       8.598   4.499  15.193  1.00  0.00     0.134 A 
ATOM     74  C   UNL     1       8.073   6.344  13.758  1.00  0.00     0.134 A 
ATOM     75  F   UNL     1       8.726   3.184  15.427  1.00  0.00    -0.206 F 
ATOM     76  C   UNL     1       8.831   5.380  16.250  1.00  0.00     0.040 A 
ATOM     77  C   UNL     1       8.325   7.236  14.801  1.00  0.00     0.040 A 
ATOM     78  F   UNL     1       7.704   6.850  12.572  1.00  0.00    -0.206 F 
ATOM     79  C   UNL     1       8.698   6.753  16.054  1.00  0.00     0.006 A 
ENDBRANCH  55  72
ENDBRANCH  29  30
ENDBRANCH  22  24
ENDBRANCH  21  22
ENDBRANCH  20  21
ENDBRANCH   1  20
TORSDOF 14
