REMARK SMILES O=C(COCC(=O)OCCOC(=O)c1ccc(-c2c3nc(c(-c4c(F)cccc4F)c4ccc([nH]4)c(-c4c(F)cccc4F)c4nc(c(-c5c(F)cccc5F)c5ccc2[nH]5)C=C4)C=C3)cc1)/[NH+]=C1\S[C@@H]2CS(=O)(=O)C[C@H]2N1c1ccc(Cl)cc1
REMARK SMILES IDX 9 1 8 2 6 3 7 4 5 5 4 6 3 7 2 8 1 9 68 10 69 11 70 13 78 14
REMARK SMILES IDX 71 15 77 16 72 17 76 18 73 19 74 20 75 21 79 22 80 23 85 24
REMARK SMILES IDX 81 25 84 26 82 27 83 28 10 29 11 30 12 31 13 32 14 33 15 34
REMARK SMILES IDX 67 35 16 36 66 37 17 38 18 39 19 40 60 41 20 42 65 43 59 44
REMARK SMILES IDX 61 45 21 46 64 47 58 48 57 49 22 51 48 52 31 53 47 54 32 55
REMARK SMILES IDX 35 56 46 57 62 58 33 59 34 60 45 62 63 63 36 64 23 65 24 66
REMARK SMILES IDX 29 67 25 68 26 69 28 70 30 71 27 72 49 73 50 74 55 75 51 76
REMARK SMILES IDX 52 77 54 78 56 79 53 80 37 81 38 82 43 83 39 84 40 85 42 86
REMARK SMILES IDX 44 87 41 88
REMARK H PARENT 68 12 61 50 35 61
REMARK Flexibility Score: inf
ROOT
ATOM      1  C   UNL     1       1.559   1.624  -5.079  1.00  0.00     0.274 C 
ENDROOT
BRANCH   1   2
ATOM      2  O   UNL     1       2.507   1.409  -4.013  1.00  0.00    -0.460 OA
BRANCH   2   3
ATOM      3  C   UNL     1       2.503   2.343  -3.023  1.00  0.00     0.332 C 
ATOM      4  O   UNL     1       1.822   3.363  -3.016  1.00  0.00    -0.250 OA
BRANCH   3   5
ATOM      5  C   UNL     1       3.451   1.981  -1.872  1.00  0.00     0.283 C 
BRANCH   5   6
ATOM      6  O   UNL     1       3.998   0.678  -1.791  1.00  0.00    -0.358 OA
BRANCH   6   7
ATOM      7  C   UNL     1       3.059  -0.329  -1.437  1.00  0.00     0.288 C 
BRANCH   7   8
ATOM      8  C   UNL     1       2.698  -0.591   0.050  1.00  0.00     0.333 C 
ATOM      9  O   UNL     1       1.820  -1.402   0.337  1.00  0.00    -0.244 OA
ATOM     10  N   UNL     1       3.334   0.143   1.022  1.00  0.00    -0.202 N 
ATOM     11  C   UNL     1       4.580  -0.074   1.278  1.00  0.00     0.319 C 
ATOM     12  H   UNL     1       2.840   0.834   1.521  1.00  0.00     0.316 HD
ATOM     13  S   UNL     1       5.631  -1.163   0.307  1.00  0.00    -0.029 SA
ATOM     14  N   UNL     1       5.356   0.527   2.284  1.00  0.00    -0.217 N 
ATOM     15  C   UNL     1       7.022  -0.101   0.717  1.00  0.00     0.120 C 
ATOM     16  C   UNL     1       6.775   0.120   2.216  1.00  0.00     0.212 C 
ATOM     17  C   UNL     1       8.438  -0.581   0.550  1.00  0.00     0.156 C 
ATOM     18  C   UNL     1       7.872   1.082   2.610  1.00  0.00     0.188 C 
ATOM     19  S   UNL     1       9.309   0.402   1.774  1.00  0.00     0.155 S 
ATOM     20  O   UNL     1       9.996   1.486   1.103  1.00  0.00    -0.229 OA
ATOM     21  O   UNL     1       9.979  -0.501   2.682  1.00  0.00    -0.229 OA
BRANCH  14  22
ATOM     22  C   UNL     1       4.841   0.884   3.550  1.00  0.00     0.128 A 
ATOM     23  C   UNL     1       5.377   1.958   4.281  1.00  0.00     0.053 A 
ATOM     24  C   UNL     1       3.788   0.168   4.147  1.00  0.00     0.053 A 
ATOM     25  C   UNL     1       4.928   2.267   5.571  1.00  0.00     0.025 A 
ATOM     26  C   UNL     1       3.327   0.477   5.435  1.00  0.00     0.025 A 
ATOM     27  C   UNL     1       3.909   1.518   6.148  1.00  0.00     0.041 A 
ATOM     28  Cl  UNL     1       3.375   1.886   7.740  1.00  0.00    -0.084 Cl
ENDBRANCH  14  22
ENDBRANCH   7   8
ENDBRANCH   6   7
ENDBRANCH   5   6
ENDBRANCH   3   5
ENDBRANCH   2   3
ENDBRANCH   1   2
BRANCH   1  29
ATOM     29  C   UNL     1       0.310   0.772  -4.861  1.00  0.00     0.275 C 
BRANCH  29  30
ATOM     30  O   UNL     1      -0.260   1.069  -3.573  1.00  0.00    -0.458 OA
BRANCH  30  31
ATOM     31  C   UNL     1      -0.481  -0.002  -2.777  1.00  0.00     0.338 C 
ATOM     32  O   UNL     1      -0.299  -1.175  -3.052  1.00  0.00    -0.246 OA
BRANCH  31  33
ATOM     33  C   UNL     1      -0.982   0.440  -1.464  1.00  0.00     0.060 A 
ATOM     34  C   UNL     1      -0.279   1.376  -0.700  1.00  0.00     0.016 A 
ATOM     35  C   UNL     1      -2.118  -0.181  -0.945  1.00  0.00     0.016 A 
ATOM     36  C   UNL     1      -0.678   1.648   0.609  1.00  0.00     0.010 A 
ATOM     37  C   UNL     1      -2.560   0.150   0.335  1.00  0.00     0.010 A 
ATOM     38  C   UNL     1      -1.832   1.049   1.133  1.00  0.00    -0.014 A 
BRANCH  38  39
ATOM     39  C   UNL     1      -2.304   1.354   2.506  1.00  0.00     0.031 A 
ATOM     40  C   UNL     1      -2.363   0.270   3.545  1.00  0.00     0.074 A 
ATOM     41  C   UNL     1      -2.744   2.592   2.800  1.00  0.00     0.049 A 
ATOM     42  N   UNL     1      -2.931   0.285   4.725  1.00  0.00    -0.248 NA
ATOM     43  C   UNL     1      -1.711  -1.004   3.205  1.00  0.00     0.031 C 
ATOM     44  C   UNL     1      -2.717   3.738   1.890  1.00  0.00     0.029 A 
ATOM     45  N   UNL     1      -3.318   3.087   3.944  1.00  0.00    -0.354 N 
ATOM     46  C   UNL     1      -2.745  -0.988   5.251  1.00  0.00     0.074 A 
ATOM     47  C   UNL     1      -2.018  -1.751   4.257  1.00  0.00     0.031 C 
ATOM     48  C   UNL     1      -3.241   4.805   2.513  1.00  0.00     0.029 A 
ATOM     49  C   UNL     1      -3.701   4.402   3.837  1.00  0.00     0.049 A 
ATOM     50  H   UNL     1      -3.442   2.553   4.761  1.00  0.00     0.167 HD
ATOM     51  C   UNL     1      -3.146  -1.471   6.452  1.00  0.00     0.037 A 
ATOM     52  C   UNL     1      -4.383   5.185   4.693  1.00  0.00     0.037 A 
ATOM     53  C   UNL     1      -3.840  -0.695   7.449  1.00  0.00     0.049 A 
ATOM     54  C   UNL     1      -4.853   4.614   5.999  1.00  0.00     0.074 A 
ATOM     55  C   UNL     1      -4.250  -1.083   8.713  1.00  0.00     0.029 A 
ATOM     56  N   UNL     1      -4.223   0.629   7.295  1.00  0.00    -0.354 N 
ATOM     57  N   UNL     1      -4.684   3.408   6.482  1.00  0.00    -0.248 NA
ATOM     58  C   UNL     1      -5.623   5.511   6.872  1.00  0.00     0.031 C 
ATOM     59  C   UNL     1      -4.916  -0.005   9.309  1.00  0.00     0.029 A 
ATOM     60  C   UNL     1      -4.883   1.067   8.433  1.00  0.00     0.049 A 
ATOM     61  H   UNL     1      -4.051   1.177   6.496  1.00  0.00     0.167 HD
ATOM     62  C   UNL     1      -5.306   3.405   7.722  1.00  0.00     0.074 A 
ATOM     63  C   UNL     1      -5.847   4.734   7.922  1.00  0.00     0.031 C 
ATOM     64  C   UNL     1      -5.417   2.392   8.616  1.00  0.00     0.037 A 
BRANCH  51  65
ATOM     65  C   UNL     1      -2.871  -2.917   6.745  1.00  0.00     0.057 A 
ATOM     66  C   UNL     1      -1.582  -3.389   7.022  1.00  0.00     0.134 A 
ATOM     67  C   UNL     1      -3.920  -3.845   6.785  1.00  0.00     0.134 A 
ATOM     68  F   UNL     1      -0.530  -2.556   6.989  1.00  0.00    -0.206 F 
ATOM     69  C   UNL     1      -1.343  -4.735   7.307  1.00  0.00     0.040 A 
ATOM     70  C   UNL     1      -3.697  -5.188   7.093  1.00  0.00     0.040 A 
ATOM     71  F   UNL     1      -5.181  -3.459   6.537  1.00  0.00    -0.206 F 
ATOM     72  C   UNL     1      -2.404  -5.638   7.349  1.00  0.00     0.006 A 
ENDBRANCH  51  65
BRANCH  52  73
ATOM     73  C   UNL     1      -4.670   6.594   4.330  1.00  0.00     0.057 A 
ATOM     74  C   UNL     1      -4.011   7.647   4.973  1.00  0.00     0.134 A 
ATOM     75  C   UNL     1      -5.588   6.921   3.325  1.00  0.00     0.134 A 
ATOM     76  F   UNL     1      -3.137   7.395   5.958  1.00  0.00    -0.206 F 
ATOM     77  C   UNL     1      -4.258   8.978   4.633  1.00  0.00     0.040 A 
ATOM     78  C   UNL     1      -5.827   8.246   2.959  1.00  0.00     0.040 A 
ATOM     79  F   UNL     1      -6.249   5.955   2.671  1.00  0.00    -0.206 F 
ATOM     80  C   UNL     1      -5.162   9.279   3.616  1.00  0.00     0.006 A 
ENDBRANCH  52  73
BRANCH  64  81
ATOM     81  C   UNL     1      -6.124   2.700   9.902  1.00  0.00     0.057 A 
ATOM     82  C   UNL     1      -7.515   2.847   9.964  1.00  0.00     0.134 A 
ATOM     83  C   UNL     1      -5.403   2.841  11.095  1.00  0.00     0.134 A 
ATOM     84  F   UNL     1      -8.260   2.741   8.853  1.00  0.00    -0.206 F 
ATOM     85  C   UNL     1      -8.163   3.149  11.163  1.00  0.00     0.040 A 
ATOM     86  C   UNL     1      -6.042   3.120  12.304  1.00  0.00     0.040 A 
ATOM     87  F   UNL     1      -4.068   2.707  11.104  1.00  0.00    -0.206 F 
ATOM     88  C   UNL     1      -7.425   3.282  12.339  1.00  0.00     0.006 A 
ENDBRANCH  64  81
ENDBRANCH  38  39
ENDBRANCH  31  33
ENDBRANCH  30  31
ENDBRANCH  29  30
ENDBRANCH   1  29
TORSDOF 15
