REMARK SMILES C[C@@H](NC(=O)NCCC(=O)NC1CC1)C(=O)OCCOC(=O)c1ccc(-c2c3nc(c(-c4c(F)cccc4F)c4ccc([nH]4)c(-c4c(F)cccc4F)c4nc(c(-c5c(F)cccc5F)c5ccc2[nH]5)C=C4)C=C3)cc1
REMARK SMILES IDX 17 1 15 2 16 3 2 4 1 5 3 6 4 7 5 9 6 10 7 12 8 13 9 14 10 15
REMARK SMILES IDX 11 16 12 18 13 19 14 20 18 21 19 22 20 23 21 24 22 25 23 26
REMARK SMILES IDX 24 27 76 28 25 29 75 30 26 31 27 32 28 33 69 34 29 35 74 36
REMARK SMILES IDX 68 37 70 38 30 39 73 40 67 41 66 42 31 44 57 45 40 46 56 47
REMARK SMILES IDX 41 48 44 49 55 50 71 51 42 52 43 53 54 55 72 56 45 57 32 58
REMARK SMILES IDX 33 59 38 60 34 61 35 62 37 63 39 64 36 65 58 66 59 67 64 68
REMARK SMILES IDX 60 69 61 70 63 71 65 72 62 73 46 74 47 75 52 76 48 77 49 78
REMARK SMILES IDX 51 79 53 80 50 81
REMARK H PARENT 3 8 6 11 11 17 70 43 44 54
REMARK Flexibility Score: inf
ROOT
ATOM      1  O   UNL     1      -1.416   0.051  -0.704  1.00  0.00    -0.461 OA
ENDROOT
BRANCH   1   2
ATOM      2  C   UNL     1      -0.729   0.280   0.440  1.00  0.00     0.328 C 
ATOM      3  O   UNL     1      -1.210   0.151   1.558  1.00  0.00    -0.250 OA
BRANCH   2   4
ATOM      4  C   UNL     1       0.689   0.805   0.277  1.00  0.00     0.190 C 
ATOM      5  C   UNL     1       1.439   0.011  -0.790  1.00  0.00     0.043 C 
BRANCH   4   6
ATOM      6  N   UNL     1       0.861   2.244   0.071  1.00  0.00    -0.325 N 
ATOM      7  C   UNL     1       0.300   3.321   0.665  1.00  0.00     0.315 C 
ATOM      8  H   UNL     1       1.508   2.471  -0.635  1.00  0.00     0.166 HD
ATOM      9  O   UNL     1       0.889   4.399   0.598  1.00  0.00    -0.249 OA
ATOM     10  N   UNL     1      -1.004   3.288   1.002  1.00  0.00    -0.338 N 
ATOM     11  H   UNL     1      -1.615   3.741   0.376  1.00  0.00     0.165 HD
BRANCH  10  12
ATOM     12  C   UNL     1      -1.633   2.677   2.161  1.00  0.00     0.127 C 
BRANCH  12  13
ATOM     13  C   UNL     1      -2.431   3.603   3.066  1.00  0.00     0.121 C 
BRANCH  13  14
ATOM     14  C   UNL     1      -3.707   4.044   2.383  1.00  0.00     0.221 C 
ATOM     15  O   UNL     1      -4.741   3.378   2.453  1.00  0.00    -0.275 OA
ATOM     16  N   UNL     1      -3.697   5.189   1.634  1.00  0.00    -0.353 N 
ATOM     17  H   UNL     1      -4.559   5.450   1.236  1.00  0.00     0.163 HD
BRANCH  16  18
ATOM     18  C   UNL     1      -2.598   6.052   1.355  1.00  0.00     0.082 C 
ATOM     19  C   UNL     1      -2.231   6.330  -0.079  1.00  0.00     0.027 C 
ATOM     20  C   UNL     1      -2.806   7.419   0.775  1.00  0.00     0.027 C 
ENDBRANCH  16  18
ENDBRANCH  13  14
ENDBRANCH  12  13
ENDBRANCH  10  12
ENDBRANCH   4   6
ENDBRANCH   2   4
ENDBRANCH   1   2
BRANCH   1  21
ATOM     21  C   UNL     1      -2.843  -0.112  -0.531  1.00  0.00     0.274 C 
BRANCH  21  22
ATOM     22  C   UNL     1      -3.317  -1.499  -0.052  1.00  0.00     0.275 C 
BRANCH  22  23
ATOM     23  O   UNL     1      -3.036  -1.768   1.339  1.00  0.00    -0.458 OA
BRANCH  23  24
ATOM     24  C   UNL     1      -1.898  -2.464   1.574  1.00  0.00     0.338 C 
ATOM     25  O   UNL     1      -1.169  -2.966   0.723  1.00  0.00    -0.246 OA
BRANCH  24  26
ATOM     26  C   UNL     1      -1.491  -2.385   2.996  1.00  0.00     0.060 A 
ATOM     27  C   UNL     1      -0.187  -1.938   3.257  1.00  0.00     0.016 A 
ATOM     28  C   UNL     1      -2.310  -2.799   4.048  1.00  0.00     0.016 A 
ATOM     29  C   UNL     1       0.314  -1.915   4.553  1.00  0.00     0.010 A 
ATOM     30  C   UNL     1      -1.789  -2.822   5.353  1.00  0.00     0.010 A 
ATOM     31  C   UNL     1      -0.466  -2.410   5.602  1.00  0.00    -0.014 A 
BRANCH  31  32
ATOM     32  C   UNL     1       0.213  -2.699   6.888  1.00  0.00     0.031 A 
ATOM     33  C   UNL     1       0.789  -4.074   7.092  1.00  0.00     0.074 A 
ATOM     34  C   UNL     1       0.422  -1.738   7.805  1.00  0.00     0.049 A 
ATOM     35  N   UNL     1       1.433  -4.565   8.120  1.00  0.00    -0.248 NA
ATOM     36  C   UNL     1       0.631  -5.019   5.973  1.00  0.00     0.031 C 
ATOM     37  C   UNL     1      -0.004  -0.346   7.685  1.00  0.00     0.029 A 
ATOM     38  N   UNL     1       1.062  -1.793   9.019  1.00  0.00    -0.354 N 
ATOM     39  C   UNL     1       1.756  -5.870   7.771  1.00  0.00     0.074 A 
ATOM     40  C   UNL     1       1.222  -6.105   6.448  1.00  0.00     0.031 C 
ATOM     41  C   UNL     1       0.374   0.321   8.790  1.00  0.00     0.029 A 
ATOM     42  C   UNL     1       1.043  -0.603   9.704  1.00  0.00     0.049 A 
ATOM     43  H   UNL     1       1.492  -2.608   9.365  1.00  0.00     0.167 HD
ATOM     44  C   UNL     1       2.444  -6.792   8.486  1.00  0.00     0.037 A 
ATOM     45  C   UNL     1       1.495  -0.306  10.938  1.00  0.00     0.037 A 
ATOM     46  C   UNL     1       2.964  -6.567   9.807  1.00  0.00     0.049 A 
ATOM     47  C   UNL     1       2.175  -1.376  11.754  1.00  0.00     0.074 A 
ATOM     48  C   UNL     1       3.627  -7.453  10.638  1.00  0.00     0.029 A 
ATOM     49  N   UNL     1       2.877  -5.364  10.491  1.00  0.00    -0.354 N 
ATOM     50  N   UNL     1       2.444  -2.618  11.431  1.00  0.00    -0.248 NA
ATOM     51  C   UNL     1       2.614  -1.001  13.107  1.00  0.00     0.031 C 
ATOM     52  C   UNL     1       3.916  -6.793  11.838  1.00  0.00     0.029 A 
ATOM     53  C   UNL     1       3.468  -5.486  11.737  1.00  0.00     0.049 A 
ATOM     54  H   UNL     1       2.458  -4.544  10.141  1.00  0.00     0.167 HD
ATOM     55  C   UNL     1       3.099  -3.165  12.529  1.00  0.00     0.074 A 
ATOM     56  C   UNL     1       3.204  -2.114  13.519  1.00  0.00     0.031 C 
ATOM     57  C   UNL     1       3.569  -4.424  12.704  1.00  0.00     0.037 A 
BRANCH  44  58
ATOM     58  C   UNL     1       2.637  -8.138   7.857  1.00  0.00     0.057 A 
ATOM     59  C   UNL     1       3.549  -8.339   6.813  1.00  0.00     0.134 A 
ATOM     60  C   UNL     1       1.907  -9.246   8.303  1.00  0.00     0.134 A 
ATOM     61  F   UNL     1       4.262  -7.312   6.326  1.00  0.00    -0.206 F 
ATOM     62  C   UNL     1       3.715  -9.593   6.223  1.00  0.00     0.040 A 
ATOM     63  C   UNL     1       2.080 -10.509   7.736  1.00  0.00     0.040 A 
ATOM     64  F   UNL     1       1.016  -9.119   9.298  1.00  0.00    -0.206 F 
ATOM     65  C   UNL     1       2.982 -10.684   6.689  1.00  0.00     0.006 A 
ENDBRANCH  44  58
BRANCH  45  66
ATOM     66  C   UNL     1       1.288   1.051  11.504  1.00  0.00     0.057 A 
ATOM     67  C   UNL     1       2.362   1.915  11.750  1.00  0.00     0.134 A 
ATOM     68  C   UNL     1       0.009   1.499  11.856  1.00  0.00     0.134 A 
ATOM     69  F   UNL     1       3.615   1.532  11.463  1.00  0.00    -0.206 F 
ATOM     70  C   UNL     1       2.174   3.166  12.342  1.00  0.00     0.040 A 
ATOM     71  C   UNL     1      -0.197   2.757  12.424  1.00  0.00     0.040 A 
ATOM     72  F   UNL     1      -1.062   0.718  11.652  1.00  0.00    -0.206 F 
ATOM     73  C   UNL     1       0.890   3.591  12.677  1.00  0.00     0.006 A 
ENDBRANCH  45  66
BRANCH  57  74
ATOM     74  C   UNL     1       4.264  -4.722  14.000  1.00  0.00     0.057 A 
ATOM     75  C   UNL     1       3.557  -4.865  15.200  1.00  0.00     0.134 A 
ATOM     76  C   UNL     1       5.652  -4.899  14.040  1.00  0.00     0.134 A 
ATOM     77  F   UNL     1       2.227  -4.696  15.230  1.00  0.00    -0.206 F 
ATOM     78  C   UNL     1       4.211  -5.149  16.400  1.00  0.00     0.040 A 
ATOM     79  C   UNL     1       6.314  -5.206  15.229  1.00  0.00     0.040 A 
ATOM     80  F   UNL     1       6.386  -4.785  12.922  1.00  0.00    -0.206 F 
ATOM     81  C   UNL     1       5.593  -5.326  16.415  1.00  0.00     0.006 A 
ENDBRANCH  57  74
ENDBRANCH  31  32
ENDBRANCH  24  26
ENDBRANCH  23  24
ENDBRANCH  22  23
ENDBRANCH  21  22
ENDBRANCH   1  21
TORSDOF 16
