REMARK SMILES Cc1ccccc1[C@@H](Cc1c(Cl)cccc1Cl)C(=O)OCCOC(=O)c1ccc(-c2c3nc(c(-c4c(F)cccc4F)c4ccc([nH]4)c(-c4c(F)cccc4F)c4nc(c(-c5c(F)cccc5F)c5ccc2[nH]5)C=C4)C=C3)cc1
REMARK SMILES IDX 21 1 20 2 18 3 19 4 8 5 7 6 1 7 2 8 3 9 4 10 6 11 5 12 9 13
REMARK SMILES IDX 10 14 11 15 16 16 12 17 13 18 15 19 17 20 14 21 22 22 23 23
REMARK SMILES IDX 24 24 25 25 26 26 27 27 79 28 28 29 78 30 29 31 30 32 31 33
REMARK SMILES IDX 72 34 32 35 77 36 71 37 73 38 33 39 76 40 70 41 69 42 34 44
REMARK SMILES IDX 60 45 43 46 59 47 44 48 47 49 58 50 74 51 45 52 46 53 57 55
REMARK SMILES IDX 75 56 48 57 35 58 36 59 41 60 37 61 38 62 40 63 42 64 39 65
REMARK SMILES IDX 61 66 62 67 67 68 63 69 64 70 66 71 68 72 65 73 49 74 50 75
REMARK SMILES IDX 55 76 51 77 52 78 54 79 56 80 53 81
REMARK H PARENT 73 43 47 54
REMARK Flexibility Score: inf
ROOT
ATOM      1  C   UNL     1      -1.886   1.935   2.388  1.00  0.00     0.274 C 
ENDROOT
BRANCH   1   2
ATOM      2  O   UNL     1      -0.734   1.917   1.538  1.00  0.00    -0.462 OA
BRANCH   2   3
ATOM      3  C   UNL     1      -0.926   2.454   0.285  1.00  0.00     0.313 C 
ATOM      4  O   UNL     1      -1.964   2.980  -0.065  1.00  0.00    -0.252 OA
BRANCH   3   5
ATOM      5  C   UNL     1       0.217   1.996  -0.656  1.00  0.00     0.134 C 
BRANCH   5   6
ATOM      6  C   UNL     1      -0.119   0.507  -0.880  1.00  0.00    -0.031 A 
ATOM      7  C   UNL     1       2.235  -0.321  -0.307  1.00  0.00     0.044 C 
ATOM      8  C   UNL     1       0.762  -0.520  -0.507  1.00  0.00    -0.047 A 
ATOM      9  C   UNL     1       0.232  -1.796  -0.255  1.00  0.00     0.004 A 
ATOM     10  C   UNL     1      -1.129  -2.062  -0.414  1.00  0.00     0.000 A 
ATOM     11  C   UNL     1      -1.463   0.181  -1.186  1.00  0.00     0.005 A 
ATOM     12  C   UNL     1      -1.973  -1.082  -0.913  1.00  0.00     0.000 A 
ENDBRANCH   5   6
BRANCH   5  13
ATOM     13  C   UNL     1       0.388   2.751  -2.010  1.00  0.00     0.058 C 
BRANCH  13  14
ATOM     14  C   UNL     1       1.065   4.129  -2.108  1.00  0.00    -0.010 A 
ATOM     15  C   UNL     1       0.496   5.158  -2.899  1.00  0.00     0.045 A 
ATOM     16  C   UNL     1       2.325   4.439  -1.557  1.00  0.00     0.045 A 
ATOM     17  Cl  UNL     1      -0.835   4.870  -3.974  1.00  0.00    -0.084 Cl
ATOM     18  C   UNL     1       1.023   6.463  -2.929  1.00  0.00     0.021 A 
ATOM     19  C   UNL     1       2.850   5.746  -1.581  1.00  0.00     0.021 A 
ATOM     20  Cl  UNL     1       3.374   3.250  -0.875  1.00  0.00    -0.084 Cl
ATOM     21  C   UNL     1       2.175   6.772  -2.223  1.00  0.00     0.003 A 
ENDBRANCH  13  14
ENDBRANCH   5  13
ENDBRANCH   3   5
ENDBRANCH   2   3
ENDBRANCH   1   2
BRANCH   1  22
ATOM     22  C   UNL     1      -1.578   1.503   3.834  1.00  0.00     0.275 C 
BRANCH  22  23
ATOM     23  O   UNL     1      -0.213   1.115   4.162  1.00  0.00    -0.458 OA
BRANCH  23  24
ATOM     24  C   UNL     1       0.909   1.887   4.121  1.00  0.00     0.338 C 
ATOM     25  O   UNL     1       2.015   1.468   4.422  1.00  0.00    -0.246 OA
BRANCH  24  26
ATOM     26  C   UNL     1       0.753   3.244   3.578  1.00  0.00     0.060 A 
ATOM     27  C   UNL     1       1.480   3.607   2.438  1.00  0.00     0.016 A 
ATOM     28  C   UNL     1      -0.241   4.070   4.082  1.00  0.00     0.016 A 
ATOM     29  C   UNL     1       1.089   4.734   1.715  1.00  0.00     0.010 A 
ATOM     30  C   UNL     1      -0.720   5.086   3.282  1.00  0.00     0.010 A 
ATOM     31  C   UNL     1      -0.062   5.429   2.088  1.00  0.00    -0.014 A 
BRANCH  31  32
ATOM     32  C   UNL     1      -0.434   6.737   1.546  1.00  0.00     0.031 A 
ATOM     33  C   UNL     1      -1.164   7.019   0.293  1.00  0.00     0.074 A 
ATOM     34  C   UNL     1      -0.083   7.733   2.382  1.00  0.00     0.049 A 
ATOM     35  N   UNL     1      -1.264   8.191  -0.237  1.00  0.00    -0.248 NA
ATOM     36  C   UNL     1      -1.836   6.017  -0.505  1.00  0.00     0.031 C 
ATOM     37  C   UNL     1      -0.440   9.136   2.387  1.00  0.00     0.029 A 
ATOM     38  N   UNL     1       0.913   7.623   3.351  1.00  0.00    -0.354 N 
ATOM     39  C   UNL     1      -2.167   8.139  -1.283  1.00  0.00     0.074 A 
ATOM     40  C   UNL     1      -2.476   6.745  -1.427  1.00  0.00     0.031 C 
ATOM     41  C   UNL     1       0.492   9.799   3.098  1.00  0.00     0.029 A 
ATOM     42  C   UNL     1       1.556   8.854   3.427  1.00  0.00     0.049 A 
ATOM     43  H   UNL     1       1.122   6.822   3.883  1.00  0.00     0.167 HD
ATOM     44  C   UNL     1      -2.594   9.306  -1.846  1.00  0.00     0.037 A 
ATOM     45  C   UNL     1       2.846   8.895   2.978  1.00  0.00     0.037 A 
ATOM     46  C   UNL     1      -1.806  10.420  -1.323  1.00  0.00     0.049 A 
ATOM     47  C   UNL     1       2.992   9.717   1.711  1.00  0.00     0.074 A 
ATOM     48  C   UNL     1      -1.975  11.310  -0.276  1.00  0.00     0.029 A 
ATOM     49  N   UNL     1      -0.467  10.482  -1.665  1.00  0.00    -0.354 N 
ATOM     50  N   UNL     1       1.998  10.135   0.973  1.00  0.00    -0.248 NA
ATOM     51  C   UNL     1       4.290  10.062   1.138  1.00  0.00     0.031 C 
ATOM     52  C   UNL     1      -0.696  11.856   0.045  1.00  0.00     0.029 A 
ATOM     53  C   UNL     1       0.237  11.328  -0.831  1.00  0.00     0.049 A 
ATOM     54  H   UNL     1      -0.064   9.984  -2.413  1.00  0.00     0.167 HD
ATOM     55  C   UNL     1       2.482  10.821  -0.106  1.00  0.00     0.074 A 
ATOM     56  C   UNL     1       3.924  10.688   0.007  1.00  0.00     0.031 C 
ATOM     57  C   UNL     1       1.676  11.453  -1.011  1.00  0.00     0.037 A 
BRANCH  44  58
ATOM     58  C   UNL     1      -3.838   9.480  -2.698  1.00  0.00     0.057 A 
ATOM     59  C   UNL     1      -4.496  10.728  -2.736  1.00  0.00     0.134 A 
ATOM     60  C   UNL     1      -4.485   8.475  -3.440  1.00  0.00     0.134 A 
ATOM     61  F   UNL     1      -3.969  11.816  -2.160  1.00  0.00    -0.206 F 
ATOM     62  C   UNL     1      -5.739  10.927  -3.358  1.00  0.00     0.040 A 
ATOM     63  C   UNL     1      -5.747   8.649  -4.036  1.00  0.00     0.040 A 
ATOM     64  F   UNL     1      -3.911   7.292  -3.679  1.00  0.00    -0.206 F 
ATOM     65  C   UNL     1      -6.389   9.875  -3.982  1.00  0.00     0.006 A 
ENDBRANCH  44  58
BRANCH  45  66
ATOM     66  C   UNL     1       3.636   7.647   3.287  1.00  0.00     0.057 A 
ATOM     67  C   UNL     1       3.606   7.112   4.595  1.00  0.00     0.134 A 
ATOM     68  C   UNL     1       4.186   6.821   2.301  1.00  0.00     0.134 A 
ATOM     69  F   UNL     1       3.097   7.831   5.610  1.00  0.00    -0.206 F 
ATOM     70  C   UNL     1       3.986   5.796   4.880  1.00  0.00     0.040 A 
ATOM     71  C   UNL     1       4.605   5.511   2.581  1.00  0.00     0.040 A 
ATOM     72  F   UNL     1       4.267   7.227   1.027  1.00  0.00    -0.206 F 
ATOM     73  C   UNL     1       4.471   4.983   3.864  1.00  0.00     0.006 A 
ENDBRANCH  45  66
BRANCH  57  74
ATOM     74  C   UNL     1       2.210  12.275  -2.153  1.00  0.00     0.057 A 
ATOM     75  C   UNL     1       3.322  13.119  -2.024  1.00  0.00     0.134 A 
ATOM     76  C   UNL     1       1.551  12.332  -3.398  1.00  0.00     0.134 A 
ATOM     77  F   UNL     1       3.963  13.253  -0.854  1.00  0.00    -0.206 F 
ATOM     78  C   UNL     1       3.806  13.888  -3.088  1.00  0.00     0.040 A 
ATOM     79  C   UNL     1       1.986  13.146  -4.446  1.00  0.00     0.040 A 
ATOM     80  F   UNL     1       0.469  11.588  -3.664  1.00  0.00    -0.206 F 
ATOM     81  C   UNL     1       3.134  13.908  -4.303  1.00  0.00     0.006 A 
ENDBRANCH  57  74
ENDBRANCH  31  32
ENDBRANCH  24  26
ENDBRANCH  23  24
ENDBRANCH  22  23
ENDBRANCH   1  22
TORSDOF 14
