REMARK SMILES CC(C)(C(=O)OCCOC(=O)c1ccc(-c2c3nc(c(-c4c(F)cccc4F)c4ccc([nH]4)c(-c4c(F)cccc4F)c4nc(c(-c5c(F)cccc5F)c5ccc2[nH]5)C=C4)C=C3)cc1)c1ccc(NS(=O)(=O)c2c(F)cc(F)cc2F)cc1
REMARK SMILES IDX 7 1 6 2 4 3 5 4 2 5 1 6 3 7 66 8 67 9 84 10 68 11 83 12
REMARK SMILES IDX 69 13 70 14 71 16 72 17 73 18 74 19 75 20 81 21 76 22 77 23
REMARK SMILES IDX 80 24 82 25 78 26 79 27 8 28 9 29 10 30 11 31 12 32 13 33
REMARK SMILES IDX 65 34 14 35 64 36 15 37 16 38 17 39 58 40 18 41 63 42 57 43
REMARK SMILES IDX 59 44 19 45 62 46 56 47 55 48 20 50 46 51 29 52 45 53 30 54
REMARK SMILES IDX 33 55 44 56 60 57 31 58 32 59 43 61 61 62 34 63 21 64 22 65
REMARK SMILES IDX 27 66 23 67 24 68 26 69 28 70 25 71 47 72 48 73 53 74 49 75
REMARK SMILES IDX 50 76 52 77 54 78 51 79 35 80 36 81 41 82 37 83 38 84 40 85
REMARK SMILES IDX 42 86 39 87
REMARK H PARENT 70 15 59 49 33 60
REMARK Flexibility Score: inf
ROOT
ATOM      1  C   UNL     1      -2.864  -0.664  -1.050  1.00  0.00     0.274 C 
ENDROOT
BRANCH   1   2
ATOM      2  O   UNL     1      -1.432  -0.589  -0.881  1.00  0.00    -0.461 OA
BRANCH   2   3
ATOM      3  C   UNL     1      -0.719   0.066  -1.843  1.00  0.00     0.316 C 
ATOM      4  O   UNL     1      -1.235   0.572  -2.834  1.00  0.00    -0.251 OA
BRANCH   3   5
ATOM      5  C   UNL     1       0.815   0.024  -1.582  1.00  0.00     0.087 C 
ATOM      6  C   UNL     1       1.098  -0.600  -0.192  1.00  0.00     0.028 C 
ATOM      7  C   UNL     1       1.401  -0.937  -2.636  1.00  0.00     0.028 C 
BRANCH   5   8
ATOM      8  C   UNL     1       1.473   1.423  -1.744  1.00  0.00    -0.031 A 
ATOM      9  C   UNL     1       2.325   1.970  -0.767  1.00  0.00     0.007 A 
ATOM     10  C   UNL     1       1.250   2.208  -2.896  1.00  0.00     0.007 A 
ATOM     11  C   UNL     1       2.856   3.261  -0.893  1.00  0.00     0.027 A 
ATOM     12  C   UNL     1       1.776   3.503  -3.023  1.00  0.00     0.027 A 
ATOM     13  C   UNL     1       2.554   4.039  -2.005  1.00  0.00     0.049 A 
BRANCH  13  14
ATOM     14  N   UNL     1       3.073   5.374  -2.046  1.00  0.00    -0.279 N 
ATOM     15  H   UNL     1       2.718   6.078  -1.457  1.00  0.00     0.180 HD
BRANCH  14  16
ATOM     16  S   UNL     1       4.329   5.695  -3.156  1.00  0.00     0.267 S 
ATOM     17  O   UNL     1       3.752   5.636  -4.483  1.00  0.00    -0.201 OA
ATOM     18  O   UNL     1       4.972   6.913  -2.716  1.00  0.00    -0.201 OA
BRANCH  16  19
ATOM     19  C   UNL     1       5.440   4.356  -2.956  1.00  0.00     0.159 A 
ATOM     20  C   UNL     1       5.268   3.197  -3.707  1.00  0.00     0.149 A 
ATOM     21  C   UNL     1       6.494   4.432  -2.053  1.00  0.00     0.149 A 
ATOM     22  F   UNL     1       4.277   3.076  -4.598  1.00  0.00    -0.205 F 
ATOM     23  C   UNL     1       6.098   2.098  -3.519  1.00  0.00     0.080 A 
ATOM     24  C   UNL     1       7.349   3.346  -1.874  1.00  0.00     0.080 A 
ATOM     25  F   UNL     1       6.709   5.521  -1.306  1.00  0.00    -0.205 F 
ATOM     26  C   UNL     1       7.133   2.183  -2.601  1.00  0.00     0.129 A 
ATOM     27  F   UNL     1       7.931   1.126  -2.409  1.00  0.00    -0.207 F 
ENDBRANCH  16  19
ENDBRANCH  14  16
ENDBRANCH  13  14
ENDBRANCH   5   8
ENDBRANCH   3   5
ENDBRANCH   2   3
ENDBRANCH   1   2
BRANCH   1  28
ATOM     28  C   UNL     1      -3.554   0.243  -0.037  1.00  0.00     0.275 C 
BRANCH  28  29
ATOM     29  O   UNL     1      -3.211   1.605  -0.339  1.00  0.00    -0.458 OA
BRANCH  29  30
ATOM     30  C   UNL     1      -2.772   2.359   0.694  1.00  0.00     0.338 C 
ATOM     31  O   UNL     1      -2.729   2.051   1.872  1.00  0.00    -0.246 OA
BRANCH  30  32
ATOM     32  C   UNL     1      -2.310   3.662   0.177  1.00  0.00     0.060 A 
ATOM     33  C   UNL     1      -1.517   3.715  -0.966  1.00  0.00     0.016 A 
ATOM     34  C   UNL     1      -2.582   4.834   0.885  1.00  0.00     0.016 A 
ATOM     35  C   UNL     1      -0.934   4.921  -1.349  1.00  0.00     0.010 A 
ATOM     36  C   UNL     1      -2.052   6.056   0.445  1.00  0.00     0.010 A 
ATOM     37  C   UNL     1      -1.177   6.112  -0.654  1.00  0.00    -0.014 A 
BRANCH  37  38
ATOM     38  C   UNL     1      -0.438   7.365  -1.008  1.00  0.00     0.031 A 
ATOM     39  C   UNL     1       0.334   8.108   0.057  1.00  0.00     0.074 A 
ATOM     40  C   UNL     1      -0.367   7.827  -2.275  1.00  0.00     0.049 A 
ATOM     41  N   UNL     1       0.817   9.325   0.035  1.00  0.00    -0.248 NA
ATOM     42  C   UNL     1       0.587   7.386   1.313  1.00  0.00     0.031 C 
ATOM     43  C   UNL     1      -0.958   7.194  -3.454  1.00  0.00     0.029 A 
ATOM     44  N   UNL     1       0.266   8.938  -2.786  1.00  0.00    -0.354 N 
ATOM     45  C   UNL     1       1.346   9.546   1.301  1.00  0.00     0.074 A 
ATOM     46  C   UNL     1       1.148   8.328   2.058  1.00  0.00     0.031 C 
ATOM     47  C   UNL     1      -0.602   7.881  -4.550  1.00  0.00     0.029 A 
ATOM     48  C   UNL     1       0.129   9.076  -4.147  1.00  0.00     0.049 A 
ATOM     49  H   UNL     1       0.770   9.574  -2.228  1.00  0.00     0.167 HD
ATOM     50  C   UNL     1       1.930  10.666   1.793  1.00  0.00     0.037 A 
ATOM     51  C   UNL     1       0.489  10.076  -4.976  1.00  0.00     0.037 A 
ATOM     52  C   UNL     1       2.212  11.847   1.020  1.00  0.00     0.049 A 
ATOM     53  C   UNL     1       1.103  11.326  -4.410  1.00  0.00     0.074 A 
ATOM     54  C   UNL     1       2.764  13.046   1.440  1.00  0.00     0.029 A 
ATOM     55  N   UNL     1       2.008  11.960  -0.346  1.00  0.00    -0.354 N 
ATOM     56  N   UNL     1       1.433  11.598  -3.172  1.00  0.00    -0.248 NA
ATOM     57  C   UNL     1       1.347  12.430  -5.352  1.00  0.00     0.031 C 
ATOM     58  C   UNL     1       2.871  13.894   0.332  1.00  0.00     0.029 A 
ATOM     59  C   UNL     1       2.418  13.209  -0.783  1.00  0.00     0.049 A 
ATOM     60  H   UNL     1       1.629  11.257  -0.920  1.00  0.00     0.167 HD
ATOM     61  C   UNL     1       1.923  12.898  -3.187  1.00  0.00     0.074 A 
ATOM     62  C   UNL     1       1.870  13.354  -4.559  1.00  0.00     0.031 C 
ATOM     63  C   UNL     1       2.362  13.653  -2.151  1.00  0.00     0.037 A 
BRANCH  50  64
ATOM     64  C   UNL     1       2.248  10.691   3.259  1.00  0.00     0.057 A 
ATOM     65  C   UNL     1       3.328   9.991   3.808  1.00  0.00     0.134 A 
ATOM     66  C   UNL     1       1.462  11.457   4.131  1.00  0.00     0.134 A 
ATOM     67  F   UNL     1       4.106   9.223   3.032  1.00  0.00    -0.206 F 
ATOM     68  C   UNL     1       3.603  10.037   5.177  1.00  0.00     0.040 A 
ATOM     69  C   UNL     1       1.742  11.530   5.496  1.00  0.00     0.040 A 
ATOM     70  F   UNL     1       0.414  12.156   3.668  1.00  0.00    -0.206 F 
ATOM     71  C   UNL     1       2.813  10.813   6.023  1.00  0.00     0.006 A 
ENDBRANCH  50  64
BRANCH  51  72
ATOM     72  C   UNL     1       0.201   9.979  -6.432  1.00  0.00     0.057 A 
ATOM     73  C   UNL     1       1.236   9.888  -7.369  1.00  0.00     0.134 A 
ATOM     74  C   UNL     1      -1.111   9.994  -6.922  1.00  0.00     0.134 A 
ATOM     75  F   UNL     1       2.515   9.910  -6.967  1.00  0.00    -0.206 F 
ATOM     76  C   UNL     1       0.978   9.816  -8.739  1.00  0.00     0.040 A 
ATOM     77  C   UNL     1      -1.385   9.893  -8.286  1.00  0.00     0.040 A 
ATOM     78  F   UNL     1      -2.149  10.090  -6.077  1.00  0.00    -0.206 F 
ATOM     79  C   UNL     1      -0.338   9.809  -9.200  1.00  0.00     0.006 A 
ENDBRANCH  51  72
BRANCH  63  80
ATOM     80  C   UNL     1       2.834  15.041  -2.463  1.00  0.00     0.057 A 
ATOM     81  C   UNL     1       1.933  16.076  -2.744  1.00  0.00     0.134 A 
ATOM     82  C   UNL     1       4.199  15.354  -2.453  1.00  0.00     0.134 A 
ATOM     83  F   UNL     1       0.614  15.837  -2.782  1.00  0.00    -0.206 F 
ATOM     84  C   UNL     1       2.375  17.371  -3.021  1.00  0.00     0.040 A 
ATOM     85  C   UNL     1       4.651  16.648  -2.710  1.00  0.00     0.040 A 
ATOM     86  F   UNL     1       5.112  14.409  -2.185  1.00  0.00    -0.206 F 
ATOM     87  C   UNL     1       3.738  17.661  -2.999  1.00  0.00     0.006 A 
ENDBRANCH  63  80
ENDBRANCH  37  38
ENDBRANCH  30  32
ENDBRANCH  29  30
ENDBRANCH  28  29
ENDBRANCH   1  28
TORSDOF 15
