REMARK SMILES C=CCn1cc(CC)cc1C(=O)OCCOC(=O)c1ccc(-c2c3nc(c(-c4c(F)cccc4F)c4ccc([nH]4)c(-c4c(F)cccc4F)c4nc(c(-c5c(F)cccc5F)c5ccc2[nH]5)C=C4)C=C3)cc1
REMARK SMILES IDX 14 1 13 2 11 3 12 4 10 5 4 6 5 7 6 8 9 9 3 10 2 11 1 12 7 13
REMARK SMILES IDX 8 14 15 15 16 16 17 17 18 18 19 19 20 20 72 21 21 22 71 23
REMARK SMILES IDX 22 24 23 25 24 26 65 27 25 28 70 29 64 30 66 31 26 32 69 33
REMARK SMILES IDX 63 34 62 35 27 37 53 38 36 39 52 40 37 41 40 42 51 43 67 44
REMARK SMILES IDX 38 45 39 46 50 48 68 49 41 50 28 51 29 52 34 53 30 54 31 55
REMARK SMILES IDX 33 56 35 57 32 58 54 59 55 60 60 61 56 62 57 63 59 64 61 65
REMARK SMILES IDX 58 66 42 67 43 68 48 69 44 70 45 71 47 72 49 73 46 74
REMARK H PARENT 66 36 40 47
REMARK Flexibility Score: inf
ROOT
ATOM      1  C   UNL     1      -1.749   4.340   2.389  1.00  0.00     0.275 C 
ENDROOT
BRANCH   1   2
ATOM      2  O   UNL     1      -1.459   2.934   2.288  1.00  0.00    -0.457 OA
BRANCH   2   3
ATOM      3  C   UNL     1      -1.412   2.262   3.480  1.00  0.00     0.355 C 
ATOM      4  O   UNL     1      -1.415   2.806   4.562  1.00  0.00    -0.244 OA
BRANCH   3   5
ATOM      5  C   UNL     1      -1.467   0.817   3.288  1.00  0.00     0.128 A 
ATOM      6  N   UNL     1      -1.317   0.050   2.148  1.00  0.00    -0.338 N 
ATOM      7  C   UNL     1      -1.464  -1.285   2.462  1.00  0.00     0.090 A 
ATOM      8  C   UNL     1      -1.716  -1.407   3.810  1.00  0.00    -0.030 A 
ATOM      9  C   UNL     1      -1.733  -0.083   4.317  1.00  0.00     0.039 A 
BRANCH   6  10
ATOM     10  C   UNL     1      -0.995   0.491   0.793  1.00  0.00     0.149 C 
BRANCH  10  11
ATOM     11  C   UNL     1       0.489   0.664   0.620  1.00  0.00    -0.013 C 
ATOM     12  C   UNL     1       1.237  -0.015  -0.261  1.00  0.00     0.006 C 
ENDBRANCH  10  11
ENDBRANCH   6  10
BRANCH   8  13
ATOM     13  C   UNL     1      -1.931  -2.673   4.572  1.00  0.00     0.034 C 
ATOM     14  C   UNL     1      -1.081  -2.759   5.832  1.00  0.00     0.009 C 
ENDBRANCH   8  13
ENDBRANCH   3   5
ENDBRANCH   2   3
ENDBRANCH   1   2
BRANCH   1  15
ATOM     15  C   UNL     1      -3.247   4.640   2.292  1.00  0.00     0.275 C 
BRANCH  15  16
ATOM     16  O   UNL     1      -4.024   4.052   3.342  1.00  0.00    -0.458 OA
BRANCH  16  17
ATOM     17  C   UNL     1      -4.454   2.804   3.048  1.00  0.00     0.338 C 
ATOM     18  O   UNL     1      -4.076   2.093   2.130  1.00  0.00    -0.246 OA
BRANCH  17  19
ATOM     19  C   UNL     1      -5.613   2.432   3.860  1.00  0.00     0.060 A 
ATOM     20  C   UNL     1      -5.831   1.067   4.073  1.00  0.00     0.016 A 
ATOM     21  C   UNL     1      -6.608   3.386   4.109  1.00  0.00     0.016 A 
ATOM     22  C   UNL     1      -7.094   0.638   4.434  1.00  0.00     0.010 A 
ATOM     23  C   UNL     1      -7.880   2.953   4.444  1.00  0.00     0.010 A 
ATOM     24  C   UNL     1      -8.123   1.577   4.569  1.00  0.00    -0.014 A 
BRANCH  24  25
ATOM     25  C   UNL     1      -9.455   1.091   4.968  1.00  0.00     0.031 A 
ATOM     26  C   UNL     1      -9.579   0.976   6.486  1.00  0.00     0.074 A 
ATOM     27  C   UNL     1     -10.329   0.798   3.958  1.00  0.00     0.049 A 
ATOM     28  N   UNL     1     -10.393   0.259   7.196  1.00  0.00    -0.248 NA
ATOM     29  C   UNL     1      -8.622   1.722   7.352  1.00  0.00     0.031 C 
ATOM     30  C   UNL     1     -10.034   0.974   2.518  1.00  0.00     0.029 A 
ATOM     31  N   UNL     1     -11.618   0.301   3.913  1.00  0.00    -0.354 N 
ATOM     32  C   UNL     1     -10.211   0.639   8.541  1.00  0.00     0.074 A 
ATOM     33  C   UNL     1      -9.024   1.432   8.589  1.00  0.00     0.031 C 
ATOM     34  C   UNL     1     -11.062   0.539   1.758  1.00  0.00     0.029 A 
ATOM     35  C   UNL     1     -12.133   0.060   2.611  1.00  0.00     0.049 A 
ATOM     36  H   UNL     1     -12.143   0.126   4.728  1.00  0.00     0.167 HD
ATOM     37  C   UNL     1     -11.148   0.418   9.506  1.00  0.00     0.037 A 
ATOM     38  C   UNL     1     -13.328  -0.496   2.237  1.00  0.00     0.037 A 
ATOM     39  C   UNL     1     -12.246  -0.311   8.971  1.00  0.00     0.049 A 
ATOM     40  C   UNL     1     -14.119  -0.600   3.468  1.00  0.00     0.074 A 
ATOM     41  C   UNL     1     -12.378  -1.605   8.545  1.00  0.00     0.029 A 
ATOM     42  N   UNL     1     -13.305   0.430   8.508  1.00  0.00    -0.354 N 
ATOM     43  N   UNL     1     -14.652   0.414   4.077  1.00  0.00    -0.248 NA
ATOM     44  C   UNL     1     -14.329  -1.916   4.080  1.00  0.00     0.031 C 
ATOM     45  C   UNL     1     -13.297  -1.516   7.481  1.00  0.00     0.029 A 
ATOM     46  C   UNL     1     -13.805  -0.214   7.406  1.00  0.00     0.049 A 
ATOM     47  H   UNL     1     -13.644   1.269   8.896  1.00  0.00     0.167 HD
ATOM     48  C   UNL     1     -14.929  -0.103   5.317  1.00  0.00     0.074 A 
ATOM     49  C   UNL     1     -15.016  -1.539   5.156  1.00  0.00     0.031 C 
ATOM     50  C   UNL     1     -14.490   0.575   6.407  1.00  0.00     0.037 A 
BRANCH  37  51
ATOM     51  C   UNL     1     -11.325   1.026  10.865  1.00  0.00     0.057 A 
ATOM     52  C   UNL     1     -12.171   0.365  11.784  1.00  0.00     0.134 A 
ATOM     53  C   UNL     1     -11.014   2.356  11.167  1.00  0.00     0.134 A 
ATOM     54  F   UNL     1     -12.508  -0.924  11.608  1.00  0.00    -0.206 F 
ATOM     55  C   UNL     1     -12.772   1.022  12.859  1.00  0.00     0.040 A 
ATOM     56  C   UNL     1     -11.573   3.011  12.272  1.00  0.00     0.040 A 
ATOM     57  F   UNL     1     -10.247   3.099  10.358  1.00  0.00    -0.206 F 
ATOM     58  C   UNL     1     -12.486   2.358  13.095  1.00  0.00     0.006 A 
ENDBRANCH  37  51
BRANCH  38  59
ATOM     59  C   UNL     1     -14.021  -1.012   0.995  1.00  0.00     0.057 A 
ATOM     60  C   UNL     1     -13.437  -1.185  -0.261  1.00  0.00     0.134 A 
ATOM     61  C   UNL     1     -15.349  -1.523   1.086  1.00  0.00     0.134 A 
ATOM     62  F   UNL     1     -12.217  -0.712  -0.537  1.00  0.00    -0.206 F 
ATOM     63  C   UNL     1     -14.080  -1.885  -1.303  1.00  0.00     0.040 A 
ATOM     64  C   UNL     1     -15.976  -2.267   0.082  1.00  0.00     0.040 A 
ATOM     65  F   UNL     1     -16.105  -1.348   2.180  1.00  0.00    -0.206 F 
ATOM     66  C   UNL     1     -15.332  -2.465  -1.121  1.00  0.00     0.006 A 
ENDBRANCH  38  59
BRANCH  50  67
ATOM     67  C   UNL     1     -14.356   2.073   6.174  1.00  0.00     0.057 A 
ATOM     68  C   UNL     1     -15.471   2.827   5.777  1.00  0.00     0.134 A 
ATOM     69  C   UNL     1     -13.136   2.764   6.173  1.00  0.00     0.134 A 
ATOM     70  F   UNL     1     -16.692   2.268   5.763  1.00  0.00    -0.206 F 
ATOM     71  C   UNL     1     -15.367   4.163   5.364  1.00  0.00     0.040 A 
ATOM     72  C   UNL     1     -13.013   4.101   5.771  1.00  0.00     0.040 A 
ATOM     73  F   UNL     1     -12.012   2.163   6.554  1.00  0.00    -0.206 F 
ATOM     74  C   UNL     1     -14.132   4.803   5.350  1.00  0.00     0.006 A 
ENDBRANCH  50  67
ENDBRANCH  24  25
ENDBRANCH  17  19
ENDBRANCH  16  17
ENDBRANCH  15  16
ENDBRANCH   1  15
TORSDOF 14
