REMARK SMILES CCOC(=O)NC(=O)C[N@H+]1CC[C@@H](C(=O)OCCOC(=O)c2ccc(-c3c4nc(c(-c5c(F)cccc5F)c5ccc([nH]5)c(-c5c(F)cccc5F)c5nc(c(-c6c(F)cccc6F)c6ccc3[nH]6)C=C5)C=C4)cc2)[C@@H]1C
REMARK SMILES IDX 17 1 16 2 14 3 15 4 13 5 10 6 11 7 76 8 12 10 77 11 9 12
REMARK SMILES IDX 7 13 4 14 5 15 6 16 8 18 3 19 2 20 1 21 18 22 19 23 20 24
REMARK SMILES IDX 21 25 22 26 23 27 75 28 24 29 74 30 25 31 26 32 27 33 68 34
REMARK SMILES IDX 28 35 73 36 67 37 69 38 29 39 72 40 66 41 65 42 30 44 56 45
REMARK SMILES IDX 39 46 55 47 40 48 43 49 54 50 70 51 41 52 42 53 53 55 71 56
REMARK SMILES IDX 44 57 31 58 32 59 37 60 33 61 34 62 36 63 38 64 35 65 57 66
REMARK SMILES IDX 58 67 63 68 59 69 60 70 62 71 64 72 61 73 45 74 46 75 51 76
REMARK SMILES IDX 47 77 48 78 50 79 52 80 49 81
REMARK H PARENT 10 9 6 17 69 43 43 54
REMARK Flexibility Score: inf
ROOT
ATOM      1  C   UNL     1       2.080  -0.340   7.676  1.00  0.00     0.274 C 
ENDROOT
BRANCH   1   2
ATOM      2  O   UNL     1       1.334  -0.732   6.509  1.00  0.00    -0.462 OA
BRANCH   2   3
ATOM      3  C   UNL     1       0.007  -0.953   6.664  1.00  0.00     0.315 C 
ATOM      4  O   UNL     1      -0.594  -0.882   7.731  1.00  0.00    -0.252 OA
BRANCH   3   5
ATOM      5  C   UNL     1      -0.710  -1.260   5.365  1.00  0.00     0.162 C 
ATOM      6  N   UNL     1      -0.210  -2.392   3.283  1.00  0.00    -0.324 N 
ATOM      7  C   UNL     1      -1.462  -2.915   3.863  1.00  0.00     0.264 C 
ATOM      8  C   UNL     1       0.118  -1.185   4.075  1.00  0.00     0.195 C 
ATOM      9  H   UNL     1      -0.277  -2.111   2.305  1.00  0.00     0.348 HD
ATOM     10  C   UNL     1      -1.324  -2.648   5.352  1.00  0.00     0.083 C 
ATOM     11  C   UNL     1      -0.297   0.031   3.235  1.00  0.00     0.076 C 
BRANCH   6  12
ATOM     12  C   UNL     1       0.810  -3.466   3.268  1.00  0.00     0.364 C 
BRANCH  12  13
ATOM     13  C   UNL     1       2.267  -3.027   3.350  1.00  0.00     0.284 C 
ATOM     14  C   UNL     1       2.573  -2.149   0.986  1.00  0.00     0.414 C 
ATOM     15  O   UNL     1       3.420  -1.954   0.125  1.00  0.00    -0.224 OA
ATOM     16  N   UNL     1       2.939  -2.558   2.249  1.00  0.00    -0.256 N 
ATOM     17  H   UNL     1       3.911  -2.501   2.397  1.00  0.00     0.176 HD
ATOM     18  O   UNL     1       2.893  -3.135   4.412  1.00  0.00    -0.268 OA
BRANCH  14  19
ATOM     19  O   UNL     1       1.246  -1.960   0.823  1.00  0.00    -0.450 OA
BRANCH  19  20
ATOM     20  C   UNL     1       0.826  -1.431  -0.444  1.00  0.00     0.231 C 
ATOM     21  C   UNL     1       1.165   0.045  -0.593  1.00  0.00     0.049 C 
ENDBRANCH  19  20
ENDBRANCH  14  19
ENDBRANCH  12  13
ENDBRANCH   6  12
ENDBRANCH   3   5
ENDBRANCH   2   3
ENDBRANCH   1   2
BRANCH   1  22
ATOM     22  C   UNL     1       2.482   1.133   7.590  1.00  0.00     0.275 C 
BRANCH  22  23
ATOM     23  O   UNL     1       1.320   1.986   7.563  1.00  0.00    -0.458 OA
BRANCH  23  24
ATOM     24  C   UNL     1       0.956   2.412   6.332  1.00  0.00     0.338 C 
ATOM     25  O   UNL     1       1.515   2.189   5.271  1.00  0.00    -0.246 OA
BRANCH  24  26
ATOM     26  C   UNL     1      -0.326   3.127   6.408  1.00  0.00     0.060 A 
ATOM     27  C   UNL     1      -1.480   2.449   6.018  1.00  0.00     0.016 A 
ATOM     28  C   UNL     1      -0.381   4.483   6.723  1.00  0.00     0.016 A 
ATOM     29  C   UNL     1      -2.691   3.120   5.900  1.00  0.00     0.010 A 
ATOM     30  C   UNL     1      -1.609   5.153   6.643  1.00  0.00     0.010 A 
ATOM     31  C   UNL     1      -2.769   4.481   6.213  1.00  0.00    -0.014 A 
BRANCH  31  32
ATOM     32  C   UNL     1      -4.060   5.197   6.056  1.00  0.00     0.031 A 
ATOM     33  C   UNL     1      -4.212   6.253   4.997  1.00  0.00     0.074 A 
ATOM     34  C   UNL     1      -5.100   4.887   6.854  1.00  0.00     0.049 A 
ATOM     35  N   UNL     1      -5.211   7.071   4.783  1.00  0.00    -0.248 NA
ATOM     36  C   UNL     1      -3.092   6.412   4.055  1.00  0.00     0.031 C 
ATOM     37  C   UNL     1      -5.094   3.850   7.888  1.00  0.00     0.029 A 
ATOM     38  N   UNL     1      -6.363   5.419   6.924  1.00  0.00    -0.354 N 
ATOM     39  C   UNL     1      -4.826   7.867   3.712  1.00  0.00     0.074 A 
ATOM     40  C   UNL     1      -3.502   7.436   3.318  1.00  0.00     0.031 C 
ATOM     41  C   UNL     1      -6.293   3.824   8.491  1.00  0.00     0.029 A 
ATOM     42  C   UNL     1      -7.129   4.880   7.930  1.00  0.00     0.049 A 
ATOM     43  H   UNL     1      -6.689   6.119   6.314  1.00  0.00     0.167 HD
ATOM     44  C   UNL     1      -5.517   8.867   3.115  1.00  0.00     0.037 A 
ATOM     45  C   UNL     1      -8.351   5.226   8.378  1.00  0.00     0.037 A 
ATOM     46  C   UNL     1      -6.851   9.264   3.484  1.00  0.00     0.049 A 
ATOM     47  C   UNL     1      -9.078   6.366   7.720  1.00  0.00     0.074 A 
ATOM     48  C   UNL     1      -7.646  10.244   2.914  1.00  0.00     0.029 A 
ATOM     49  N   UNL     1      -7.588   8.699   4.513  1.00  0.00    -0.354 N 
ATOM     50  N   UNL     1      -8.703   7.112   6.710  1.00  0.00    -0.248 NA
ATOM     51  C   UNL     1     -10.396   6.716   8.270  1.00  0.00     0.031 C 
ATOM     52  C   UNL     1      -8.849  10.300   3.625  1.00  0.00     0.029 A 
ATOM     53  C   UNL     1      -8.820   9.325   4.608  1.00  0.00     0.049 A 
ATOM     54  H   UNL     1      -7.282   7.963   5.090  1.00  0.00     0.167 HD
ATOM     55  C   UNL     1      -9.745   8.003   6.489  1.00  0.00     0.074 A 
ATOM     56  C   UNL     1     -10.775   7.693   7.458  1.00  0.00     0.031 C 
ATOM     57  C   UNL     1      -9.840   8.993   5.569  1.00  0.00     0.037 A 
BRANCH  44  58
ATOM     58  C   UNL     1      -4.840   9.631   2.017  1.00  0.00     0.057 A 
ATOM     59  C   UNL     1      -4.669   9.097   0.734  1.00  0.00     0.134 A 
ATOM     60  C   UNL     1      -4.419  10.950   2.231  1.00  0.00     0.134 A 
ATOM     61  F   UNL     1      -5.041   7.836   0.468  1.00  0.00    -0.206 F 
ATOM     62  C   UNL     1      -4.097   9.847  -0.296  1.00  0.00     0.040 A 
ATOM     63  C   UNL     1      -3.866  11.716   1.204  1.00  0.00     0.040 A 
ATOM     64  F   UNL     1      -4.559  11.523   3.436  1.00  0.00    -0.206 F 
ATOM     65  C   UNL     1      -3.702  11.164  -0.064  1.00  0.00     0.006 A 
ENDBRANCH  44  58
BRANCH  45  66
ATOM     66  C   UNL     1      -8.947   4.522   9.542  1.00  0.00     0.057 A 
ATOM     67  C   UNL     1     -10.085   3.721   9.404  1.00  0.00     0.134 A 
ATOM     68  C   UNL     1      -8.410   4.664  10.828  1.00  0.00     0.134 A 
ATOM     69  F   UNL     1     -10.660   3.565   8.203  1.00  0.00    -0.206 F 
ATOM     70  C   UNL     1     -10.683   3.105  10.505  1.00  0.00     0.040 A 
ATOM     71  C   UNL     1      -8.980   4.031  11.933  1.00  0.00     0.040 A 
ATOM     72  F   UNL     1      -7.319   5.418  11.028  1.00  0.00    -0.206 F 
ATOM     73  C   UNL     1     -10.127   3.256  11.774  1.00  0.00     0.006 A 
ENDBRANCH  45  66
BRANCH  57  74
ATOM     74  C   UNL     1     -11.115   9.782   5.540  1.00  0.00     0.057 A 
ATOM     75  C   UNL     1     -11.423  10.725   6.528  1.00  0.00     0.134 A 
ATOM     76  C   UNL     1     -12.028   9.619   4.491  1.00  0.00     0.134 A 
ATOM     77  F   UNL     1     -10.595  10.917   7.566  1.00  0.00    -0.206 F 
ATOM     78  C   UNL     1     -12.606  11.463   6.486  1.00  0.00     0.040 A 
ATOM     79  C   UNL     1     -13.202  10.369   4.424  1.00  0.00     0.040 A 
ATOM     80  F   UNL     1     -11.788   8.737   3.509  1.00  0.00    -0.206 F 
ATOM     81  C   UNL     1     -13.497  11.291   5.427  1.00  0.00     0.006 A 
ENDBRANCH  57  74
ENDBRANCH  31  32
ENDBRANCH  24  26
ENDBRANCH  23  24
ENDBRANCH  22  23
ENDBRANCH   1  22
TORSDOF 15
