REMARK SMILES C[C@H](C(=O)OCCOC(=O)c1ccc(-c2c3nc(c(-c4c(F)cccc4F)c4ccc([nH]4)c(-c4c(F)cccc4F)c4nc(c(-c5c(F)cccc5F)c5ccc2[nH]5)C=C4)C=C3)cc1)N1CCCC[C@H](NC(=O)OC(C)(C)C)C1=O
REMARK SMILES IDX 3 1 4 2 2 3 1 4 65 5 66 6 67 7 68 8 69 9 79 11 80 12 70 13
REMARK SMILES IDX 71 15 72 16 73 18 74 19 75 20 76 21 77 22 78 23 5 24 6 25
REMARK SMILES IDX 7 26 8 27 9 28 10 29 11 30 12 31 64 32 13 33 63 34 14 35
REMARK SMILES IDX 15 36 16 37 57 38 17 39 62 40 56 41 58 42 18 43 61 44 55 45
REMARK SMILES IDX 54 46 19 48 45 49 28 50 44 51 29 52 32 53 43 54 59 55 30 56
REMARK SMILES IDX 31 57 42 59 60 60 33 61 20 62 21 63 26 64 22 65 23 66 25 67
REMARK SMILES IDX 27 68 24 69 46 70 47 71 52 72 48 73 49 74 51 75 53 76 50 77
REMARK SMILES IDX 34 78 35 79 40 80 36 81 37 82 39 83 41 84 38 85
REMARK H PARENT 71 17 58 47 32 58
REMARK Flexibility Score: 90.00
ROOT
ATOM      1  C   UNL     1       0.603  -0.026   0.245  1.00  0.00     0.328 C 
ATOM      2  O   UNL     1       0.647   0.299   1.426  1.00  0.00    -0.250 OA
ENDROOT
BRANCH   1   3
ATOM      3  C   UNL     1       0.037   0.882  -0.860  1.00  0.00     0.192 C 
ATOM      4  C   UNL     1       0.567   0.616  -2.268  1.00  0.00     0.044 C 
BRANCH   3   5
ATOM      5  N   UNL     1      -1.432   0.939  -0.836  1.00  0.00    -0.327 N 
BRANCH   5   6
ATOM      6  C   UNL     1      -2.181  -0.317  -0.792  1.00  0.00     0.120 C 
BRANCH   6   7
ATOM      7  C   UNL     1      -2.805  -0.664  -2.139  1.00  0.00     0.022 C 
BRANCH   7   8
ATOM      8  C   UNL     1      -4.116   0.069  -2.403  1.00  0.00     0.004 C 
BRANCH   8   9
ATOM      9  C   UNL     1      -4.003   1.594  -2.437  1.00  0.00     0.035 CG0
ATOM     10  G   UNL     1      -3.569   2.189  -1.093  1.00  0.00     0.000 G0
ENDBRANCH   8   9
ENDBRANCH   7   8
ENDBRANCH   6   7
ENDBRANCH   5   6
BRANCH   5  11
ATOM     11  C   UNL     1      -2.035   2.185  -0.993  1.00  0.00     0.246 C 
ATOM     12  O   UNL     1      -1.375   3.217  -1.135  1.00  0.00    -0.272 OA
BRANCH  11  13
ATOM     13  C   UNL     1      -3.569   2.189  -1.093  1.00  0.00     0.175 CG0
ATOM     14  G   UNL     1      -4.003   1.594  -2.437  1.00  0.00     0.000 G0
BRANCH  13  15
ATOM     15  N   UNL     1      -4.083   3.543  -0.944  1.00  0.00    -0.310 N 
ATOM     16  C   UNL     1      -4.433   4.115   0.241  1.00  0.00     0.408 C 
ATOM     17  H   UNL     1      -4.184   4.085  -1.759  1.00  0.00     0.167 HD
ATOM     18  O   UNL     1      -5.014   5.192   0.278  1.00  0.00    -0.225 OA
BRANCH  16  19
ATOM     19  O   UNL     1      -4.114   3.338   1.299  1.00  0.00    -0.444 OA
BRANCH  19  20
ATOM     20  C   UNL     1      -4.691   3.551   2.611  1.00  0.00     0.106 C 
ATOM     21  C   UNL     1      -4.652   5.003   3.099  1.00  0.00     0.056 C 
ATOM     22  C   UNL     1      -6.120   3.002   2.586  1.00  0.00     0.056 C 
ATOM     23  C   UNL     1      -3.837   2.700   3.563  1.00  0.00     0.056 C 
ENDBRANCH  19  20
ENDBRANCH  16  19
ENDBRANCH  13  15
ENDBRANCH  11  13
ENDBRANCH   5  11
ENDBRANCH   3   5
ENDBRANCH   1   3
BRANCH   1  24
ATOM     24  O   UNL     1       0.933  -1.260  -0.228  1.00  0.00    -0.461 OA
BRANCH  24  25
ATOM     25  C   UNL     1       1.466  -2.196   0.729  1.00  0.00     0.274 C 
BRANCH  25  26
ATOM     26  C   UNL     1       2.938  -2.465   0.426  1.00  0.00     0.275 C 
BRANCH  26  27
ATOM     27  O   UNL     1       3.689  -1.238   0.489  1.00  0.00    -0.458 OA
BRANCH  27  28
ATOM     28  C   UNL     1       3.868  -0.627  -0.704  1.00  0.00     0.338 C 
ATOM     29  O   UNL     1       3.538  -1.028  -1.807  1.00  0.00    -0.246 OA
BRANCH  28  30
ATOM     30  C   UNL     1       4.456   0.698  -0.490  1.00  0.00     0.060 A 
ATOM     31  C   UNL     1       3.611   1.799  -0.351  1.00  0.00     0.016 A 
ATOM     32  C   UNL     1       5.834   0.868  -0.568  1.00  0.00     0.016 A 
ATOM     33  C   UNL     1       4.129   3.087  -0.351  1.00  0.00     0.010 A 
ATOM     34  C   UNL     1       6.362   2.159  -0.498  1.00  0.00     0.010 A 
ATOM     35  C   UNL     1       5.512   3.278  -0.414  1.00  0.00    -0.014 A 
BRANCH  35  36
ATOM     36  C   UNL     1       6.074   4.649  -0.421  1.00  0.00     0.031 A 
ATOM     37  C   UNL     1       6.828   5.137  -1.623  1.00  0.00     0.074 A 
ATOM     38  C   UNL     1       5.918   5.442   0.655  1.00  0.00     0.049 A 
ATOM     39  N   UNL     1       7.556   6.214  -1.763  1.00  0.00    -0.248 NA
ATOM     40  C   UNL     1       6.765   4.291  -2.826  1.00  0.00     0.031 C 
ATOM     41  C   UNL     1       5.157   5.099   1.858  1.00  0.00     0.029 A 
ATOM     42  N   UNL     1       6.406   6.696   0.915  1.00  0.00    -0.354 N 
ATOM     43  C   UNL     1       8.068   6.158  -3.053  1.00  0.00     0.074 A 
ATOM     44  C   UNL     1       7.583   4.932  -3.648  1.00  0.00     0.031 C 
ATOM     45  C   UNL     1       5.230   6.117   2.728  1.00  0.00     0.029 A 
ATOM     46  C   UNL     1       6.101   7.148   2.176  1.00  0.00     0.049 A 
ATOM     47  H   UNL     1       6.924   7.221   0.263  1.00  0.00     0.167 HD
ATOM     48  C   UNL     1       8.868   7.054  -3.678  1.00  0.00     0.037 A 
ATOM     49  C   UNL     1       6.517   8.247   2.832  1.00  0.00     0.037 A 
ATOM     50  C   UNL     1       9.323   8.281  -3.078  1.00  0.00     0.049 A 
ATOM     51  C   UNL     1       7.459   9.191   2.141  1.00  0.00     0.074 A 
ATOM     52  C   UNL     1      10.130   9.264  -3.625  1.00  0.00     0.029 A 
ATOM     53  N   UNL     1       9.006   8.695  -1.792  1.00  0.00    -0.354 N 
ATOM     54  N   UNL     1       7.962   9.121   0.932  1.00  0.00    -0.248 NA
ATOM     55  C   UNL     1       7.899  10.364   2.908  1.00  0.00     0.031 C 
ATOM     56  C   UNL     1      10.340  10.248  -2.654  1.00  0.00     0.029 A 
ATOM     57  C   UNL     1       9.618   9.908  -1.520  1.00  0.00     0.049 A 
ATOM     58  H   UNL     1       8.430   8.200  -1.165  1.00  0.00     0.167 HD
ATOM     59  C   UNL     1       8.755  10.250   0.783  1.00  0.00     0.074 A 
ATOM     60  C   UNL     1       8.654  10.996   2.021  1.00  0.00     0.031 C 
ATOM     61  C   UNL     1       9.499  10.637  -0.282  1.00  0.00     0.037 A 
BRANCH  48  62
ATOM     62  C   UNL     1       9.330   6.720  -5.068  1.00  0.00     0.057 A 
ATOM     63  C   UNL     1       8.459   6.725  -6.165  1.00  0.00     0.134 A 
ATOM     64  C   UNL     1      10.674   6.407  -5.313  1.00  0.00     0.134 A 
ATOM     65  F   UNL     1       7.157   7.000  -5.999  1.00  0.00    -0.206 F 
ATOM     66  C   UNL     1       8.903   6.406  -7.451  1.00  0.00     0.040 A 
ATOM     67  C   UNL     1      11.134   6.115  -6.598  1.00  0.00     0.040 A 
ATOM     68  F   UNL     1      11.563   6.388  -4.309  1.00  0.00    -0.206 F 
ATOM     69  C   UNL     1      10.246   6.107  -7.671  1.00  0.00     0.006 A 
ENDBRANCH  48  62
BRANCH  49  70
ATOM     70  C   UNL     1       6.074   8.489   4.228  1.00  0.00     0.057 A 
ATOM     71  C   UNL     1       5.223   9.553   4.543  1.00  0.00     0.134 A 
ATOM     72  C   UNL     1       6.492   7.663   5.280  1.00  0.00     0.134 A 
ATOM     73  F   UNL     1       4.806  10.392   3.583  1.00  0.00    -0.206 F 
ATOM     74  C   UNL     1       4.815   9.799   5.856  1.00  0.00     0.040 A 
ATOM     75  C   UNL     1       6.068   7.879   6.592  1.00  0.00     0.040 A 
ATOM     76  F   UNL     1       7.304   6.622   5.045  1.00  0.00    -0.206 F 
ATOM     77  C   UNL     1       5.233   8.956   6.883  1.00  0.00     0.006 A 
ENDBRANCH  49  70
BRANCH  61  78
ATOM     78  C   UNL     1      10.227  11.945  -0.167  1.00  0.00     0.057 A 
ATOM     79  C   UNL     1      11.348  12.101   0.657  1.00  0.00     0.134 A 
ATOM     80  C   UNL     1       9.816  13.053  -0.919  1.00  0.00     0.134 A 
ATOM     81  F   UNL     1      11.783  11.082   1.414  1.00  0.00    -0.206 F 
ATOM     82  C   UNL     1      12.020  13.321   0.748  1.00  0.00     0.040 A 
ATOM     83  C   UNL     1      10.497  14.269  -0.859  1.00  0.00     0.040 A 
ATOM     84  F   UNL     1       8.754  12.969  -1.735  1.00  0.00    -0.206 F 
ATOM     85  C   UNL     1      11.599  14.407  -0.017  1.00  0.00     0.006 A 
ENDBRANCH  61  78
ENDBRANCH  35  36
ENDBRANCH  28  30
ENDBRANCH  27  28
ENDBRANCH  26  27
ENDBRANCH  25  26
ENDBRANCH  24  25
ENDBRANCH   1  24
TORSDOF 15
