REMARK SMILES O=C1NC(=S)/C(=C/c2ccc(-c3ccc(C(=O)OCCOC(=O)c4ccc(-c5c6nc(c(-c7c(F)cccc7F)c7ccc([nH]7)c(-c7c(F)cccc7F)c7nc(c(-c8c(F)cccc8F)c8ccc5[nH]8)C=C7)C=C6)cc4)cc3)o2)S1
REMARK SMILES IDX 19 1 18 2 16 3 17 4 15 5 12 6 13 7 79 8 14 9 78 10 11 11
REMARK SMILES IDX 8 12 9 13 80 14 10 15 7 16 1 17 2 18 3 19 81 20 4 21 6 23
REMARK SMILES IDX 5 24 20 25 21 26 22 27 23 28 24 29 25 30 77 31 26 32 76 33
REMARK SMILES IDX 27 34 28 35 29 36 70 37 30 38 75 39 69 40 71 41 31 42 74 43
REMARK SMILES IDX 68 44 67 45 32 47 58 48 41 49 57 50 42 51 45 52 56 53 72 54
REMARK SMILES IDX 43 55 44 56 55 58 73 59 46 60 33 61 34 62 39 63 35 64 36 65
REMARK SMILES IDX 38 66 40 67 37 68 59 69 60 70 65 71 61 72 62 73 64 74 66 75
REMARK SMILES IDX 63 76 47 77 48 78 53 79 49 80 50 81 52 82 54 83 51 84
REMARK H PARENT 3 22 71 46 45 57
REMARK Flexibility Score: inf
ROOT
ATOM      1  C   UNL     1       9.677 -11.001   3.353  1.00  0.00     0.275 C 
ENDROOT
BRANCH   1   2
ATOM      2  O   UNL     1       9.239  -9.915   2.508  1.00  0.00    -0.458 OA
BRANCH   2   3
ATOM      3  C   UNL     1       8.093  -9.304   2.891  1.00  0.00     0.338 C 
ATOM      4  O   UNL     1       7.403  -9.598   3.855  1.00  0.00    -0.246 OA
BRANCH   3   5
ATOM      5  C   UNL     1       7.769  -8.156   2.012  1.00  0.00     0.060 A 
ATOM      6  C   UNL     1       6.789  -6.061   0.416  1.00  0.00     0.017 A 
ATOM      7  C   UNL     1       6.815  -5.929   1.803  1.00  0.00     0.013 A 
ATOM      8  C   UNL     1       7.316  -7.224  -0.170  1.00  0.00     0.013 A 
ATOM      9  C   UNL     1       7.267  -6.983   2.590  1.00  0.00     0.016 A 
ATOM     10  C   UNL     1       7.824  -8.264   0.623  1.00  0.00     0.016 A 
BRANCH   6  11
ATOM     11  C   UNL     1       6.067  -5.080  -0.368  1.00  0.00     0.134 A 
ATOM     12  C   UNL     1       5.462  -3.003  -0.865  1.00  0.00     0.128 A 
ATOM     13  C   UNL     1       4.657  -3.873  -1.593  1.00  0.00     0.051 A 
ATOM     14  O   UNL     1       6.342  -3.768  -0.130  1.00  0.00    -0.457 OA
ATOM     15  C   UNL     1       5.042  -5.192  -1.276  1.00  0.00     0.051 A 
BRANCH  12  16
ATOM     16  C   UNL     1       5.470  -1.581  -0.848  1.00  0.00     0.065 C 
ATOM     17  O   UNL     1       1.050   0.456   0.487  1.00  0.00    -0.261 OA
ATOM     18  C   UNL     1       2.182   0.203   0.125  1.00  0.00     0.289 C 
ATOM     19  N   UNL     1       3.134   1.111  -0.223  1.00  0.00    -0.307 N 
ATOM     20  S   UNL     1       2.833  -1.407  -0.051  1.00  0.00    -0.025 SA
ATOM     21  C   UNL     1       4.366   0.659  -0.618  1.00  0.00     0.120 C 
ATOM     22  H   UNL     1       2.940   2.076  -0.192  1.00  0.00     0.171 HD
ATOM     23  C   UNL     1       4.391  -0.835  -0.563  1.00  0.00     0.056 C 
ATOM     24  S   UNL     1       5.543   1.739  -1.097  1.00  0.00    -0.059 S 
ENDBRANCH  12  16
ENDBRANCH   6  11
ENDBRANCH   3   5
ENDBRANCH   2   3
ENDBRANCH   1   2
BRANCH   1  25
ATOM     25  C   UNL     1      10.790 -10.565   4.309  1.00  0.00     0.275 C 
BRANCH  25  26
ATOM     26  O   UNL     1      10.288  -9.676   5.325  1.00  0.00    -0.458 OA
BRANCH  26  27
ATOM     27  C   UNL     1      10.527  -8.366   5.096  1.00  0.00     0.338 C 
ATOM     28  O   UNL     1      11.128  -7.873   4.156  1.00  0.00    -0.246 OA
BRANCH  27  29
ATOM     29  C   UNL     1       9.870  -7.533   6.112  1.00  0.00     0.060 A 
ATOM     30  C   UNL     1       8.534  -7.219   5.916  1.00  0.00     0.016 A 
ATOM     31  C   UNL     1      10.603  -6.875   7.094  1.00  0.00     0.016 A 
ATOM     32  C   UNL     1       7.967  -6.130   6.564  1.00  0.00     0.010 A 
ATOM     33  C   UNL     1       9.978  -5.888   7.867  1.00  0.00     0.010 A 
ATOM     34  C   UNL     1       8.666  -5.465   7.578  1.00  0.00    -0.014 A 
BRANCH  34  35
ATOM     35  C   UNL     1       8.021  -4.340   8.318  1.00  0.00     0.031 A 
ATOM     36  C   UNL     1       8.701  -2.997   8.422  1.00  0.00     0.074 A 
ATOM     37  C   UNL     1       6.813  -4.515   8.895  1.00  0.00     0.049 A 
ATOM     38  N   UNL     1       8.391  -1.966   9.168  1.00  0.00    -0.248 NA
ATOM     39  C   UNL     1       9.898  -2.791   7.590  1.00  0.00     0.031 C 
ATOM     40  C   UNL     1       6.011  -5.741   8.838  1.00  0.00     0.029 A 
ATOM     41  N   UNL     1       6.040  -3.659   9.642  1.00  0.00    -0.354 N 
ATOM     42  C   UNL     1       9.380  -1.016   8.939  1.00  0.00     0.074 A 
ATOM     43  C   UNL     1      10.310  -1.598   7.995  1.00  0.00     0.031 C 
ATOM     44  C   UNL     1       4.849  -5.544   9.473  1.00  0.00     0.029 A 
ATOM     45  C   UNL     1       4.868  -4.224  10.086  1.00  0.00     0.049 A 
ATOM     46  H   UNL     1       6.301  -2.730   9.840  1.00  0.00     0.167 HD
ATOM     47  C   UNL     1       9.499   0.227   9.467  1.00  0.00     0.037 A 
ATOM     48  C   UNL     1       3.935  -3.765  10.940  1.00  0.00     0.037 A 
ATOM     49  C   UNL     1       8.544   0.814  10.375  1.00  0.00     0.049 A 
ATOM     50  C   UNL     1       4.125  -2.415  11.565  1.00  0.00     0.074 A 
ATOM     51  C   UNL     1       8.565   2.071  10.954  1.00  0.00     0.029 A 
ATOM     52  N   UNL     1       7.394   0.186  10.829  1.00  0.00    -0.354 N 
ATOM     53  N   UNL     1       5.085  -1.544  11.373  1.00  0.00    -0.248 NA
ATOM     54  C   UNL     1       3.111  -1.990  12.539  1.00  0.00     0.031 C 
ATOM     55  C   UNL     1       7.458   2.183  11.801  1.00  0.00     0.029 A 
ATOM     56  C   UNL     1       6.711   1.020  11.700  1.00  0.00     0.049 A 
ATOM     57  H   UNL     1       7.104  -0.719  10.570  1.00  0.00     0.167 HD
ATOM     58  C   UNL     1       4.778  -0.458  12.180  1.00  0.00     0.074 A 
ATOM     59  C   UNL     1       3.533  -0.774  12.850  1.00  0.00     0.031 C 
ATOM     60  C   UNL     1       5.467   0.697  12.352  1.00  0.00     0.037 A 
BRANCH  47  61
ATOM     61  C   UNL     1      10.722   1.027   9.111  1.00  0.00     0.057 A 
ATOM     62  C   UNL     1      10.928   1.553   7.829  1.00  0.00     0.134 A 
ATOM     63  C   UNL     1      11.691   1.310  10.084  1.00  0.00     0.134 A 
ATOM     64  F   UNL     1      10.047   1.315   6.846  1.00  0.00    -0.206 F 
ATOM     65  C   UNL     1      12.065   2.305   7.521  1.00  0.00     0.040 A 
ATOM     66  C   UNL     1      12.815   2.087   9.797  1.00  0.00     0.040 A 
ATOM     67  F   UNL     1      11.555   0.849  11.336  1.00  0.00    -0.206 F 
ATOM     68  C   UNL     1      13.009   2.580   8.509  1.00  0.00     0.006 A 
ENDBRANCH  47  61
BRANCH  48  69
ATOM     69  C   UNL     1       2.764  -4.611  11.290  1.00  0.00     0.057 A 
ATOM     70  C   UNL     1       1.467  -4.241  10.917  1.00  0.00     0.134 A 
ATOM     71  C   UNL     1       2.910  -5.808  12.004  1.00  0.00     0.134 A 
ATOM     72  F   UNL     1       1.257  -3.097  10.249  1.00  0.00    -0.206 F 
ATOM     73  C   UNL     1       0.358  -5.020  11.255  1.00  0.00     0.040 A 
ATOM     74  C   UNL     1       1.815  -6.614  12.318  1.00  0.00     0.040 A 
ATOM     75  F   UNL     1       4.126  -6.224  12.388  1.00  0.00    -0.206 F 
ATOM     76  C   UNL     1       0.533  -6.214  11.951  1.00  0.00     0.006 A 
ENDBRANCH  48  69
BRANCH  60  77
ATOM     77  C   UNL     1       4.860   1.725  13.262  1.00  0.00     0.057 A 
ATOM     78  C   UNL     1       4.801   1.548  14.650  1.00  0.00     0.134 A 
ATOM     79  C   UNL     1       4.348   2.920  12.739  1.00  0.00     0.134 A 
ATOM     80  F   UNL     1       5.258   0.419  15.213  1.00  0.00    -0.206 F 
ATOM     81  C   UNL     1       4.229   2.512  15.483  1.00  0.00     0.040 A 
ATOM     82  C   UNL     1       3.804   3.904  13.565  1.00  0.00     0.040 A 
ATOM     83  F   UNL     1       4.380   3.155  11.419  1.00  0.00    -0.206 F 
ATOM     84  C   UNL     1       3.736   3.697  14.941  1.00  0.00     0.006 A 
ENDBRANCH  60  77
ENDBRANCH  34  35
ENDBRANCH  27  29
ENDBRANCH  26  27
ENDBRANCH  25  26
ENDBRANCH   1  25
TORSDOF 13
