REMARK SMILES Cn1c(=O)c2c(nc(Nc3cccc(Cl)c3Cl)n2CC(=O)OCCOC(=O)c2ccc(-c3c4nc(c(-c5c(F)cccc5F)c5ccc([nH]5)c(-c5c(F)cccc5F)c5nc(c(-c6c(F)cccc6F)c6ccc3[nH]6)C=C5)C=C4)cc2)n(C)c1=O
REMARK SMILES IDX 23 1 22 2 20 3 21 4 19 5 18 6 1 7 2 8 3 9 84 10 4 11 5 12
REMARK SMILES IDX 82 13 85 14 6 15 83 16 7 17 8 18 9 19 10 21 11 22 16 23
REMARK SMILES IDX 12 24 14 25 17 26 13 27 15 28 24 29 25 30 26 31 27 32 28 33
REMARK SMILES IDX 29 34 81 35 30 36 80 37 31 38 32 39 33 40 74 41 34 42 79 43
REMARK SMILES IDX 73 44 75 45 35 46 78 47 72 48 71 49 36 51 62 52 45 53 61 54
REMARK SMILES IDX 46 55 49 56 60 57 76 58 47 59 48 60 59 62 77 63 50 64 37 65
REMARK SMILES IDX 38 66 43 67 39 68 40 69 42 70 44 71 41 72 63 73 64 74 69 75
REMARK SMILES IDX 65 76 66 77 68 78 70 79 67 80 51 81 52 82 57 83 53 84 54 85
REMARK SMILES IDX 56 86 58 87 55 88
REMARK H PARENT 9 20 75 50 49 61
REMARK Flexibility Score: inf
ROOT
ATOM      1  C   UNL     1       1.974   2.926   6.235  1.00  0.00     0.274 C 
ENDROOT
BRANCH   1   2
ATOM      2  O   UNL     1       1.025   1.829   6.153  1.00  0.00    -0.461 OA
BRANCH   2   3
ATOM      3  C   UNL     1      -0.252   2.199   5.875  1.00  0.00     0.326 C 
ATOM      4  O   UNL     1      -0.650   3.361   5.987  1.00  0.00    -0.250 OA
BRANCH   3   5
ATOM      5  C   UNL     1      -1.192   1.116   5.403  1.00  0.00     0.248 C 
BRANCH   5   6
ATOM      6  N   UNL     1      -0.736  -0.224   5.028  1.00  0.00    -0.293 N 
ATOM      7  C   UNL     1       0.886  -0.070   0.317  1.00  0.00     0.159 C 
ATOM      8  N   UNL     1       0.476  -0.721   1.548  1.00  0.00    -0.261 N 
ATOM      9  C   UNL     1      -0.412  -0.095   2.430  1.00  0.00     0.282 A 
ATOM     10  C   UNL     1       0.767  -2.080   1.637  1.00  0.00     0.332 A 
ATOM     11  O   UNL     1      -1.240   0.735   2.083  1.00  0.00    -0.267 OA
ATOM     12  C   UNL     1      -0.390  -0.661   3.749  1.00  0.00     0.154 A 
ATOM     13  N   UNL     1       0.436  -2.713   2.832  1.00  0.00    -0.279 N 
ATOM     14  O   UNL     1       1.260  -2.690   0.683  1.00  0.00    -0.247 OA
ATOM     15  C   UNL     1      -0.033  -1.964   3.891  1.00  0.00     0.170 A 
ATOM     16  C   UNL     1       0.595  -4.143   2.947  1.00  0.00     0.157 C 
ATOM     17  N   UNL     1      -0.295  -2.418   5.136  1.00  0.00    -0.194 NA
ATOM     18  C   UNL     1      -0.791  -1.389   5.803  1.00  0.00     0.210 A 
BRANCH  18  19
ATOM     19  N   UNL     1      -1.242  -1.549   7.072  1.00  0.00    -0.324 N 
ATOM     20  H   UNL     1      -1.089  -2.450   7.439  1.00  0.00     0.170 HD
BRANCH  19  21
ATOM     21  C   UNL     1      -1.885  -0.673   7.963  1.00  0.00     0.061 A 
ATOM     22  C   UNL     1      -1.192  -0.335   9.136  1.00  0.00     0.028 A 
ATOM     23  C   UNL     1      -3.160  -0.104   7.742  1.00  0.00     0.083 A 
ATOM     24  C   UNL     1      -1.659   0.672   9.978  1.00  0.00     0.004 A 
ATOM     25  C   UNL     1      -3.595   0.952   8.557  1.00  0.00     0.061 A 
ATOM     26  Cl  UNL     1      -4.128  -0.648   6.403  1.00  0.00    -0.080 Cl
ATOM     27  C   UNL     1      -2.833   1.350   9.659  1.00  0.00     0.022 A 
ATOM     28  Cl  UNL     1      -5.015   1.875   8.202  1.00  0.00    -0.083 Cl
ENDBRANCH  19  21
ENDBRANCH  18  19
ENDBRANCH   5   6
ENDBRANCH   3   5
ENDBRANCH   2   3
ENDBRANCH   1   2
BRANCH   1  29
ATOM     29  C   UNL     1       2.536   3.257   4.852  1.00  0.00     0.275 C 
BRANCH  29  30
ATOM     30  O   UNL     1       1.587   3.991   4.056  1.00  0.00    -0.458 OA
BRANCH  30  31
ATOM     31  C   UNL     1       0.777   3.195   3.331  1.00  0.00     0.338 C 
ATOM     32  O   UNL     1       0.685   1.968   3.484  1.00  0.00    -0.246 OA
BRANCH  31  33
ATOM     33  C   UNL     1       0.325   3.815   2.103  1.00  0.00     0.060 A 
ATOM     34  C   UNL     1      -0.780   3.353   1.382  1.00  0.00     0.016 A 
ATOM     35  C   UNL     1       1.377   4.398   1.417  1.00  0.00     0.016 A 
ATOM     36  C   UNL     1      -0.582   3.144  -0.003  1.00  0.00     0.010 A 
ATOM     37  C   UNL     1       1.226   4.612   0.080  1.00  0.00     0.010 A 
ATOM     38  C   UNL     1       0.635   3.579  -0.623  1.00  0.00    -0.014 A 
BRANCH  38  39
ATOM     39  C   UNL     1       0.900   3.671  -2.114  1.00  0.00     0.031 A 
ATOM     40  C   UNL     1      -0.407   4.405  -2.582  1.00  0.00     0.074 A 
ATOM     41  C   UNL     1       2.064   3.306  -2.850  1.00  0.00     0.049 A 
ATOM     42  N   UNL     1      -1.442   3.786  -3.065  1.00  0.00    -0.248 NA
ATOM     43  C   UNL     1      -0.868   5.757  -2.087  1.00  0.00     0.031 C 
ATOM     44  C   UNL     1       3.389   2.633  -2.517  1.00  0.00     0.029 A 
ATOM     45  N   UNL     1       2.329   3.430  -4.240  1.00  0.00    -0.354 N 
ATOM     46  C   UNL     1      -2.379   4.769  -3.396  1.00  0.00     0.074 A 
ATOM     47  C   UNL     1      -2.126   5.863  -2.534  1.00  0.00     0.031 C 
ATOM     48  C   UNL     1       4.330   2.772  -3.518  1.00  0.00     0.029 A 
ATOM     49  C   UNL     1       3.726   3.405  -4.677  1.00  0.00     0.049 A 
ATOM     50  H   UNL     1       1.596   3.531  -4.890  1.00  0.00     0.167 HD
ATOM     51  C   UNL     1      -2.941   4.724  -4.633  1.00  0.00     0.037 A 
ATOM     52  C   UNL     1       4.260   3.565  -5.968  1.00  0.00     0.037 A 
ATOM     53  C   UNL     1      -2.726   3.397  -5.160  1.00  0.00     0.049 A 
ATOM     54  C   UNL     1       3.092   3.457  -6.883  1.00  0.00     0.074 A 
ATOM     55  C   UNL     1      -3.109   2.130  -4.774  1.00  0.00     0.029 A 
ATOM     56  N   UNL     1      -1.513   3.281  -5.781  1.00  0.00    -0.354 N 
ATOM     57  N   UNL     1       2.468   2.322  -7.039  1.00  0.00    -0.248 NA
ATOM     58  C   UNL     1       2.307   4.686  -6.969  1.00  0.00     0.031 C 
ATOM     59  C   UNL     1      -1.957   1.306  -4.952  1.00  0.00     0.029 A 
ATOM     60  C   UNL     1      -0.982   2.036  -5.623  1.00  0.00     0.049 A 
ATOM     61  H   UNL     1      -1.076   4.008  -6.281  1.00  0.00     0.167 HD
ATOM     62  C   UNL     1       1.164   2.635  -6.703  1.00  0.00     0.074 A 
ATOM     63  C   UNL     1       1.134   4.122  -6.654  1.00  0.00     0.031 C 
ATOM     64  C   UNL     1       0.338   1.719  -6.102  1.00  0.00     0.037 A 
BRANCH  51  65
ATOM     65  C   UNL     1      -3.113   5.917  -5.556  1.00  0.00     0.057 A 
ATOM     66  C   UNL     1      -3.757   5.694  -6.787  1.00  0.00     0.134 A 
ATOM     67  C   UNL     1      -2.452   7.161  -5.450  1.00  0.00     0.134 A 
ATOM     68  F   UNL     1      -4.387   4.534  -7.026  1.00  0.00    -0.206 F 
ATOM     69  C   UNL     1      -3.725   6.617  -7.839  1.00  0.00     0.040 A 
ATOM     70  C   UNL     1      -2.451   8.112  -6.483  1.00  0.00     0.040 A 
ATOM     71  F   UNL     1      -1.704   7.491  -4.391  1.00  0.00    -0.206 F 
ATOM     72  C   UNL     1      -3.075   7.833  -7.690  1.00  0.00     0.006 A 
ENDBRANCH  51  65
BRANCH  52  73
ATOM     73  C   UNL     1       5.483   4.344  -6.494  1.00  0.00     0.057 A 
ATOM     74  C   UNL     1       5.971   4.412  -7.840  1.00  0.00     0.134 A 
ATOM     75  C   UNL     1       5.992   5.350  -5.669  1.00  0.00     0.134 A 
ATOM     76  F   UNL     1       5.579   3.528  -8.773  1.00  0.00    -0.206 F 
ATOM     77  C   UNL     1       6.857   5.432  -8.299  1.00  0.00     0.040 A 
ATOM     78  C   UNL     1       6.845   6.377  -6.117  1.00  0.00     0.040 A 
ATOM     79  F   UNL     1       5.595   5.423  -4.394  1.00  0.00    -0.206 F 
ATOM     80  C   UNL     1       7.272   6.438  -7.436  1.00  0.00     0.006 A 
ENDBRANCH  52  73
BRANCH  64  81
ATOM     81  C   UNL     1       0.770   0.277  -5.940  1.00  0.00     0.057 A 
ATOM     82  C   UNL     1       1.640  -0.243  -4.962  1.00  0.00     0.134 A 
ATOM     83  C   UNL     1       0.065  -0.665  -6.690  1.00  0.00     0.134 A 
ATOM     84  F   UNL     1       2.233   0.552  -4.064  1.00  0.00    -0.206 F 
ATOM     85  C   UNL     1       1.855  -1.625  -4.806  1.00  0.00     0.040 A 
ATOM     86  C   UNL     1       0.232  -2.039  -6.517  1.00  0.00     0.040 A 
ATOM     87  F   UNL     1      -0.881  -0.256  -7.549  1.00  0.00    -0.206 F 
ATOM     88  C   UNL     1       1.151  -2.528  -5.596  1.00  0.00     0.006 A 
ENDBRANCH  64  81
ENDBRANCH  38  39
ENDBRANCH  31  33
ENDBRANCH  30  31
ENDBRANCH  29  30
ENDBRANCH   1  29
TORSDOF 14
