REMARK SMILES COc1ccc2c(c1)c(CC(=O)OCCOC(=O)c1ccc(-c3c4nc(c(-c5c(F)cccc5F)c5ccc([nH]5)c(-c5c(F)cccc5F)c5nc(c(-c6c(F)cccc6F)c6ccc3[nH]6)C=C5)C=C4)cc1)c(C)n2Cc1ccn(C(F)F)c(=O)c1
REMARK SMILES IDX 14 1 13 2 11 3 12 4 10 5 9 6 3 7 4 8 8 9 5 10 7 11 6 12
REMARK SMILES IDX 75 13 73 14 74 15 2 16 1 17 76 18 77 19 78 20 86 21 79 22
REMARK SMILES IDX 84 23 80 24 85 25 81 26 82 27 83 28 15 29 16 30 17 31 18 32
REMARK SMILES IDX 19 33 20 34 72 35 21 36 71 37 22 38 23 39 24 40 65 41 25 42
REMARK SMILES IDX 70 43 64 44 66 45 26 46 69 47 63 48 62 49 27 51 53 52 36 53
REMARK SMILES IDX 52 54 37 55 40 56 51 57 67 58 38 59 39 60 50 62 68 63 41 64
REMARK SMILES IDX 28 65 29 66 34 67 30 68 31 69 33 70 35 71 32 72 54 73 55 74
REMARK SMILES IDX 60 75 56 76 57 77 59 78 61 79 58 80 42 81 43 82 48 83 44 84
REMARK SMILES IDX 45 85 47 86 49 87 46 88
REMARK H PARENT 66 50 40 61
REMARK Flexibility Score: inf
ROOT
ATOM      1  C   UNL     1      -1.371   6.816   1.911  1.00  0.00     0.274 C 
ENDROOT
BRANCH   1   2
ATOM      2  O   UNL     1      -0.831   5.923   2.911  1.00  0.00    -0.462 OA
BRANCH   2   3
ATOM      3  C   UNL     1      -1.702   5.545   3.874  1.00  0.00     0.310 C 
ATOM      4  O   UNL     1      -2.866   5.937   3.939  1.00  0.00    -0.252 OA
BRANCH   3   5
ATOM      5  C   UNL     1      -1.121   4.716   4.978  1.00  0.00     0.160 C 
BRANCH   5   6
ATOM      6  C   UNL     1       0.212   4.032   4.891  1.00  0.00    -0.008 A 
ATOM      7  C   UNL     1       1.440   1.806   1.957  1.00  0.00     0.119 A 
ATOM      8  C   UNL     1       2.709   1.588   2.463  1.00  0.00     0.048 A 
ATOM      9  C   UNL     1       0.581   2.695   2.626  1.00  0.00     0.057 A 
ATOM     10  C   UNL     1       3.101   2.179   3.672  1.00  0.00     0.031 A 
ATOM     11  C   UNL     1       0.887   3.228   3.901  1.00  0.00     0.007 A 
ATOM     12  C   UNL     1       2.162   2.931   4.407  1.00  0.00     0.049 A 
ATOM     13  N   UNL     1       2.242   3.533   5.648  1.00  0.00    -0.340 N 
ATOM     14  C   UNL     1       0.978   3.898   6.046  1.00  0.00     0.020 A 
ATOM     15  C   UNL     1       0.553   4.168   7.451  1.00  0.00     0.065 C 
BRANCH   7  16
ATOM     16  O   UNL     1       0.943   1.268   0.800  1.00  0.00    -0.497 OA
ATOM     17  C   UNL     1       1.473   0.017   0.370  1.00  0.00     0.278 C 
ENDBRANCH   7  16
BRANCH  13  18
ATOM     18  C   UNL     1       3.469   3.768   6.409  1.00  0.00     0.158 C 
BRANCH  18  19
ATOM     19  C   UNL     1       3.867   5.230   6.373  1.00  0.00    -0.021 A 
ATOM     20  C   UNL     1       3.169   6.171   7.228  1.00  0.00     0.024 A 
ATOM     21  C   UNL     1       4.829   5.697   5.559  1.00  0.00     0.077 A 
ATOM     22  C   UNL     1       3.345   7.488   7.085  1.00  0.00     0.095 A 
ATOM     23  C   UNL     1       5.117   7.160   5.468  1.00  0.00     0.255 A 
ATOM     24  N   UNL     1       4.274   7.986   6.196  1.00  0.00    -0.258 N 
ATOM     25  O   UNL     1       6.048   7.530   4.761  1.00  0.00    -0.269 OA
BRANCH  24  26
ATOM     26  C   UNL     1       4.466   9.407   6.071  1.00  0.00     0.451 C 
ATOM     27  F   UNL     1       5.651   9.781   6.610  1.00  0.00    -0.185 F 
ATOM     28  F   UNL     1       4.449   9.799   4.775  1.00  0.00    -0.185 F 
ENDBRANCH  24  26
ENDBRANCH  18  19
ENDBRANCH  13  18
ENDBRANCH   5   6
ENDBRANCH   3   5
ENDBRANCH   2   3
ENDBRANCH   1   2
BRANCH   1  29
ATOM     29  C   UNL     1      -1.716   6.042   0.637  1.00  0.00     0.275 C 
BRANCH  29  30
ATOM     30  O   UNL     1      -2.875   5.231   0.893  1.00  0.00    -0.458 OA
BRANCH  30  31
ATOM     31  C   UNL     1      -2.711   3.885   0.867  1.00  0.00     0.338 C 
ATOM     32  O   UNL     1      -1.834   3.255   0.303  1.00  0.00    -0.246 OA
BRANCH  31  33
ATOM     33  C   UNL     1      -3.583   3.366   1.937  1.00  0.00     0.060 A 
ATOM     34  C   UNL     1      -4.900   3.811   2.049  1.00  0.00     0.016 A 
ATOM     35  C   UNL     1      -2.981   2.661   2.980  1.00  0.00     0.016 A 
ATOM     36  C   UNL     1      -5.540   3.709   3.278  1.00  0.00     0.010 A 
ATOM     37  C   UNL     1      -3.594   2.617   4.216  1.00  0.00     0.010 A 
ATOM     38  C   UNL     1      -4.838   3.210   4.383  1.00  0.00    -0.014 A 
BRANCH  38  39
ATOM     39  C   UNL     1      -5.509   3.040   5.660  1.00  0.00     0.031 A 
ATOM     40  C   UNL     1      -6.245   1.759   5.698  1.00  0.00     0.074 A 
ATOM     41  C   UNL     1      -5.403   3.806   6.762  1.00  0.00     0.049 A 
ATOM     42  N   UNL     1      -7.502   1.594   5.464  1.00  0.00    -0.248 NA
ATOM     43  C   UNL     1      -5.474   0.509   5.776  1.00  0.00     0.031 C 
ATOM     44  C   UNL     1      -4.485   4.905   7.053  1.00  0.00     0.029 A 
ATOM     45  N   UNL     1      -6.123   3.696   7.917  1.00  0.00    -0.354 N 
ATOM     46  C   UNL     1      -7.722   0.229   5.583  1.00  0.00     0.074 A 
ATOM     47  C   UNL     1      -6.426  -0.389   5.528  1.00  0.00     0.031 C 
ATOM     48  C   UNL     1      -4.586   5.244   8.364  1.00  0.00     0.029 A 
ATOM     49  C   UNL     1      -5.679   4.493   8.964  1.00  0.00     0.049 A 
ATOM     50  H   UNL     1      -6.899   3.097   8.001  1.00  0.00     0.167 HD
ATOM     51  C   UNL     1      -8.925  -0.235   6.013  1.00  0.00     0.037 A 
ATOM     52  C   UNL     1      -6.183   4.518  10.226  1.00  0.00     0.037 A 
ATOM     53  C   UNL     1      -9.930   0.805   5.927  1.00  0.00     0.049 A 
ATOM     54  C   UNL     1      -7.552   3.948  10.173  1.00  0.00     0.074 A 
ATOM     55  C   UNL     1     -10.442   1.594   4.914  1.00  0.00     0.029 A 
ATOM     56  N   UNL     1     -10.284   1.433   7.098  1.00  0.00    -0.354 N 
ATOM     57  N   UNL     1      -8.566   4.545   9.616  1.00  0.00    -0.248 NA
ATOM     58  C   UNL     1      -7.705   2.514  10.367  1.00  0.00     0.031 C 
ATOM     59  C   UNL     1     -10.668   2.872   5.511  1.00  0.00     0.029 A 
ATOM     60  C   UNL     1     -10.333   2.780   6.862  1.00  0.00     0.049 A 
ATOM     61  H   UNL     1     -10.471   0.990   7.957  1.00  0.00     0.167 HD
ATOM     62  C   UNL     1      -9.269   3.530   8.985  1.00  0.00     0.074 A 
ATOM     63  C   UNL     1      -8.757   2.294   9.573  1.00  0.00     0.031 C 
ATOM     64  C   UNL     1      -9.988   3.777   7.850  1.00  0.00     0.037 A 
BRANCH  51  65
ATOM     65  C   UNL     1      -9.088  -1.429   6.931  1.00  0.00     0.057 A 
ATOM     66  C   UNL     1      -8.058  -2.028   7.687  1.00  0.00     0.134 A 
ATOM     67  C   UNL     1     -10.391  -1.777   7.331  1.00  0.00     0.134 A 
ATOM     68  F   UNL     1      -6.759  -1.826   7.452  1.00  0.00    -0.206 F 
ATOM     69  C   UNL     1      -8.306  -2.817   8.813  1.00  0.00     0.040 A 
ATOM     70  C   UNL     1     -10.649  -2.526   8.484  1.00  0.00     0.040 A 
ATOM     71  F   UNL     1     -11.463  -1.310   6.671  1.00  0.00    -0.206 F 
ATOM     72  C   UNL     1      -9.603  -3.028   9.244  1.00  0.00     0.006 A 
ENDBRANCH  51  65
BRANCH  52  73
ATOM     73  C   UNL     1      -5.519   4.801  11.520  1.00  0.00     0.057 A 
ATOM     74  C   UNL     1      -4.174   4.457  11.729  1.00  0.00     0.134 A 
ATOM     75  C   UNL     1      -6.255   5.134  12.668  1.00  0.00     0.134 A 
ATOM     76  F   UNL     1      -3.401   4.054  10.711  1.00  0.00    -0.206 F 
ATOM     77  C   UNL     1      -3.600   4.423  13.005  1.00  0.00     0.040 A 
ATOM     78  C   UNL     1      -5.693   5.104  13.952  1.00  0.00     0.040 A 
ATOM     79  F   UNL     1      -7.559   5.435  12.580  1.00  0.00    -0.206 F 
ATOM     80  C   UNL     1      -4.363   4.734  14.125  1.00  0.00     0.006 A 
ENDBRANCH  52  73
BRANCH  64  81
ATOM     81  C   UNL     1     -10.239   5.216   7.490  1.00  0.00     0.057 A 
ATOM     82  C   UNL     1     -11.561   5.651   7.349  1.00  0.00     0.134 A 
ATOM     83  C   UNL     1      -9.231   6.142   7.178  1.00  0.00     0.134 A 
ATOM     84  F   UNL     1     -12.579   4.806   7.581  1.00  0.00    -0.206 F 
ATOM     85  C   UNL     1     -11.872   6.947   6.933  1.00  0.00     0.040 A 
ATOM     86  C   UNL     1      -9.528   7.453   6.793  1.00  0.00     0.040 A 
ATOM     87  F   UNL     1      -7.938   5.793   7.192  1.00  0.00    -0.206 F 
ATOM     88  C   UNL     1     -10.853   7.858   6.666  1.00  0.00     0.006 A 
ENDBRANCH  64  81
ENDBRANCH  38  39
ENDBRANCH  31  33
ENDBRANCH  30  31
ENDBRANCH  29  30
ENDBRANCH   1  29
TORSDOF 16
