REMARK SMILES CC1(C)CCC[C@H]1NS(=O)(=O)c1cccc(C(=O)OCCOC(=O)c2ccc(-c3c4nc(c(-c5c(F)cccc5F)c5ccc([nH]5)c(-c5c(F)cccc5F)c5nc(c(-c6c(F)cccc6F)c6ccc3[nH]6)C=C5)C=C4)cc2)c1
REMARK SMILES IDX 20 1 19 2 17 3 18 4 16 5 12 6 13 7 79 8 14 9 15 10 9 11
REMARK SMILES IDX 10 12 11 13 8 14 7 16 1 17 2 18 3 19 4 20 5 21 6 22 21 23
REMARK SMILES IDX 22 24 23 25 24 26 25 27 26 28 78 29 27 30 77 31 28 32 29 33
REMARK SMILES IDX 30 34 71 35 31 36 76 37 70 38 72 39 32 40 75 41 69 42 68 43
REMARK SMILES IDX 33 45 59 46 42 47 58 48 43 49 46 50 57 51 73 52 44 53 45 54
REMARK SMILES IDX 56 56 74 57 47 58 34 59 35 60 40 61 36 62 37 63 39 64 41 65
REMARK SMILES IDX 38 66 60 67 61 68 66 69 62 70 63 71 65 72 67 73 64 74 48 75
REMARK SMILES IDX 49 76 54 77 50 78 51 79 53 80 55 81 52 82
REMARK H PARENT 8 15 72 44 46 55
REMARK Flexibility Score: inf
ROOT
ATOM      1  C   UNL     1      -3.292   9.014   1.916  1.00  0.00     0.275 C 
ENDROOT
BRANCH   1   2
ATOM      2  O   UNL     1      -2.690   7.719   1.714  1.00  0.00    -0.458 OA
BRANCH   2   3
ATOM      3  C   UNL     1      -2.449   7.356   0.429  1.00  0.00     0.338 C 
ATOM      4  O   UNL     1      -2.770   7.960  -0.580  1.00  0.00    -0.246 OA
BRANCH   3   5
ATOM      5  C   UNL     1      -1.560   6.170   0.420  1.00  0.00     0.061 A 
ATOM      6  C   UNL     1      -0.759   4.106   1.369  1.00  0.00     0.083 A 
ATOM      7  C   UNL     1       0.303   4.082   0.462  1.00  0.00     0.022 A 
ATOM      8  C   UNL     1      -1.668   5.170   1.384  1.00  0.00     0.037 A 
ATOM      9  C   UNL     1       0.372   5.049  -0.535  1.00  0.00     0.002 A 
ATOM     10  C   UNL     1      -0.584   6.063  -0.581  1.00  0.00     0.016 A 
BRANCH   6  11
ATOM     11  S   UNL     1      -1.133   2.709   2.391  1.00  0.00     0.240 S 
ATOM     12  O   UNL     1      -2.553   2.461   2.266  1.00  0.00    -0.207 OA
ATOM     13  O   UNL     1      -0.519   2.945   3.675  1.00  0.00    -0.207 OA
BRANCH  11  14
ATOM     14  N   UNL     1      -0.318   1.409   1.722  1.00  0.00    -0.208 NA
ATOM     15  H   UNL     1       0.671   1.655   1.759  1.00  0.00     0.141 HD
BRANCH  14  16
ATOM     16  C   UNL     1      -0.548   0.896   0.362  1.00  0.00     0.075 C 
ATOM     17  C   UNL     1       1.905   0.025   0.653  1.00  0.00     0.013 C 
ATOM     18  C   UNL     1       0.530  -0.166  -0.009  1.00  0.00    -0.019 C 
ATOM     19  C   UNL     1       0.752  -0.183  -1.536  1.00  0.00     0.013 C 
ATOM     20  C   UNL     1      -0.124  -1.473   0.464  1.00  0.00     0.008 C 
ATOM     21  C   UNL     1      -1.592  -1.319   0.097  1.00  0.00     0.002 C 
ATOM     22  C   UNL     1      -1.892   0.171   0.224  1.00  0.00     0.020 C 
ENDBRANCH  14  16
ENDBRANCH  11  14
ENDBRANCH   6  11
ENDBRANCH   3   5
ENDBRANCH   2   3
ENDBRANCH   1   2
BRANCH   1  23
ATOM     23  C   UNL     1      -2.213  10.031   2.293  1.00  0.00     0.275 C 
BRANCH  23  24
ATOM     24  O   UNL     1      -1.366  10.245   1.151  1.00  0.00    -0.458 OA
BRANCH  24  25
ATOM     25  C   UNL     1      -0.045  10.390   1.400  1.00  0.00     0.338 C 
ATOM     26  O   UNL     1       0.507  10.441   2.484  1.00  0.00    -0.246 OA
BRANCH  25  27
ATOM     27  C   UNL     1       0.668  10.489   0.112  1.00  0.00     0.060 A 
ATOM     28  C   UNL     1       0.436   9.540  -0.882  1.00  0.00     0.016 A 
ATOM     29  C   UNL     1       1.621  11.485  -0.089  1.00  0.00     0.016 A 
ATOM     30  C   UNL     1       1.194   9.536  -2.051  1.00  0.00     0.010 A 
ATOM     31  C   UNL     1       2.321  11.535  -1.300  1.00  0.00     0.010 A 
ATOM     32  C   UNL     1       2.137  10.545  -2.284  1.00  0.00    -0.014 A 
BRANCH  32  33
ATOM     33  C   UNL     1       2.962  10.544  -3.524  1.00  0.00     0.031 A 
ATOM     34  C   UNL     1       4.462  10.464  -3.426  1.00  0.00     0.074 A 
ATOM     35  C   UNL     1       2.385  10.606  -4.741  1.00  0.00     0.049 A 
ATOM     36  N   UNL     1       5.365  10.649  -4.356  1.00  0.00    -0.248 NA
ATOM     37  C   UNL     1       5.021  10.146  -2.103  1.00  0.00     0.031 C 
ATOM     38  C   UNL     1       0.946  10.635  -5.002  1.00  0.00     0.029 A 
ATOM     39  N   UNL     1       2.949  10.651  -5.994  1.00  0.00    -0.354 N 
ATOM     40  C   UNL     1       6.594  10.537  -3.719  1.00  0.00     0.074 A 
ATOM     41  C   UNL     1       6.323  10.256  -2.325  1.00  0.00     0.031 C 
ATOM     42  C   UNL     1       0.739  10.658  -6.328  1.00  0.00     0.029 A 
ATOM     43  C   UNL     1       2.027  10.725  -7.010  1.00  0.00     0.049 A 
ATOM     44  H   UNL     1       3.921  10.632  -6.149  1.00  0.00     0.167 HD
ATOM     45  C   UNL     1       7.835  10.663  -4.245  1.00  0.00     0.037 A 
ATOM     46  C   UNL     1       2.195  10.871  -8.338  1.00  0.00     0.037 A 
ATOM     47  C   UNL     1       8.112  10.878  -5.641  1.00  0.00     0.049 A 
ATOM     48  C   UNL     1       3.580  11.015  -8.900  1.00  0.00     0.074 A 
ATOM     49  C   UNL     1       9.339  11.011  -6.268  1.00  0.00     0.029 A 
ATOM     50  N   UNL     1       7.146  10.966  -6.630  1.00  0.00    -0.354 N 
ATOM     51  N   UNL     1       4.731  10.987  -8.275  1.00  0.00    -0.248 NA
ATOM     52  C   UNL     1       3.687  11.241 -10.349  1.00  0.00     0.031 C 
ATOM     53  C   UNL     1       9.114  11.197  -7.636  1.00  0.00     0.029 A 
ATOM     54  C   UNL     1       7.749  11.153  -7.863  1.00  0.00     0.049 A 
ATOM     55  H   UNL     1       6.175  10.905  -6.479  1.00  0.00     0.167 HD
ATOM     56  C   UNL     1       5.697  11.191  -9.250  1.00  0.00     0.074 A 
ATOM     57  C   UNL     1       5.000  11.318 -10.514  1.00  0.00     0.031 C 
ATOM     58  C   UNL     1       7.042  11.276  -9.110  1.00  0.00     0.037 A 
BRANCH  45  59
ATOM     59  C   UNL     1       8.994  10.605  -3.297  1.00  0.00     0.057 A 
ATOM     60  C   UNL     1       9.455   9.399  -2.759  1.00  0.00     0.134 A 
ATOM     61  C   UNL     1       9.675  11.778  -2.943  1.00  0.00     0.134 A 
ATOM     62  F   UNL     1       8.834   8.245  -3.046  1.00  0.00    -0.206 F 
ATOM     63  C   UNL     1      10.545   9.362  -1.887  1.00  0.00     0.040 A 
ATOM     64  C   UNL     1      10.777  11.751  -2.088  1.00  0.00     0.040 A 
ATOM     65  F   UNL     1       9.282  12.966  -3.428  1.00  0.00    -0.206 F 
ATOM     66  C   UNL     1      11.213  10.540  -1.555  1.00  0.00     0.006 A 
ENDBRANCH  45  59
BRANCH  46  67
ATOM     67  C   UNL     1       1.011  10.928  -9.230  1.00  0.00     0.057 A 
ATOM     68  C   UNL     1       0.705   9.869 -10.091  1.00  0.00     0.134 A 
ATOM     69  C   UNL     1       0.160  12.040  -9.243  1.00  0.00     0.134 A 
ATOM     70  F   UNL     1       1.500   8.790 -10.141  1.00  0.00    -0.206 F 
ATOM     71  C   UNL     1      -0.404   9.913 -10.937  1.00  0.00     0.040 A 
ATOM     72  C   UNL     1      -0.965  12.088 -10.067  1.00  0.00     0.040 A 
ATOM     73  F   UNL     1       0.402  13.087  -8.441  1.00  0.00    -0.206 F 
ATOM     74  C   UNL     1      -1.247  11.023 -10.920  1.00  0.00     0.006 A 
ENDBRANCH  46  67
BRANCH  58  75
ATOM     75  C   UNL     1       7.844  11.502 -10.353  1.00  0.00     0.057 A 
ATOM     76  C   UNL     1       7.934  12.767 -10.945  1.00  0.00     0.134 A 
ATOM     77  C   UNL     1       8.558  10.453 -10.945  1.00  0.00     0.134 A 
ATOM     78  F   UNL     1       7.260  13.807 -10.431  1.00  0.00    -0.206 F 
ATOM     79  C   UNL     1       8.697  12.980 -12.094  1.00  0.00     0.040 A 
ATOM     80  C   UNL     1       9.338  10.657 -12.084  1.00  0.00     0.040 A 
ATOM     81  F   UNL     1       8.515   9.219 -10.421  1.00  0.00    -0.206 F 
ATOM     82  C   UNL     1       9.406  11.923 -12.663  1.00  0.00     0.006 A 
ENDBRANCH  58  75
ENDBRANCH  32  33
ENDBRANCH  25  27
ENDBRANCH  24  25
ENDBRANCH  23  24
ENDBRANCH   1  23
TORSDOF 14
