REMARK SMILES O=C(OCCOC(=O)[C@H]1CCCN(C(=O)C2CCN(S(=O)(=O)c3ccccc3)CC2)C1)c1ccc(-c2c3nc(c(-c4c(F)cccc4F)c4ccc([nH]4)c(-c4c(F)cccc4F)c4nc(c(-c5c(F)cccc5F)c5ccc2[nH]5)C=C4)C=C3)cc1
REMARK SMILES IDX 5 1 4 2 3 3 2 4 1 5 32 6 33 7 85 8 34 9 84 10 35 11 36 12
REMARK SMILES IDX 37 13 78 14 38 15 83 16 77 17 79 18 39 19 82 20 76 21 75 22
REMARK SMILES IDX 40 24 66 25 49 26 65 27 50 28 53 29 64 30 80 31 51 32 52 33
REMARK SMILES IDX 63 35 81 36 54 37 41 38 42 39 47 40 43 41 44 42 46 43 48 44
REMARK SMILES IDX 45 45 67 46 68 47 73 48 69 49 70 50 72 51 74 52 71 53 55 54
REMARK SMILES IDX 56 55 61 56 57 57 58 58 60 59 62 60 59 61 6 62 7 63 8 64
REMARK SMILES IDX 9 65 10 66 31 67 11 68 13 69 12 70 14 71 15 72 16 73 17 74
REMARK SMILES IDX 30 75 18 76 29 77 19 78 20 79 21 80 22 81 23 82 24 83 28 84
REMARK SMILES IDX 25 85 27 86 26 87
REMARK H PARENT 79 23 53 34
REMARK Flexibility Score: inf
ROOT
ATOM      1  C   UNL     1       2.006  -1.928  -4.595  1.00  0.00     0.274 C 
ENDROOT
BRANCH   1   2
ATOM      2  C   UNL     1       2.719  -0.579  -4.627  1.00  0.00     0.275 C 
BRANCH   2   3
ATOM      3  O   UNL     1       3.917  -0.535  -3.828  1.00  0.00    -0.458 OA
BRANCH   3   4
ATOM      4  C   UNL     1       4.083  -0.133  -2.544  1.00  0.00     0.338 C 
ATOM      5  O   UNL     1       5.215   0.144  -2.151  1.00  0.00    -0.246 OA
BRANCH   4   6
ATOM      6  C   UNL     1       2.993  -0.154  -1.516  1.00  0.00     0.060 A 
ATOM      7  C   UNL     1       1.663   0.218  -1.721  1.00  0.00     0.016 A 
ATOM      8  C   UNL     1       3.374  -0.538  -0.214  1.00  0.00     0.016 A 
ATOM      9  C   UNL     1       0.726   0.155  -0.678  1.00  0.00     0.010 A 
ATOM     10  C   UNL     1       2.442  -0.607   0.829  1.00  0.00     0.010 A 
ATOM     11  C   UNL     1       1.106  -0.256   0.604  1.00  0.00    -0.014 A 
BRANCH  11  12
ATOM     12  C   UNL     1       0.150  -0.181   1.738  1.00  0.00     0.031 A 
ATOM     13  C   UNL     1       0.254   0.982   2.683  1.00  0.00     0.074 A 
ATOM     14  C   UNL     1      -0.807  -1.113   1.914  1.00  0.00     0.049 A 
ATOM     15  N   UNL     1      -0.452   1.239   3.752  1.00  0.00    -0.248 NA
ATOM     16  C   UNL     1       1.264   2.005   2.364  1.00  0.00     0.031 C 
ATOM     17  C   UNL     1      -1.070  -2.229   1.012  1.00  0.00     0.029 A 
ATOM     18  N   UNL     1      -1.724  -1.288   2.924  1.00  0.00    -0.354 N 
ATOM     19  C   UNL     1      -0.024   2.486   4.187  1.00  0.00     0.074 A 
ATOM     20  C   UNL     1       1.066   2.891   3.329  1.00  0.00     0.031 C 
ATOM     21  C   UNL     1      -2.016  -3.021   1.544  1.00  0.00     0.029 A 
ATOM     22  C   UNL     1      -2.429  -2.470   2.830  1.00  0.00     0.049 A 
ATOM     23  H   UNL     1      -1.863  -0.633   3.645  1.00  0.00     0.167 HD
ATOM     24  C   UNL     1      -0.536   3.248   5.180  1.00  0.00     0.037 A 
ATOM     25  C   UNL     1      -3.274  -3.057   3.703  1.00  0.00     0.037 A 
ATOM     26  C   UNL     1      -1.603   2.827   6.045  1.00  0.00     0.049 A 
ATOM     27  C   UNL     1      -3.604  -2.312   4.973  1.00  0.00     0.074 A 
ATOM     28  C   UNL     1      -2.224   3.529   7.061  1.00  0.00     0.029 A 
ATOM     29  N   UNL     1      -2.191   1.573   6.002  1.00  0.00    -0.354 N 
ATOM     30  N   UNL     1      -3.248  -1.101   5.333  1.00  0.00    -0.248 NA
ATOM     31  C   UNL     1      -4.447  -3.002   5.962  1.00  0.00     0.031 C 
ATOM     32  C   UNL     1      -3.153   2.677   7.670  1.00  0.00     0.029 A 
ATOM     33  C   UNL     1      -3.130   1.458   7.010  1.00  0.00     0.049 A 
ATOM     34  H   UNL     1      -1.972   0.868   5.351  1.00  0.00     0.167 HD
ATOM     35  C   UNL     1      -3.887  -0.858   6.541  1.00  0.00     0.074 A 
ATOM     36  C   UNL     1      -4.626  -2.057   6.873  1.00  0.00     0.031 C 
ATOM     37  C   UNL     1      -3.880   0.265   7.299  1.00  0.00     0.037 A 
BRANCH  24  38
ATOM     38  C   UNL     1       0.039   4.619   5.358  1.00  0.00     0.057 A 
ATOM     39  C   UNL     1      -0.265   5.652   4.461  1.00  0.00     0.134 A 
ATOM     40  C   UNL     1       0.879   4.918   6.435  1.00  0.00     0.134 A 
ATOM     41  F   UNL     1      -1.053   5.422   3.400  1.00  0.00    -0.206 F 
ATOM     42  C   UNL     1       0.260   6.935   4.623  1.00  0.00     0.040 A 
ATOM     43  C   UNL     1       1.397   6.201   6.616  1.00  0.00     0.040 A 
ATOM     44  F   UNL     1       1.209   3.970   7.325  1.00  0.00    -0.206 F 
ATOM     45  C   UNL     1       1.090   7.213   5.707  1.00  0.00     0.006 A 
ENDBRANCH  24  38
BRANCH  25  46
ATOM     46  C   UNL     1      -3.780  -4.447   3.487  1.00  0.00     0.057 A 
ATOM     47  C   UNL     1      -5.138  -4.773   3.465  1.00  0.00     0.134 A 
ATOM     48  C   UNL     1      -2.883  -5.519   3.414  1.00  0.00     0.134 A 
ATOM     49  F   UNL     1      -6.066  -3.808   3.535  1.00  0.00    -0.206 F 
ATOM     50  C   UNL     1      -5.575  -6.104   3.440  1.00  0.00     0.040 A 
ATOM     51  C   UNL     1      -3.296  -6.850   3.370  1.00  0.00     0.040 A 
ATOM     52  F   UNL     1      -1.572  -5.277   3.381  1.00  0.00    -0.206 F 
ATOM     53  C   UNL     1      -4.652  -7.148   3.402  1.00  0.00     0.006 A 
ENDBRANCH  25  46
BRANCH  37  54
ATOM     54  C   UNL     1      -4.762   0.274   8.509  1.00  0.00     0.057 A 
ATOM     55  C   UNL     1      -4.413  -0.402   9.682  1.00  0.00     0.134 A 
ATOM     56  C   UNL     1      -5.958   1.002   8.504  1.00  0.00     0.134 A 
ATOM     57  F   UNL     1      -3.291  -1.135   9.736  1.00  0.00    -0.206 F 
ATOM     58  C   UNL     1      -5.232  -0.362  10.811  1.00  0.00     0.040 A 
ATOM     59  C   UNL     1      -6.774   1.068   9.633  1.00  0.00     0.040 A 
ATOM     60  F   UNL     1      -6.343   1.673   7.408  1.00  0.00    -0.206 F 
ATOM     61  C   UNL     1      -6.412   0.381  10.790  1.00  0.00     0.006 A 
ENDBRANCH  37  54
ENDBRANCH  11  12
ENDBRANCH   4   6
ENDBRANCH   3   4
ENDBRANCH   2   3
ENDBRANCH   1   2
BRANCH   1  62
ATOM     62  O   UNL     1       2.048  -2.489  -3.280  1.00  0.00    -0.462 OA
BRANCH  62  63
ATOM     63  C   UNL     1       2.902  -3.540  -3.088  1.00  0.00     0.310 C 
ATOM     64  O   UNL     1       3.506  -4.129  -3.970  1.00  0.00    -0.252 OA
BRANCH  63  65
ATOM     65  C   UNL     1       3.019  -3.821  -1.606  1.00  0.00     0.119 C 
ATOM     66  C   UNL     1       1.622  -4.021  -1.008  1.00  0.00     0.019 C 
ATOM     67  C   UNL     1       3.944  -5.004  -1.310  1.00  0.00     0.134 C 
ATOM     68  C   UNL     1       1.704  -4.404   0.460  1.00  0.00     0.022 C 
ATOM     69  N   UNL     1       3.929  -5.333   0.129  1.00  0.00    -0.342 N 
ATOM     70  C   UNL     1       2.602  -5.620   0.623  1.00  0.00     0.119 C 
BRANCH  69  71
ATOM     71  C   UNL     1       5.061  -5.149   0.899  1.00  0.00     0.225 C 
ATOM     72  O   UNL     1       6.027  -4.540   0.421  1.00  0.00    -0.275 OA
BRANCH  71  73
ATOM     73  C   UNL     1       5.210  -5.668   2.357  1.00  0.00     0.081 C 
ATOM     74  C   UNL     1       4.919  -7.128   2.664  1.00  0.00     0.030 C 
ATOM     75  C   UNL     1       4.722  -4.764   3.476  1.00  0.00     0.030 C 
ATOM     76  C   UNL     1       3.558  -7.460   3.255  1.00  0.00     0.103 C 
ATOM     77  C   UNL     1       3.294  -5.005   3.917  1.00  0.00     0.103 C 
ATOM     78  N   UNL     1       2.929  -6.427   4.156  1.00  0.00    -0.198 NA
BRANCH  78  79
ATOM     79  S   UNL     1       1.202  -6.726   4.202  1.00  0.00     0.243 S 
ATOM     80  O   UNL     1       0.691  -6.379   2.884  1.00  0.00    -0.207 OA
ATOM     81  O   UNL     1       1.032  -8.072   4.692  1.00  0.00    -0.207 OA
BRANCH  79  82
ATOM     82  C   UNL     1       0.461  -5.609   5.373  1.00  0.00     0.082 A 
ATOM     83  C   UNL     1      -0.284  -6.147   6.430  1.00  0.00     0.022 A 
ATOM     84  C   UNL     1       0.417  -4.230   5.129  1.00  0.00     0.022 A 
ATOM     85  C   UNL     1      -1.031  -5.304   7.257  1.00  0.00     0.001 A 
ATOM     86  C   UNL     1      -0.298  -3.389   5.982  1.00  0.00     0.001 A 
ATOM     87  C   UNL     1      -1.022  -3.926   7.044  1.00  0.00     0.000 A 
ENDBRANCH  79  82
ENDBRANCH  78  79
ENDBRANCH  71  73
ENDBRANCH  69  71
ENDBRANCH  63  65
ENDBRANCH  62  63
ENDBRANCH   1  62
TORSDOF 15
