REMARK SMILES COc1ccc(-c2nc(SCC(=O)OCCOC(=O)c3ccc(-c4c5nc(c(-c6c(F)cccc6F)c6ccc([nH]6)c(-c6c(F)cccc6F)c6nc(c(-c7c(F)cccc7F)c7ccc4[nH]7)C=C6)C=C5)cc3)cc(-c3ccncc3)n2)cc1
REMARK SMILES IDX 15 1 14 2 12 3 13 4 11 5 10 6 9 7 7 8 8 9 82 10 75 11 74 12
REMARK SMILES IDX 6 13 3 14 4 15 84 16 5 17 83 18 2 19 1 20 76 21 77 22 81 23
REMARK SMILES IDX 78 24 80 25 79 26 16 27 17 28 18 29 19 30 20 31 21 32 73 33
REMARK SMILES IDX 22 34 72 35 23 36 24 37 25 38 66 39 26 40 71 41 65 42 67 43
REMARK SMILES IDX 27 44 70 45 64 46 63 47 28 49 54 50 37 51 53 52 38 53 41 54
REMARK SMILES IDX 52 55 68 56 39 57 40 58 51 60 69 61 42 62 29 63 30 64 35 65
REMARK SMILES IDX 31 66 32 67 34 68 36 69 33 70 55 71 56 72 61 73 57 74 58 75
REMARK SMILES IDX 60 76 62 77 59 78 43 79 44 80 49 81 45 82 46 83 48 84 50 85
REMARK SMILES IDX 47 86
REMARK H PARENT 67 48 41 59
REMARK Flexibility Score: inf
ROOT
ATOM      1  C   UNL     1       4.253  11.037   3.257  1.00  0.00     0.274 C 
ENDROOT
BRANCH   1   2
ATOM      2  O   UNL     1       3.188  10.362   2.556  1.00  0.00    -0.461 OA
BRANCH   2   3
ATOM      3  C   UNL     1       2.193  11.157   2.084  1.00  0.00     0.316 C 
ATOM      4  O   UNL     1       2.203  12.383   2.156  1.00  0.00    -0.251 OA
BRANCH   3   5
ATOM      5  C   UNL     1       1.075  10.431   1.365  1.00  0.00     0.199 C 
BRANCH   5   6
ATOM      6  S   UNL     1       0.945   8.661   1.720  1.00  0.00    -0.094 SA
BRANCH   6   7
ATOM      7  C   UNL     1       1.558   7.850   0.254  1.00  0.00     0.101 A 
ATOM      8  C   UNL     1       1.631   5.842  -0.844  1.00  0.00     0.161 A 
ATOM      9  N   UNL     1       1.111   6.588   0.140  1.00  0.00    -0.222 NA
ATOM     10  N   UNL     1       2.532   6.260  -1.739  1.00  0.00    -0.228 NA
ATOM     11  C   UNL     1       2.948   7.529  -1.621  1.00  0.00     0.076 A 
ATOM     12  C   UNL     1       2.471   8.377  -0.635  1.00  0.00     0.064 A 
BRANCH   8  13
ATOM     13  C   UNL     1       1.285   4.427  -0.874  1.00  0.00     0.019 A 
ATOM     14  C   UNL     1       0.650   1.690  -0.901  1.00  0.00     0.118 A 
ATOM     15  C   UNL     1      -0.357   2.645  -1.032  1.00  0.00     0.047 A 
ATOM     16  C   UNL     1       1.980   2.091  -0.792  1.00  0.00     0.047 A 
ATOM     17  C   UNL     1      -0.045   4.005  -0.998  1.00  0.00     0.016 A 
ATOM     18  C   UNL     1       2.293   3.451  -0.782  1.00  0.00     0.016 A 
BRANCH  14  19
ATOM     19  O   UNL     1       0.248   0.383  -0.935  1.00  0.00    -0.497 OA
ATOM     20  C   UNL     1       0.924  -0.447   0.005  1.00  0.00     0.278 C 
ENDBRANCH  14  19
ENDBRANCH   8  13
BRANCH  11  21
ATOM     21  C   UNL     1       4.022   7.885  -2.552  1.00  0.00     0.003 A 
ATOM     22  C   UNL     1       5.349   7.934  -2.115  1.00  0.00     0.030 A 
ATOM     23  C   UNL     1       3.778   8.088  -3.912  1.00  0.00     0.030 A 
ATOM     24  C   UNL     1       6.349   8.243  -3.021  1.00  0.00     0.111 A 
ATOM     25  C   UNL     1       4.847   8.385  -4.747  1.00  0.00     0.111 A 
ATOM     26  N   UNL     1       6.124   8.491  -4.326  1.00  0.00    -0.265 NA
ENDBRANCH  11  21
ENDBRANCH   6   7
ENDBRANCH   5   6
ENDBRANCH   3   5
ENDBRANCH   2   3
ENDBRANCH   1   2
BRANCH   1  27
ATOM     27  C   UNL     1       5.478  11.249   2.368  1.00  0.00     0.275 C 
BRANCH  27  28
ATOM     28  O   UNL     1       5.118  11.897   1.132  1.00  0.00    -0.458 OA
BRANCH  28  29
ATOM     29  C   UNL     1       5.025  11.043   0.089  1.00  0.00     0.338 C 
ATOM     30  O   UNL     1       5.237   9.842   0.120  1.00  0.00    -0.246 OA
BRANCH  29  31
ATOM     31  C   UNL     1       4.589  11.710  -1.148  1.00  0.00     0.060 A 
ATOM     32  C   UNL     1       3.317  12.280  -1.253  1.00  0.00     0.016 A 
ATOM     33  C   UNL     1       5.403  11.594  -2.275  1.00  0.00     0.016 A 
ATOM     34  C   UNL     1       2.848  12.710  -2.498  1.00  0.00     0.010 A 
ATOM     35  C   UNL     1       4.950  12.056  -3.510  1.00  0.00     0.010 A 
ATOM     36  C   UNL     1       3.668  12.615  -3.632  1.00  0.00    -0.014 A 
BRANCH  36  37
ATOM     37  C   UNL     1       3.280  13.237  -4.919  1.00  0.00     0.031 A 
ATOM     38  C   UNL     1       2.888  12.416  -6.108  1.00  0.00     0.074 A 
ATOM     39  C   UNL     1       3.414  14.570  -5.031  1.00  0.00     0.049 A 
ATOM     40  N   UNL     1       2.792  12.771  -7.364  1.00  0.00    -0.248 NA
ATOM     41  C   UNL     1       2.563  11.008  -5.855  1.00  0.00     0.031 C 
ATOM     42  C   UNL     1       3.788  15.471  -3.939  1.00  0.00     0.029 A 
ATOM     43  N   UNL     1       3.303  15.389  -6.124  1.00  0.00    -0.354 N 
ATOM     44  C   UNL     1       2.440  11.621  -8.059  1.00  0.00     0.074 A 
ATOM     45  C   UNL     1       2.329  10.556  -7.082  1.00  0.00     0.031 C 
ATOM     46  C   UNL     1       3.925  16.712  -4.426  1.00  0.00     0.029 A 
ATOM     47  C   UNL     1       3.695  16.679  -5.866  1.00  0.00     0.049 A 
ATOM     48  H   UNL     1       2.977  15.084  -7.001  1.00  0.00     0.167 HD
ATOM     49  C   UNL     1       2.226  11.478  -9.389  1.00  0.00     0.037 A 
ATOM     50  C   UNL     1       3.907  17.708  -6.704  1.00  0.00     0.037 A 
ATOM     51  C   UNL     1       2.278  12.560 -10.340  1.00  0.00     0.049 A 
ATOM     52  C   UNL     1       3.678  17.525  -8.170  1.00  0.00     0.074 A 
ATOM     53  C   UNL     1       1.979  12.537 -11.693  1.00  0.00     0.029 A 
ATOM     54  N   UNL     1       2.650  13.860 -10.037  1.00  0.00    -0.354 N 
ATOM     55  N   UNL     1       3.337  16.439  -8.819  1.00  0.00    -0.248 NA
ATOM     56  C   UNL     1       3.863  18.707  -9.021  1.00  0.00     0.031 C 
ATOM     57  C   UNL     1       2.194  13.819 -12.212  1.00  0.00     0.029 A 
ATOM     58  C   UNL     1       2.603  14.644 -11.178  1.00  0.00     0.049 A 
ATOM     59  H   UNL     1       2.909  14.179  -9.142  1.00  0.00     0.167 HD
ATOM     60  C   UNL     1       3.255  16.806 -10.153  1.00  0.00     0.074 A 
ATOM     61  C   UNL     1       3.576  18.218 -10.220  1.00  0.00     0.031 C 
ATOM     62  C   UNL     1       2.937  16.043 -11.225  1.00  0.00     0.037 A 
BRANCH  49  63
ATOM     63  C   UNL     1       1.918  10.109  -9.916  1.00  0.00     0.057 A 
ATOM     64  C   UNL     1       0.646   9.538  -9.793  1.00  0.00     0.134 A 
ATOM     65  C   UNL     1       2.880   9.397 -10.644  1.00  0.00     0.134 A 
ATOM     66  F   UNL     1      -0.317  10.167  -9.104  1.00  0.00    -0.206 F 
ATOM     67  C   UNL     1       0.342   8.305 -10.374  1.00  0.00     0.040 A 
ATOM     68  C   UNL     1       2.585   8.170 -11.241  1.00  0.00     0.040 A 
ATOM     69  F   UNL     1       4.116   9.894 -10.805  1.00  0.00    -0.206 F 
ATOM     70  C   UNL     1       1.311   7.622 -11.109  1.00  0.00     0.006 A 
ENDBRANCH  49  63
BRANCH  50  71
ATOM     71  C   UNL     1       4.409  18.986  -6.153  1.00  0.00     0.057 A 
ATOM     72  C   UNL     1       3.555  20.075  -5.963  1.00  0.00     0.134 A 
ATOM     73  C   UNL     1       5.742  19.120  -5.745  1.00  0.00     0.134 A 
ATOM     74  F   UNL     1       2.272  20.001  -6.346  1.00  0.00    -0.206 F 
ATOM     75  C   UNL     1       4.010  21.259  -5.383  1.00  0.00     0.040 A 
ATOM     76  C   UNL     1       6.205  20.291  -5.149  1.00  0.00     0.040 A 
ATOM     77  F   UNL     1       6.601  18.100  -5.893  1.00  0.00    -0.206 F 
ATOM     78  C   UNL     1       5.337  21.366  -4.967  1.00  0.00     0.006 A 
ENDBRANCH  50  71
BRANCH  62  79
ATOM     79  C   UNL     1       2.906  16.733 -12.552  1.00  0.00     0.057 A 
ATOM     80  C   UNL     1       4.082  17.013 -13.257  1.00  0.00     0.134 A 
ATOM     81  C   UNL     1       1.690  17.119 -13.128  1.00  0.00     0.134 A 
ATOM     82  F   UNL     1       5.277  16.682 -12.745  1.00  0.00    -0.206 F 
ATOM     83  C   UNL     1       4.050  17.672 -14.486  1.00  0.00     0.040 A 
ATOM     84  C   UNL     1       1.645  17.765 -14.363  1.00  0.00     0.040 A 
ATOM     85  F   UNL     1       0.531  16.876 -12.498  1.00  0.00    -0.206 F 
ATOM     86  C   UNL     1       2.828  18.047 -15.043  1.00  0.00     0.006 A 
ENDBRANCH  62  79
ENDBRANCH  36  37
ENDBRANCH  29  31
ENDBRANCH  28  29
ENDBRANCH  27  28
ENDBRANCH   1  27
TORSDOF 16
