REMARK SMILES COc1ccccc1Nc1snc(C)c1C(=O)OCCOC(=O)c1ccc(-c2c3nc(c(-c4c(F)cccc4F)c4ccc([nH]4)c(-c4c(F)cccc4F)c4nc(c(-c5c(F)cccc5F)c5ccc2[nH]5)C=C4)C=C3)cc1
REMARK SMILES IDX 19 1 18 2 16 3 17 4 15 5 10 6 11 7 12 8 13 9 14 10 9 11 8 13
REMARK SMILES IDX 3 14 4 15 5 16 7 17 6 18 2 19 1 20 20 21 21 22 22 23 23 24
REMARK SMILES IDX 24 25 25 26 77 27 26 28 76 29 27 30 28 31 29 32 70 33 30 34
REMARK SMILES IDX 75 35 69 36 71 37 31 38 74 39 68 40 67 41 32 43 58 44 41 45
REMARK SMILES IDX 57 46 42 47 45 48 56 49 72 50 43 51 44 52 55 54 73 55 46 56
REMARK SMILES IDX 33 57 34 58 39 59 35 60 36 61 38 62 40 63 37 64 59 65 60 66
REMARK SMILES IDX 65 67 61 68 62 69 64 70 66 71 63 72 47 73 48 74 53 75 49 76
REMARK SMILES IDX 50 77 52 78 54 79 51 80
REMARK H PARENT 9 12 71 42 45 53
REMARK Flexibility Score: inf
ROOT
ATOM      1  C   UNL     1       1.653   1.343   4.724  1.00  0.00     0.275 C 
ENDROOT
BRANCH   1   2
ATOM      2  O   UNL     1       2.607   1.217   3.653  1.00  0.00    -0.458 OA
BRANCH   2   3
ATOM      3  C   UNL     1       3.865   1.729   3.818  1.00  0.00     0.343 C 
ATOM      4  O   UNL     1       4.247   2.278   4.851  1.00  0.00    -0.246 OA
BRANCH   3   5
ATOM      5  C   UNL     1       4.734   1.515   2.663  1.00  0.00     0.117 A 
ATOM      6  C   UNL     1       4.297   1.453   1.337  1.00  0.00     0.128 A 
ATOM      7  S   UNL     1       5.632   0.960   0.370  1.00  0.00    -0.017 S 
ATOM      8  N   UNL     1       6.772   1.068   1.549  1.00  0.00    -0.195 NA
ATOM      9  C   UNL     1       6.181   1.372   2.705  1.00  0.00     0.068 A 
ATOM     10  C   UNL     1       7.092   1.512   3.880  1.00  0.00     0.069 C 
BRANCH   6  11
ATOM     11  N   UNL     1       3.090   1.691   0.748  1.00  0.00    -0.342 N 
ATOM     12  H   UNL     1       2.912   1.202  -0.088  1.00  0.00     0.168 HD
BRANCH  11  13
ATOM     13  C   UNL     1       2.065   2.556   1.193  1.00  0.00     0.082 A 
ATOM     14  C   UNL     1       0.713   2.316   0.885  1.00  0.00     0.142 A 
ATOM     15  C   UNL     1      -0.290   3.122   1.443  1.00  0.00     0.048 A 
ATOM     16  C   UNL     1       0.028   4.151   2.329  1.00  0.00     0.004 A 
ATOM     17  C   UNL     1       2.359   3.649   2.034  1.00  0.00     0.030 A 
ATOM     18  C   UNL     1       1.357   4.422   2.618  1.00  0.00     0.002 A 
BRANCH  14  19
ATOM     19  O   UNL     1       0.269   1.405  -0.041  1.00  0.00    -0.495 OA
ATOM     20  C   UNL     1       0.638   0.050   0.197  1.00  0.00     0.278 C 
ENDBRANCH  14  19
ENDBRANCH  11  13
ENDBRANCH   6  11
ENDBRANCH   3   5
ENDBRANCH   2   3
ENDBRANCH   1   2
BRANCH   1  21
ATOM     21  C   UNL     1       1.601   0.074   5.558  1.00  0.00     0.275 C 
BRANCH  21  22
ATOM     22  O   UNL     1       2.785  -0.016   6.342  1.00  0.00    -0.458 OA
BRANCH  22  23
ATOM     23  C   UNL     1       3.809  -0.581   5.672  1.00  0.00     0.338 C 
ATOM     24  O   UNL     1       3.834  -0.946   4.506  1.00  0.00    -0.246 OA
BRANCH  23  25
ATOM     25  C   UNL     1       4.875  -0.931   6.600  1.00  0.00     0.060 A 
ATOM     26  C   UNL     1       6.058  -1.304   5.950  1.00  0.00     0.016 A 
ATOM     27  C   UNL     1       4.402  -1.558   7.755  1.00  0.00     0.016 A 
ATOM     28  C   UNL     1       6.581  -2.533   6.237  1.00  0.00     0.010 A 
ATOM     29  C   UNL     1       4.902  -2.799   8.020  1.00  0.00     0.010 A 
ATOM     30  C   UNL     1       5.924  -3.294   7.199  1.00  0.00    -0.014 A 
BRANCH  30  31
ATOM     31  C   UNL     1       6.456  -4.594   7.513  1.00  0.00     0.031 A 
ATOM     32  C   UNL     1       7.743  -4.488   8.263  1.00  0.00     0.074 A 
ATOM     33  C   UNL     1       5.648  -5.655   7.327  1.00  0.00     0.049 A 
ATOM     34  N   UNL     1       8.816  -5.199   8.159  1.00  0.00    -0.248 NA
ATOM     35  C   UNL     1       7.905  -3.317   9.164  1.00  0.00     0.031 C 
ATOM     36  C   UNL     1       4.275  -5.669   6.795  1.00  0.00     0.029 A 
ATOM     37  N   UNL     1       5.809  -6.925   7.767  1.00  0.00    -0.354 N 
ATOM     38  C   UNL     1       9.695  -4.691   9.116  1.00  0.00     0.074 A 
ATOM     39  C   UNL     1       9.160  -3.445   9.573  1.00  0.00     0.031 C 
ATOM     40  C   UNL     1       3.657  -6.806   7.184  1.00  0.00     0.029 A 
ATOM     41  C   UNL     1       4.618  -7.632   7.886  1.00  0.00     0.049 A 
ATOM     42  H   UNL     1       6.688  -7.312   7.982  1.00  0.00     0.167 HD
ATOM     43  C   UNL     1      10.674  -5.457   9.658  1.00  0.00     0.037 A 
ATOM     44  C   UNL     1       4.457  -8.732   8.661  1.00  0.00     0.037 A 
ATOM     45  C   UNL     1      11.053  -6.514   8.763  1.00  0.00     0.049 A 
ATOM     46  C   UNL     1       5.826  -9.231   8.984  1.00  0.00     0.074 A 
ATOM     47  C   UNL     1      11.609  -6.529   7.499  1.00  0.00     0.029 A 
ATOM     48  N   UNL     1      10.492  -7.754   8.946  1.00  0.00    -0.354 N 
ATOM     49  N   UNL     1       6.652  -9.700   8.087  1.00  0.00    -0.248 NA
ATOM     50  C   UNL     1       6.450  -8.723  10.201  1.00  0.00     0.031 C 
ATOM     51  C   UNL     1      10.933  -7.580   6.815  1.00  0.00     0.029 A 
ATOM     52  C   UNL     1      10.058  -8.187   7.717  1.00  0.00     0.049 A 
ATOM     53  H   UNL     1      10.415  -8.242   9.798  1.00  0.00     0.167 HD
ATOM     54  C   UNL     1       7.899  -9.197   8.444  1.00  0.00     0.074 A 
ATOM     55  C   UNL     1       7.717  -8.640   9.783  1.00  0.00     0.031 C 
ATOM     56  C   UNL     1       8.888  -9.011   7.520  1.00  0.00     0.037 A 
BRANCH  43  57
ATOM     57  C   UNL     1      10.992  -5.448  11.131  1.00  0.00     0.057 A 
ATOM     58  C   UNL     1      12.082  -6.199  11.595  1.00  0.00     0.134 A 
ATOM     59  C   UNL     1      10.117  -4.977  12.136  1.00  0.00     0.134 A 
ATOM     60  F   UNL     1      12.985  -6.702  10.740  1.00  0.00    -0.206 F 
ATOM     61  C   UNL     1      12.240  -6.532  12.946  1.00  0.00     0.040 A 
ATOM     62  C   UNL     1      10.292  -5.262  13.491  1.00  0.00     0.040 A 
ATOM     63  F   UNL     1       8.995  -4.299  11.863  1.00  0.00    -0.206 F 
ATOM     64  C   UNL     1      11.336  -6.074  13.897  1.00  0.00     0.006 A 
ENDBRANCH  43  57
BRANCH  44  65
ATOM     65  C   UNL     1       3.254  -9.092   9.447  1.00  0.00     0.057 A 
ATOM     66  C   UNL     1       3.044 -10.399   9.900  1.00  0.00     0.134 A 
ATOM     67  C   UNL     1       2.387  -8.111   9.968  1.00  0.00     0.134 A 
ATOM     68  F   UNL     1       3.851 -11.392   9.502  1.00  0.00    -0.206 F 
ATOM     69  C   UNL     1       2.027 -10.714  10.815  1.00  0.00     0.040 A 
ATOM     70  C   UNL     1       1.364  -8.413  10.871  1.00  0.00     0.040 A 
ATOM     71  F   UNL     1       2.553  -6.812   9.680  1.00  0.00    -0.206 F 
ATOM     72  C   UNL     1       1.186  -9.720  11.305  1.00  0.00     0.006 A 
ENDBRANCH  44  65
BRANCH  56  73
ATOM     73  C   UNL     1       8.637  -9.489   6.113  1.00  0.00     0.057 A 
ATOM     74  C   UNL     1       7.679  -8.920   5.259  1.00  0.00     0.134 A 
ATOM     75  C   UNL     1       9.515 -10.411   5.539  1.00  0.00     0.134 A 
ATOM     76  F   UNL     1       6.870  -7.945   5.683  1.00  0.00    -0.206 F 
ATOM     77  C   UNL     1       7.571  -9.279   3.912  1.00  0.00     0.040 A 
ATOM     78  C   UNL     1       9.442 -10.755   4.186  1.00  0.00     0.040 A 
ATOM     79  F   UNL     1      10.504 -10.946   6.272  1.00  0.00    -0.206 F 
ATOM     80  C   UNL     1       8.462 -10.196   3.369  1.00  0.00     0.006 A 
ENDBRANCH  56  73
ENDBRANCH  30  31
ENDBRANCH  23  25
ENDBRANCH  22  23
ENDBRANCH  21  22
ENDBRANCH   1  21
TORSDOF 14
