REMARK SMILES Cn1cc(CCC(=O)N2C[C@@H](C(=O)OCCOC(=O)c3ccc(-c4c5nc(c(-c6c(F)cccc6F)c6ccc([nH]6)c(-c6c(F)cccc6F)c6nc(c(-c7c(F)cccc7F)c7ccc4[nH]7)C=C6)C=C5)cc3)[C@H](C3CC3)C2)cn1
REMARK SMILES IDX 15 1 14 2 12 3 13 4 11 5 9 6 10 7 78 8 74 9 7 10 8 11 6 12
REMARK SMILES IDX 5 13 4 14 1 15 2 16 3 17 80 18 79 19 75 20 76 21 77 22 16 23
REMARK SMILES IDX 17 24 18 25 19 26 20 27 21 28 73 29 22 30 72 31 23 32 24 33
REMARK SMILES IDX 25 34 66 35 26 36 71 37 65 38 67 39 27 40 70 41 64 42 63 43
REMARK SMILES IDX 28 45 54 46 37 47 53 48 38 49 41 50 52 51 68 52 39 53 40 54
REMARK SMILES IDX 51 56 69 57 42 58 29 59 30 60 35 61 31 62 32 63 34 64 36 65
REMARK SMILES IDX 33 66 55 67 56 68 61 69 57 70 58 71 60 72 62 73 59 74 43 75
REMARK SMILES IDX 44 76 49 77 45 78 46 79 48 80 50 81 47 82
REMARK H PARENT 67 44 41 55
REMARK Flexibility Score: inf
ROOT
ATOM      1  C   UNL     1      -2.581   2.325   0.320  1.00  0.00     0.274 C 
ENDROOT
BRANCH   1   2
ATOM      2  O   UNL     1      -1.541   1.780  -0.525  1.00  0.00    -0.462 OA
BRANCH   2   3
ATOM      3  C   UNL     1      -1.011   2.619  -1.460  1.00  0.00     0.311 C 
ATOM      4  O   UNL     1      -1.399   3.762  -1.659  1.00  0.00    -0.252 OA
BRANCH   3   5
ATOM      5  C   UNL     1       0.076   1.933  -2.270  1.00  0.00     0.124 C 
ATOM      6  N   UNL     1       2.267   1.087  -1.966  1.00  0.00    -0.341 N 
ATOM      7  C   UNL     1       0.948   1.057  -1.386  1.00  0.00     0.135 C 
ATOM      8  C   UNL     1       2.456   2.288  -2.750  1.00  0.00     0.124 C 
ATOM      9  C   UNL     1       1.060   2.922  -2.936  1.00  0.00     0.028 C 
BRANCH   6  10
ATOM     10  C   UNL     1       3.314   0.226  -1.719  1.00  0.00     0.222 C 
ATOM     11  O   UNL     1       4.480   0.553  -1.949  1.00  0.00    -0.275 OA
BRANCH  10  12
ATOM     12  C   UNL     1       3.001  -1.196  -1.277  1.00  0.00     0.105 C 
BRANCH  12  13
ATOM     13  C   UNL     1       2.891  -1.416   0.232  1.00  0.00     0.048 C 
BRANCH  13  14
ATOM     14  C   UNL     1       1.492  -1.324   0.745  1.00  0.00    -0.009 A 
ATOM     15  C   UNL     1      -2.083  -1.587   0.569  1.00  0.00     0.173 C 
ATOM     16  N   UNL     1      -0.694  -1.431   0.929  1.00  0.00    -0.276 N 
ATOM     17  C   UNL     1       0.370  -1.990   0.284  1.00  0.00     0.112 A 
ATOM     18  N   UNL     1      -0.338  -0.546   1.873  1.00  0.00    -0.182 NA
ATOM     19  C   UNL     1       0.994  -0.498   1.780  1.00  0.00     0.138 A 
ENDBRANCH  13  14
ENDBRANCH  12  13
ENDBRANCH  10  12
ENDBRANCH   6  10
BRANCH   9  20
ATOM     20  C   UNL     1       0.785   3.247  -4.392  1.00  0.00    -0.005 C 
ATOM     21  C   UNL     1      -0.429   2.795  -5.174  1.00  0.00     0.004 C 
ATOM     22  C   UNL     1      -0.318   4.223  -4.733  1.00  0.00     0.004 C 
ENDBRANCH   9  20
ENDBRANCH   3   5
ENDBRANCH   2   3
ENDBRANCH   1   2
BRANCH   1  23
ATOM     23  C   UNL     1      -2.010   2.858   1.634  1.00  0.00     0.275 C 
BRANCH  23  24
ATOM     24  O   UNL     1      -1.166   3.981   1.340  1.00  0.00    -0.458 OA
BRANCH  24  25
ATOM     25  C   UNL     1      -0.096   4.154   2.147  1.00  0.00     0.338 C 
ATOM     26  O   UNL     1       0.188   3.551   3.164  1.00  0.00    -0.246 OA
BRANCH  25  27
ATOM     27  C   UNL     1       0.737   5.212   1.554  1.00  0.00     0.060 A 
ATOM     28  C   UNL     1       1.266   5.010   0.279  1.00  0.00     0.016 A 
ATOM     29  C   UNL     1       1.046   6.364   2.274  1.00  0.00     0.016 A 
ATOM     30  C   UNL     1       2.113   5.956  -0.288  1.00  0.00     0.010 A 
ATOM     31  C   UNL     1       1.872   7.331   1.692  1.00  0.00     0.010 A 
ATOM     32  C   UNL     1       2.427   7.126   0.414  1.00  0.00    -0.014 A 
BRANCH  32  33
ATOM     33  C   UNL     1       3.419   8.078  -0.147  1.00  0.00     0.031 A 
ATOM     34  C   UNL     1       4.761   8.220   0.515  1.00  0.00     0.074 A 
ATOM     35  C   UNL     1       3.153   8.771  -1.270  1.00  0.00     0.049 A 
ATOM     36  N   UNL     1       5.723   9.072   0.270  1.00  0.00    -0.248 NA
ATOM     37  C   UNL     1       5.054   7.276   1.605  1.00  0.00     0.031 C 
ATOM     38  C   UNL     1       1.924   8.670  -2.056  1.00  0.00     0.029 A 
ATOM     39  N   UNL     1       3.914   9.686  -1.953  1.00  0.00    -0.354 N 
ATOM     40  C   UNL     1       6.711   8.804   1.208  1.00  0.00     0.074 A 
ATOM     41  C   UNL     1       6.234   7.707   2.024  1.00  0.00     0.031 C 
ATOM     42  C   UNL     1       2.031   9.461  -3.137  1.00  0.00     0.029 A 
ATOM     43  C   UNL     1       3.305  10.174  -3.083  1.00  0.00     0.049 A 
ATOM     44  H   UNL     1       4.812   9.966  -1.662  1.00  0.00     0.167 HD
ATOM     45  C   UNL     1       7.906   9.419   1.377  1.00  0.00     0.037 A 
ATOM     46  C   UNL     1       3.717  11.108  -3.961  1.00  0.00     0.037 A 
ATOM     47  C   UNL     1       8.401  10.474   0.533  1.00  0.00     0.049 A 
ATOM     48  C   UNL     1       5.029  11.805  -3.733  1.00  0.00     0.074 A 
ATOM     49  C   UNL     1       9.600  11.161   0.619  1.00  0.00     0.029 A 
ATOM     50  N   UNL     1       7.726  10.984  -0.566  1.00  0.00    -0.354 N 
ATOM     51  N   UNL     1       5.924  11.599  -2.798  1.00  0.00    -0.248 NA
ATOM     52  C   UNL     1       5.374  12.885  -4.669  1.00  0.00     0.031 C 
ATOM     53  C   UNL     1       9.637  12.107  -0.412  1.00  0.00     0.029 A 
ATOM     54  C   UNL     1       8.477  11.986  -1.160  1.00  0.00     0.049 A 
ATOM     55  H   UNL     1       6.844  10.680  -0.878  1.00  0.00     0.167 HD
ATOM     56  C   UNL     1       6.938  12.518  -3.031  1.00  0.00     0.074 A 
ATOM     57  C   UNL     1       6.558  13.268  -4.212  1.00  0.00     0.031 C 
ATOM     58  C   UNL     1       8.078  12.728  -2.328  1.00  0.00     0.037 A 
BRANCH  45  59
ATOM     59  C   UNL     1       8.728   8.994   2.557  1.00  0.00     0.057 A 
ATOM     60  C   UNL     1       9.408   7.771   2.594  1.00  0.00     0.134 A 
ATOM     61  C   UNL     1       8.825   9.823   3.682  1.00  0.00     0.134 A 
ATOM     62  F   UNL     1       9.338   6.923   1.557  1.00  0.00    -0.206 F 
ATOM     63  C   UNL     1      10.130   7.373   3.721  1.00  0.00     0.040 A 
ATOM     64  C   UNL     1       9.564   9.447   4.805  1.00  0.00     0.040 A 
ATOM     65  F   UNL     1       8.199  11.009   3.710  1.00  0.00    -0.206 F 
ATOM     66  C   UNL     1      10.212   8.214   4.830  1.00  0.00     0.006 A 
ENDBRANCH  45  59
BRANCH  46  67
ATOM     67  C   UNL     1       2.866  11.455  -5.126  1.00  0.00     0.057 A 
ATOM     68  C   UNL     1       3.242  11.095  -6.425  1.00  0.00     0.134 A 
ATOM     69  C   UNL     1       1.659  12.146  -4.971  1.00  0.00     0.134 A 
ATOM     70  F   UNL     1       4.402  10.456  -6.639  1.00  0.00    -0.206 F 
ATOM     71  C   UNL     1       2.447  11.408  -7.529  1.00  0.00     0.040 A 
ATOM     72  C   UNL     1       0.843  12.446  -6.063  1.00  0.00     0.040 A 
ATOM     73  F   UNL     1       1.247  12.524  -3.752  1.00  0.00    -0.206 F 
ATOM     74  C   UNL     1       1.239  12.079  -7.347  1.00  0.00     0.006 A 
ENDBRANCH  46  67
BRANCH  58  75
ATOM     75  C   UNL     1       8.993  13.805  -2.826  1.00  0.00     0.057 A 
ATOM     76  C   UNL     1       8.701  15.161  -2.637  1.00  0.00     0.134 A 
ATOM     77  C   UNL     1      10.185  13.483  -3.486  1.00  0.00     0.134 A 
ATOM     78  F   UNL     1       7.566  15.533  -2.025  1.00  0.00    -0.206 F 
ATOM     79  C   UNL     1       9.553  16.162  -3.106  1.00  0.00     0.040 A 
ATOM     80  C   UNL     1      11.055  14.474  -3.942  1.00  0.00     0.040 A 
ATOM     81  F   UNL     1      10.524  12.202  -3.694  1.00  0.00    -0.206 F 
ATOM     82  C   UNL     1      10.737  15.818  -3.757  1.00  0.00     0.006 A 
ENDBRANCH  58  75
ENDBRANCH  32  33
ENDBRANCH  25  27
ENDBRANCH  24  25
ENDBRANCH  23  24
ENDBRANCH   1  23
TORSDOF 16
