REMARK SMILES CC(C)(C)[C@@H]1CC(C(=O)OCCOC(=O)c2ccc(-c3c4nc(c(-c5c(F)cccc5F)c5ccc([nH]5)c(-c5c(F)cccc5F)c5nc(c(-c6c(F)cccc6F)c6ccc3[nH]6)C=C5)C=C4)cc2)C[C@@H](C(C)(C)C)C1
REMARK SMILES IDX 12 1 11 2 10 3 8 4 9 5 7 6 5 7 6 8 76 9 71 10 70 11 2 12
REMARK SMILES IDX 1 13 3 14 4 15 72 16 73 17 74 18 75 19 13 20 14 21 15 22
REMARK SMILES IDX 16 23 17 24 69 25 18 26 68 27 19 28 20 29 21 30 62 31 22 32
REMARK SMILES IDX 67 33 61 34 63 35 23 36 66 37 60 38 59 39 24 41 50 42 33 43
REMARK SMILES IDX 49 44 34 45 37 46 48 47 64 48 35 49 36 50 47 52 65 53 38 54
REMARK SMILES IDX 25 55 26 56 31 57 27 58 28 59 30 60 32 61 29 62 51 63 52 64
REMARK SMILES IDX 57 65 53 66 54 67 56 68 58 69 55 70 39 71 40 72 45 73 41 74
REMARK SMILES IDX 42 75 44 76 46 77 43 78
REMARK H PARENT 63 40 37 51
REMARK Flexibility Score: inf
ROOT
ATOM      1  C   UNL     1      -0.259  -5.951   2.340  1.00  0.00     0.275 C 
ENDROOT
BRANCH   1   2
ATOM      2  C   UNL     1      -1.117  -5.138   3.311  1.00  0.00     0.274 C 
BRANCH   2   3
ATOM      3  O   UNL     1      -0.801  -3.737   3.215  1.00  0.00    -0.462 OA
BRANCH   3   4
ATOM      4  C   UNL     1      -0.105  -3.204   4.251  1.00  0.00     0.309 C 
ATOM      5  O   UNL     1       0.185  -3.807   5.279  1.00  0.00    -0.252 OA
BRANCH   4   6
ATOM      6  C   UNL     1       0.382  -1.789   3.976  1.00  0.00     0.100 C 
ATOM      7  C   UNL     1       0.627   0.199   2.430  1.00  0.00    -0.005 C 
ATOM      8  C   UNL     1      -0.060  -1.170   2.648  1.00  0.00     0.019 C 
ATOM      9  C   UNL     1       0.262   1.115   3.614  1.00  0.00     0.008 C 
ATOM     10  C   UNL     1       0.645   0.558   5.007  1.00  0.00    -0.005 C 
ATOM     11  C   UNL     1       0.077  -0.870   5.165  1.00  0.00     0.019 C 
BRANCH   7  12
ATOM     12  C   UNL     1       0.337   0.833   1.017  1.00  0.00    -0.035 C 
ATOM     13  C   UNL     1       0.916  -0.070  -0.096  1.00  0.00     0.011 C 
ATOM     14  C   UNL     1       1.030   2.208   0.885  1.00  0.00     0.011 C 
ATOM     15  C   UNL     1      -1.167   1.024   0.751  1.00  0.00     0.011 C 
ENDBRANCH   7  12
BRANCH  10  16
ATOM     16  C   UNL     1       2.151   0.746   5.478  1.00  0.00    -0.035 C 
ATOM     17  C   UNL     1       2.158   0.882   7.022  1.00  0.00     0.011 C 
ATOM     18  C   UNL     1       3.101  -0.415   5.134  1.00  0.00     0.011 C 
ATOM     19  C   UNL     1       2.781   2.034   4.908  1.00  0.00     0.011 C 
ENDBRANCH  10  16
ENDBRANCH   4   6
ENDBRANCH   3   4
ENDBRANCH   2   3
ENDBRANCH   1   2
BRANCH   1  20
ATOM     20  O   UNL     1       1.137  -5.896   2.693  1.00  0.00    -0.458 OA
BRANCH  20  21
ATOM     21  C   UNL     1       1.877  -5.016   1.979  1.00  0.00     0.338 C 
ATOM     22  O   UNL     1       1.503  -4.276   1.086  1.00  0.00    -0.246 OA
BRANCH  21  23
ATOM     23  C   UNL     1       3.257  -5.003   2.487  1.00  0.00     0.060 A 
ATOM     24  C   UNL     1       3.646  -3.949   3.312  1.00  0.00     0.016 A 
ATOM     25  C   UNL     1       4.192  -5.943   2.054  1.00  0.00     0.016 A 
ATOM     26  C   UNL     1       4.978  -3.801   3.685  1.00  0.00     0.010 A 
ATOM     27  C   UNL     1       5.528  -5.813   2.454  1.00  0.00     0.010 A 
ATOM     28  C   UNL     1       5.933  -4.730   3.256  1.00  0.00    -0.014 A 
BRANCH  28  29
ATOM     29  C   UNL     1       7.359  -4.537   3.618  1.00  0.00     0.031 A 
ATOM     30  C   UNL     1       8.357  -4.143   2.567  1.00  0.00     0.074 A 
ATOM     31  C   UNL     1       7.754  -4.685   4.896  1.00  0.00     0.049 A 
ATOM     32  N   UNL     1       9.658  -4.037   2.661  1.00  0.00    -0.248 NA
ATOM     33  C   UNL     1       7.821  -3.826   1.234  1.00  0.00     0.031 C 
ATOM     34  C   UNL     1       6.878  -5.014   6.021  1.00  0.00     0.029 A 
ATOM     35  N   UNL     1       8.999  -4.574   5.463  1.00  0.00    -0.354 N 
ATOM     36  C   UNL     1      10.101  -3.679   1.395  1.00  0.00     0.074 A 
ATOM     37  C   UNL     1       8.930  -3.581   0.549  1.00  0.00     0.031 C 
ATOM     38  C   UNL     1       7.611  -5.068   7.145  1.00  0.00     0.029 A 
ATOM     39  C   UNL     1       9.012  -4.829   6.811  1.00  0.00     0.049 A 
ATOM     40  H   UNL     1       9.805  -4.335   4.951  1.00  0.00     0.167 HD
ATOM     41  C   UNL     1      11.369  -3.454   0.977  1.00  0.00     0.037 A 
ATOM     42  C   UNL     1      10.041  -4.893   7.677  1.00  0.00     0.037 A 
ATOM     43  C   UNL     1      12.530  -3.514   1.823  1.00  0.00     0.049 A 
ATOM     44  C   UNL     1      11.440  -4.668   7.182  1.00  0.00     0.074 A 
ATOM     45  C   UNL     1      13.856  -3.298   1.487  1.00  0.00     0.029 A 
ATOM     46  N   UNL     1      12.503  -3.798   3.179  1.00  0.00    -0.354 N 
ATOM     47  N   UNL     1      11.851  -4.375   5.972  1.00  0.00    -0.248 NA
ATOM     48  C   UNL     1      12.521  -4.798   8.170  1.00  0.00     0.031 C 
ATOM     49  C   UNL     1      14.634  -3.471   2.638  1.00  0.00     0.029 A 
ATOM     50  C   UNL     1      13.789  -3.771   3.693  1.00  0.00     0.049 A 
ATOM     51  H   UNL     1      11.690  -3.991   3.700  1.00  0.00     0.167 HD
ATOM     52  C   UNL     1      13.233  -4.282   6.053  1.00  0.00     0.074 A 
ATOM     53  C   UNL     1      13.592  -4.530   7.434  1.00  0.00     0.031 C 
ATOM     54  C   UNL     1      14.126  -4.019   5.069  1.00  0.00     0.037 A 
BRANCH  41  55
ATOM     55  C   UNL     1      11.570  -3.148  -0.475  1.00  0.00     0.057 A 
ATOM     56  C   UNL     1      11.312  -1.879  -1.004  1.00  0.00     0.134 A 
ATOM     57  C   UNL     1      12.069  -4.127  -1.343  1.00  0.00     0.134 A 
ATOM     58  F   UNL     1      10.820  -0.904  -0.225  1.00  0.00    -0.206 F 
ATOM     59  C   UNL     1      11.534  -1.596  -2.353  1.00  0.00     0.040 A 
ATOM     60  C   UNL     1      12.310  -3.852  -2.689  1.00  0.00     0.040 A 
ATOM     61  F   UNL     1      12.338  -5.362  -0.893  1.00  0.00    -0.206 F 
ATOM     62  C   UNL     1      12.040  -2.583  -3.198  1.00  0.00     0.006 A 
ENDBRANCH  41  55
BRANCH  42  63
ATOM     63  C   UNL     1       9.788  -5.219   9.100  1.00  0.00     0.057 A 
ATOM     64  C   UNL     1       9.903  -4.244  10.096  1.00  0.00     0.134 A 
ATOM     65  C   UNL     1       9.431  -6.513   9.496  1.00  0.00     0.134 A 
ATOM     66  F   UNL     1      10.265  -2.993   9.777  1.00  0.00    -0.206 F 
ATOM     67  C   UNL     1       9.679  -4.546  11.440  1.00  0.00     0.040 A 
ATOM     68  C   UNL     1       9.186  -6.825  10.833  1.00  0.00     0.040 A 
ATOM     69  F   UNL     1       9.307  -7.490   8.585  1.00  0.00    -0.206 F 
ATOM     70  C   UNL     1       9.314  -5.840  11.810  1.00  0.00     0.006 A 
ENDBRANCH  42  63
BRANCH  54  71
ATOM     71  C   UNL     1      15.571  -3.974   5.458  1.00  0.00     0.057 A 
ATOM     72  C   UNL     1      16.310  -5.146   5.657  1.00  0.00     0.134 A 
ATOM     73  C   UNL     1      16.234  -2.751   5.605  1.00  0.00     0.134 A 
ATOM     74  F   UNL     1      15.724  -6.347   5.543  1.00  0.00    -0.206 F 
ATOM     75  C   UNL     1      17.661  -5.101   6.003  1.00  0.00     0.040 A 
ATOM     76  C   UNL     1      17.588  -2.694   5.937  1.00  0.00     0.040 A 
ATOM     77  F   UNL     1      15.579  -1.594   5.424  1.00  0.00    -0.206 F 
ATOM     78  C   UNL     1      18.305  -3.872   6.140  1.00  0.00     0.006 A 
ENDBRANCH  54  71
ENDBRANCH  28  29
ENDBRANCH  21  23
ENDBRANCH  20  21
ENDBRANCH   1  20
TORSDOF 13
