REMARK SMILES CCc1ccc([C@H](C)[N@@H+]2[C@@H](C(=O)OCCOC(=O)c3ccc(-c4c5nc(c(-c6c(F)cccc6F)c6ccc([nH]6)c(-c6c(F)cccc6F)c6nc(c(-c7c(F)cccc7F)c7ccc4[nH]7)C=C6)C=C5)cc3)C[C@H]3CCCC[C@H]32)s1
REMARK SMILES IDX 14 1 13 2 11 3 12 4 10 5 9 6 79 7 73 9 74 10 78 11 75 12
REMARK SMILES IDX 77 13 76 14 7 15 8 16 6 17 3 18 4 19 80 20 5 21 2 22 1 23
REMARK SMILES IDX 15 24 16 25 17 26 18 27 19 28 20 29 72 30 21 31 71 32 22 33
REMARK SMILES IDX 23 34 24 35 65 36 25 37 70 38 64 39 66 40 26 41 69 42 63 43
REMARK SMILES IDX 62 44 27 46 53 47 36 48 52 49 37 50 40 51 51 52 67 53 38 54
REMARK SMILES IDX 39 55 50 57 68 58 41 59 28 60 29 61 34 62 30 63 31 64 33 65
REMARK SMILES IDX 35 66 32 67 54 68 55 69 60 70 56 71 57 72 59 73 61 74 58 75
REMARK SMILES IDX 42 76 43 77 48 78 44 79 45 80 47 81 49 82 46 83
REMARK H PARENT 9 8 66 45 40 56
REMARK Flexibility Score: inf
ROOT
ATOM      1  C   UNL     1       6.508   6.365   4.256  1.00  0.00     0.274 C 
ENDROOT
BRANCH   1   2
ATOM      2  O   UNL     1       5.402   5.476   3.985  1.00  0.00    -0.458 OA
BRANCH   2   3
ATOM      3  C   UNL     1       5.597   4.168   4.330  1.00  0.00     0.365 C 
ATOM      4  O   UNL     1       6.576   3.766   4.947  1.00  0.00    -0.245 OA
BRANCH   3   5
ATOM      5  C   UNL     1       4.483   3.270   3.749  1.00  0.00     0.296 C 
ATOM      6  N   UNL     1       3.753   2.531   4.827  1.00  0.00    -0.314 N 
ATOM      7  C   UNL     1       4.118   1.105   4.716  1.00  0.00     0.188 C 
ATOM      8  H   UNL     1       4.042   2.843   5.754  1.00  0.00     0.349 HD
ATOM      9  C   UNL     1       5.118   2.214   2.835  1.00  0.00     0.087 C 
ATOM     10  C   UNL     1       4.471   0.899   3.245  1.00  0.00     0.054 C 
ATOM     11  C   UNL     1       5.275   0.792   5.685  1.00  0.00     0.065 C 
ATOM     12  C   UNL     1       5.308  -0.347   2.962  1.00  0.00     0.010 C 
ATOM     13  C   UNL     1       5.998  -0.509   5.368  1.00  0.00     0.006 C 
ATOM     14  C   UNL     1       6.476  -0.530   3.923  1.00  0.00     0.001 C 
BRANCH   6  15
ATOM     15  C   UNL     1       2.303   2.847   4.859  1.00  0.00     0.223 C 
ATOM     16  C   UNL     1       1.471   2.352   3.668  1.00  0.00     0.082 C 
BRANCH  15  17
ATOM     17  C   UNL     1       1.651   2.504   6.201  1.00  0.00     0.062 A 
ATOM     18  C   UNL     1       0.459   1.428   8.109  1.00  0.00     0.005 A 
ATOM     19  C   UNL     1       0.814   2.733   8.379  1.00  0.00     0.016 A 
ATOM     20  S   UNL     1       0.977   0.962   6.545  1.00  0.00    -0.139 S 
ATOM     21  C   UNL     1       1.460   3.358   7.274  1.00  0.00     0.022 A 
BRANCH  18  22
ATOM     22  C   UNL     1      -0.257   0.439   8.987  1.00  0.00     0.043 C 
ATOM     23  C   UNL     1      -1.389   1.070   9.787  1.00  0.00     0.010 C 
ENDBRANCH  18  22
ENDBRANCH  15  17
ENDBRANCH   6  15
ENDBRANCH   3   5
ENDBRANCH   2   3
ENDBRANCH   1   2
BRANCH   1  24
ATOM     24  C   UNL     1       6.299   7.200   5.520  1.00  0.00     0.275 C 
BRANCH  24  25
ATOM     25  O   UNL     1       6.334   6.375   6.697  1.00  0.00    -0.458 OA
BRANCH  25  26
ATOM     26  C   UNL     1       5.130   6.143   7.265  1.00  0.00     0.338 C 
ATOM     27  O   UNL     1       4.054   6.624   6.951  1.00  0.00    -0.246 OA
BRANCH  26  28
ATOM     28  C   UNL     1       5.245   5.058   8.248  1.00  0.00     0.060 A 
ATOM     29  C   UNL     1       4.705   3.835   7.870  1.00  0.00     0.016 A 
ATOM     30  C   UNL     1       5.721   5.245   9.544  1.00  0.00     0.016 A 
ATOM     31  C   UNL     1       4.577   2.803   8.786  1.00  0.00     0.010 A 
ATOM     32  C   UNL     1       5.619   4.192  10.468  1.00  0.00     0.010 A 
ATOM     33  C   UNL     1       5.022   2.973  10.096  1.00  0.00    -0.014 A 
BRANCH  33  34
ATOM     34  C   UNL     1       4.750   1.886  11.063  1.00  0.00     0.031 A 
ATOM     35  C   UNL     1       3.575   1.995  11.989  1.00  0.00     0.074 A 
ATOM     36  C   UNL     1       5.464   0.746  11.014  1.00  0.00     0.049 A 
ATOM     37  N   UNL     1       3.165   1.159  12.909  1.00  0.00    -0.248 NA
ATOM     38  C   UNL     1       2.734   3.194  11.845  1.00  0.00     0.031 C 
ATOM     39  C   UNL     1       6.541   0.464  10.065  1.00  0.00     0.029 A 
ATOM     40  N   UNL     1       5.373  -0.396  11.768  1.00  0.00    -0.354 N 
ATOM     41  C   UNL     1       2.024   1.729  13.455  1.00  0.00     0.074 A 
ATOM     42  C   UNL     1       1.808   2.986  12.770  1.00  0.00     0.031 C 
ATOM     43  C   UNL     1       7.011  -0.773  10.295  1.00  0.00     0.029 A 
ATOM     44  C   UNL     1       6.303  -1.349  11.435  1.00  0.00     0.049 A 
ATOM     45  H   UNL     1       4.704  -0.520  12.480  1.00  0.00     0.167 HD
ATOM     46  C   UNL     1       1.230   1.248  14.440  1.00  0.00     0.037 A 
ATOM     47  C   UNL     1       6.573  -2.537  12.009  1.00  0.00     0.037 A 
ATOM     48  C   UNL     1       1.447   0.004  15.127  1.00  0.00     0.049 A 
ATOM     49  C   UNL     1       5.763  -2.981  13.196  1.00  0.00     0.074 A 
ATOM     50  C   UNL     1       0.726  -0.541  16.175  1.00  0.00     0.029 A 
ATOM     51  N   UNL     1       2.465  -0.888  14.832  1.00  0.00    -0.354 N 
ATOM     52  N   UNL     1       4.718  -2.411  13.745  1.00  0.00    -0.248 NA
ATOM     53  C   UNL     1       6.181  -4.228  13.854  1.00  0.00     0.031 C 
ATOM     54  C   UNL     1       1.331  -1.750  16.538  1.00  0.00     0.029 A 
ATOM     55  C   UNL     1       2.408  -1.971  15.693  1.00  0.00     0.049 A 
ATOM     56  H   UNL     1       3.131  -0.770  14.116  1.00  0.00     0.167 HD
ATOM     57  C   UNL     1       4.342  -3.236  14.796  1.00  0.00     0.074 A 
ATOM     58  C   UNL     1       5.263  -4.353  14.803  1.00  0.00     0.031 C 
ATOM     59  C   UNL     1       3.325  -3.080  15.679  1.00  0.00     0.037 A 
BRANCH  46  60
ATOM     60  C   UNL     1       0.078   2.105  14.861  1.00  0.00     0.057 A 
ATOM     61  C   UNL     1      -1.110   2.155  14.123  1.00  0.00     0.134 A 
ATOM     62  C   UNL     1       0.159   2.886  16.020  1.00  0.00     0.134 A 
ATOM     63  F   UNL     1      -1.242   1.435  13.000  1.00  0.00    -0.206 F 
ATOM     64  C   UNL     1      -2.173   2.970  14.513  1.00  0.00     0.040 A 
ATOM     65  C   UNL     1      -0.903   3.692  16.429  1.00  0.00     0.040 A 
ATOM     66  F   UNL     1       1.272   2.878  16.769  1.00  0.00    -0.206 F 
ATOM     67  C   UNL     1      -2.072   3.740  15.671  1.00  0.00     0.006 A 
ENDBRANCH  46  60
BRANCH  47  68
ATOM     68  C   UNL     1       7.696  -3.368  11.509  1.00  0.00     0.057 A 
ATOM     69  C   UNL     1       7.472  -4.601  10.889  1.00  0.00     0.134 A 
ATOM     70  C   UNL     1       9.026  -2.960  11.674  1.00  0.00     0.134 A 
ATOM     71  F   UNL     1       6.221  -5.059  10.729  1.00  0.00    -0.206 F 
ATOM     72  C   UNL     1       8.529  -5.406  10.462  1.00  0.00     0.040 A 
ATOM     73  C   UNL     1      10.092  -3.743  11.230  1.00  0.00     0.040 A 
ATOM     74  F   UNL     1       9.308  -1.792  12.269  1.00  0.00    -0.206 F 
ATOM     75  C   UNL     1       9.845  -4.975  10.628  1.00  0.00     0.006 A 
ENDBRANCH  47  68
BRANCH  59  76
ATOM     76  C   UNL     1       3.138  -4.157  16.704  1.00  0.00     0.057 A 
ATOM     77  C   UNL     1       3.984  -4.269  17.814  1.00  0.00     0.134 A 
ATOM     78  C   UNL     1       2.076  -5.063  16.602  1.00  0.00     0.134 A 
ATOM     79  F   UNL     1       5.027  -3.439  17.961  1.00  0.00    -0.206 F 
ATOM     80  C   UNL     1       3.788  -5.257  18.781  1.00  0.00     0.040 A 
ATOM     81  C   UNL     1       1.857  -6.042  17.572  1.00  0.00     0.040 A 
ATOM     82  F   UNL     1       1.227  -5.003  15.565  1.00  0.00    -0.206 F 
ATOM     83  C   UNL     1       2.717  -6.143  18.664  1.00  0.00     0.006 A 
ENDBRANCH  59  76
ENDBRANCH  33  34
ENDBRANCH  26  28
ENDBRANCH  25  26
ENDBRANCH  24  25
ENDBRANCH   1  24
TORSDOF 14
