REMARK SMILES O=C(C[C@@H](NS(=O)(=O)c1ccc2c(c1)OCCO2)c1ccccc1)OCCOC(=O)c1ccc(-c2c3nc(c(-c4c(F)cccc4F)c4ccc([nH]4)c(-c4c(F)cccc4F)c4nc(c(-c5c(F)cccc5F)c5ccc2[nH]5)C=C4)C=C3)cc1
REMARK SMILES IDX 26 1 25 2 2 3 1 4 3 5 4 6 5 7 6 9 7 10 8 11 9 12 10 13 14 14
REMARK SMILES IDX 11 15 13 16 12 17 15 18 18 19 16 20 17 21 19 22 20 23 24 24
REMARK SMILES IDX 21 25 23 26 22 27 27 28 28 29 29 30 30 31 31 32 32 33 84 34
REMARK SMILES IDX 33 35 83 36 34 37 35 38 36 39 77 40 37 41 82 42 76 43 78 44
REMARK SMILES IDX 38 45 81 46 75 47 74 48 39 50 65 51 48 52 64 53 49 54 52 55
REMARK SMILES IDX 63 56 79 57 50 58 51 59 62 61 80 62 53 63 40 64 41 65 46 66
REMARK SMILES IDX 42 67 43 68 45 69 47 70 44 71 66 72 67 73 72 74 68 75 69 76
REMARK SMILES IDX 71 77 73 78 70 79 54 80 55 81 60 82 56 83 57 84 59 85 61 86
REMARK SMILES IDX 58 87
REMARK H PARENT 5 8 78 49 52 60
REMARK Flexibility Score: inf
ROOT
ATOM      1  C   UNL     1       4.328   0.925   0.934  1.00  0.00     0.274 C 
ENDROOT
BRANCH   1   2
ATOM      2  O   UNL     1       3.022   1.147   0.351  1.00  0.00    -0.462 OA
BRANCH   2   3
ATOM      3  C   UNL     1       2.567   0.494  -0.749  1.00  0.00     0.307 C 
ATOM      4  O   UNL     1       1.723   0.994  -1.484  1.00  0.00    -0.252 OA
BRANCH   3   5
ATOM      5  C   UNL     1       3.070  -0.895  -0.979  1.00  0.00     0.147 C 
BRANCH   5   6
ATOM      6  C   UNL     1       4.103  -1.143  -2.073  1.00  0.00     0.111 C 
BRANCH   6   7
ATOM      7  N   UNL     1       5.088  -0.042  -2.226  1.00  0.00    -0.203 NA
ATOM      8  H   UNL     1       5.807  -0.178  -1.516  1.00  0.00     0.142 HD
BRANCH   7   9
ATOM      9  S   UNL     1       5.881   0.121  -3.723  1.00  0.00     0.241 S 
ATOM     10  O   UNL     1       4.860   0.160  -4.742  1.00  0.00    -0.207 OA
ATOM     11  O   UNL     1       6.796   1.230  -3.538  1.00  0.00    -0.207 OA
BRANCH   9  12
ATOM     12  C   UNL     1       6.830  -1.357  -3.931  1.00  0.00     0.086 A 
ATOM     13  C   UNL     1       6.188  -2.504  -4.417  1.00  0.00     0.026 A 
ATOM     14  C   UNL     1       8.197  -1.377  -3.641  1.00  0.00     0.072 A 
ATOM     15  C   UNL     1       6.876  -3.715  -4.470  1.00  0.00     0.052 A 
ATOM     16  C   UNL     1       8.895  -2.576  -3.775  1.00  0.00     0.162 A 
ATOM     17  C   UNL     1       8.222  -3.756  -4.126  1.00  0.00     0.161 A 
ATOM     18  O   UNL     1      10.250  -2.539  -3.549  1.00  0.00    -0.486 OA
ATOM     19  O   UNL     1       8.826  -4.987  -4.172  1.00  0.00    -0.486 OA
ATOM     20  C   UNL     1      10.879  -3.707  -4.098  1.00  0.00     0.271 C 
ATOM     21  C   UNL     1      10.148  -4.950  -3.620  1.00  0.00     0.271 C 
ENDBRANCH   9  12
ENDBRANCH   7   9
ENDBRANCH   6   7
BRANCH   6  22
ATOM     22  C   UNL     1       4.769  -2.466  -1.662  1.00  0.00    -0.029 A 
ATOM     23  C   UNL     1       4.133  -3.685  -1.940  1.00  0.00     0.005 A 
ATOM     24  C   UNL     1       5.987  -2.496  -0.957  1.00  0.00     0.005 A 
ATOM     25  C   UNL     1       4.724  -4.898  -1.577  1.00  0.00     0.000 A 
ATOM     26  C   UNL     1       6.585  -3.710  -0.613  1.00  0.00     0.000 A 
ATOM     27  C   UNL     1       5.956  -4.910  -0.928  1.00  0.00     0.000 A 
ENDBRANCH   6  22
ENDBRANCH   5   6
ENDBRANCH   3   5
ENDBRANCH   2   3
ENDBRANCH   1   2
BRANCH   1  28
ATOM     28  C   UNL     1       4.293   0.216   2.294  1.00  0.00     0.275 C 
BRANCH  28  29
ATOM     29  O   UNL     1       3.894  -1.164   2.175  1.00  0.00    -0.458 OA
BRANCH  29  30
ATOM     30  C   UNL     1       2.567  -1.410   2.331  1.00  0.00     0.338 C 
ATOM     31  O   UNL     1       1.722  -0.604   2.677  1.00  0.00    -0.246 OA
BRANCH  30  32
ATOM     32  C   UNL     1       2.236  -2.762   1.808  1.00  0.00     0.060 A 
ATOM     33  C   UNL     1       1.018  -2.920   1.130  1.00  0.00     0.016 A 
ATOM     34  C   UNL     1       3.105  -3.850   1.930  1.00  0.00     0.016 A 
ATOM     35  C   UNL     1       0.649  -4.165   0.609  1.00  0.00     0.010 A 
ATOM     36  C   UNL     1       2.730  -5.099   1.416  1.00  0.00     0.010 A 
ATOM     37  C   UNL     1       1.487  -5.273   0.777  1.00  0.00    -0.014 A 
BRANCH  37  38
ATOM     38  C   UNL     1       1.001  -6.643   0.457  1.00  0.00     0.031 A 
ATOM     39  C   UNL     1       0.526  -7.515   1.588  1.00  0.00     0.074 A 
ATOM     40  C   UNL     1       0.970  -7.121  -0.801  1.00  0.00     0.049 A 
ATOM     41  N   UNL     1       0.098  -8.752   1.562  1.00  0.00    -0.248 NA
ATOM     42  C   UNL     1       0.531  -6.906   2.927  1.00  0.00     0.031 C 
ATOM     43  C   UNL     1       1.335  -6.375  -2.000  1.00  0.00     0.029 A 
ATOM     44  N   UNL     1       0.628  -8.366  -1.276  1.00  0.00    -0.354 N 
ATOM     45  C   UNL     1      -0.227  -9.063   2.876  1.00  0.00     0.074 A 
ATOM     46  C   UNL     1       0.105  -7.907   3.680  1.00  0.00     0.031 C 
ATOM     47  C   UNL     1       1.250  -7.187  -3.068  1.00  0.00     0.029 A 
ATOM     48  C   UNL     1       0.818  -8.513  -2.629  1.00  0.00     0.049 A 
ATOM     49  H   UNL     1       0.279  -9.084  -0.700  1.00  0.00     0.167 HD
ATOM     50  C   UNL     1      -0.773 -10.200   3.369  1.00  0.00     0.037 A 
ATOM     51  C   UNL     1       0.668  -9.592  -3.423  1.00  0.00     0.037 A 
ATOM     52  C   UNL     1      -1.095 -11.358   2.579  1.00  0.00     0.049 A 
ATOM     53  C   UNL     1       0.159 -10.884  -2.835  1.00  0.00     0.074 A 
ATOM     54  C   UNL     1      -1.669 -12.548   2.990  1.00  0.00     0.029 A 
ATOM     55  N   UNL     1      -0.855 -11.479   1.219  1.00  0.00    -0.354 N 
ATOM     56  N   UNL     1      -0.191 -11.151  -1.600  1.00  0.00    -0.248 NA
ATOM     57  C   UNL     1       0.004 -12.020  -3.758  1.00  0.00     0.031 C 
ATOM     58  C   UNL     1      -1.717 -13.413   1.892  1.00  0.00     0.029 A 
ATOM     59  C   UNL     1      -1.236 -12.737   0.782  1.00  0.00     0.049 A 
ATOM     60  H   UNL     1      -0.470 -10.775   0.648  1.00  0.00     0.167 HD
ATOM     61  C   UNL     1      -0.649 -12.464  -1.607  1.00  0.00     0.074 A 
ATOM     62  C   UNL     1      -0.535 -12.939  -2.970  1.00  0.00     0.031 C 
ATOM     63  C   UNL     1      -1.129 -13.204  -0.578  1.00  0.00     0.037 A 
BRANCH  50  64
ATOM     64  C   UNL     1      -1.035 -10.248   4.847  1.00  0.00     0.057 A 
ATOM     65  C   UNL     1      -2.036  -9.473   5.448  1.00  0.00     0.134 A 
ATOM     66  C   UNL     1      -0.287 -11.093   5.676  1.00  0.00     0.134 A 
ATOM     67  F   UNL     1      -2.778  -8.631   4.713  1.00  0.00    -0.206 F 
ATOM     68  C   UNL     1      -2.262  -9.514   6.824  1.00  0.00     0.040 A 
ATOM     69  C   UNL     1      -0.525 -11.166   7.048  1.00  0.00     0.040 A 
ATOM     70  F   UNL     1       0.684 -11.865   5.164  1.00  0.00    -0.206 F 
ATOM     71  C   UNL     1      -1.509 -10.368   7.628  1.00  0.00     0.006 A 
ENDBRANCH  50  64
BRANCH  51  72
ATOM     72  C   UNL     1       0.995  -9.508  -4.871  1.00  0.00     0.057 A 
ATOM     73  C   UNL     1      -0.003  -9.592  -5.849  1.00  0.00     0.134 A 
ATOM     74  C   UNL     1       2.318  -9.382  -5.312  1.00  0.00     0.134 A 
ATOM     75  F   UNL     1      -1.287  -9.739  -5.490  1.00  0.00    -0.206 F 
ATOM     76  C   UNL     1       0.302  -9.579  -7.211  1.00  0.00     0.040 A 
ATOM     77  C   UNL     1       2.636  -9.342  -6.671  1.00  0.00     0.040 A 
ATOM     78  F   UNL     1       3.322  -9.296  -4.427  1.00  0.00    -0.206 F 
ATOM     79  C   UNL     1       1.626  -9.450  -7.625  1.00  0.00     0.006 A 
ENDBRANCH  51  72
BRANCH  63  80
ATOM     80  C   UNL     1      -1.616 -14.593  -0.883  1.00  0.00     0.057 A 
ATOM     81  C   UNL     1      -0.741 -15.634  -1.220  1.00  0.00     0.134 A 
ATOM     82  C   UNL     1      -2.979 -14.905  -0.788  1.00  0.00     0.134 A 
ATOM     83  F   UNL     1       0.576 -15.404  -1.339  1.00  0.00    -0.206 F 
ATOM     84  C   UNL     1      -1.206 -16.926  -1.475  1.00  0.00     0.040 A 
ATOM     85  C   UNL     1      -3.453 -16.199  -1.009  1.00  0.00     0.040 A 
ATOM     86  F   UNL     1      -3.873 -13.960  -0.459  1.00  0.00    -0.206 F 
ATOM     87  C   UNL     1      -2.565 -17.213  -1.361  1.00  0.00     0.006 A 
ENDBRANCH  63  80
ENDBRANCH  37  38
ENDBRANCH  30  32
ENDBRANCH  29  30
ENDBRANCH  28  29
ENDBRANCH   1  28
TORSDOF 16
