REMARK SMILES C[C@@H]1[C@H](C(=O)OCCOC(=O)c2ccc(-c3c4nc(c(-c5c(F)cccc5F)c5ccc([nH]5)c(-c5c(F)cccc5F)c5nc(c(-c6c(F)cccc6F)c6ccc3[nH]6)C=C5)C=C4)cc2)CCN1C(=O)c1c(Cl)cccc1[N+](=O)[O-]
REMARK SMILES IDX 7 1 6 2 4 3 5 4 3 5 1 6 2 7 68 8 66 9 67 10 69 11 70 12
REMARK SMILES IDX 71 13 72 14 77 15 73 16 74 17 76 18 75 19 78 20 79 21 80 22
REMARK SMILES IDX 8 23 9 24 10 25 11 26 12 27 13 28 65 29 14 30 64 31 15 32
REMARK SMILES IDX 16 33 17 34 58 35 18 36 63 37 57 38 59 39 19 40 62 41 56 42
REMARK SMILES IDX 55 43 20 45 46 46 29 47 45 48 30 49 33 50 44 51 60 52 31 53
REMARK SMILES IDX 32 54 43 56 61 57 34 58 21 59 22 60 27 61 23 62 24 63 26 64
REMARK SMILES IDX 28 65 25 66 47 67 48 68 53 69 49 70 50 71 52 72 54 73 51 74
REMARK SMILES IDX 35 75 36 76 41 77 37 78 38 79 40 80 42 81 39 82
REMARK H PARENT 59 44 33 55
REMARK Flexibility Score: inf
ROOT
ATOM      1  C   UNL     1       1.726   4.022   1.081  1.00  0.00     0.274 C 
ENDROOT
BRANCH   1   2
ATOM      2  O   UNL     1       1.151   2.700   1.035  1.00  0.00    -0.462 OA
BRANCH   2   3
ATOM      3  C   UNL     1       0.125   2.513   0.177  1.00  0.00     0.311 C 
ATOM      4  O   UNL     1      -0.446   3.419  -0.422  1.00  0.00    -0.252 OA
BRANCH   3   5
ATOM      5  C   UNL     1      -0.291   1.069   0.021  1.00  0.00     0.123 C 
ATOM      6  C   UNL     1       1.982   0.029   0.762  1.00  0.00     0.032 C 
ATOM      7  C   UNL     1       0.754  -0.056  -0.139  1.00  0.00     0.096 C 
ATOM      8  N   UNL     1      -0.047  -1.264   0.182  1.00  0.00    -0.335 N 
ATOM      9  C   UNL     1      -1.187   0.570   1.146  1.00  0.00     0.039 C 
ATOM     10  C   UNL     1      -1.320  -0.902   0.794  1.00  0.00     0.121 C 
BRANCH   8  11
ATOM     11  C   UNL     1       0.162  -2.593  -0.139  1.00  0.00     0.262 C 
ATOM     12  O   UNL     1      -0.680  -3.472   0.031  1.00  0.00    -0.269 OA
BRANCH  11  13
ATOM     13  C   UNL     1       1.440  -3.020  -0.717  1.00  0.00     0.136 A 
ATOM     14  C   UNL     1       1.537  -3.211  -2.101  1.00  0.00     0.060 A 
ATOM     15  C   UNL     1       2.528  -3.379   0.090  1.00  0.00     0.283 A 
ATOM     16  Cl  UNL     1       0.241  -2.834  -3.182  1.00  0.00    -0.083 Cl
ATOM     17  C   UNL     1       2.716  -3.720  -2.664  1.00  0.00     0.022 A 
ATOM     18  C   UNL     1       3.721  -3.860  -0.476  1.00  0.00     0.086 A 
ATOM     19  C   UNL     1       3.809  -4.035  -1.855  1.00  0.00     0.009 A 
BRANCH  15  20
ATOM     20  N   UNL     1       2.487  -3.236   1.542  1.00  0.00     0.063 N 
ATOM     21  O   UNL     1       3.510  -2.793   2.084  1.00  0.00    -0.258 OA
ATOM     22  O   UNL     1       1.466  -3.581   2.143  1.00  0.00    -0.258 OA
ENDBRANCH  15  20
ENDBRANCH  11  13
ENDBRANCH   8  11
ENDBRANCH   3   5
ENDBRANCH   2   3
ENDBRANCH   1   2
BRANCH   1  23
ATOM     23  C   UNL     1       2.897   4.158   0.099  1.00  0.00     0.275 C 
BRANCH  23  24
ATOM     24  O   UNL     1       2.440   4.253  -1.266  1.00  0.00    -0.458 OA
BRANCH  24  25
ATOM     25  C   UNL     1       2.431   3.097  -1.968  1.00  0.00     0.338 C 
ATOM     26  O   UNL     1       2.809   1.999  -1.597  1.00  0.00    -0.246 OA
BRANCH  25  27
ATOM     27  C   UNL     1       1.726   3.293  -3.243  1.00  0.00     0.060 A 
ATOM     28  C   UNL     1       0.575   2.534  -3.472  1.00  0.00     0.016 A 
ATOM     29  C   UNL     1       2.220   4.152  -4.225  1.00  0.00     0.016 A 
ATOM     30  C   UNL     1      -0.102   2.639  -4.681  1.00  0.00     0.010 A 
ATOM     31  C   UNL     1       1.543   4.250  -5.445  1.00  0.00     0.010 A 
ATOM     32  C   UNL     1       0.382   3.493  -5.678  1.00  0.00    -0.014 A 
BRANCH  32  33
ATOM     33  C   UNL     1      -0.316   3.551  -6.980  1.00  0.00     0.031 A 
ATOM     34  C   UNL     1       0.246   2.815  -8.159  1.00  0.00     0.074 A 
ATOM     35  C   UNL     1      -1.474   4.227  -7.085  1.00  0.00     0.049 A 
ATOM     36  N   UNL     1      -0.174   2.794  -9.397  1.00  0.00    -0.248 NA
ATOM     37  C   UNL     1       1.439   1.990  -7.910  1.00  0.00     0.031 C 
ATOM     38  C   UNL     1      -2.146   4.925  -5.989  1.00  0.00     0.029 A 
ATOM     39  N   UNL     1      -2.290   4.432  -8.167  1.00  0.00    -0.354 N 
ATOM     40  C   UNL     1       0.706   1.965 -10.079  1.00  0.00     0.074 A 
ATOM     41  C   UNL     1       1.693   1.513  -9.121  1.00  0.00     0.031 C 
ATOM     42  C   UNL     1      -3.277   5.480  -6.455  1.00  0.00     0.029 A 
ATOM     43  C   UNL     1      -3.384   5.213  -7.886  1.00  0.00     0.049 A 
ATOM     44  H   UNL     1      -2.110   4.056  -9.058  1.00  0.00     0.167 HD
ATOM     45  C   UNL     1       0.687   1.612 -11.386  1.00  0.00     0.037 A 
ATOM     46  C   UNL     1      -4.348   5.680  -8.701  1.00  0.00     0.037 A 
ATOM     47  C   UNL     1      -0.300   2.060 -12.332  1.00  0.00     0.049 A 
ATOM     48  C   UNL     1      -4.303   5.333 -10.163  1.00  0.00     0.074 A 
ATOM     49  C   UNL     1      -0.395   1.775 -13.683  1.00  0.00     0.029 A 
ATOM     50  N   UNL     1      -1.369   2.888 -12.021  1.00  0.00    -0.354 N 
ATOM     51  N   UNL     1      -3.448   4.575 -10.806  1.00  0.00    -0.248 NA
ATOM     52  C   UNL     1      -5.351   5.914 -11.014  1.00  0.00     0.031 C 
ATOM     53  C   UNL     1      -1.506   2.454 -14.196  1.00  0.00     0.029 A 
ATOM     54  C   UNL     1      -2.121   3.134 -13.157  1.00  0.00     0.049 A 
ATOM     55  H   UNL     1      -1.564   3.247 -11.125  1.00  0.00     0.167 HD
ATOM     56  C   UNL     1      -3.862   4.574 -12.131  1.00  0.00     0.074 A 
ATOM     57  C   UNL     1      -5.053   5.396 -12.197  1.00  0.00     0.031 C 
ATOM     58  C   UNL     1      -3.306   3.952 -13.198  1.00  0.00     0.037 A 
BRANCH  45  59
ATOM     59  C   UNL     1       1.788   0.719 -11.871  1.00  0.00     0.057 A 
ATOM     60  C   UNL     1       1.811  -0.650 -11.578  1.00  0.00     0.134 A 
ATOM     61  C   UNL     1       2.823   1.230 -12.664  1.00  0.00     0.134 A 
ATOM     62  F   UNL     1       0.857  -1.196 -10.808  1.00  0.00    -0.206 F 
ATOM     63  C   UNL     1       2.834  -1.477 -12.043  1.00  0.00     0.040 A 
ATOM     64  C   UNL     1       3.841   0.410 -13.151  1.00  0.00     0.040 A 
ATOM     65  F   UNL     1       2.858   2.533 -12.980  1.00  0.00    -0.206 F 
ATOM     66  C   UNL     1       3.850  -0.948 -12.837  1.00  0.00     0.006 A 
ENDBRANCH  45  59
BRANCH  46  67
ATOM     67  C   UNL     1      -5.423   6.546  -8.160  1.00  0.00     0.057 A 
ATOM     68  C   UNL     1      -6.740   6.089  -8.060  1.00  0.00     0.134 A 
ATOM     69  C   UNL     1      -5.159   7.856  -7.741  1.00  0.00     0.134 A 
ATOM     70  F   UNL     1      -7.058   4.851  -8.469  1.00  0.00    -0.206 F 
ATOM     71  C   UNL     1      -7.762   6.906  -7.573  1.00  0.00     0.040 A 
ATOM     72  C   UNL     1      -6.166   8.677  -7.231  1.00  0.00     0.040 A 
ATOM     73  F   UNL     1      -3.916   8.353  -7.813  1.00  0.00    -0.206 F 
ATOM     74  C   UNL     1      -7.474   8.203  -7.152  1.00  0.00     0.006 A 
ENDBRANCH  46  67
BRANCH  58  75
ATOM     75  C   UNL     1      -3.997   4.116 -14.517  1.00  0.00     0.057 A 
ATOM     76  C   UNL     1      -3.897   5.302 -15.255  1.00  0.00     0.134 A 
ATOM     77  C   UNL     1      -4.742   3.067 -15.068  1.00  0.00     0.134 A 
ATOM     78  F   UNL     1      -3.208   6.347 -14.773  1.00  0.00    -0.206 F 
ATOM     79  C   UNL     1      -4.531   5.444 -16.490  1.00  0.00     0.040 A 
ATOM     80  C   UNL     1      -5.364   3.190 -16.310  1.00  0.00     0.040 A 
ATOM     81  F   UNL     1      -4.870   1.904 -14.411  1.00  0.00    -0.206 F 
ATOM     82  C   UNL     1      -5.263   4.383 -17.023  1.00  0.00     0.006 A 
ENDBRANCH  58  75
ENDBRANCH  32  33
ENDBRANCH  25  27
ENDBRANCH  24  25
ENDBRANCH  23  24
ENDBRANCH   1  23
TORSDOF 14
