REMARK SMILES O=C(OCCOC(=O)[C@H]1CN(C(=O)C[C@H]2NC(=O)c3ccccc32)C[C@@H]1c1ccc(F)cc1)c1ccc(-c2c3nc(c(-c4c(F)cccc4F)c4ccc([nH]4)c(-c4c(F)cccc4F)c4nc(c(-c5c(F)cccc5F)c5ccc2[nH]5)C=C4)C=C3)cc1
REMARK SMILES IDX 5 1 4 2 3 3 2 4 1 5 34 6 35 7 87 8 36 9 86 10 37 11 38 12
REMARK SMILES IDX 39 13 80 14 40 15 85 16 79 17 81 18 41 19 84 20 78 21 77 22
REMARK SMILES IDX 42 24 68 25 51 26 67 27 52 28 55 29 66 30 82 31 53 32 54 33
REMARK SMILES IDX 65 35 83 36 56 37 43 38 44 39 49 40 45 41 46 42 48 43 50 44
REMARK SMILES IDX 47 45 69 46 70 47 75 48 71 49 72 50 74 51 76 52 73 53 57 54
REMARK SMILES IDX 58 55 63 56 59 57 60 58 62 59 64 60 61 61 6 62 7 63 8 64
REMARK SMILES IDX 9 65 10 66 26 67 11 68 25 69 27 70 28 71 33 72 29 73 32 74
REMARK SMILES IDX 30 75 31 76 12 77 13 78 14 79 15 80 16 81 24 82 17 83 19 85
REMARK SMILES IDX 23 86 18 87 20 88 22 89 21 90
REMARK H PARENT 81 23 55 34 16 84
REMARK Flexibility Score: inf
ROOT
ATOM      1  C   UNL     1       2.545  -1.332   7.299  1.00  0.00     0.274 C 
ENDROOT
BRANCH   1   2
ATOM      2  C   UNL     1       1.632  -1.030   8.497  1.00  0.00     0.275 C 
BRANCH   2   3
ATOM      3  O   UNL     1       0.588  -1.986   8.726  1.00  0.00    -0.458 OA
BRANCH   3   4
ATOM      4  C   UNL     1      -0.610  -2.129   8.119  1.00  0.00     0.338 C 
ATOM      5  O   UNL     1      -1.345  -3.046   8.486  1.00  0.00    -0.246 OA
BRANCH   4   6
ATOM      6  C   UNL     1      -1.045  -1.334   6.919  1.00  0.00     0.060 A 
ATOM      7  C   UNL     1      -0.459  -0.171   6.408  1.00  0.00     0.016 A 
ATOM      8  C   UNL     1      -2.080  -1.907   6.170  1.00  0.00     0.016 A 
ATOM      9  C   UNL     1      -0.755   0.297   5.122  1.00  0.00     0.010 A 
ATOM     10  C   UNL     1      -2.353  -1.466   4.876  1.00  0.00     0.010 A 
ATOM     11  C   UNL     1      -1.677  -0.371   4.327  1.00  0.00    -0.014 A 
BRANCH  11  12
ATOM     12  C   UNL     1      -2.096   0.178   3.016  1.00  0.00     0.031 A 
ATOM     13  C   UNL     1      -3.523   0.632   2.901  1.00  0.00     0.074 A 
ATOM     14  C   UNL     1      -1.251   0.280   1.968  1.00  0.00     0.049 A 
ATOM     15  N   UNL     1      -4.168   1.087   1.863  1.00  0.00    -0.248 NA
ATOM     16  C   UNL     1      -4.346   0.544   4.125  1.00  0.00     0.031 C 
ATOM     17  C   UNL     1       0.163  -0.104   1.960  1.00  0.00     0.029 A 
ATOM     18  N   UNL     1      -1.467   0.727   0.686  1.00  0.00    -0.354 N 
ATOM     19  C   UNL     1      -5.455   1.336   2.319  1.00  0.00     0.074 A 
ATOM     20  C   UNL     1      -5.545   0.857   3.673  1.00  0.00     0.031 C 
ATOM     21  C   UNL     1       0.673   0.087   0.730  1.00  0.00     0.029 A 
ATOM     22  C   UNL     1      -0.368   0.628  -0.137  1.00  0.00     0.049 A 
ATOM     23  H   UNL     1      -2.333   1.086   0.383  1.00  0.00     0.167 HD
ATOM     24  C   UNL     1      -6.452   2.000   1.700  1.00  0.00     0.037 A 
ATOM     25  C   UNL     1      -0.222   0.954  -1.438  1.00  0.00     0.037 A 
ATOM     26  C   UNL     1      -6.336   2.540   0.381  1.00  0.00     0.049 A 
ATOM     27  C   UNL     1      -1.381   1.613  -2.144  1.00  0.00     0.074 A 
ATOM     28  C   UNL     1      -7.265   3.271  -0.330  1.00  0.00     0.029 A 
ATOM     29  N   UNL     1      -5.210   2.412  -0.418  1.00  0.00    -0.354 N 
ATOM     30  N   UNL     1      -2.567   1.916  -1.672  1.00  0.00    -0.248 NA
ATOM     31  C   UNL     1      -1.176   2.011  -3.545  1.00  0.00     0.031 C 
ATOM     32  C   UNL     1      -6.719   3.546  -1.584  1.00  0.00     0.029 A 
ATOM     33  C   UNL     1      -5.429   3.035  -1.630  1.00  0.00     0.049 A 
ATOM     34  H   UNL     1      -4.381   1.948  -0.160  1.00  0.00     0.167 HD
ATOM     35  C   UNL     1      -3.229   2.581  -2.696  1.00  0.00     0.074 A 
ATOM     36  C   UNL     1      -2.312   2.640  -3.816  1.00  0.00     0.031 C 
ATOM     37  C   UNL     1      -4.479   3.103  -2.710  1.00  0.00     0.037 A 
BRANCH  24  38
ATOM     38  C   UNL     1      -7.713   2.216   2.474  1.00  0.00     0.057 A 
ATOM     39  C   UNL     1      -8.891   1.550   2.124  1.00  0.00     0.134 A 
ATOM     40  C   UNL     1      -7.758   3.090   3.571  1.00  0.00     0.134 A 
ATOM     41  F   UNL     1      -8.908   0.693   1.093  1.00  0.00    -0.206 F 
ATOM     42  C   UNL     1     -10.075   1.753   2.832  1.00  0.00     0.040 A 
ATOM     43  C   UNL     1      -8.929   3.277   4.305  1.00  0.00     0.040 A 
ATOM     44  F   UNL     1      -6.651   3.731   3.978  1.00  0.00    -0.206 F 
ATOM     45  C   UNL     1     -10.095   2.615   3.928  1.00  0.00     0.006 A 
ENDBRANCH  24  38
BRANCH  25  46
ATOM     46  C   UNL     1       1.065   0.717  -2.149  1.00  0.00     0.057 A 
ATOM     47  C   UNL     1       1.503  -0.577  -2.459  1.00  0.00     0.134 A 
ATOM     48  C   UNL     1       1.871   1.781  -2.577  1.00  0.00     0.134 A 
ATOM     49  F   UNL     1       0.788  -1.644  -2.071  1.00  0.00    -0.206 F 
ATOM     50  C   UNL     1       2.684  -0.803  -3.172  1.00  0.00     0.040 A 
ATOM     51  C   UNL     1       3.043   1.571  -3.309  1.00  0.00     0.040 A 
ATOM     52  F   UNL     1       1.504   3.046  -2.327  1.00  0.00    -0.206 F 
ATOM     53  C   UNL     1       3.453   0.274  -3.608  1.00  0.00     0.006 A 
ENDBRANCH  25  46
BRANCH  37  54
ATOM     54  C   UNL     1      -4.930   3.818  -3.947  1.00  0.00     0.057 A 
ATOM     55  C   UNL     1      -5.163   5.200  -3.917  1.00  0.00     0.134 A 
ATOM     56  C   UNL     1      -5.268   3.125  -5.113  1.00  0.00     0.134 A 
ATOM     57  F   UNL     1      -4.875   5.917  -2.820  1.00  0.00    -0.206 F 
ATOM     58  C   UNL     1      -5.750   5.861  -4.995  1.00  0.00     0.040 A 
ATOM     59  C   UNL     1      -5.826   3.781  -6.210  1.00  0.00     0.040 A 
ATOM     60  F   UNL     1      -5.061   1.802  -5.202  1.00  0.00    -0.206 F 
ATOM     61  C   UNL     1      -6.084   5.150  -6.145  1.00  0.00     0.006 A 
ENDBRANCH  37  54
ENDBRANCH  11  12
ENDBRANCH   4   6
ENDBRANCH   3   4
ENDBRANCH   2   3
ENDBRANCH   1   2
BRANCH   1  62
ATOM     62  O   UNL     1       1.869  -1.696   6.077  1.00  0.00    -0.462 OA
BRANCH  62  63
ATOM     63  C   UNL     1       1.573  -3.022   5.930  1.00  0.00     0.311 C 
ATOM     64  O   UNL     1       1.829  -3.866   6.776  1.00  0.00    -0.252 OA
BRANCH  63  65
ATOM     65  C   UNL     1       1.009  -3.319   4.539  1.00  0.00     0.128 C 
ATOM     66  C   UNL     1       1.981  -4.304   3.933  1.00  0.00     0.135 C 
ATOM     67  C   UNL     1      -0.314  -4.120   4.496  1.00  0.00     0.055 C 
ATOM     68  N   UNL     1       1.529  -5.591   4.445  1.00  0.00    -0.341 N 
ATOM     69  C   UNL     1       0.115  -5.568   4.746  1.00  0.00     0.128 C 
BRANCH  67  70
ATOM     70  C   UNL     1      -1.164  -4.003   3.224  1.00  0.00    -0.042 A 
ATOM     71  C   UNL     1      -2.486  -4.492   3.258  1.00  0.00     0.007 A 
ATOM     72  C   UNL     1      -0.726  -3.398   2.034  1.00  0.00     0.007 A 
ATOM     73  C   UNL     1      -3.346  -4.338   2.165  1.00  0.00     0.039 A 
ATOM     74  C   UNL     1      -1.587  -3.242   0.940  1.00  0.00     0.039 A 
ATOM     75  C   UNL     1      -2.890  -3.705   1.018  1.00  0.00     0.123 A 
ATOM     76  F   UNL     1      -3.717  -3.543  -0.023  1.00  0.00    -0.207 F 
ENDBRANCH  67  70
BRANCH  68  77
ATOM     77  C   UNL     1       2.305  -6.632   4.900  1.00  0.00     0.225 C 
ATOM     78  O   UNL     1       1.833  -7.628   5.444  1.00  0.00    -0.275 OA
BRANCH  77  79
ATOM     79  C   UNL     1       3.783  -6.507   4.650  1.00  0.00     0.130 C 
BRANCH  79  80
ATOM     80  C   UNL     1       3.987  -6.557   3.141  1.00  0.00     0.123 C 
ATOM     81  N   UNL     1       4.688  -5.394   2.617  1.00  0.00    -0.345 N 
ATOM     82  C   UNL     1       4.884  -7.673   2.718  1.00  0.00    -0.012 A 
ATOM     83  C   UNL     1       5.814  -5.715   1.895  1.00  0.00     0.252 C 
ATOM     84  H   UNL     1       4.386  -4.469   2.764  1.00  0.00     0.164 HD
ATOM     85  C   UNL     1       5.952  -7.173   1.975  1.00  0.00     0.045 A 
ATOM     86  C   UNL     1       4.754  -9.030   2.951  1.00  0.00     0.007 A 
ATOM     87  O   UNL     1       6.529  -4.942   1.302  1.00  0.00    -0.269 OA
ATOM     88  C   UNL     1       6.925  -7.984   1.438  1.00  0.00     0.014 A 
ATOM     89  C   UNL     1       5.734  -9.873   2.426  1.00  0.00     0.000 A 
ATOM     90  C   UNL     1       6.808  -9.355   1.675  1.00  0.00     0.001 A 
ENDBRANCH  79  80
ENDBRANCH  77  79
ENDBRANCH  68  77
ENDBRANCH  63  65
ENDBRANCH  62  63
ENDBRANCH   1  62
TORSDOF 15
