REMARK SMILES C[C@@H]1OCC[C@H]1C(=O)N[C@]1(C(=O)OCCOC(=O)c2ccc(-c3c4nc(c(-c5c(F)cccc5F)c5ccc([nH]5)c(-c5c(F)cccc5F)c5nc(c(-c6c(F)cccc6F)c6ccc3[nH]6)C=C5)C=C4)cc2)CCOC1
REMARK SMILES IDX 14 1 13 2 11 3 12 4 10 5 73 6 76 7 74 8 75 9 9 10 7 11 8 12
REMARK SMILES IDX 6 14 1 15 2 16 3 17 4 18 5 19 15 20 16 21 17 22 18 23 19 24
REMARK SMILES IDX 20 25 72 26 21 27 71 28 22 29 23 30 24 31 65 32 25 33 70 34
REMARK SMILES IDX 64 35 66 36 26 37 69 38 63 39 62 40 27 42 53 43 36 44 52 45
REMARK SMILES IDX 37 46 40 47 51 48 67 49 38 50 39 51 50 53 68 54 41 55 28 56
REMARK SMILES IDX 29 57 34 58 30 59 31 60 33 61 35 62 32 63 54 64 55 65 60 66
REMARK SMILES IDX 56 67 57 68 59 69 61 70 58 71 42 72 43 73 48 74 44 75 45 76
REMARK SMILES IDX 47 77 49 78 46 79
REMARK H PARENT 9 13 66 41 40 52
REMARK Flexibility Score: inf
ROOT
ATOM      1  C   UNL     1      -2.192  -1.898  -1.178  1.00  0.00     0.274 C 
ENDROOT
BRANCH   1   2
ATOM      2  O   UNL     1      -2.188  -1.496   0.199  1.00  0.00    -0.460 OA
BRANCH   2   3
ATOM      3  C   UNL     1      -1.165  -1.927   0.991  1.00  0.00     0.334 C 
ATOM      4  O   UNL     1      -0.343  -2.777   0.681  1.00  0.00    -0.249 OA
BRANCH   3   5
ATOM      5  C   UNL     1      -1.208  -1.184   2.335  1.00  0.00     0.163 C 
ATOM      6  C   UNL     1      -2.687  -1.188   2.793  1.00  0.00     0.071 C 
ATOM      7  C   UNL     1      -0.614  -2.044   3.456  1.00  0.00     0.200 C 
ATOM      8  C   UNL     1      -2.633  -1.226   4.300  1.00  0.00     0.163 C 
ATOM      9  O   UNL     1      -1.363  -1.771   4.659  1.00  0.00    -0.378 OA
BRANCH   5  10
ATOM     10  N   UNL     1      -0.702   0.233   2.397  1.00  0.00    -0.338 N 
ATOM     11  C   UNL     1       0.480   0.876   2.260  1.00  0.00     0.226 C 
ATOM     12  O   UNL     1       0.699   1.687   3.176  1.00  0.00    -0.275 OA
ATOM     13  H   UNL     1      -1.432   0.864   2.592  1.00  0.00     0.164 HD
BRANCH  11  14
ATOM     14  C   UNL     1       1.425   0.934   1.055  1.00  0.00     0.109 C 
ATOM     15  C   UNL     1       3.381  -0.051  -0.181  1.00  0.00     0.039 C 
ATOM     16  C   UNL     1       2.019  -0.328   0.475  1.00  0.00     0.127 C 
ATOM     17  O   UNL     1       1.151  -0.718  -0.601  1.00  0.00    -0.378 OA
ATOM     18  C   UNL     1       0.323   0.397  -0.941  1.00  0.00     0.161 C 
ATOM     19  C   UNL     1       0.803   1.583  -0.157  1.00  0.00     0.044 C 
ENDBRANCH  11  14
ENDBRANCH   5  10
ENDBRANCH   3   5
ENDBRANCH   2   3
ENDBRANCH   1   2
BRANCH   1  20
ATOM     20  C   UNL     1      -3.054  -0.903  -1.980  1.00  0.00     0.275 C 
BRANCH  20  21
ATOM     21  O   UNL     1      -2.737   0.481  -1.672  1.00  0.00    -0.458 OA
BRANCH  21  22
ATOM     22  C   UNL     1      -3.437   1.024  -0.640  1.00  0.00     0.338 C 
ATOM     23  O   UNL     1      -4.382   0.508  -0.060  1.00  0.00    -0.246 OA
BRANCH  22  24
ATOM     24  C   UNL     1      -2.804   2.284  -0.157  1.00  0.00     0.060 A 
ATOM     25  C   UNL     1      -2.758   2.493   1.228  1.00  0.00     0.016 A 
ATOM     26  C   UNL     1      -2.255   3.250  -1.008  1.00  0.00     0.016 A 
ATOM     27  C   UNL     1      -2.150   3.630   1.770  1.00  0.00     0.010 A 
ATOM     28  C   UNL     1      -1.669   4.413  -0.464  1.00  0.00     0.010 A 
ATOM     29  C   UNL     1      -1.621   4.616   0.930  1.00  0.00    -0.014 A 
BRANCH  29  30
ATOM     30  C   UNL     1      -1.269   5.937   1.526  1.00  0.00     0.031 A 
ATOM     31  C   UNL     1      -2.349   6.987   1.577  1.00  0.00     0.074 A 
ATOM     32  C   UNL     1      -0.081   6.199   2.107  1.00  0.00     0.049 A 
ATOM     33  N   UNL     1      -2.342   8.169   2.139  1.00  0.00    -0.248 NA
ATOM     34  C   UNL     1      -3.616   6.642   0.914  1.00  0.00     0.031 C 
ATOM     35  C   UNL     1       1.048   5.279   2.201  1.00  0.00     0.029 A 
ATOM     36  N   UNL     1       0.361   7.337   2.747  1.00  0.00    -0.354 N 
ATOM     37  C   UNL     1      -3.607   8.695   1.919  1.00  0.00     0.074 A 
ATOM     38  C   UNL     1      -4.338   7.729   1.128  1.00  0.00     0.031 C 
ATOM     39  C   UNL     1       2.056   5.889   2.856  1.00  0.00     0.029 A 
ATOM     40  C   UNL     1       1.647   7.245   3.226  1.00  0.00     0.049 A 
ATOM     41  H   UNL     1      -0.194   8.143   2.853  1.00  0.00     0.167 HD
ATOM     42  C   UNL     1      -4.134   9.866   2.348  1.00  0.00     0.037 A 
ATOM     43  C   UNL     1       2.403   8.146   3.889  1.00  0.00     0.037 A 
ATOM     44  C   UNL     1      -3.426  10.858   3.108  1.00  0.00     0.049 A 
ATOM     45  C   UNL     1       1.832   9.498   4.252  1.00  0.00     0.074 A 
ATOM     46  C   UNL     1      -3.886  12.079   3.568  1.00  0.00     0.029 A 
ATOM     47  N   UNL     1      -2.104  10.752   3.505  1.00  0.00    -0.354 N 
ATOM     48  N   UNL     1       0.618   9.963   4.081  1.00  0.00    -0.248 NA
ATOM     49  C   UNL     1       2.743  10.451   4.912  1.00  0.00     0.031 C 
ATOM     50  C   UNL     1      -2.825  12.736   4.200  1.00  0.00     0.029 A 
ATOM     51  C   UNL     1      -1.721  11.901   4.177  1.00  0.00     0.049 A 
ATOM     52  H   UNL     1      -1.522   9.976   3.334  1.00  0.00     0.167 HD
ATOM     53  C   UNL     1       0.612  11.236   4.644  1.00  0.00     0.074 A 
ATOM     54  C   UNL     1       1.937  11.470   5.171  1.00  0.00     0.031 C 
ATOM     55  C   UNL     1      -0.406  12.130   4.717  1.00  0.00     0.037 A 
BRANCH  42  56
ATOM     56  C   UNL     1      -5.556  10.138   1.965  1.00  0.00     0.057 A 
ATOM     57  C   UNL     1      -6.621   9.453   2.562  1.00  0.00     0.134 A 
ATOM     58  C   UNL     1      -5.859  11.079   0.974  1.00  0.00     0.134 A 
ATOM     59  F   UNL     1      -6.390   8.522   3.501  1.00  0.00    -0.206 F 
ATOM     60  C   UNL     1      -7.940   9.671   2.164  1.00  0.00     0.040 A 
ATOM     61  C   UNL     1      -7.176  11.324   0.586  1.00  0.00     0.040 A 
ATOM     62  F   UNL     1      -4.882  11.765   0.363  1.00  0.00    -0.206 F 
ATOM     63  C   UNL     1      -8.220  10.613   1.175  1.00  0.00     0.006 A 
ENDBRANCH  42  56
BRANCH  43  64
ATOM     64  C   UNL     1       3.809   7.832   4.264  1.00  0.00     0.057 A 
ATOM     65  C   UNL     1       4.196   7.710   5.605  1.00  0.00     0.134 A 
ATOM     66  C   UNL     1       4.818   7.756   3.296  1.00  0.00     0.134 A 
ATOM     67  F   UNL     1       3.284   7.816   6.583  1.00  0.00    -0.206 F 
ATOM     68  C   UNL     1       5.535   7.555   5.971  1.00  0.00     0.040 A 
ATOM     69  C   UNL     1       6.158   7.577   3.646  1.00  0.00     0.040 A 
ATOM     70  F   UNL     1       4.518   7.881   1.995  1.00  0.00    -0.206 F 
ATOM     71  C   UNL     1       6.521   7.488   4.988  1.00  0.00     0.006 A 
ENDBRANCH  43  64
BRANCH  55  72
ATOM     72  C   UNL     1      -0.151  13.433   5.422  1.00  0.00     0.057 A 
ATOM     73  C   UNL     1       0.661  14.431   4.868  1.00  0.00     0.134 A 
ATOM     74  C   UNL     1      -0.774  13.717   6.645  1.00  0.00     0.134 A 
ATOM     75  F   UNL     1       1.296  14.223   3.704  1.00  0.00    -0.206 F 
ATOM     76  C   UNL     1       0.860  15.654   5.513  1.00  0.00     0.040 A 
ATOM     77  C   UNL     1      -0.605  14.946   7.286  1.00  0.00     0.040 A 
ATOM     78  F   UNL     1      -1.574  12.812   7.228  1.00  0.00    -0.206 F 
ATOM     79  C   UNL     1       0.219  15.917   6.722  1.00  0.00     0.006 A 
ENDBRANCH  55  72
ENDBRANCH  29  30
ENDBRANCH  22  24
ENDBRANCH  21  22
ENDBRANCH  20  21
ENDBRANCH   1  20
TORSDOF 13
