REMARK SMILES O=C(OCCOC(=O)[C@H]1[C@@H]2C[C@H]3C[C@@H](C2)C[C@]1(n1ncc(N2CCN(c4ccc(F)cc4)CC2)c(Cl)c1=O)C3)c1ccc(-c2c3nc(c(-c4c(F)cccc4F)c4ccc([nH]4)c(-c4c(F)cccc4F)c4nc(c(-c5c(F)cccc5F)c5ccc2[nH]5)C=C4)C=C3)cc1
REMARK SMILES IDX 5 1 4 2 3 3 2 4 1 5 40 6 41 7 93 8 42 9 92 10 43 11 44 12
REMARK SMILES IDX 45 13 86 14 46 15 91 16 85 17 87 18 47 19 90 20 84 21 83 22
REMARK SMILES IDX 48 24 74 25 57 26 73 27 58 28 61 29 72 30 88 31 59 32 60 33
REMARK SMILES IDX 71 35 89 36 62 37 49 38 50 39 55 40 51 41 52 42 54 43 56 44
REMARK SMILES IDX 53 45 75 46 76 47 81 48 77 49 78 50 80 51 82 52 79 53 63 54
REMARK SMILES IDX 64 55 69 56 65 57 66 58 68 59 70 60 67 61 6 62 7 63 8 64
REMARK SMILES IDX 9 65 10 66 17 67 15 68 11 69 39 70 16 71 14 72 12 73 13 74
REMARK SMILES IDX 18 75 19 76 37 77 20 78 35 79 38 80 21 81 36 82 22 83 23 84
REMARK SMILES IDX 34 85 24 86 33 87 25 88 26 89 27 90 32 91 28 92 31 93 29 94
REMARK SMILES IDX 30 95
REMARK H PARENT 87 23 61 34
REMARK Flexibility Score: inf
ROOT
ATOM      1  C   UNL     1       2.692   0.012   2.342  1.00  0.00     0.274 C 
ENDROOT
BRANCH   1   2
ATOM      2  C   UNL     1       3.766   0.994   1.728  1.00  0.00     0.275 C 
BRANCH   2   3
ATOM      3  O   UNL     1       3.212   1.931   0.805  1.00  0.00    -0.458 OA
BRANCH   3   4
ATOM      4  C   UNL     1       2.908   1.629  -0.469  1.00  0.00     0.338 C 
ATOM      5  O   UNL     1       2.165   2.373  -1.108  1.00  0.00    -0.246 OA
BRANCH   4   6
ATOM      6  C   UNL     1       3.329   0.384  -1.163  1.00  0.00     0.060 A 
ATOM      7  C   UNL     1       2.330   0.052  -2.768  1.00  0.00     0.016 A 
ATOM      8  C   UNL     1       4.569  -1.148  -0.867  1.00  0.00     0.016 A 
ATOM      9  C   UNL     1       2.866  -1.261  -4.058  1.00  0.00     0.010 A 
ATOM     10  C   UNL     1       4.615  -2.881  -1.954  1.00  0.00     0.010 A 
ATOM     11  C   UNL     1       4.038  -2.751  -3.834  1.00  0.00    -0.014 A 
BRANCH  11  12
ATOM     12  C   UNL     1       4.637  -3.544  -4.942  1.00  0.00     0.031 A 
ATOM     13  C   UNL     1       5.054  -4.967  -4.719  1.00  0.00     0.074 A 
ATOM     14  C   UNL     1       5.151  -2.895  -6.005  1.00  0.00     0.049 A 
ATOM     15  N   UNL     1       5.710  -5.824  -5.453  1.00  0.00    -0.248 NA
ATOM     16  C   UNL     1       4.798  -5.483  -3.388  1.00  0.00     0.031 C 
ATOM     17  C   UNL     1       5.156  -1.449  -6.256  1.00  0.00     0.029 A 
ATOM     18  N   UNL     1       5.918  -3.394  -7.021  1.00  0.00    -0.354 N 
ATOM     19  C   UNL     1       5.869  -6.934  -4.616  1.00  0.00     0.074 A 
ATOM     20  C   UNL     1       5.650  -6.481  -3.277  1.00  0.00     0.031 C 
ATOM     21  C   UNL     1       5.976  -1.175  -7.282  1.00  0.00     0.029 A 
ATOM     22  C   UNL     1       6.508  -2.426  -7.790  1.00  0.00     0.049 A 
ATOM     23  H   UNL     1       6.036  -4.358  -7.184  1.00  0.00     0.167 HD
ATOM     24  C   UNL     1       5.894  -8.246  -4.964  1.00  0.00     0.037 A 
ATOM     25  C   UNL     1       7.400  -2.563  -8.783  1.00  0.00     0.037 A 
ATOM     26  C   UNL     1       6.140  -8.586  -6.333  1.00  0.00     0.049 A 
ATOM     27  C   UNL     1       7.721  -3.965  -9.216  1.00  0.00     0.074 A 
ATOM     28  C   UNL     1       6.138  -9.785  -7.010  1.00  0.00     0.029 A 
ATOM     29  N   UNL     1       6.521  -7.609  -7.245  1.00  0.00    -0.354 N 
ATOM     30  N   UNL     1       7.311  -5.104  -8.702  1.00  0.00    -0.248 NA
ATOM     31  C   UNL     1       8.588  -4.109 -10.386  1.00  0.00     0.031 C 
ATOM     32  C   UNL     1       6.722  -9.544  -8.270  1.00  0.00     0.029 A 
ATOM     33  C   UNL     1       7.010  -8.188  -8.385  1.00  0.00     0.049 A 
ATOM     34  H   UNL     1       6.451  -6.639  -7.093  1.00  0.00     0.167 HD
ATOM     35  C   UNL     1       7.845  -6.105  -9.500  1.00  0.00     0.074 A 
ATOM     36  C   UNL     1       8.597  -5.427 -10.542  1.00  0.00     0.031 C 
ATOM     37  C   UNL     1       7.736  -7.456  -9.392  1.00  0.00     0.037 A 
BRANCH  24  38
ATOM     38  C   UNL     1       5.599  -9.265  -3.876  1.00  0.00     0.057 A 
ATOM     39  C   UNL     1       6.372 -10.393  -3.606  1.00  0.00     0.134 A 
ATOM     40  C   UNL     1       4.508  -9.076  -3.007  1.00  0.00     0.134 A 
ATOM     41  F   UNL     1       7.425 -10.702  -4.374  1.00  0.00    -0.206 F 
ATOM     42  C   UNL     1       6.096 -11.234  -2.511  1.00  0.00     0.040 A 
ATOM     43  C   UNL     1       4.268  -9.845  -1.869  1.00  0.00     0.040 A 
ATOM     44  F   UNL     1       3.639  -8.083  -3.237  1.00  0.00    -0.206 F 
ATOM     45  C   UNL     1       5.058 -10.948  -1.624  1.00  0.00     0.006 A 
ENDBRANCH  24  38
BRANCH  25  46
ATOM     46  C   UNL     1       7.951  -1.353  -9.439  1.00  0.00     0.057 A 
ATOM     47  C   UNL     1       8.836  -0.494  -8.771  1.00  0.00     0.134 A 
ATOM     48  C   UNL     1       7.533  -0.972 -10.718  1.00  0.00     0.134 A 
ATOM     49  F   UNL     1       9.248  -0.779  -7.527  1.00  0.00    -0.206 F 
ATOM     50  C   UNL     1       9.284   0.696  -9.351  1.00  0.00     0.040 A 
ATOM     51  C   UNL     1       7.988   0.205 -11.318  1.00  0.00     0.040 A 
ATOM     52  F   UNL     1       6.674  -1.741 -11.401  1.00  0.00    -0.206 F 
ATOM     53  C   UNL     1       8.863   1.045 -10.632  1.00  0.00     0.006 A 
ENDBRANCH  25  46
BRANCH  37  54
ATOM     54  C   UNL     1       8.488  -8.270 -10.385  1.00  0.00     0.057 A 
ATOM     55  C   UNL     1       7.810  -9.042 -11.332  1.00  0.00     0.134 A 
ATOM     56  C   UNL     1       9.884  -8.345 -10.342  1.00  0.00     0.134 A 
ATOM     57  F   UNL     1       6.470  -9.021 -11.399  1.00  0.00    -0.206 F 
ATOM     58  C   UNL     1       8.501  -9.880 -12.201  1.00  0.00     0.040 A 
ATOM     59  C   UNL     1      10.588  -9.149 -11.232  1.00  0.00     0.040 A 
ATOM     60  F   UNL     1      10.579  -7.620  -9.452  1.00  0.00    -0.206 F 
ATOM     61  C   UNL     1       9.894  -9.928 -12.157  1.00  0.00     0.006 A 
ENDBRANCH  37  54
ENDBRANCH  11  12
ENDBRANCH   4   6
ENDBRANCH   3   4
ENDBRANCH   2   3
ENDBRANCH   1   2
BRANCH   1  62
ATOM     62  O   UNL     1       1.807  -0.597   1.310  1.00  0.00    -0.462 OA
BRANCH  62  63
ATOM     63  C   UNL     1       1.400  -1.947   1.153  1.00  0.00     0.311 C 
ATOM     64  O   UNL     1       0.887  -2.576   2.063  1.00  0.00    -0.252 OA
BRANCH  63  65
ATOM     65  C   UNL     1       1.757  -2.529  -0.421  1.00  0.00     0.130 C 
ATOM     66  C   UNL     1       2.782  -1.389  -0.840  1.00  0.00     0.006 C 
ATOM     67  C   UNL     1       2.614  -3.687  -1.019  1.00  0.00     0.081 C 
ATOM     68  C   UNL     1       3.852  -2.136   0.681  1.00  0.00     0.008 C 
ATOM     69  C   UNL     1       4.082  -0.550  -2.458  1.00  0.00     0.008 C 
ATOM     70  C   UNL     1       2.930  -2.506  -2.411  1.00  0.00     0.035 C 
ATOM     71  C   UNL     1       4.061  -4.248  -0.200  1.00  0.00     0.035 C 
ATOM     72  C   UNL     1       5.266  -3.003   0.086  1.00  0.00    -0.008 C 
ATOM     73  C   UNL     1       4.894  -1.494  -2.808  1.00  0.00    -0.008 C 
ATOM     74  C   UNL     1       6.290  -2.089  -1.405  1.00  0.00     0.007 C 
BRANCH  67  75
ATOM     75  N   UNL     1       1.781  -4.988  -1.478  1.00  0.00    -0.222 N 
ATOM     76  N   UNL     1       1.843  -5.400  -2.814  1.00  0.00    -0.175 NA
ATOM     77  C   UNL     1       1.189  -5.848  -0.549  1.00  0.00     0.288 A 
ATOM     78  C   UNL     1       1.423  -6.588  -3.165  1.00  0.00     0.161 A 
ATOM     79  C   UNL     1       0.684  -7.205  -1.058  1.00  0.00     0.132 A 
ATOM     80  O   UNL     1       1.117  -5.555   0.643  1.00  0.00    -0.266 OA
ATOM     81  C   UNL     1       0.823  -7.673  -2.317  1.00  0.00     0.082 A 
ATOM     82  Cl  UNL     1      -0.005  -8.229   0.169  1.00  0.00    -0.076 Cl
BRANCH  81  83
ATOM     83  N   UNL     1       0.422  -8.927  -2.903  1.00  0.00    -0.365 N 
ATOM     84  C   UNL     1       1.307  -9.960  -3.520  1.00  0.00     0.138 C 
ATOM     85  C   UNL     1      -0.962  -9.481  -2.872  1.00  0.00     0.138 C 
ATOM     86  C   UNL     1       1.357 -11.241  -2.632  1.00  0.00     0.138 C 
ATOM     87  C   UNL     1      -1.068 -10.876  -2.171  1.00  0.00     0.138 C 
ATOM     88  N   UNL     1       0.012 -11.818  -2.532  1.00  0.00    -0.368 N 
BRANCH  88  89
ATOM     89  C   UNL     1      -0.239 -13.036  -3.135  1.00  0.00     0.037 A 
ATOM     90  C   UNL     1      -0.853 -13.117  -4.391  1.00  0.00     0.029 A 
ATOM     91  C   UNL     1       0.142 -14.239  -2.515  1.00  0.00     0.029 A 
ATOM     92  C   UNL     1      -1.097 -14.354  -5.002  1.00  0.00     0.041 A 
ATOM     93  C   UNL     1      -0.114 -15.482  -3.112  1.00  0.00     0.041 A 
ATOM     94  C   UNL     1      -0.736 -15.526  -4.351  1.00  0.00     0.123 A 
ATOM     95  F   UNL     1      -0.989 -16.709  -4.927  1.00  0.00    -0.207 F 
ENDBRANCH  88  89
ENDBRANCH  81  83
ENDBRANCH  67  75
ENDBRANCH  63  65
ENDBRANCH  62  63
ENDBRANCH   1  62
TORSDOF 14
