REMARK SMILES CCSc1ccc(-c2cc(Cl)cc3c2O[C@H](C(F)(F)F)C(C(=O)OCCOC(=O)c2ccc(-c4c5nc(c(-c6c(F)cccc6F)c6ccc([nH]6)c(-c6c(F)cccc6F)c6nc(c(-c7c(F)cccc7F)c7ccc4[nH]7)C=C6)C=C5)cc2)=C3)cc1
REMARK SMILES IDX 25 1 24 2 22 3 23 4 21 5 8 6 9 7 14 8 10 9 13 10 15 11 11 12
REMARK SMILES IDX 12 13 84 14 16 15 7 16 4 17 5 18 86 19 6 20 85 21 3 22 2 23
REMARK SMILES IDX 1 24 17 25 18 26 19 27 20 28 26 29 27 30 28 31 29 32 30 33
REMARK SMILES IDX 31 34 83 35 32 36 82 37 33 38 34 39 35 40 76 41 36 42 81 43
REMARK SMILES IDX 75 44 77 45 37 46 80 47 74 48 73 49 38 51 64 52 47 53 63 54
REMARK SMILES IDX 48 55 51 56 62 57 78 58 49 59 50 60 61 62 79 63 52 64 39 65
REMARK SMILES IDX 40 66 45 67 41 68 42 69 44 70 46 71 43 72 65 73 66 74 71 75
REMARK SMILES IDX 67 76 68 77 70 78 72 79 69 80 53 81 54 82 59 83 55 84 56 85
REMARK SMILES IDX 58 86 60 87 57 88
REMARK H PARENT 77 50 51 61
REMARK Flexibility Score: inf
ROOT
ATOM      1  C   UNL     1      13.883   1.923   0.217  1.00  0.00     0.275 C 
ENDROOT
BRANCH   1   2
ATOM      2  O   UNL     1      12.877   2.691   0.926  1.00  0.00    -0.459 OA
BRANCH   2   3
ATOM      3  C   UNL     1      12.866   3.998   0.554  1.00  0.00     0.338 C 
ATOM      4  O   UNL     1      13.643   4.488  -0.259  1.00  0.00    -0.246 OA
BRANCH   3   5
ATOM      5  C   UNL     1      11.765   4.798   1.149  1.00  0.00     0.087 C 
ATOM      6  C   UNL     1       7.889   3.970   0.232  1.00  0.00     0.026 A 
ATOM      7  C   UNL     1       8.057   3.343  -1.030  1.00  0.00     0.033 A 
ATOM      8  C   UNL     1       9.050   4.590   0.708  1.00  0.00     0.135 A 
ATOM      9  C   UNL     1       9.209   3.463  -1.817  1.00  0.00     0.042 A 
ATOM     10  C   UNL     1      10.072   4.942  -0.212  1.00  0.00     0.019 A 
ATOM     11  O   UNL     1       9.397   4.696   2.051  1.00  0.00    -0.475 OA
ATOM     12  Cl  UNL     1       9.545   2.512  -3.203  1.00  0.00    -0.084 Cl
ATOM     13  C   UNL     1      10.166   4.374  -1.466  1.00  0.00     0.032 A 
ATOM     14  C   UNL     1      11.246   5.682   0.282  1.00  0.00     0.027 C 
ATOM     15  C   UNL     1      10.861   4.359   2.286  1.00  0.00     0.316 C 
BRANCH   6  16
ATOM     16  C   UNL     1       6.454   4.071   0.684  1.00  0.00    -0.015 A 
ATOM     17  C   UNL     1       3.588   3.743   0.428  1.00  0.00     0.007 A 
ATOM     18  C   UNL     1       4.346   2.880   1.221  1.00  0.00     0.015 A 
ATOM     19  C   UNL     1       4.251   4.835  -0.137  1.00  0.00     0.015 A 
ATOM     20  C   UNL     1       5.752   3.069   1.379  1.00  0.00     0.010 A 
ATOM     21  C   UNL     1       5.644   4.999  -0.005  1.00  0.00     0.010 A 
BRANCH  17  22
ATOM     22  S   UNL     1       1.885   3.495  -0.078  1.00  0.00    -0.126 SA
BRANCH  22  23
ATOM     23  C   UNL     1       1.042   2.789   1.377  1.00  0.00     0.071 C 
ATOM     24  C   UNL     1       0.894   1.284   1.288  1.00  0.00     0.016 C 
ENDBRANCH  22  23
ENDBRANCH  17  22
ENDBRANCH   6  16
BRANCH  15  25
ATOM     25  C   UNL     1      11.400   5.085   3.525  1.00  0.00     0.430 C 
ATOM     26  F   UNL     1      11.243   6.428   3.425  1.00  0.00    -0.167 F 
ATOM     27  F   UNL     1      10.795   4.683   4.661  1.00  0.00    -0.167 F 
ATOM     28  F   UNL     1      12.730   4.856   3.680  1.00  0.00    -0.167 F 
ENDBRANCH  15  25
ENDBRANCH   3   5
ENDBRANCH   2   3
ENDBRANCH   1   2
BRANCH   1  29
ATOM     29  C   UNL     1      13.621   0.414   0.234  1.00  0.00     0.275 C 
BRANCH  29  30
ATOM     30  O   UNL     1      12.318   0.100  -0.294  1.00  0.00    -0.458 OA
BRANCH  30  31
ATOM     31  C   UNL     1      11.353  -0.010   0.654  1.00  0.00     0.338 C 
ATOM     32  O   UNL     1      11.515   0.084   1.855  1.00  0.00    -0.246 OA
BRANCH  31  33
ATOM     33  C   UNL     1      10.004  -0.122   0.038  1.00  0.00     0.060 A 
ATOM     34  C   UNL     1       8.955   0.422   0.769  1.00  0.00     0.016 A 
ATOM     35  C   UNL     1       9.726  -0.733  -1.193  1.00  0.00     0.016 A 
ATOM     36  C   UNL     1       7.662   0.395   0.247  1.00  0.00     0.010 A 
ATOM     37  C   UNL     1       8.407  -0.745  -1.715  1.00  0.00     0.010 A 
ATOM     38  C   UNL     1       7.354  -0.148  -1.014  1.00  0.00    -0.014 A 
BRANCH  38  39
ATOM     39  C   UNL     1       5.913  -0.087  -1.456  1.00  0.00     0.031 A 
ATOM     40  C   UNL     1       4.888  -0.858  -0.679  1.00  0.00     0.074 A 
ATOM     41  C   UNL     1       5.450   0.785  -2.382  1.00  0.00     0.049 A 
ATOM     42  N   UNL     1       3.594  -0.911  -0.856  1.00  0.00    -0.248 NA
ATOM     43  C   UNL     1       5.386  -1.696   0.420  1.00  0.00     0.031 C 
ATOM     44  C   UNL     1       6.287   1.592  -3.244  1.00  0.00     0.029 A 
ATOM     45  N   UNL     1       4.178   1.216  -2.703  1.00  0.00    -0.354 N 
ATOM     46  C   UNL     1       3.120  -1.782   0.108  1.00  0.00     0.074 A 
ATOM     47  C   UNL     1       4.266  -2.238   0.867  1.00  0.00     0.031 C 
ATOM     48  C   UNL     1       5.561   2.552  -3.835  1.00  0.00     0.029 A 
ATOM     49  C   UNL     1       4.153   2.303  -3.560  1.00  0.00     0.049 A 
ATOM     50  H   UNL     1       3.363   0.788  -2.354  1.00  0.00     0.167 HD
ATOM     51  C   UNL     1       1.845  -2.172   0.340  1.00  0.00     0.037 A 
ATOM     52  C   UNL     1       3.128   2.991  -4.113  1.00  0.00     0.037 A 
ATOM     53  C   UNL     1       0.711  -1.775  -0.451  1.00  0.00     0.049 A 
ATOM     54  C   UNL     1       1.725   2.498  -3.874  1.00  0.00     0.074 A 
ATOM     55  C   UNL     1      -0.595  -2.229  -0.381  1.00  0.00     0.029 A 
ATOM     56  N   UNL     1       0.736  -0.793  -1.432  1.00  0.00    -0.354 N 
ATOM     57  N   UNL     1       1.328   1.476  -3.156  1.00  0.00    -0.248 NA
ATOM     58  C   UNL     1       0.633   3.203  -4.563  1.00  0.00     0.031 C 
ATOM     59  C   UNL     1      -1.370  -1.486  -1.279  1.00  0.00     0.029 A 
ATOM     60  C   UNL     1      -0.552  -0.543  -1.879  1.00  0.00     0.049 A 
ATOM     61  H   UNL     1       1.547  -0.342  -1.761  1.00  0.00     0.167 HD
ATOM     62  C   UNL     1      -0.050   1.421  -3.299  1.00  0.00     0.074 A 
ATOM     63  C   UNL     1      -0.430   2.519  -4.162  1.00  0.00     0.031 C 
ATOM     64  C   UNL     1      -0.920   0.533  -2.762  1.00  0.00     0.037 A 
BRANCH  51  65
ATOM     65  C   UNL     1       1.648  -3.088   1.506  1.00  0.00     0.057 A 
ATOM     66  C   UNL     1       1.841  -2.642   2.822  1.00  0.00     0.134 A 
ATOM     67  C   UNL     1       1.331  -4.437   1.316  1.00  0.00     0.134 A 
ATOM     68  F   UNL     1       2.177  -1.365   3.065  1.00  0.00    -0.206 F 
ATOM     69  C   UNL     1       1.775  -3.519   3.904  1.00  0.00     0.040 A 
ATOM     70  C   UNL     1       1.227  -5.315   2.394  1.00  0.00     0.040 A 
ATOM     71  F   UNL     1       1.136  -4.925   0.082  1.00  0.00    -0.206 F 
ATOM     72  C   UNL     1       1.465  -4.860   3.690  1.00  0.00     0.006 A 
ENDBRANCH  51  65
BRANCH  52  73
ATOM     73  C   UNL     1       3.374   4.141  -5.039  1.00  0.00     0.057 A 
ATOM     74  C   UNL     1       2.899   5.433  -4.764  1.00  0.00     0.134 A 
ATOM     75  C   UNL     1       4.056   3.971  -6.252  1.00  0.00     0.134 A 
ATOM     76  F   UNL     1       2.202   5.675  -3.644  1.00  0.00    -0.206 F 
ATOM     77  C   UNL     1       3.081   6.495  -5.658  1.00  0.00     0.040 A 
ATOM     78  C   UNL     1       4.287   5.032  -7.131  1.00  0.00     0.040 A 
ATOM     79  F   UNL     1       4.525   2.764  -6.601  1.00  0.00    -0.206 F 
ATOM     80  C   UNL     1       3.790   6.298  -6.840  1.00  0.00     0.006 A 
ENDBRANCH  52  73
BRANCH  64  81
ATOM     81  C   UNL     1      -2.373   0.735  -3.065  1.00  0.00     0.057 A 
ATOM     82  C   UNL     1      -2.924   0.400  -4.308  1.00  0.00     0.134 A 
ATOM     83  C   UNL     1      -3.237   1.246  -2.088  1.00  0.00     0.134 A 
ATOM     84  F   UNL     1      -2.145  -0.076  -5.291  1.00  0.00    -0.206 F 
ATOM     85  C   UNL     1      -4.283   0.579  -4.573  1.00  0.00     0.040 A 
ATOM     86  C   UNL     1      -4.600   1.412  -2.335  1.00  0.00     0.040 A 
ATOM     87  F   UNL     1      -2.770   1.586  -0.877  1.00  0.00    -0.206 F 
ATOM     88  C   UNL     1      -5.126   1.080  -3.582  1.00  0.00     0.006 A 
ENDBRANCH  64  81
ENDBRANCH  38  39
ENDBRANCH  31  33
ENDBRANCH  30  31
ENDBRANCH  29  30
ENDBRANCH   1  29
TORSDOF 15
