REMARK SMILES CCc1cc(C(=O)c2[nH]c3cc(Cl)ccc3c2CC(=O)OCCOC(=O)c2ccc(-c3c4nc(c(-c5c(F)cccc5F)c5ccc([nH]5)c(-c5c(F)cccc5F)c5nc(c(-c6c(F)cccc6F)c6ccc3[nH]6)C=C5)C=C4)cc2)ncc1Cl
REMARK SMILES IDX 22 1 21 2 19 3 20 4 18 5 17 6 8 7 9 8 10 9 16 11 11 12 15 13
REMARK SMILES IDX 12 14 14 15 13 16 6 17 7 18 5 19 3 20 4 21 83 22 82 23 84 24
REMARK SMILES IDX 81 25 2 26 1 27 23 28 24 29 25 30 26 31 27 32 28 33 80 34
REMARK SMILES IDX 29 35 79 36 30 37 31 38 32 39 73 40 33 41 78 42 72 43 74 44
REMARK SMILES IDX 34 45 77 46 71 47 70 48 35 50 61 51 44 52 60 53 45 54 48 55
REMARK SMILES IDX 59 56 75 57 46 58 47 59 58 61 76 62 49 63 36 64 37 65 42 66
REMARK SMILES IDX 38 67 39 68 41 69 43 70 40 71 62 72 63 73 68 74 64 75 65 76
REMARK SMILES IDX 67 77 69 78 66 79 50 80 51 81 56 82 52 83 53 84 55 85 57 86
REMARK SMILES IDX 54 87
REMARK H PARENT 9 10 74 49 48 60
REMARK Flexibility Score: inf
ROOT
ATOM      1  C   UNL     1       0.898   9.303  -4.832  1.00  0.00     0.274 C 
ENDROOT
BRANCH   1   2
ATOM      2  O   UNL     1       0.550   8.681  -3.576  1.00  0.00    -0.462 OA
BRANCH   2   3
ATOM      3  C   UNL     1      -0.722   8.227  -3.459  1.00  0.00     0.310 C 
ATOM      4  O   UNL     1      -1.618   8.476  -4.263  1.00  0.00    -0.252 OA
BRANCH   3   5
ATOM      5  C   UNL     1      -0.936   7.228  -2.342  1.00  0.00     0.161 C 
BRANCH   5   6
ATOM      6  C   UNL     1      -0.066   7.297  -1.125  1.00  0.00     0.000 A 
ATOM      7  C   UNL     1       1.150   6.656  -0.882  1.00  0.00     0.093 A 
ATOM      8  N   UNL     1       1.530   6.978   0.399  1.00  0.00    -0.351 N 
ATOM      9  C   UNL     1       0.581   7.745   1.019  1.00  0.00     0.048 A 
ATOM     10  H   UNL     1       2.375   6.694   0.817  1.00  0.00     0.167 HD
ATOM     11  C   UNL     1      -0.407   8.012   0.076  1.00  0.00     0.004 A 
ATOM     12  C   UNL     1       0.542   8.235   2.330  1.00  0.00     0.047 A 
ATOM     13  C   UNL     1      -1.479   8.852   0.452  1.00  0.00     0.012 A 
ATOM     14  C   UNL     1      -0.536   9.050   2.676  1.00  0.00     0.043 A 
ATOM     15  C   UNL     1      -1.529   9.368   1.754  1.00  0.00     0.021 A 
ATOM     16  Cl  UNL     1      -0.632   9.674   4.279  1.00  0.00    -0.084 Cl
BRANCH   7  17
ATOM     17  C   UNL     1       2.056   5.891  -1.726  1.00  0.00     0.227 C 
ATOM     18  O   UNL     1       3.094   6.410  -2.136  1.00  0.00    -0.285 OA
BRANCH  17  19
ATOM     19  C   UNL     1       1.873   4.398  -1.891  1.00  0.00     0.113 A 
ATOM     20  C   UNL     1       1.209   2.212  -1.010  1.00  0.00    -0.026 A 
ATOM     21  C   UNL     1       1.120   3.632  -0.998  1.00  0.00     0.037 A 
ATOM     22  C   UNL     1       2.033   1.633  -1.984  1.00  0.00     0.062 A 
ATOM     23  C   UNL     1       2.690   2.473  -2.879  1.00  0.00     0.132 A 
ATOM     24  Cl  UNL     1       2.358  -0.047  -2.150  1.00  0.00    -0.082 Cl
ATOM     25  N   UNL     1       2.644   3.820  -2.846  1.00  0.00    -0.251 NA
BRANCH  20  26
ATOM     26  C   UNL     1       0.392   1.498   0.052  1.00  0.00     0.034 C 
ATOM     27  C   UNL     1       0.651   0.037   0.399  1.00  0.00     0.009 C 
ENDBRANCH  20  26
ENDBRANCH  17  19
ENDBRANCH   7  17
ENDBRANCH   5   6
ENDBRANCH   3   5
ENDBRANCH   2   3
ENDBRANCH   1   2
BRANCH   1  28
ATOM     28  C   UNL     1       1.715   8.353  -5.722  1.00  0.00     0.275 C 
BRANCH  28  29
ATOM     29  O   UNL     1       0.921   7.284  -6.286  1.00  0.00    -0.458 OA
BRANCH  29  30
ATOM     30  C   UNL     1       0.777   6.233  -5.463  1.00  0.00     0.338 C 
ATOM     31  O   UNL     1       1.182   6.136  -4.309  1.00  0.00    -0.246 OA
BRANCH  30  32
ATOM     32  C   UNL     1      -0.030   5.149  -6.001  1.00  0.00     0.060 A 
ATOM     33  C   UNL     1      -1.301   4.963  -5.449  1.00  0.00     0.016 A 
ATOM     34  C   UNL     1       0.579   4.155  -6.767  1.00  0.00     0.016 A 
ATOM     35  C   UNL     1      -1.949   3.748  -5.618  1.00  0.00     0.010 A 
ATOM     36  C   UNL     1      -0.097   2.953  -6.976  1.00  0.00     0.010 A 
ATOM     37  C   UNL     1      -1.350   2.734  -6.380  1.00  0.00    -0.014 A 
BRANCH  37  38
ATOM     38  C   UNL     1      -2.057   1.450  -6.571  1.00  0.00     0.031 A 
ATOM     39  C   UNL     1      -1.573   0.195  -5.910  1.00  0.00     0.074 A 
ATOM     40  C   UNL     1      -3.154   1.430  -7.345  1.00  0.00     0.049 A 
ATOM     41  N   UNL     1      -2.001  -1.033  -6.058  1.00  0.00    -0.248 NA
ATOM     42  C   UNL     1      -0.464   0.339  -4.956  1.00  0.00     0.031 C 
ATOM     43  C   UNL     1      -3.744   2.600  -7.997  1.00  0.00     0.029 A 
ATOM     44  N   UNL     1      -3.965   0.392  -7.714  1.00  0.00    -0.354 N 
ATOM     45  C   UNL     1      -1.202  -1.813  -5.234  1.00  0.00     0.074 A 
ATOM     46  C   UNL     1      -0.261  -0.921  -4.595  1.00  0.00     0.031 C 
ATOM     47  C   UNL     1      -4.832   2.215  -8.680  1.00  0.00     0.029 A 
ATOM     48  C   UNL     1      -4.974   0.768  -8.562  1.00  0.00     0.049 A 
ATOM     49  H   UNL     1      -3.836  -0.533  -7.402  1.00  0.00     0.167 HD
ATOM     50  C   UNL     1      -1.246  -3.152  -5.031  1.00  0.00     0.037 A 
ATOM     51  C   UNL     1      -5.889   0.024  -9.205  1.00  0.00     0.037 A 
ATOM     52  C   UNL     1      -2.185  -4.034  -5.673  1.00  0.00     0.049 A 
ATOM     53  C   UNL     1      -5.880  -1.463  -9.024  1.00  0.00     0.074 A 
ATOM     54  C   UNL     1      -2.305  -5.407  -5.556  1.00  0.00     0.029 A 
ATOM     55  N   UNL     1      -3.169  -3.619  -6.558  1.00  0.00    -0.354 N 
ATOM     56  N   UNL     1      -5.092  -2.196  -8.276  1.00  0.00    -0.248 NA
ATOM     57  C   UNL     1      -6.875  -2.226  -9.787  1.00  0.00     0.031 C 
ATOM     58  C   UNL     1      -3.348  -5.827  -6.391  1.00  0.00     0.029 A 
ATOM     59  C   UNL     1      -3.894  -4.711  -7.004  1.00  0.00     0.049 A 
ATOM     60  H   UNL     1      -3.328  -2.687  -6.829  1.00  0.00     0.167 HD
ATOM     61  C   UNL     1      -5.497  -3.507  -8.471  1.00  0.00     0.074 A 
ATOM     62  C   UNL     1      -6.610  -3.467  -9.400  1.00  0.00     0.031 C 
ATOM     63  C   UNL     1      -4.993  -4.643  -7.931  1.00  0.00     0.037 A 
BRANCH  50  64
ATOM     64  C   UNL     1      -0.228  -3.744  -4.103  1.00  0.00     0.057 A 
ATOM     65  C   UNL     1      -0.336  -3.624  -2.712  1.00  0.00     0.134 A 
ATOM     66  C   UNL     1       0.865  -4.461  -4.608  1.00  0.00     0.134 A 
ATOM     67  F   UNL     1      -1.349  -2.935  -2.165  1.00  0.00    -0.206 F 
ATOM     68  C   UNL     1       0.614  -4.187  -1.856  1.00  0.00     0.040 A 
ATOM     69  C   UNL     1       1.812  -5.041  -3.763  1.00  0.00     0.040 A 
ATOM     70  F   UNL     1       1.027  -4.610  -5.931  1.00  0.00    -0.206 F 
ATOM     71  C   UNL     1       1.690  -4.902  -2.381  1.00  0.00     0.006 A 
ENDBRANCH  50  64
BRANCH  51  72
ATOM     72  C   UNL     1      -6.862   0.693 -10.096  1.00  0.00     0.057 A 
ATOM     73  C   UNL     1      -8.193   0.866  -9.706  1.00  0.00     0.134 A 
ATOM     74  C   UNL     1      -6.467   1.236 -11.325  1.00  0.00     0.134 A 
ATOM     75  F   UNL     1      -8.627   0.358  -8.543  1.00  0.00    -0.206 F 
ATOM     76  C   UNL     1      -9.099   1.562 -10.506  1.00  0.00     0.040 A 
ATOM     77  C   UNL     1      -7.357   1.950 -12.125  1.00  0.00     0.040 A 
ATOM     78  F   UNL     1      -5.199   1.110 -11.743  1.00  0.00    -0.206 F 
ATOM     79  C   UNL     1      -8.679   2.114 -11.715  1.00  0.00     0.006 A 
ENDBRANCH  51  72
BRANCH  63  80
ATOM     80  C   UNL     1      -5.657  -5.925  -8.322  1.00  0.00     0.057 A 
ATOM     81  C   UNL     1      -5.395  -6.538  -9.553  1.00  0.00     0.134 A 
ATOM     82  C   UNL     1      -6.550  -6.561  -7.451  1.00  0.00     0.134 A 
ATOM     83  F   UNL     1      -4.559  -5.966 -10.433  1.00  0.00    -0.206 F 
ATOM     84  C   UNL     1      -6.011  -7.737  -9.911  1.00  0.00     0.040 A 
ATOM     85  C   UNL     1      -7.160  -7.767  -7.792  1.00  0.00     0.040 A 
ATOM     86  F   UNL     1      -6.837  -6.020  -6.258  1.00  0.00    -0.206 F 
ATOM     87  C   UNL     1      -6.894  -8.357  -9.027  1.00  0.00     0.006 A 
ENDBRANCH  63  80
ENDBRANCH  37  38
ENDBRANCH  30  32
ENDBRANCH  29  30
ENDBRANCH  28  29
ENDBRANCH   1  28
TORSDOF 15
