REMARK SMILES COc1cc(Cn2cc(C(=O)OCCOC(=O)c3ccc(-c4c5nc(c(-c6c(F)cccc6F)c6ccc([nH]6)c(-c6c(F)cccc6F)c6nc(c(-c7c(F)cccc7F)c7ccc4[nH]7)C=C6)C=C5)cc3)c(=O)[nH]c2=O)ccn1
REMARK SMILES IDX 13 1 12 2 10 3 11 4 9 5 7 6 8 7 75 8 74 9 76 10 72 11 73 13
REMARK SMILES IDX 6 14 5 15 3 16 4 17 79 18 78 19 77 20 2 21 1 22 14 23 15 24
REMARK SMILES IDX 16 25 17 26 18 27 19 28 71 29 20 30 70 31 21 32 22 33 23 34
REMARK SMILES IDX 64 35 24 36 69 37 63 38 65 39 25 40 68 41 62 42 61 43 26 45
REMARK SMILES IDX 52 46 35 47 51 48 36 49 39 50 50 51 66 52 37 53 38 54 49 56
REMARK SMILES IDX 67 57 40 58 27 59 28 60 33 61 29 62 30 63 32 64 34 65 31 66
REMARK SMILES IDX 53 67 54 68 59 69 55 70 56 71 58 72 60 73 57 74 41 75 42 76
REMARK SMILES IDX 47 77 43 78 44 79 46 80 48 81 45 82
REMARK H PARENT 74 12 65 44 39 55
REMARK Flexibility Score: inf
ROOT
ATOM      1  C   UNL     1       1.498   1.711   9.518  1.00  0.00     0.275 C 
ENDROOT
BRANCH   1   2
ATOM      2  O   UNL     1       2.502   1.216   8.605  1.00  0.00    -0.458 OA
BRANCH   2   3
ATOM      3  C   UNL     1       3.151   2.152   7.856  1.00  0.00     0.345 C 
ATOM      4  O   UNL     1       2.963   3.354   7.920  1.00  0.00    -0.246 OA
BRANCH   3   5
ATOM      5  C   UNL     1       4.055   1.528   6.866  1.00  0.00     0.141 A 
ATOM      6  N   UNL     1       4.199  -0.012   5.042  1.00  0.00    -0.295 N 
ATOM      7  C   UNL     1       3.607   0.459   6.200  1.00  0.00     0.112 A 
ATOM      8  C   UNL     1       5.355   0.561   4.529  1.00  0.00     0.328 A 
ATOM      9  N   UNL     1       5.878   1.581   5.275  1.00  0.00    -0.273 N 
ATOM     10  O   UNL     1       5.891   0.224   3.477  1.00  0.00    -0.248 OA
ATOM     11  C   UNL     1       5.314   2.140   6.388  1.00  0.00     0.268 A 
ATOM     12  H   UNL     1       6.743   1.948   4.982  1.00  0.00     0.175 HD
ATOM     13  O   UNL     1       5.868   3.081   6.940  1.00  0.00    -0.268 OA
BRANCH   6  14
ATOM     14  C   UNL     1       3.509  -1.038   4.260  1.00  0.00     0.162 C 
BRANCH  14  15
ATOM     15  C   UNL     1       2.204  -0.518   3.697  1.00  0.00    -0.021 A 
ATOM     16  C   UNL     1       0.954   0.609   2.000  1.00  0.00     0.213 A 
ATOM     17  C   UNL     1       2.168   0.114   2.453  1.00  0.00     0.074 A 
ATOM     18  N   UNL     1      -0.189   0.585   2.713  1.00  0.00    -0.222 NA
ATOM     19  C   UNL     1      -0.130  -0.004   3.922  1.00  0.00     0.115 A 
ATOM     20  C   UNL     1       1.016  -0.586   4.437  1.00  0.00     0.026 A 
BRANCH  16  21
ATOM     21  O   UNL     1       0.856   1.169   0.753  1.00  0.00    -0.481 OA
ATOM     22  C   UNL     1       0.950   0.144  -0.233  1.00  0.00     0.280 C 
ENDBRANCH  16  21
ENDBRANCH  14  15
ENDBRANCH   6  14
ENDBRANCH   3   5
ENDBRANCH   2   3
ENDBRANCH   1   2
BRANCH   1  23
ATOM     23  C   UNL     1       1.977   1.663  10.970  1.00  0.00     0.275 C 
BRANCH  23  24
ATOM     24  O   UNL     1       3.007   2.639  11.205  1.00  0.00    -0.458 OA
BRANCH  24  25
ATOM     25  C   UNL     1       4.269   2.178  11.084  1.00  0.00     0.338 C 
ATOM     26  O   UNL     1       4.623   1.026  10.855  1.00  0.00    -0.246 OA
BRANCH  25  27
ATOM     27  C   UNL     1       5.202   3.308  11.098  1.00  0.00     0.060 A 
ATOM     28  C   UNL     1       5.816   3.759  12.260  1.00  0.00     0.016 A 
ATOM     29  C   UNL     1       5.558   3.847   9.869  1.00  0.00     0.016 A 
ATOM     30  C   UNL     1       6.780   4.773  12.165  1.00  0.00     0.010 A 
ATOM     31  C   UNL     1       6.576   4.780   9.761  1.00  0.00     0.010 A 
ATOM     32  C   UNL     1       7.182   5.281  10.911  1.00  0.00    -0.014 A 
BRANCH  32  33
ATOM     33  C   UNL     1       8.244   6.311  10.780  1.00  0.00     0.031 A 
ATOM     34  C   UNL     1       7.958   7.642  10.129  1.00  0.00     0.074 A 
ATOM     35  C   UNL     1       9.493   6.020  11.192  1.00  0.00     0.049 A 
ATOM     36  N   UNL     1       8.752   8.674   9.975  1.00  0.00    -0.248 NA
ATOM     37  C   UNL     1       6.622   7.831   9.540  1.00  0.00     0.031 C 
ATOM     38  C   UNL     1       9.930   4.725  11.720  1.00  0.00     0.029 A 
ATOM     39  N   UNL     1      10.622   6.796  11.243  1.00  0.00    -0.354 N 
ATOM     40  C   UNL     1       8.013   9.622   9.276  1.00  0.00     0.074 A 
ATOM     41  C   UNL     1       6.740   9.014   8.959  1.00  0.00     0.031 C 
ATOM     42  C   UNL     1      11.211   4.819  12.110  1.00  0.00     0.029 A 
ATOM     43  C   UNL     1      11.692   6.167  11.833  1.00  0.00     0.049 A 
ATOM     44  H   UNL     1      10.663   7.714  10.890  1.00  0.00     0.167 HD
ATOM     45  C   UNL     1       8.342  10.899   8.964  1.00  0.00     0.037 A 
ATOM     46  C   UNL     1      12.915   6.639  12.138  1.00  0.00     0.037 A 
ATOM     47  C   UNL     1       9.601  11.508   9.299  1.00  0.00     0.049 A 
ATOM     48  C   UNL     1      13.246   8.069  11.814  1.00  0.00     0.074 A 
ATOM     49  C   UNL     1      10.017  12.811   9.090  1.00  0.00     0.029 A 
ATOM     50  N   UNL     1      10.651  10.846   9.918  1.00  0.00    -0.354 N 
ATOM     51  N   UNL     1      12.496   8.988  11.256  1.00  0.00    -0.248 NA
ATOM     52  C   UNL     1      14.594   8.528  12.174  1.00  0.00     0.031 C 
ATOM     53  C   UNL     1      11.330  12.931   9.560  1.00  0.00     0.029 A 
ATOM     54  C   UNL     1      11.717  11.711  10.093  1.00  0.00     0.049 A 
ATOM     55  H   UNL     1      10.639   9.901  10.193  1.00  0.00     0.167 HD
ATOM     56  C   UNL     1      13.271  10.139  11.219  1.00  0.00     0.074 A 
ATOM     57  C   UNL     1      14.540   9.807  11.836  1.00  0.00     0.031 C 
ATOM     58  C   UNL     1      12.967  11.360  10.716  1.00  0.00     0.037 A 
BRANCH  45  59
ATOM     59  C   UNL     1       7.303  11.727   8.261  1.00  0.00     0.057 A 
ATOM     60  C   UNL     1       7.479  12.145   6.937  1.00  0.00     0.134 A 
ATOM     61  C   UNL     1       6.125  12.125   8.911  1.00  0.00     0.134 A 
ATOM     62  F   UNL     1       8.586  11.812   6.257  1.00  0.00    -0.206 F 
ATOM     63  C   UNL     1       6.518  12.921   6.283  1.00  0.00     0.040 A 
ATOM     64  C   UNL     1       5.145  12.875   8.258  1.00  0.00     0.040 A 
ATOM     65  F   UNL     1       5.888  11.753  10.178  1.00  0.00    -0.206 F 
ATOM     66  C   UNL     1       5.343  13.280   6.941  1.00  0.00     0.006 A 
ENDBRANCH  45  59
BRANCH  46  67
ATOM     67  C   UNL     1      13.896   5.779  12.846  1.00  0.00     0.057 A 
ATOM     68  C   UNL     1      14.525   4.702  12.212  1.00  0.00     0.134 A 
ATOM     69  C   UNL     1      14.247   6.040  14.176  1.00  0.00     0.134 A 
ATOM     70  F   UNL     1      14.224   4.393  10.943  1.00  0.00    -0.206 F 
ATOM     71  C   UNL     1      15.473   3.920  12.874  1.00  0.00     0.040 A 
ATOM     72  C   UNL     1      15.212   5.283  14.841  1.00  0.00     0.040 A 
ATOM     73  F   UNL     1      13.687   7.068  14.832  1.00  0.00    -0.206 F 
ATOM     74  C   UNL     1      15.828   4.217  14.189  1.00  0.00     0.006 A 
ENDBRANCH  46  67
BRANCH  58  75
ATOM     75  C   UNL     1      14.016  12.423  10.840  1.00  0.00     0.057 A 
ATOM     76  C   UNL     1      13.854  13.484  11.740  1.00  0.00     0.134 A 
ATOM     77  C   UNL     1      15.181  12.403  10.063  1.00  0.00     0.134 A 
ATOM     78  F   UNL     1      12.757  13.564  12.508  1.00  0.00    -0.206 F 
ATOM     79  C   UNL     1      14.815  14.486  11.864  1.00  0.00     0.040 A 
ATOM     80  C   UNL     1      16.162  13.386  10.197  1.00  0.00     0.040 A 
ATOM     81  F   UNL     1      15.402  11.405   9.194  1.00  0.00    -0.206 F 
ATOM     82  C   UNL     1      15.978  14.434  11.097  1.00  0.00     0.006 A 
ENDBRANCH  58  75
ENDBRANCH  32  33
ENDBRANCH  25  27
ENDBRANCH  24  25
ENDBRANCH  23  24
ENDBRANCH   1  23
TORSDOF 14
