REMARK SMILES C/C(=N\NC(N)=S)c1nnn(-c2ccc(C(=O)OCCOC(=O)c3ccc(-c4c5nc(c(-c6c(F)cccc6F)c6ccc([nH]6)c(-c6c(F)cccc6F)c6nc(c(-c7c(F)cccc7F)c7ccc4[nH]7)C=C6)C=C5)cc3)cc2)c1C
REMARK SMILES IDX 18 1 16 2 17 3 15 4 12 5 13 6 79 7 14 8 78 9 11 10 8 11 9 12
REMARK SMILES IDX 80 13 10 14 81 15 2 16 1 17 3 18 4 19 5 21 7 22 6 23 19 26
REMARK SMILES IDX 20 27 21 28 22 29 23 30 24 31 25 32 77 33 26 34 76 35 27 36
REMARK SMILES IDX 28 37 29 38 70 39 30 40 75 41 69 42 71 43 31 44 74 45 68 46
REMARK SMILES IDX 67 47 32 49 58 50 41 51 57 52 42 53 45 54 56 55 72 56 43 57
REMARK SMILES IDX 44 58 55 60 73 61 46 62 33 63 34 64 39 65 35 66 36 67 38 68
REMARK SMILES IDX 40 69 37 70 59 71 60 72 65 73 61 74 62 75 64 76 66 77 63 78
REMARK SMILES IDX 47 79 48 80 53 81 49 82 50 83 52 84 54 85 51 86
REMARK H PARENT 4 20 6 24 6 25 71 48 45 59
REMARK Flexibility Score: inf
ROOT
ATOM      1  O   UNL     1       8.068   3.483   5.641  1.00  0.00    -0.458 OA
ENDROOT
BRANCH   1   2
ATOM      2  C   UNL     1       7.201   2.538   6.087  1.00  0.00     0.338 C 
ATOM      3  O   UNL     1       7.436   1.666   6.912  1.00  0.00    -0.246 OA
BRANCH   2   4
ATOM      4  C   UNL     1       5.860   2.756   5.487  1.00  0.00     0.060 A 
ATOM      5  C   UNL     1       3.406   2.874   4.203  1.00  0.00     0.067 A 
ATOM      6  C   UNL     1       3.499   2.188   5.418  1.00  0.00     0.029 A 
ATOM      7  C   UNL     1       4.478   3.623   3.711  1.00  0.00     0.029 A 
ATOM      8  C   UNL     1       4.744   2.112   6.048  1.00  0.00     0.018 A 
ATOM      9  C   UNL     1       5.705   3.570   4.359  1.00  0.00     0.018 A 
BRANCH   5  10
ATOM     10  N   UNL     1       2.306   2.630   3.359  1.00  0.00    -0.217 N 
ATOM     11  C   UNL     1       1.054   1.837   1.767  1.00  0.00     0.132 A 
ATOM     12  N   UNL     1       0.256   2.170   2.829  1.00  0.00    -0.128 NA
ATOM     13  C   UNL     1       2.372   2.103   2.077  1.00  0.00     0.071 A 
ATOM     14  N   UNL     1       1.036   2.586   3.817  1.00  0.00    -0.061 NA
ATOM     15  C   UNL     1       3.621   1.713   1.378  1.00  0.00     0.069 C 
BRANCH  11  16
ATOM     16  C   UNL     1       0.562   1.066   0.641  1.00  0.00     0.087 C 
ATOM     17  C   UNL     1       0.561  -0.428   0.829  1.00  0.00     0.071 C 
ATOM     18  N   UNL     1       0.164   1.756  -0.386  1.00  0.00    -0.176 NA
BRANCH  18  19
ATOM     19  N   UNL     1      -0.393   1.159  -1.480  1.00  0.00    -0.254 N 
ATOM     20  H   UNL     1      -1.337   1.379  -1.651  1.00  0.00     0.193 HD
BRANCH  19  21
ATOM     21  C   UNL     1       0.190   0.288  -2.378  1.00  0.00     0.184 C 
ATOM     22  S   UNL     1       1.715  -0.373  -2.380  1.00  0.00    -0.040 S 
BRANCH  21  23
ATOM     23  N   UNL     1      -0.663  -0.043  -3.396  1.00  0.00    -0.375 N 
ATOM     24  H   UNL     1      -1.572   0.335  -3.419  1.00  0.00     0.159 HD
ATOM     25  H   UNL     1      -0.368  -0.658  -4.105  1.00  0.00     0.159 HD
ENDBRANCH  21  23
ENDBRANCH  19  21
ENDBRANCH  18  19
ENDBRANCH  11  16
ENDBRANCH   5  10
ENDBRANCH   2   4
ENDBRANCH   1   2
BRANCH   1  26
ATOM     26  C   UNL     1       9.318   3.597   6.340  1.00  0.00     0.275 C 
BRANCH  26  27
ATOM     27  C   UNL     1       9.194   4.553   7.517  1.00  0.00     0.275 C 
BRANCH  27  28
ATOM     28  O   UNL     1       8.419   3.959   8.554  1.00  0.00    -0.458 OA
BRANCH  28  29
ATOM     29  C   UNL     1       7.095   4.226   8.516  1.00  0.00     0.338 C 
ATOM     30  O   UNL     1       6.482   4.815   7.641  1.00  0.00    -0.246 OA
BRANCH  29  31
ATOM     31  C   UNL     1       6.508   3.889   9.815  1.00  0.00     0.060 A 
ATOM     32  C   UNL     1       5.144   4.157   9.970  1.00  0.00     0.016 A 
ATOM     33  C   UNL     1       7.367   3.706  10.907  1.00  0.00     0.016 A 
ATOM     34  C   UNL     1       4.695   4.507  11.222  1.00  0.00     0.010 A 
ATOM     35  C   UNL     1       6.924   4.078  12.148  1.00  0.00     0.010 A 
ATOM     36  C   UNL     1       5.626   4.570  12.261  1.00  0.00    -0.014 A 
BRANCH  36  37
ATOM     37  C   UNL     1       5.209   5.144  13.518  1.00  0.00     0.031 A 
ATOM     38  C   UNL     1       4.353   4.242  14.315  1.00  0.00     0.074 A 
ATOM     39  C   UNL     1       5.716   6.315  13.947  1.00  0.00     0.049 A 
ATOM     40  N   UNL     1       3.136   4.428  14.703  1.00  0.00    -0.248 NA
ATOM     41  C   UNL     1       4.874   2.889  14.578  1.00  0.00     0.031 C 
ATOM     42  C   UNL     1       6.794   7.112  13.348  1.00  0.00     0.029 A 
ATOM     43  N   UNL     1       5.446   6.985  15.094  1.00  0.00    -0.354 N 
ATOM     44  C   UNL     1       2.814   3.295  15.442  1.00  0.00     0.074 A 
ATOM     45  C   UNL     1       3.828   2.313  15.166  1.00  0.00     0.031 C 
ATOM     46  C   UNL     1       7.234   8.015  14.254  1.00  0.00     0.029 A 
ATOM     47  C   UNL     1       6.393   7.939  15.435  1.00  0.00     0.049 A 
ATOM     48  H   UNL     1       4.645   6.809  15.639  1.00  0.00     0.167 HD
ATOM     49  C   UNL     1       1.903   3.348  16.447  1.00  0.00     0.037 A 
ATOM     50  C   UNL     1       6.516   8.530  16.649  1.00  0.00     0.037 A 
ATOM     51  C   UNL     1       1.023   4.479  16.307  1.00  0.00     0.049 A 
ATOM     52  C   UNL     1       5.234   8.324  17.374  1.00  0.00     0.074 A 
ATOM     53  C   UNL     1       0.143   4.906  15.332  1.00  0.00     0.029 A 
ATOM     54  N   UNL     1       1.242   5.570  17.112  1.00  0.00    -0.354 N 
ATOM     55  N   UNL     1       4.104   8.876  17.025  1.00  0.00    -0.248 NA
ATOM     56  C   UNL     1       5.112   7.136  18.208  1.00  0.00     0.031 C 
ATOM     57  C   UNL     1       0.264   6.327  15.319  1.00  0.00     0.029 A 
ATOM     58  C   UNL     1       1.175   6.684  16.314  1.00  0.00     0.049 A 
ATOM     59  H   UNL     1       1.416   5.556  18.081  1.00  0.00     0.167 HD
ATOM     60  C   UNL     1       3.144   7.895  17.237  1.00  0.00     0.074 A 
ATOM     61  C   UNL     1       3.812   6.876  18.043  1.00  0.00     0.031 C 
ATOM     62  C   UNL     1       1.994   7.859  16.500  1.00  0.00     0.037 A 
BRANCH  49  63
ATOM     63  C   UNL     1       2.086   2.608  17.747  1.00  0.00     0.057 A 
ATOM     64  C   UNL     1       1.026   2.570  18.666  1.00  0.00     0.134 A 
ATOM     65  C   UNL     1       3.336   2.188  18.253  1.00  0.00     0.134 A 
ATOM     66  F   UNL     1      -0.205   2.966  18.312  1.00  0.00    -0.206 F 
ATOM     67  C   UNL     1       1.212   2.207  20.005  1.00  0.00     0.040 A 
ATOM     68  C   UNL     1       3.521   1.770  19.571  1.00  0.00     0.040 A 
ATOM     69  F   UNL     1       4.466   2.257  17.539  1.00  0.00    -0.206 F 
ATOM     70  C   UNL     1       2.464   1.811  20.463  1.00  0.00     0.006 A 
ENDBRANCH  49  63
BRANCH  50  71
ATOM     71  C   UNL     1       7.767   8.926  17.334  1.00  0.00     0.057 A 
ATOM     72  C   UNL     1       7.752   9.802  18.428  1.00  0.00     0.134 A 
ATOM     73  C   UNL     1       8.983   8.258  17.098  1.00  0.00     0.134 A 
ATOM     74  F   UNL     1       6.627  10.448  18.765  1.00  0.00    -0.206 F 
ATOM     75  C   UNL     1       8.876   9.993  19.244  1.00  0.00     0.040 A 
ATOM     76  C   UNL     1      10.114   8.447  17.898  1.00  0.00     0.040 A 
ATOM     77  F   UNL     1       9.091   7.332  16.134  1.00  0.00    -0.206 F 
ATOM     78  C   UNL     1      10.060   9.309  18.984  1.00  0.00     0.006 A 
ENDBRANCH  50  71
BRANCH  62  79
ATOM     79  C   UNL     1       1.702   9.035  15.609  1.00  0.00     0.057 A 
ATOM     80  C   UNL     1       2.483   9.378  14.495  1.00  0.00     0.134 A 
ATOM     81  C   UNL     1       0.511   9.746  15.786  1.00  0.00     0.134 A 
ATOM     82  F   UNL     1       3.584   8.685  14.184  1.00  0.00    -0.206 F 
ATOM     83  C   UNL     1       2.122  10.411  13.625  1.00  0.00     0.040 A 
ATOM     84  C   UNL     1       0.121  10.759  14.906  1.00  0.00     0.040 A 
ATOM     85  F   UNL     1      -0.320   9.432  16.792  1.00  0.00    -0.206 F 
ATOM     86  C   UNL     1       0.932  11.102  13.827  1.00  0.00     0.006 A 
ENDBRANCH  62  79
ENDBRANCH  36  37
ENDBRANCH  29  31
ENDBRANCH  28  29
ENDBRANCH  27  28
ENDBRANCH  26  27
ENDBRANCH   1  26
TORSDOF 16
