REMARK SMILES CS(=O)(=O)c1ccc(-c2cc(Cl)cc3c2O[C@H](C(F)(F)F)C(C(=O)OCCOC(=O)c2ccc(-c4c5nc(c(-c6c(F)cccc6F)c6ccc([nH]6)c(-c6c(F)cccc6F)c6nc(c(-c7c(F)cccc7F)c7ccc4[nH]7)C=C6)C=C5)cc2)=C3)cc1
REMARK SMILES IDX 26 1 25 2 23 3 24 4 22 5 9 6 10 7 15 8 11 9 14 10 16 11
REMARK SMILES IDX 12 12 13 13 85 14 17 15 8 16 5 17 6 18 87 19 7 20 86 21 2 22
REMARK SMILES IDX 1 23 3 24 4 25 18 26 19 27 20 28 21 29 27 30 28 31 29 32
REMARK SMILES IDX 30 33 31 34 32 35 84 36 33 37 83 38 34 39 35 40 36 41 77 42
REMARK SMILES IDX 37 43 82 44 76 45 78 46 38 47 81 48 75 49 74 50 39 52 65 53
REMARK SMILES IDX 48 54 64 55 49 56 52 57 63 58 79 59 50 60 51 61 62 63 80 64
REMARK SMILES IDX 53 65 40 66 41 67 46 68 42 69 43 70 45 71 47 72 44 73 66 74
REMARK SMILES IDX 67 75 72 76 68 77 69 78 71 79 73 80 70 81 54 82 55 83 60 84
REMARK SMILES IDX 56 85 57 86 59 87 61 88 58 89
REMARK H PARENT 78 51 52 62
REMARK Flexibility Score: inf
ROOT
ATOM      1  C   UNL     1       2.231 -12.352   5.678  1.00  0.00     0.275 C 
ENDROOT
BRANCH   1   2
ATOM      2  O   UNL     1       1.857 -11.134   6.374  1.00  0.00    -0.459 OA
BRANCH   2   3
ATOM      3  C   UNL     1       2.901 -10.528   6.998  1.00  0.00     0.338 C 
ATOM      4  O   UNL     1       4.058 -10.933   6.954  1.00  0.00    -0.246 OA
BRANCH   3   5
ATOM      5  C   UNL     1       2.546  -9.288   7.741  1.00  0.00     0.087 C 
ATOM      6  C   UNL     1       2.084  -5.933   5.524  1.00  0.00     0.026 A 
ATOM      7  C   UNL     1       2.876  -6.285   4.405  1.00  0.00     0.033 A 
ATOM      8  C   UNL     1       2.235  -6.799   6.612  1.00  0.00     0.135 A 
ATOM      9  C   UNL     1       3.869  -7.271   4.431  1.00  0.00     0.042 A 
ATOM     10  C   UNL     1       3.416  -7.580   6.713  1.00  0.00     0.019 A 
ATOM     11  O   UNL     1       1.213  -7.144   7.492  1.00  0.00    -0.475 OA
ATOM     12  Cl  UNL     1       4.637  -7.916   3.039  1.00  0.00    -0.084 Cl
ATOM     13  C   UNL     1       4.238  -7.816   5.629  1.00  0.00     0.032 A 
ATOM     14  C   UNL     1       3.586  -8.450   7.888  1.00  0.00     0.027 C 
ATOM     15  C   UNL     1       1.172  -8.640   7.766  1.00  0.00     0.316 C 
BRANCH   6  16
ATOM     16  C   UNL     1       1.407  -4.595   5.413  1.00  0.00    -0.015 A 
ATOM     17  C   UNL     1       0.647  -2.031   4.363  1.00  0.00     0.067 A 
ATOM     18  C   UNL     1      -0.216  -3.125   4.268  1.00  0.00     0.021 A 
ATOM     19  C   UNL     1       1.848  -2.177   5.052  1.00  0.00     0.021 A 
ATOM     20  C   UNL     1       0.149  -4.378   4.826  1.00  0.00     0.010 A 
ATOM     21  C   UNL     1       2.218  -3.442   5.555  1.00  0.00     0.010 A 
BRANCH  17  22
ATOM     22  S   UNL     1       0.143  -0.412   3.780  1.00  0.00     0.175 S 
ATOM     23  C   UNL     1       0.773  -0.256   2.139  1.00  0.00     0.163 C 
ATOM     24  O   UNL     1       0.820   0.567   4.604  1.00  0.00    -0.224 OA
ATOM     25  O   UNL     1      -1.311  -0.425   3.703  1.00  0.00    -0.224 OA
ENDBRANCH  17  22
ENDBRANCH   6  16
BRANCH  15  26
ATOM     26  C   UNL     1       0.618  -8.927   9.168  1.00  0.00     0.430 C 
ATOM     27  F   UNL     1       1.327  -8.284  10.128  1.00  0.00    -0.167 F 
ATOM     28  F   UNL     1      -0.674  -8.562   9.296  1.00  0.00    -0.167 F 
ATOM     29  F   UNL     1       0.686 -10.254   9.455  1.00  0.00    -0.167 F 
ENDBRANCH  15  26
ENDBRANCH   3   5
ENDBRANCH   2   3
ENDBRANCH   1   2
BRANCH   1  30
ATOM     30  C   UNL     1       1.476 -12.569   4.362  1.00  0.00     0.275 C 
BRANCH  30  31
ATOM     31  O   UNL     1       1.557 -11.423   3.491  1.00  0.00    -0.458 OA
BRANCH  31  32
ATOM     32  C   UNL     1       0.502 -10.579   3.598  1.00  0.00     0.338 C 
ATOM     33  O   UNL     1      -0.458 -10.727   4.341  1.00  0.00    -0.246 OA
BRANCH  32  34
ATOM     34  C   UNL     1       0.688  -9.347   2.788  1.00  0.00     0.060 A 
ATOM     35  C   UNL     1       0.078  -8.197   3.277  1.00  0.00     0.016 A 
ATOM     36  C   UNL     1       1.399  -9.267   1.581  1.00  0.00     0.016 A 
ATOM     37  C   UNL     1       0.228  -6.986   2.598  1.00  0.00     0.010 A 
ATOM     38  C   UNL     1       1.552  -8.024   0.908  1.00  0.00     0.010 A 
ATOM     39  C   UNL     1       0.997  -6.849   1.429  1.00  0.00    -0.014 A 
BRANCH  39  40
ATOM     40  C   UNL     1       1.113  -5.465   0.829  1.00  0.00     0.031 A 
ATOM     41  C   UNL     1      -0.140  -4.761   0.387  1.00  0.00     0.074 A 
ATOM     42  C   UNL     1       2.241  -4.715   0.874  1.00  0.00     0.049 A 
ATOM     43  N   UNL     1      -0.287  -3.524  -0.017  1.00  0.00    -0.248 NA
ATOM     44  C   UNL     1      -1.383  -5.544   0.414  1.00  0.00     0.031 C 
ATOM     45  C   UNL     1       3.526  -5.188   1.341  1.00  0.00     0.029 A 
ATOM     46  N   UNL     1       2.488  -3.379   0.620  1.00  0.00    -0.354 N 
ATOM     47  C   UNL     1      -1.638  -3.380  -0.286  1.00  0.00     0.074 A 
ATOM     48  C   UNL     1      -2.271  -4.644   0.025  1.00  0.00     0.031 C 
ATOM     49  C   UNL     1       4.358  -4.159   1.554  1.00  0.00     0.029 A 
ATOM     50  C   UNL     1       3.747  -2.954   1.012  1.00  0.00     0.049 A 
ATOM     51  H   UNL     1       1.829  -2.782   0.198  1.00  0.00     0.167 HD
ATOM     52  C   UNL     1      -2.293  -2.303  -0.776  1.00  0.00     0.037 A 
ATOM     53  C   UNL     1       4.379  -1.764   0.899  1.00  0.00     0.037 A 
ATOM     54  C   UNL     1      -1.671  -1.066  -1.163  1.00  0.00     0.049 A 
ATOM     55  C   UNL     1       3.700  -0.662   0.133  1.00  0.00     0.074 A 
ATOM     56  C   UNL     1      -2.281   0.085  -1.628  1.00  0.00     0.029 A 
ATOM     57  N   UNL     1      -0.306  -0.823  -1.170  1.00  0.00    -0.354 N 
ATOM     58  N   UNL     1       2.494  -0.648  -0.380  1.00  0.00    -0.248 NA
ATOM     59  C   UNL     1       4.462   0.574  -0.098  1.00  0.00     0.031 C 
ATOM     60  C   UNL     1      -1.285   1.019  -1.930  1.00  0.00     0.029 A 
ATOM     61  C   UNL     1      -0.063   0.490  -1.549  1.00  0.00     0.049 A 
ATOM     62  H   UNL     1       0.388  -1.482  -0.939  1.00  0.00     0.167 HD
ATOM     63  C   UNL     1       2.334   0.609  -0.945  1.00  0.00     0.074 A 
ATOM     64  C   UNL     1       3.582   1.317  -0.755  1.00  0.00     0.031 C 
ATOM     65  C   UNL     1       1.220   1.149  -1.494  1.00  0.00     0.037 A 
BRANCH  52  66
ATOM     66  C   UNL     1      -3.768  -2.462  -0.979  1.00  0.00     0.057 A 
ATOM     67  C   UNL     1      -4.663  -2.532   0.097  1.00  0.00     0.134 A 
ATOM     68  C   UNL     1      -4.291  -2.584  -2.271  1.00  0.00     0.134 A 
ATOM     69  F   UNL     1      -4.215  -2.457   1.359  1.00  0.00    -0.206 F 
ATOM     70  C   UNL     1      -6.026  -2.750  -0.106  1.00  0.00     0.040 A 
ATOM     71  C   UNL     1      -5.654  -2.778  -2.488  1.00  0.00     0.040 A 
ATOM     72  F   UNL     1      -3.482  -2.534  -3.340  1.00  0.00    -0.206 F 
ATOM     73  C   UNL     1      -6.524  -2.871  -1.403  1.00  0.00     0.006 A 
ENDBRANCH  52  66
BRANCH  53  74
ATOM     74  C   UNL     1       5.755  -1.546   1.443  1.00  0.00     0.057 A 
ATOM     75  C   UNL     1       6.009  -0.578   2.427  1.00  0.00     0.134 A 
ATOM     76  C   UNL     1       6.863  -2.250   0.954  1.00  0.00     0.134 A 
ATOM     77  F   UNL     1       5.003   0.160   2.921  1.00  0.00    -0.206 F 
ATOM     78  C   UNL     1       7.304  -0.306   2.882  1.00  0.00     0.040 A 
ATOM     79  C   UNL     1       8.157  -2.020   1.430  1.00  0.00     0.040 A 
ATOM     80  F   UNL     1       6.706  -3.181   0.002  1.00  0.00    -0.206 F 
ATOM     81  C   UNL     1       8.382  -1.035   2.388  1.00  0.00     0.006 A 
ENDBRANCH  53  74
BRANCH  65  82
ATOM     82  C   UNL     1       1.295   2.595  -1.891  1.00  0.00     0.057 A 
ATOM     83  C   UNL     1       2.012   3.039  -3.007  1.00  0.00     0.134 A 
ATOM     84  C   UNL     1       0.629   3.561  -1.123  1.00  0.00     0.134 A 
ATOM     85  F   UNL     1       2.703   2.172  -3.763  1.00  0.00    -0.206 F 
ATOM     86  C   UNL     1       2.070   4.395  -3.340  1.00  0.00     0.040 A 
ATOM     87  C   UNL     1       0.652   4.912  -1.464  1.00  0.00     0.040 A 
ATOM     88  F   UNL     1      -0.059   3.201  -0.028  1.00  0.00    -0.206 F 
ATOM     89  C   UNL     1       1.379   5.333  -2.573  1.00  0.00     0.006 A 
ENDBRANCH  65  82
ENDBRANCH  39  40
ENDBRANCH  32  34
ENDBRANCH  31  32
ENDBRANCH  30  31
ENDBRANCH   1  30
TORSDOF 14
