REMARK SMILES C[C@@H]([NH2+][C@H]1CCOC2(CCOCC2)C1)C(=O)OCCOC(=O)c1ccc(-c2c3nc(c(-c4c(F)cccc4F)c4ccc([nH]4)c(-c4c(F)cccc4F)c4nc(c(-c5c(F)cccc5F)c5ccc2[nH]5)C=C4)C=C3)cc1
REMARK SMILES IDX 18 1 17 2 15 3 16 4 2 5 1 6 3 7 4 10 5 11 14 12 6 13 8 14
REMARK SMILES IDX 7 15 9 16 13 17 10 18 12 19 11 20 19 21 20 22 21 23 22 24
REMARK SMILES IDX 23 25 24 26 76 27 25 28 75 29 26 30 27 31 28 32 69 33 29 34
REMARK SMILES IDX 74 35 68 36 70 37 30 38 73 39 67 40 66 41 31 43 57 44 40 45
REMARK SMILES IDX 56 46 41 47 44 48 55 49 71 50 42 51 43 52 54 54 72 55 45 56
REMARK SMILES IDX 32 57 33 58 38 59 34 60 35 61 37 62 39 63 36 64 58 65 59 66
REMARK SMILES IDX 64 67 60 68 61 69 63 70 65 71 62 72 46 73 47 74 52 75 48 76
REMARK SMILES IDX 49 77 51 78 53 79 50 80
REMARK H PARENT 3 8 3 9 70 42 44 53
REMARK Flexibility Score: inf
ROOT
ATOM      1  C   UNL     1       5.314   4.042   0.272  1.00  0.00     0.274 C 
ENDROOT
BRANCH   1   2
ATOM      2  O   UNL     1       4.096   4.803   0.180  1.00  0.00    -0.458 OA
BRANCH   2   3
ATOM      3  C   UNL     1       3.013   4.248   0.793  1.00  0.00     0.364 C 
ATOM      4  O   UNL     1       3.048   3.135   1.310  1.00  0.00    -0.245 OA
BRANCH   3   5
ATOM      5  C   UNL     1       1.827   5.245   0.925  1.00  0.00     0.290 C 
ATOM      6  C   UNL     1       1.906   6.410  -0.061  1.00  0.00     0.088 C 
BRANCH   5   7
ATOM      7  N   UNL     1       0.474   4.627   0.808  1.00  0.00    -0.332 N 
ATOM      8  H   UNL     1       0.319   4.398  -0.174  1.00  0.00     0.347 HD
ATOM      9  H   UNL     1      -0.178   5.317   1.181  1.00  0.00     0.347 HD
BRANCH   7  10
ATOM     10  C   UNL     1       0.258   3.405   1.597  1.00  0.00     0.188 C 
ATOM     11  C   UNL     1       0.634   3.505   3.081  1.00  0.00     0.093 C 
ATOM     12  C   UNL     1      -1.212   2.952   1.526  1.00  0.00     0.100 C 
ATOM     13  C   UNL     1       0.466   2.135   3.715  1.00  0.00     0.167 C 
ATOM     14  C   UNL     1      -1.405   1.602   2.261  1.00  0.00     0.078 C 
ATOM     15  O   UNL     1      -0.878   1.683   3.600  1.00  0.00    -0.374 OA
ATOM     16  C   UNL     1      -0.776   0.434   1.471  1.00  0.00     0.064 C 
ATOM     17  C   UNL     1      -2.906   1.308   2.438  1.00  0.00     0.064 C 
ATOM     18  C   UNL     1      -1.115  -0.911   2.097  1.00  0.00     0.163 C 
ATOM     19  C   UNL     1      -3.114  -0.080   3.036  1.00  0.00     0.163 C 
ATOM     20  O   UNL     1      -2.528  -1.077   2.199  1.00  0.00    -0.381 OA
ENDBRANCH   7  10
ENDBRANCH   5   7
ENDBRANCH   3   5
ENDBRANCH   2   3
ENDBRANCH   1   2
BRANCH   1  21
ATOM     21  C   UNL     1       6.258   4.613   1.337  1.00  0.00     0.275 C 
BRANCH  21  22
ATOM     22  O   UNL     1       5.690   4.622   2.664  1.00  0.00    -0.458 OA
BRANCH  22  23
ATOM     23  C   UNL     1       5.013   5.749   2.987  1.00  0.00     0.338 C 
ATOM     24  O   UNL     1       4.795   6.705   2.254  1.00  0.00    -0.246 OA
BRANCH  23  25
ATOM     25  C   UNL     1       4.452   5.674   4.352  1.00  0.00     0.060 A 
ATOM     26  C   UNL     1       3.158   6.170   4.546  1.00  0.00     0.016 A 
ATOM     27  C   UNL     1       5.197   5.223   5.446  1.00  0.00     0.016 A 
ATOM     28  C   UNL     1       2.593   6.199   5.817  1.00  0.00     0.010 A 
ATOM     29  C   UNL     1       4.642   5.285   6.733  1.00  0.00     0.010 A 
ATOM     30  C   UNL     1       3.342   5.782   6.923  1.00  0.00    -0.014 A 
BRANCH  30  31
ATOM     31  C   UNL     1       2.767   5.971   8.274  1.00  0.00     0.031 A 
ATOM     32  C   UNL     1       3.025   7.252   9.015  1.00  0.00     0.074 A 
ATOM     33  C   UNL     1       1.943   5.044   8.792  1.00  0.00     0.049 A 
ATOM     34  N   UNL     1       2.581   7.636  10.184  1.00  0.00    -0.248 NA
ATOM     35  C   UNL     1       3.884   8.237   8.340  1.00  0.00     0.031 C 
ATOM     36  C   UNL     1       1.560   3.795   8.137  1.00  0.00     0.029 A 
ATOM     37  N   UNL     1       1.269   5.021   9.987  1.00  0.00    -0.354 N 
ATOM     38  C   UNL     1       3.090   8.913  10.379  1.00  0.00     0.074 A 
ATOM     39  C   UNL     1       3.899   9.228   9.221  1.00  0.00     0.031 C 
ATOM     40  C   UNL     1       0.722   3.120   8.944  1.00  0.00     0.029 A 
ATOM     41  C   UNL     1       0.532   3.879  10.178  1.00  0.00     0.049 A 
ATOM     42  H   UNL     1       1.310   5.753  10.644  1.00  0.00     0.167 HD
ATOM     43  C   UNL     1       2.894   9.750  11.426  1.00  0.00     0.037 A 
ATOM     44  C   UNL     1      -0.200   3.487  11.238  1.00  0.00     0.037 A 
ATOM     45  C   UNL     1       2.113   9.428  12.591  1.00  0.00     0.049 A 
ATOM     46  C   UNL     1      -0.316   4.393  12.434  1.00  0.00     0.074 A 
ATOM     47  C   UNL     1       1.889  10.197  13.720  1.00  0.00     0.029 A 
ATOM     48  N   UNL     1       1.432   8.235  12.777  1.00  0.00    -0.354 N 
ATOM     49  N   UNL     1       0.175   5.596  12.612  1.00  0.00    -0.248 NA
ATOM     50  C   UNL     1      -1.090   3.887  13.577  1.00  0.00     0.031 C 
ATOM     51  C   UNL     1       1.100   9.453  14.606  1.00  0.00     0.029 A 
ATOM     52  C   UNL     1       0.801   8.239  14.010  1.00  0.00     0.049 A 
ATOM     53  H   UNL     1       1.401   7.495  12.129  1.00  0.00     0.167 HD
ATOM     54  C   UNL     1      -0.248   5.997  13.873  1.00  0.00     0.074 A 
ATOM     55  C   UNL     1      -1.048   4.917  14.410  1.00  0.00     0.031 C 
ATOM     56  C   UNL     1       0.004   7.157  14.528  1.00  0.00     0.037 A 
BRANCH  43  57
ATOM     57  C   UNL     1       3.563  11.089  11.364  1.00  0.00     0.057 A 
ATOM     58  C   UNL     1       3.079  12.114  10.541  1.00  0.00     0.134 A 
ATOM     59  C   UNL     1       4.685  11.366  12.153  1.00  0.00     0.134 A 
ATOM     60  F   UNL     1       2.016  11.904   9.749  1.00  0.00    -0.206 F 
ATOM     61  C   UNL     1       3.699  13.363  10.492  1.00  0.00     0.040 A 
ATOM     62  C   UNL     1       5.303  12.618  12.128  1.00  0.00     0.040 A 
ATOM     63  F   UNL     1       5.197  10.427  12.964  1.00  0.00    -0.206 F 
ATOM     64  C   UNL     1       4.811  13.619  11.292  1.00  0.00     0.006 A 
ENDBRANCH  43  57
BRANCH  44  65
ATOM     65  C   UNL     1      -0.861   2.158  11.235  1.00  0.00     0.057 A 
ATOM     66  C   UNL     1      -2.254   2.037  11.184  1.00  0.00     0.134 A 
ATOM     67  C   UNL     1      -0.111   0.979  11.322  1.00  0.00     0.134 A 
ATOM     68  F   UNL     1      -3.025   3.132  11.128  1.00  0.00    -0.206 F 
ATOM     69  C   UNL     1      -2.879   0.790  11.237  1.00  0.00     0.040 A 
ATOM     70  C   UNL     1      -0.722  -0.275  11.352  1.00  0.00     0.040 A 
ATOM     71  F   UNL     1       1.228   1.030  11.378  1.00  0.00    -0.206 F 
ATOM     72  C   UNL     1      -2.112  -0.371  11.318  1.00  0.00     0.006 A 
ENDBRANCH  44  65
BRANCH  56  73
ATOM     73  C   UNL     1      -0.616   7.325  15.883  1.00  0.00     0.057 A 
ATOM     74  C   UNL     1      -0.129   6.645  17.006  1.00  0.00     0.134 A 
ATOM     75  C   UNL     1      -1.693   8.201  16.072  1.00  0.00     0.134 A 
ATOM     76  F   UNL     1       0.892   5.782  16.888  1.00  0.00    -0.206 F 
ATOM     77  C   UNL     1      -0.706   6.813  18.266  1.00  0.00     0.040 A 
ATOM     78  C   UNL     1      -2.263   8.393  17.330  1.00  0.00     0.040 A 
ATOM     79  F   UNL     1      -2.201   8.888  15.038  1.00  0.00    -0.206 F 
ATOM     80  C   UNL     1      -1.773   7.694  18.431  1.00  0.00     0.006 A 
ENDBRANCH  56  73
ENDBRANCH  30  31
ENDBRANCH  23  25
ENDBRANCH  22  23
ENDBRANCH  21  22
ENDBRANCH   1  21
TORSDOF 13
