REMARK SMILES O=C(OCCOC(=O)[C@H]1CSCN1C(=O)c1cccc2cccnc12)c1ccc(-c2c3nc(c(-c4c(F)cccc4F)c4ccc([nH]4)c(-c4c(F)cccc4F)c4nc(c(-c5c(F)cccc5F)c5ccc2[nH]5)C=C4)C=C3)cc1
REMARK SMILES IDX 4 1 3 2 2 3 1 4 26 5 27 6 79 7 28 8 78 9 29 10 30 11 31 12
REMARK SMILES IDX 72 13 32 14 77 15 71 16 73 17 33 18 76 19 70 20 69 21 34 23
REMARK SMILES IDX 60 24 43 25 59 26 44 27 47 28 58 29 74 30 45 31 46 32 57 34
REMARK SMILES IDX 75 35 48 36 35 37 36 38 41 39 37 40 38 41 40 42 42 43 39 44
REMARK SMILES IDX 61 45 62 46 67 47 63 48 64 49 66 50 68 51 65 52 49 53 50 54
REMARK SMILES IDX 55 55 51 56 52 57 54 58 56 59 53 60 5 61 6 62 7 63 8 64 9 65
REMARK SMILES IDX 10 66 13 67 11 68 12 69 14 70 15 71 16 72 17 73 25 74 18 75
REMARK SMILES IDX 20 76 24 77 19 78 21 79 23 80 22 81
REMARK H PARENT 73 22 47 33
REMARK Flexibility Score: inf
ROOT
ATOM      1  C   UNL     1       4.121  -0.890  -1.368  1.00  0.00     0.275 C 
ENDROOT
BRANCH   1   2
ATOM      2  O   UNL     1       3.133  -1.261  -0.391  1.00  0.00    -0.458 OA
BRANCH   2   3
ATOM      3  C   UNL     1       3.024  -0.923   0.912  1.00  0.00     0.338 C 
ATOM      4  O   UNL     1       2.221  -1.517   1.629  1.00  0.00    -0.246 OA
BRANCH   3   5
ATOM      5  C   UNL     1       3.744   0.238   1.508  1.00  0.00     0.060 A 
ATOM      6  C   UNL     1       5.039   0.644   1.184  1.00  0.00     0.016 A 
ATOM      7  C   UNL     1       3.054   0.951   2.507  1.00  0.00     0.016 A 
ATOM      8  C   UNL     1       5.601   1.785   1.764  1.00  0.00     0.010 A 
ATOM      9  C   UNL     1       3.605   2.101   3.082  1.00  0.00     0.010 A 
ATOM     10  C   UNL     1       4.887   2.523   2.711  1.00  0.00    -0.014 A 
BRANCH  10  11
ATOM     11  C   UNL     1       5.571   3.605   3.450  1.00  0.00     0.031 A 
ATOM     12  C   UNL     1       6.024   3.310   4.850  1.00  0.00     0.074 A 
ATOM     13  C   UNL     1       5.826   4.795   2.875  1.00  0.00     0.049 A 
ATOM     14  N   UNL     1       6.721   4.048   5.672  1.00  0.00    -0.248 NA
ATOM     15  C   UNL     1       5.634   1.999   5.398  1.00  0.00     0.031 C 
ATOM     16  C   UNL     1       5.434   5.192   1.521  1.00  0.00     0.029 A 
ATOM     17  N   UNL     1       6.484   5.895   3.365  1.00  0.00    -0.354 N 
ATOM     18  C   UNL     1       6.867   3.281   6.820  1.00  0.00     0.074 A 
ATOM     19  C   UNL     1       6.112   2.066   6.628  1.00  0.00     0.031 C 
ATOM     20  C   UNL     1       5.855   6.449   1.293  1.00  0.00     0.029 A 
ATOM     21  C   UNL     1       6.546   6.945   2.481  1.00  0.00     0.049 A 
ATOM     22  H   UNL     1       6.877   5.928   4.268  1.00  0.00     0.167 HD
ATOM     23  C   UNL     1       7.606   3.540   7.922  1.00  0.00     0.037 A 
ATOM     24  C   UNL     1       7.111   8.159   2.623  1.00  0.00     0.037 A 
ATOM     25  C   UNL     1       8.346   4.753   8.113  1.00  0.00     0.049 A 
ATOM     26  C   UNL     1       7.862   8.464   3.896  1.00  0.00     0.074 A 
ATOM     27  C   UNL     1       9.135   5.130   9.182  1.00  0.00     0.029 A 
ATOM     28  N   UNL     1       8.373   5.797   7.199  1.00  0.00    -0.354 N 
ATOM     29  N   UNL     1       8.069   7.697   4.940  1.00  0.00    -0.248 NA
ATOM     30  C   UNL     1       8.483   9.793   3.998  1.00  0.00     0.031 C 
ATOM     31  C   UNL     1       9.614   6.421   8.929  1.00  0.00     0.029 A 
ATOM     32  C   UNL     1       9.156   6.827   7.684  1.00  0.00     0.049 A 
ATOM     33  H   UNL     1       7.904   5.803   6.334  1.00  0.00     0.167 HD
ATOM     34  C   UNL     1       8.892   8.422   5.792  1.00  0.00     0.074 A 
ATOM     35  C   UNL     1       9.136   9.697   5.147  1.00  0.00     0.031 C 
ATOM     36  C   UNL     1       9.412   8.066   6.993  1.00  0.00     0.037 A 
BRANCH  23  37
ATOM     37  C   UNL     1       7.621   2.473   8.974  1.00  0.00     0.057 A 
ATOM     38  C   UNL     1       8.263   1.244   8.758  1.00  0.00     0.134 A 
ATOM     39  C   UNL     1       6.910   2.630  10.168  1.00  0.00     0.134 A 
ATOM     40  F   UNL     1       8.936   1.020   7.618  1.00  0.00    -0.206 F 
ATOM     41  C   UNL     1       8.152   0.192   9.667  1.00  0.00     0.040 A 
ATOM     42  C   UNL     1       6.815   1.594  11.098  1.00  0.00     0.040 A 
ATOM     43  F   UNL     1       6.270   3.778  10.434  1.00  0.00    -0.206 F 
ATOM     44  C   UNL     1       7.423   0.366  10.841  1.00  0.00     0.006 A 
ENDBRANCH  23  37
BRANCH  24  45
ATOM     45  C   UNL     1       7.038   9.167   1.532  1.00  0.00     0.057 A 
ATOM     46  C   UNL     1       8.178   9.537   0.806  1.00  0.00     0.134 A 
ATOM     47  C   UNL     1       5.841   9.825   1.225  1.00  0.00     0.134 A 
ATOM     48  F   UNL     1       9.359   8.957   1.065  1.00  0.00    -0.206 F 
ATOM     49  C   UNL     1       8.137  10.544  -0.162  1.00  0.00     0.040 A 
ATOM     50  C   UNL     1       5.782  10.820   0.245  1.00  0.00     0.040 A 
ATOM     51  F   UNL     1       4.711   9.517   1.877  1.00  0.00    -0.206 F 
ATOM     52  C   UNL     1       6.936  11.189  -0.444  1.00  0.00     0.006 A 
ENDBRANCH  24  45
BRANCH  36  53
ATOM     53  C   UNL     1      10.361   9.026   7.644  1.00  0.00     0.057 A 
ATOM     54  C   UNL     1       9.926  10.208   8.253  1.00  0.00     0.134 A 
ATOM     55  C   UNL     1      11.727   8.722   7.716  1.00  0.00     0.134 A 
ATOM     56  F   UNL     1       8.632  10.560   8.206  1.00  0.00    -0.206 F 
ATOM     57  C   UNL     1      10.819  11.064   8.899  1.00  0.00     0.040 A 
ATOM     58  C   UNL     1      12.625   9.555   8.381  1.00  0.00     0.040 A 
ATOM     59  F   UNL     1      12.206   7.599   7.159  1.00  0.00    -0.206 F 
ATOM     60  C   UNL     1      12.172  10.733   8.972  1.00  0.00     0.006 A 
ENDBRANCH  36  53
ENDBRANCH  10  11
ENDBRANCH   3   5
ENDBRANCH   2   3
ENDBRANCH   1   2
BRANCH   1  61
ATOM     61  C   UNL     1       3.864   0.394  -2.165  1.00  0.00     0.274 C 
BRANCH  61  62
ATOM     62  O   UNL     1       3.375   1.530  -1.437  1.00  0.00    -0.461 OA
BRANCH  62  63
ATOM     63  C   UNL     1       2.013   1.589  -1.375  1.00  0.00     0.329 C 
ATOM     64  O   UNL     1       1.282   0.614  -1.525  1.00  0.00    -0.250 OA
BRANCH  63  65
ATOM     65  C   UNL     1       1.464   2.954  -0.945  1.00  0.00     0.206 C 
ATOM     66  C   UNL     1       1.700   3.077   0.548  1.00  0.00     0.108 C 
ATOM     67  N   UNL     1       1.998   4.186  -1.530  1.00  0.00    -0.315 N 
ATOM     68  S   UNL     1       1.399   4.802   0.964  1.00  0.00    -0.138 SA
ATOM     69  C   UNL     1       1.796   5.362  -0.697  1.00  0.00     0.191 C 
BRANCH  67  70
ATOM     70  C   UNL     1       2.081   4.245  -2.917  1.00  0.00     0.257 C 
ATOM     71  O   UNL     1       2.311   3.282  -3.628  1.00  0.00    -0.269 OA
BRANCH  70  72
ATOM     72  C   UNL     1       1.850   5.555  -3.545  1.00  0.00     0.066 A 
ATOM     73  C   UNL     1       2.936   6.412  -3.748  1.00  0.00     0.016 A 
ATOM     74  C   UNL     1       0.530   5.892  -3.862  1.00  0.00     0.083 A 
ATOM     75  C   UNL     1       2.704   7.670  -4.287  1.00  0.00     0.002 A 
ATOM     76  C   UNL     1       0.319   7.167  -4.421  1.00  0.00     0.001 A 
ATOM     77  N   UNL     1      -0.504   5.053  -3.610  1.00  0.00    -0.255 NA
ATOM     78  C   UNL     1       1.403   8.044  -4.626  1.00  0.00     0.010 A 
ATOM     79  C   UNL     1      -0.995   7.533  -4.751  1.00  0.00     0.012 A 
ATOM     80  C   UNL     1      -1.753   5.435  -3.945  1.00  0.00     0.112 A 
ATOM     81  C   UNL     1      -2.046   6.654  -4.516  1.00  0.00     0.021 A 
ENDBRANCH  70  72
ENDBRANCH  67  70
ENDBRANCH  63  65
ENDBRANCH  62  63
ENDBRANCH  61  62
ENDBRANCH   1  61
TORSDOF 13
