REMARK SMILES CCN(C(=O)N[C@@H]1CCOC1)[C@H]1COC[C@H]1C(=O)OCCOC(=O)c1ccc(-c2c3nc(c(-c4c(F)cccc4F)c4ccc([nH]4)c(-c4c(F)cccc4F)c4nc(c(-c5c(F)cccc5F)c5ccc2[nH]5)C=C4)C=C3)cc1
REMARK SMILES IDX 20 1 19 2 17 3 18 4 16 5 12 6 13 7 14 8 15 9 3 10 2 11 1 12
REMARK SMILES IDX 4 13 5 14 6 15 7 17 8 18 11 19 9 20 10 21 21 22 22 23 23 24
REMARK SMILES IDX 24 25 25 26 26 27 78 28 27 29 77 30 28 31 29 32 30 33 71 34
REMARK SMILES IDX 31 35 76 36 70 37 72 38 32 39 75 40 69 41 68 42 33 44 59 45
REMARK SMILES IDX 42 46 58 47 43 48 46 49 57 50 73 51 44 52 45 53 56 55 74 56
REMARK SMILES IDX 47 57 34 58 35 59 40 60 36 61 37 62 39 63 41 64 38 65 60 66
REMARK SMILES IDX 61 67 66 68 62 69 63 70 65 71 67 72 64 73 48 74 49 75 54 76
REMARK SMILES IDX 50 77 51 78 53 79 55 80 52 81
REMARK H PARENT 6 16 72 43 46 54
REMARK Flexibility Score: inf
ROOT
ATOM      1  C   UNL     1       4.271   1.490  -3.081  1.00  0.00     0.274 C 
ENDROOT
BRANCH   1   2
ATOM      2  O   UNL     1       3.885   0.170  -2.650  1.00  0.00    -0.462 OA
BRANCH   2   3
ATOM      3  C   UNL     1       4.232  -0.197  -1.401  1.00  0.00     0.313 C 
ATOM      4  O   UNL     1       4.964   0.460  -0.666  1.00  0.00    -0.252 OA
BRANCH   3   5
ATOM      5  C   UNL     1       3.559  -1.447  -0.909  1.00  0.00     0.150 C 
ATOM      6  C   UNL     1       2.659  -2.359  -1.738  1.00  0.00     0.129 C 
ATOM      7  C   UNL     1       2.531  -3.490  -0.706  1.00  0.00     0.186 C 
ATOM      8  O   UNL     1       3.844  -3.658  -0.131  1.00  0.00    -0.378 OA
ATOM      9  C   UNL     1       4.543  -2.407  -0.281  1.00  0.00     0.177 C 
BRANCH   6  10
ATOM     10  N   UNL     1       3.206  -2.746  -3.061  1.00  0.00    -0.319 N 
BRANCH  10  11
ATOM     11  C   UNL     1       3.670  -4.116  -3.344  1.00  0.00     0.118 C 
ATOM     12  C   UNL     1       5.151  -4.344  -3.119  1.00  0.00     0.027 C 
ENDBRANCH  10  11
BRANCH  10  13
ATOM     13  C   UNL     1       2.774  -2.024  -4.181  1.00  0.00     0.318 C 
ATOM     14  O   UNL     1       1.653  -1.556  -4.303  1.00  0.00    -0.249 OA
ATOM     15  N   UNL     1       3.756  -1.961  -5.133  1.00  0.00    -0.333 N 
ATOM     16  H   UNL     1       4.680  -1.938  -4.792  1.00  0.00     0.165 HD
BRANCH  15  17
ATOM     17  C   UNL     1       3.615  -1.924  -6.583  1.00  0.00     0.112 C 
ATOM     18  C   UNL     1       2.221  -1.770  -7.150  1.00  0.00     0.056 C 
ATOM     19  C   UNL     1       4.000  -3.290  -7.154  1.00  0.00     0.185 C 
ATOM     20  C   UNL     1       1.677  -3.184  -7.100  1.00  0.00     0.162 C 
ATOM     21  O   UNL     1       2.799  -4.072  -7.242  1.00  0.00    -0.379 OA
ENDBRANCH  15  17
ENDBRANCH  10  13
ENDBRANCH   6  10
ENDBRANCH   3   5
ENDBRANCH   2   3
ENDBRANCH   1   2
BRANCH   1  22
ATOM     22  C   UNL     1       3.030   2.353  -3.321  1.00  0.00     0.275 C 
BRANCH  22  23
ATOM     23  O   UNL     1       2.332   2.641  -2.092  1.00  0.00    -0.458 OA
BRANCH  23  24
ATOM     24  C   UNL     1       1.380   1.737  -1.768  1.00  0.00     0.338 C 
ATOM     25  O   UNL     1       1.068   0.730  -2.375  1.00  0.00    -0.246 OA
BRANCH  24  26
ATOM     26  C   UNL     1       0.782   2.039  -0.466  1.00  0.00     0.060 A 
ATOM     27  C   UNL     1       1.056   1.160   0.581  1.00  0.00     0.016 A 
ATOM     28  C   UNL     1      -0.178   3.039  -0.325  1.00  0.00     0.016 A 
ATOM     29  C   UNL     1       0.342   1.239   1.765  1.00  0.00     0.010 A 
ATOM     30  C   UNL     1      -0.872   3.145   0.884  1.00  0.00     0.010 A 
ATOM     31  C   UNL     1      -0.628   2.233   1.927  1.00  0.00    -0.014 A 
BRANCH  31  32
ATOM     32  C   UNL     1      -1.383   2.294   3.196  1.00  0.00     0.031 A 
ATOM     33  C   UNL     1      -2.830   1.903   3.237  1.00  0.00     0.074 A 
ATOM     34  C   UNL     1      -0.739   2.659   4.319  1.00  0.00     0.049 A 
ATOM     35  N   UNL     1      -3.673   1.973   4.235  1.00  0.00    -0.248 NA
ATOM     36  C   UNL     1      -3.406   1.364   1.996  1.00  0.00     0.031 C 
ATOM     37  C   UNL     1       0.682   3.005   4.401  1.00  0.00     0.029 A 
ATOM     38  N   UNL     1      -1.191   2.791   5.606  1.00  0.00    -0.354 N 
ATOM     39  C   UNL     1      -4.886   1.519   3.736  1.00  0.00     0.074 A 
ATOM     40  C   UNL     1      -4.671   1.175   2.346  1.00  0.00     0.031 C 
ATOM     41  C   UNL     1       0.988   3.297   5.674  1.00  0.00     0.029 A 
ATOM     42  C   UNL     1      -0.224   3.216   6.482  1.00  0.00     0.049 A 
ATOM     43  H   UNL     1      -2.118   2.600   5.875  1.00  0.00     0.167 HD
ATOM     44  C   UNL     1      -6.070   1.406   4.384  1.00  0.00     0.037 A 
ATOM     45  C   UNL     1      -0.312   3.537   7.785  1.00  0.00     0.037 A 
ATOM     46  C   UNL     1      -6.265   1.727   5.774  1.00  0.00     0.049 A 
ATOM     47  C   UNL     1      -1.643   3.434   8.469  1.00  0.00     0.074 A 
ATOM     48  C   UNL     1      -7.425   1.649   6.525  1.00  0.00     0.029 A 
ATOM     49  N   UNL     1      -5.267   2.182   6.624  1.00  0.00    -0.354 N 
ATOM     50  N   UNL     1      -2.793   3.042   7.978  1.00  0.00    -0.248 NA
ATOM     51  C   UNL     1      -1.691   3.829   9.883  1.00  0.00     0.031 C 
ATOM     52  C   UNL     1      -7.134   2.083   7.824  1.00  0.00     0.029 A 
ATOM     53  C   UNL     1      -5.787   2.400   7.889  1.00  0.00     0.049 A 
ATOM     54  H   UNL     1      -4.328   2.327   6.366  1.00  0.00     0.167 HD
ATOM     55  C   UNL     1      -3.703   3.138   9.021  1.00  0.00     0.074 A 
ATOM     56  C   UNL     1      -2.965   3.605  10.178  1.00  0.00     0.031 C 
ATOM     57  C   UNL     1      -5.031   2.869   9.021  1.00  0.00     0.037 A 
BRANCH  44  58
ATOM     58  C   UNL     1      -7.253   0.950   3.585  1.00  0.00     0.057 A 
ATOM     59  C   UNL     1      -7.429  -0.389   3.217  1.00  0.00     0.134 A 
ATOM     60  C   UNL     1      -8.248   1.862   3.208  1.00  0.00     0.134 A 
ATOM     61  F   UNL     1      -6.505  -1.308   3.535  1.00  0.00    -0.206 F 
ATOM     62  C   UNL     1      -8.546  -0.803   2.488  1.00  0.00     0.040 A 
ATOM     63  C   UNL     1      -9.377   1.457   2.495  1.00  0.00     0.040 A 
ATOM     64  F   UNL     1      -8.139   3.159   3.531  1.00  0.00    -0.206 F 
ATOM     65  C   UNL     1      -9.527   0.121   2.130  1.00  0.00     0.006 A 
ENDBRANCH  44  58
BRANCH  45  66
ATOM     66  C   UNL     1       0.891   4.015   8.506  1.00  0.00     0.057 A 
ATOM     67  C   UNL     1       1.524   3.218   9.465  1.00  0.00     0.134 A 
ATOM     68  C   UNL     1       1.449   5.270   8.234  1.00  0.00     0.134 A 
ATOM     69  F   UNL     1       1.024   2.015   9.780  1.00  0.00    -0.206 F 
ATOM     70  C   UNL     1       2.669   3.655  10.133  1.00  0.00     0.040 A 
ATOM     71  C   UNL     1       2.606   5.709   8.877  1.00  0.00     0.040 A 
ATOM     72  F   UNL     1       0.889   6.076   7.320  1.00  0.00    -0.206 F 
ATOM     73  C   UNL     1       3.217   4.901   9.833  1.00  0.00     0.006 A 
ENDBRANCH  45  66
BRANCH  57  74
ATOM     74  C   UNL     1      -5.756   3.064  10.316  1.00  0.00     0.057 A 
ATOM     75  C   UNL     1      -6.096   4.341  10.779  1.00  0.00     0.134 A 
ATOM     76  C   UNL     1      -6.135   1.965  11.096  1.00  0.00     0.134 A 
ATOM     77  F   UNL     1      -5.745   5.432  10.082  1.00  0.00    -0.206 F 
ATOM     78  C   UNL     1      -6.773   4.519  11.985  1.00  0.00     0.040 A 
ATOM     79  C   UNL     1      -6.828   2.130  12.295  1.00  0.00     0.040 A 
ATOM     80  F   UNL     1      -5.840   0.717  10.702  1.00  0.00    -0.206 F 
ATOM     81  C   UNL     1      -7.145   3.411  12.745  1.00  0.00     0.006 A 
ENDBRANCH  57  74
ENDBRANCH  31  32
ENDBRANCH  24  26
ENDBRANCH  23  24
ENDBRANCH  22  23
ENDBRANCH   1  22
TORSDOF 15
