REMARK SMILES COCc1cccc(O[C@@H](C)c2ccc(C(=O)OCCOC(=O)c3ccc(-c4c5nc(c(-c6c(F)cccc6F)c6ccc([nH]6)c(-c6c(F)cccc6F)c6nc(c(-c7c(F)cccc7F)c7ccc4[nH]7)C=C6)C=C5)cc3)o2)c1
REMARK SMILES IDX 18 1 16 2 17 3 15 4 12 5 13 6 78 7 14 8 10 9 11 10 9 11 8 12
REMARK SMILES IDX 4 13 5 14 79 15 6 16 7 17 3 18 2 19 1 20 19 21 20 22 21 23
REMARK SMILES IDX 22 24 23 25 24 26 25 27 77 28 26 29 76 30 27 31 28 32 29 33
REMARK SMILES IDX 70 34 30 35 75 36 69 37 71 38 31 39 74 40 68 41 67 42 32 44
REMARK SMILES IDX 58 45 41 46 57 47 42 48 45 49 56 50 72 51 43 52 44 53 55 55
REMARK SMILES IDX 73 56 46 57 33 58 34 59 39 60 35 61 36 62 38 63 40 64 37 65
REMARK SMILES IDX 59 66 60 67 65 68 61 69 62 70 64 71 66 72 63 73 47 74 48 75
REMARK SMILES IDX 53 76 49 77 50 78 52 79 54 80 51 81
REMARK H PARENT 71 43 45 54
REMARK Flexibility Score: inf
ROOT
ATOM      1  O   UNL     1       6.687  -1.423  -0.406  1.00  0.00    -0.456 OA
ENDROOT
BRANCH   1   2
ATOM      2  C   UNL     1       5.638  -2.216  -0.783  1.00  0.00     0.374 C 
ATOM      3  O   UNL     1       5.711  -3.130  -1.587  1.00  0.00    -0.242 OA
BRANCH   2   4
ATOM      4  C   UNL     1       4.494  -1.888   0.042  1.00  0.00     0.211 A 
ATOM      5  C   UNL     1       2.609  -2.382   1.111  1.00  0.00     0.145 A 
ATOM      6  C   UNL     1       3.179  -1.293   1.746  1.00  0.00     0.050 A 
ATOM      7  O   UNL     1       3.395  -2.715   0.032  1.00  0.00    -0.450 OA
ATOM      8  C   UNL     1       4.330  -0.929   1.019  1.00  0.00     0.058 A 
BRANCH   5   9
ATOM      9  C   UNL     1       1.445  -3.307   1.395  1.00  0.00     0.236 C 
ATOM     10  C   UNL     1       0.457  -3.501   0.249  1.00  0.00     0.062 C 
BRANCH   9  11
ATOM     11  O   UNL     1       0.772  -3.055   2.651  1.00  0.00    -0.483 OA
BRANCH  11  12
ATOM     12  C   UNL     1       0.345  -1.810   3.012  1.00  0.00     0.120 A 
ATOM     13  C   UNL     1       0.069   0.575   2.615  1.00  0.00    -0.019 A 
ATOM     14  C   UNL     1      -0.051   0.773   3.997  1.00  0.00     0.006 A 
ATOM     15  C   UNL     1       0.192  -0.736   2.142  1.00  0.00     0.052 A 
ATOM     16  C   UNL     1      -0.032  -0.315   4.873  1.00  0.00     0.004 A 
ATOM     17  C   UNL     1       0.182  -1.603   4.381  1.00  0.00     0.046 A 
BRANCH  13  18
ATOM     18  C   UNL     1       0.262   1.754   1.684  1.00  0.00     0.195 C 
BRANCH  18  19
ATOM     19  O   UNL     1      -0.257   1.552   0.369  1.00  0.00    -0.380 OA
ATOM     20  C   UNL     1       0.697   1.105  -0.590  1.00  0.00     0.195 C 
ENDBRANCH  18  19
ENDBRANCH  13  18
ENDBRANCH  11  12
ENDBRANCH   9  11
ENDBRANCH   5   9
ENDBRANCH   2   4
ENDBRANCH   1   2
BRANCH   1  21
ATOM     21  C   UNL     1       8.009  -1.870  -0.753  1.00  0.00     0.275 C 
BRANCH  21  22
ATOM     22  C   UNL     1       8.693  -2.484   0.475  1.00  0.00     0.275 C 
BRANCH  22  23
ATOM     23  O   UNL     1       8.149  -3.785   0.776  1.00  0.00    -0.458 OA
BRANCH  23  24
ATOM     24  C   UNL     1       7.178  -3.809   1.720  1.00  0.00     0.338 C 
ATOM     25  O   UNL     1       6.753  -2.865   2.364  1.00  0.00    -0.246 OA
BRANCH  24  26
ATOM     26  C   UNL     1       6.578  -5.153   1.765  1.00  0.00     0.060 A 
ATOM     27  C   UNL     1       5.225  -5.271   1.445  1.00  0.00     0.016 A 
ATOM     28  C   UNL     1       7.306  -6.273   2.165  1.00  0.00     0.016 A 
ATOM     29  C   UNL     1       4.585  -6.502   1.523  1.00  0.00     0.010 A 
ATOM     30  C   UNL     1       6.664  -7.515   2.240  1.00  0.00     0.010 A 
ATOM     31  C   UNL     1       5.298  -7.635   1.927  1.00  0.00    -0.014 A 
BRANCH  31  32
ATOM     32  C   UNL     1       4.584  -8.926   2.069  1.00  0.00     0.031 A 
ATOM     33  C   UNL     1       4.272  -9.460   3.436  1.00  0.00     0.074 A 
ATOM     34  C   UNL     1       4.178  -9.592   0.973  1.00  0.00     0.049 A 
ATOM     35  N   UNL     1       3.707 -10.590   3.775  1.00  0.00    -0.248 NA
ATOM     36  C   UNL     1       4.647  -8.607   4.575  1.00  0.00     0.031 C 
ATOM     37  C   UNL     1       4.375  -9.147  -0.407  1.00  0.00     0.029 A 
ATOM     38  N   UNL     1       3.512 -10.785   0.849  1.00  0.00    -0.354 N 
ATOM     39  C   UNL     1       3.675 -10.594   5.163  1.00  0.00     0.074 A 
ATOM     40  C   UNL     1       4.296  -9.364   5.604  1.00  0.00     0.031 C 
ATOM     41  C   UNL     1       3.838 -10.053  -1.239  1.00  0.00     0.029 A 
ATOM     42  C   UNL     1       3.301 -11.162  -0.455  1.00  0.00     0.049 A 
ATOM     43  H   UNL     1       3.213 -11.319   1.620  1.00  0.00     0.167 HD
ATOM     44  C   UNL     1       3.168 -11.538   5.992  1.00  0.00     0.037 A 
ATOM     45  C   UNL     1       2.760 -12.287  -0.959  1.00  0.00     0.037 A 
ATOM     46  C   UNL     1       2.538 -12.754   5.547  1.00  0.00     0.049 A 
ATOM     47  C   UNL     1       2.260 -13.347  -0.017  1.00  0.00     0.074 A 
ATOM     48  C   UNL     1       1.985 -13.768   6.309  1.00  0.00     0.029 A 
ATOM     49  N   UNL     1       2.376 -13.118   4.218  1.00  0.00    -0.354 N 
ATOM     50  N   UNL     1       2.242 -13.347   1.294  1.00  0.00    -0.248 NA
ATOM     51  C   UNL     1       1.710 -14.567  -0.625  1.00  0.00     0.031 C 
ATOM     52  C   UNL     1       1.528 -14.767   5.442  1.00  0.00     0.029 A 
ATOM     53  C   UNL     1       1.753 -14.353   4.139  1.00  0.00     0.049 A 
ATOM     54  H   UNL     1       2.663 -12.579   3.446  1.00  0.00     0.167 HD
ATOM     55  C   UNL     1       1.661 -14.552   1.668  1.00  0.00     0.074 A 
ATOM     56  C   UNL     1       1.328 -15.252   0.444  1.00  0.00     0.031 C 
ATOM     57  C   UNL     1       1.425 -15.034   2.912  1.00  0.00     0.037 A 
BRANCH  44  58
ATOM     58  C   UNL     1       3.307 -11.303   7.468  1.00  0.00     0.057 A 
ATOM     59  C   UNL     1       2.553 -10.335   8.142  1.00  0.00     0.134 A 
ATOM     60  C   UNL     1       4.199 -12.071   8.228  1.00  0.00     0.134 A 
ATOM     61  F   UNL     1       1.692  -9.555   7.470  1.00  0.00    -0.206 F 
ATOM     62  C   UNL     1       2.699 -10.121   9.514  1.00  0.00     0.040 A 
ATOM     63  C   UNL     1       4.336 -11.884   9.604  1.00  0.00     0.040 A 
ATOM     64  F   UNL     1       4.949 -13.019   7.646  1.00  0.00    -0.206 F 
ATOM     65  C   UNL     1       3.589 -10.901  10.250  1.00  0.00     0.006 A 
ENDBRANCH  44  58
BRANCH  45  66
ATOM     66  C   UNL     1       2.681 -12.476  -2.429  1.00  0.00     0.057 A 
ATOM     67  C   UNL     1       1.453 -12.467  -3.098  1.00  0.00     0.134 A 
ATOM     68  C   UNL     1       3.834 -12.673  -3.199  1.00  0.00     0.134 A 
ATOM     69  F   UNL     1       0.312 -12.306  -2.413  1.00  0.00    -0.206 F 
ATOM     70  C   UNL     1       1.372 -12.658  -4.479  1.00  0.00     0.040 A 
ATOM     71  C   UNL     1       3.771 -12.840  -4.582  1.00  0.00     0.040 A 
ATOM     72  F   UNL     1       5.043 -12.693  -2.616  1.00  0.00    -0.206 F 
ATOM     73  C   UNL     1       2.535 -12.838  -5.226  1.00  0.00     0.006 A 
ENDBRANCH  45  66
BRANCH  57  74
ATOM     74  C   UNL     1       0.747 -16.369   3.011  1.00  0.00     0.057 A 
ATOM     75  C   UNL     1       1.417 -17.563   2.714  1.00  0.00     0.134 A 
ATOM     76  C   UNL     1      -0.582 -16.463   3.444  1.00  0.00     0.134 A 
ATOM     77  F   UNL     1       2.687 -17.540   2.281  1.00  0.00    -0.206 F 
ATOM     78  C   UNL     1       0.782 -18.801   2.823  1.00  0.00     0.040 A 
ATOM     79  C   UNL     1      -1.219 -17.697   3.582  1.00  0.00     0.040 A 
ATOM     80  F   UNL     1      -1.277 -15.358   3.752  1.00  0.00    -0.206 F 
ATOM     81  C   UNL     1      -0.538 -18.870   3.265  1.00  0.00     0.006 A 
ENDBRANCH  57  74
ENDBRANCH  31  32
ENDBRANCH  24  26
ENDBRANCH  23  24
ENDBRANCH  22  23
ENDBRANCH  21  22
ENDBRANCH   1  21
TORSDOF 16
