REMARK SMILES CC(C)[C@@H]([NH2+][C@@H]1CSCC(C)(C)C1)C(=O)OCCOC(=O)c1ccc(-c2c3nc(c(-c4c(F)cccc4F)c4ccc([nH]4)c(-c4c(F)cccc4F)c4nc(c(-c5c(F)cccc5F)c5ccc2[nH]5)C=C4)C=C3)cc1
REMARK SMILES IDX 17 1 16 2 14 3 15 4 4 5 2 6 1 7 3 8 5 9 6 12 7 13 13 14 8 15
REMARK SMILES IDX 10 16 9 17 11 18 12 19 18 20 19 21 20 22 21 23 22 24 23 25
REMARK SMILES IDX 75 26 24 27 74 28 25 29 26 30 27 31 68 32 28 33 73 34 67 35
REMARK SMILES IDX 69 36 29 37 72 38 66 39 65 40 30 42 56 43 39 44 55 45 40 46
REMARK SMILES IDX 43 47 54 48 70 49 41 50 42 51 53 53 71 54 44 55 31 56 32 57
REMARK SMILES IDX 37 58 33 59 34 60 36 61 38 62 35 63 57 64 58 65 63 66 59 67
REMARK SMILES IDX 60 68 62 69 64 70 61 71 45 72 46 73 51 74 47 75 48 76 50 77
REMARK SMILES IDX 52 78 49 79
REMARK H PARENT 5 10 5 11 69 41 43 52
REMARK Flexibility Score: inf
ROOT
ATOM      1  C   UNL     1      -1.450  -5.118   0.593  1.00  0.00     0.274 C 
ENDROOT
BRANCH   1   2
ATOM      2  O   UNL     1      -0.811  -3.914   0.124  1.00  0.00    -0.458 OA
BRANCH   2   3
ATOM      3  C   UNL     1      -1.513  -2.768   0.336  1.00  0.00     0.365 C 
ATOM      4  O   UNL     1      -2.620  -2.736   0.869  1.00  0.00    -0.245 OA
BRANCH   3   5
ATOM      5  C   UNL     1      -0.803  -1.488  -0.180  1.00  0.00     0.296 C 
BRANCH   5   6
ATOM      6  C   UNL     1       0.742  -1.626  -0.346  1.00  0.00     0.053 C 
ATOM      7  C   UNL     1       1.395  -0.327  -0.850  1.00  0.00     0.014 C 
ATOM      8  C   UNL     1       1.429  -1.987   0.983  1.00  0.00     0.014 C 
ENDBRANCH   5   6
BRANCH   5   9
ATOM      9  N   UNL     1      -1.452  -1.011  -1.427  1.00  0.00    -0.331 N 
ATOM     10  H   UNL     1      -1.295  -1.716  -2.148  1.00  0.00     0.347 HD
ATOM     11  H   UNL     1      -1.027  -0.105  -1.624  1.00  0.00     0.347 HD
BRANCH   9  12
ATOM     12  C   UNL     1      -2.907  -0.757  -1.356  1.00  0.00     0.193 C 
ATOM     13  C   UNL     1      -3.401  -0.210  -2.712  1.00  0.00     0.134 C 
ATOM     14  C   UNL     1      -3.420   0.125  -0.189  1.00  0.00     0.073 C 
ATOM     15  S   UNL     1      -2.866   1.500  -3.024  1.00  0.00    -0.155 SA
ATOM     16  C   UNL     1      -3.142   1.650  -0.224  1.00  0.00    -0.021 C 
ATOM     17  C   UNL     1      -3.610   2.272  -1.554  1.00  0.00     0.076 C 
ATOM     18  C   UNL     1      -1.665   1.990   0.048  1.00  0.00     0.012 C 
ATOM     19  C   UNL     1      -3.959   2.293   0.923  1.00  0.00     0.012 C 
ENDBRANCH   9  12
ENDBRANCH   5   9
ENDBRANCH   3   5
ENDBRANCH   2   3
ENDBRANCH   1   2
BRANCH   1  20
ATOM     20  C   UNL     1      -1.111  -5.412   2.058  1.00  0.00     0.275 C 
BRANCH  20  21
ATOM     21  O   UNL     1      -1.641  -4.385   2.918  1.00  0.00    -0.458 OA
BRANCH  21  22
ATOM     22  C   UNL     1      -0.759  -3.796   3.755  1.00  0.00     0.338 C 
ATOM     23  O   UNL     1       0.408  -4.092   3.940  1.00  0.00    -0.246 OA
BRANCH  22  24
ATOM     24  C   UNL     1      -1.391  -2.634   4.399  1.00  0.00     0.060 A 
ATOM     25  C   UNL     1      -1.321  -1.394   3.759  1.00  0.00     0.016 A 
ATOM     26  C   UNL     1      -1.915  -2.736   5.687  1.00  0.00     0.016 A 
ATOM     27  C   UNL     1      -1.750  -0.242   4.413  1.00  0.00     0.010 A 
ATOM     28  C   UNL     1      -2.358  -1.581   6.341  1.00  0.00     0.010 A 
ATOM     29  C   UNL     1      -2.251  -0.325   5.719  1.00  0.00    -0.014 A 
BRANCH  29  30
ATOM     30  C   UNL     1      -2.569   0.922   6.455  1.00  0.00     0.031 A 
ATOM     31  C   UNL     1      -1.598   1.456   7.471  1.00  0.00     0.074 A 
ATOM     32  C   UNL     1      -3.695   1.603   6.179  1.00  0.00     0.049 A 
ATOM     33  N   UNL     1      -1.693   2.522   8.226  1.00  0.00    -0.248 NA
ATOM     34  C   UNL     1      -0.354   0.694   7.657  1.00  0.00     0.031 C 
ATOM     35  C   UNL     1      -4.697   1.213   5.188  1.00  0.00     0.029 A 
ATOM     36  N   UNL     1      -4.180   2.772   6.707  1.00  0.00    -0.354 N 
ATOM     37  C   UNL     1      -0.529   2.554   8.982  1.00  0.00     0.074 A 
ATOM     38  C   UNL     1       0.252   1.393   8.607  1.00  0.00     0.031 C 
ATOM     39  C   UNL     1      -5.678   2.132   5.175  1.00  0.00     0.029 A 
ATOM     40  C   UNL     1      -5.385   3.157   6.175  1.00  0.00     0.049 A 
ATOM     41  H   UNL     1      -3.709   3.286   7.402  1.00  0.00     0.167 HD
ATOM     42  C   UNL     1      -0.141   3.469   9.902  1.00  0.00     0.037 A 
ATOM     43  C   UNL     1      -6.168   4.212   6.468  1.00  0.00     0.037 A 
ATOM     44  C   UNL     1      -0.907   4.627  10.276  1.00  0.00     0.049 A 
ATOM     45  C   UNL     1      -5.733   5.192   7.521  1.00  0.00     0.074 A 
ATOM     46  C   UNL     1      -0.599   5.603  11.210  1.00  0.00     0.029 A 
ATOM     47  N   UNL     1      -2.134   4.969   9.731  1.00  0.00    -0.354 N 
ATOM     48  N   UNL     1      -4.636   5.203   8.238  1.00  0.00    -0.248 NA
ATOM     49  C   UNL     1      -6.648   6.308   7.805  1.00  0.00     0.031 C 
ATOM     50  C   UNL     1      -1.651   6.525  11.243  1.00  0.00     0.029 A 
ATOM     51  C   UNL     1      -2.600   6.136  10.312  1.00  0.00     0.049 A 
ATOM     52  H   UNL     1      -2.604   4.457   9.034  1.00  0.00     0.167 HD
ATOM     53  C   UNL     1      -4.721   6.329   9.045  1.00  0.00     0.074 A 
ATOM     54  C   UNL     1      -5.971   6.986   8.721  1.00  0.00     0.031 C 
ATOM     55  C   UNL     1      -3.843   6.778   9.974  1.00  0.00     0.037 A 
BRANCH  42  56
ATOM     56  C   UNL     1       1.172   3.236  10.584  1.00  0.00     0.057 A 
ATOM     57  C   UNL     1       2.388   3.518   9.950  1.00  0.00     0.134 A 
ATOM     58  C   UNL     1       1.219   2.748  11.895  1.00  0.00     0.134 A 
ATOM     59  F   UNL     1       2.407   3.973   8.688  1.00  0.00    -0.206 F 
ATOM     60  C   UNL     1       3.609   3.308  10.593  1.00  0.00     0.040 A 
ATOM     61  C   UNL     1       2.433   2.549  12.554  1.00  0.00     0.040 A 
ATOM     62  F   UNL     1       0.087   2.459  12.555  1.00  0.00    -0.206 F 
ATOM     63  C   UNL     1       3.632   2.827  11.901  1.00  0.00     0.006 A 
ENDBRANCH  42  56
BRANCH  43  64
ATOM     64  C   UNL     1      -7.453   4.396   5.754  1.00  0.00     0.057 A 
ATOM     65  C   UNL     1      -7.606   5.396   4.789  1.00  0.00     0.134 A 
ATOM     66  C   UNL     1      -8.558   3.583   6.029  1.00  0.00     0.134 A 
ATOM     67  F   UNL     1      -6.586   6.219   4.501  1.00  0.00    -0.206 F 
ATOM     68  C   UNL     1      -8.819   5.589   4.127  1.00  0.00     0.040 A 
ATOM     69  C   UNL     1      -9.771   3.753   5.362  1.00  0.00     0.040 A 
ATOM     70  F   UNL     1      -8.470   2.609   6.947  1.00  0.00    -0.206 F 
ATOM     71  C   UNL     1      -9.905   4.762   4.410  1.00  0.00     0.006 A 
ENDBRANCH  43  64
BRANCH  55  72
ATOM     72  C   UNL     1      -4.196   8.048  10.685  1.00  0.00     0.057 A 
ATOM     73  C   UNL     1      -5.145   8.074  11.714  1.00  0.00     0.134 A 
ATOM     74  C   UNL     1      -3.563   9.252  10.354  1.00  0.00     0.134 A 
ATOM     75  F   UNL     1      -5.795   6.954  12.067  1.00  0.00    -0.206 F 
ATOM     76  C   UNL     1      -5.468   9.259  12.377  1.00  0.00     0.040 A 
ATOM     77  C   UNL     1      -3.865  10.440  11.020  1.00  0.00     0.040 A 
ATOM     78  F   UNL     1      -2.641   9.291   9.380  1.00  0.00    -0.206 F 
ATOM     79  C   UNL     1      -4.823  10.446  12.032  1.00  0.00     0.006 A 
ENDBRANCH  55  72
ENDBRANCH  29  30
ENDBRANCH  22  24
ENDBRANCH  21  22
ENDBRANCH  20  21
ENDBRANCH   1  20
TORSDOF 14
