REMARK SMILES COc1cc([C@@H]2CC(=O)Nc3c(C(=O)OCCOC(=O)c4ccc(-c5c6nc(c(-c7c(F)cccc7F)c7ccc([nH]7)c(-c7c(F)cccc7F)c7nc(c(-c8c(F)cccc8F)c8ccc5[nH]8)C=C7)C=C6)cc4)cn(-c4ccccc4)c32)cc(OC)c1OC
REMARK SMILES IDX 16 1 15 2 13 3 14 4 12 5 6 6 7 7 83 8 8 9 11 10 76 11 9 12
REMARK SMILES IDX 10 13 75 14 5 16 3 17 4 18 88 19 85 20 84 21 2 22 1 23 89 24
REMARK SMILES IDX 90 25 86 26 87 27 77 28 78 29 82 30 79 31 81 32 80 33 17 34
REMARK SMILES IDX 18 35 19 36 20 37 21 38 22 39 74 40 23 41 73 42 24 43 25 44
REMARK SMILES IDX 26 45 67 46 27 47 72 48 66 49 68 50 28 51 71 52 65 53 64 54
REMARK SMILES IDX 29 56 55 57 38 58 54 59 39 60 42 61 53 62 69 63 40 64 41 65
REMARK SMILES IDX 52 67 70 68 43 69 30 70 31 71 36 72 32 73 33 74 35 75 37 76
REMARK SMILES IDX 34 77 56 78 57 79 62 80 58 81 59 82 61 83 63 84 60 85 44 86
REMARK SMILES IDX 45 87 50 88 46 89 47 90 49 91 51 92 48 93
REMARK H PARENT 10 15 68 55 42 66
REMARK Flexibility Score: inf
ROOT
ATOM      1  C   UNL     1       1.460   0.714 -11.700  1.00  0.00     0.275 C 
ENDROOT
BRANCH   1   2
ATOM      2  O   UNL     1       1.089   0.407 -10.344  1.00  0.00    -0.458 OA
BRANCH   2   3
ATOM      3  C   UNL     1       0.405   1.378  -9.663  1.00  0.00     0.341 C 
ATOM      4  O   UNL     1       0.245   2.526 -10.067  1.00  0.00    -0.246 OA
BRANCH   3   5
ATOM      5  C   UNL     1      -0.173   0.882  -8.423  1.00  0.00     0.102 A 
ATOM      6  C   UNL     1      -0.468  -1.382  -5.500  1.00  0.00     0.078 C 
ATOM      7  C   UNL     1      -0.040  -2.689  -6.201  1.00  0.00     0.115 C 
ATOM      8  C   UNL     1      -0.586  -0.308  -6.540  1.00  0.00     0.055 A 
ATOM      9  C   UNL     1       1.004  -2.506  -7.301  1.00  0.00     0.225 C 
ATOM     10  C   UNL     1       0.099  -0.317  -7.731  1.00  0.00     0.078 A 
ATOM     11  N   UNL     1      -1.405   0.800  -6.529  1.00  0.00    -0.317 N 
ATOM     12  O   UNL     1       1.810  -3.392  -7.585  1.00  0.00    -0.275 OA
ATOM     13  N   UNL     1       0.935  -1.359  -8.052  1.00  0.00    -0.324 N 
ATOM     14  C   UNL     1      -1.185   1.503  -7.697  1.00  0.00     0.109 A 
ATOM     15  H   UNL     1       1.505  -1.280  -8.850  1.00  0.00     0.170 HD
BRANCH   6  16
ATOM     16  C   UNL     1       0.516  -1.033  -4.386  1.00  0.00    -0.031 A 
ATOM     17  C   UNL     1       1.116  -0.952  -2.018  1.00  0.00     0.164 A 
ATOM     18  C   UNL     1       0.186  -1.228  -3.039  1.00  0.00     0.055 A 
ATOM     19  C   UNL     1       2.423  -0.523  -2.320  1.00  0.00     0.203 A 
ATOM     20  C   UNL     1       2.746  -0.309  -3.674  1.00  0.00     0.164 A 
ATOM     21  C   UNL     1       1.795  -0.548  -4.674  1.00  0.00     0.055 A 
BRANCH  17  22
ATOM     22  O   UNL     1       0.710  -1.242  -0.739  1.00  0.00    -0.493 OA
ATOM     23  C   UNL     1       0.029  -0.142  -0.133  1.00  0.00     0.278 C 
ENDBRANCH  17  22
BRANCH  19  24
ATOM     24  O   UNL     1       3.438  -0.313  -1.432  1.00  0.00    -0.490 OA
ATOM     25  C   UNL     1       3.222  -0.322  -0.036  1.00  0.00     0.278 C 
ENDBRANCH  19  24
BRANCH  20  26
ATOM     26  O   UNL     1       3.924   0.146  -4.215  1.00  0.00    -0.493 OA
ATOM     27  C   UNL     1       5.103   0.101  -3.430  1.00  0.00     0.278 C 
ENDBRANCH  20  26
ENDBRANCH   6  16
BRANCH  11  28
ATOM     28  C   UNL     1      -2.306   1.172  -5.511  1.00  0.00     0.045 A 
ATOM     29  C   UNL     1      -1.824   1.373  -4.215  1.00  0.00     0.026 A 
ATOM     30  C   UNL     1      -3.669   1.294  -5.794  1.00  0.00     0.026 A 
ATOM     31  C   UNL     1      -2.715   1.644  -3.180  1.00  0.00     0.002 A 
ATOM     32  C   UNL     1      -4.557   1.550  -4.746  1.00  0.00     0.002 A 
ATOM     33  C   UNL     1      -4.082   1.715  -3.442  1.00  0.00     0.000 A 
ENDBRANCH  11  28
ENDBRANCH   3   5
ENDBRANCH   2   3
ENDBRANCH   1   2
BRANCH   1  34
ATOM     34  C   UNL     1       0.338   0.388 -12.678  1.00  0.00     0.275 C 
BRANCH  34  35
ATOM     35  O   UNL     1      -0.742   1.309 -12.545  1.00  0.00    -0.458 OA
BRANCH  35  36
ATOM     36  C   UNL     1      -1.733   0.917 -11.714  1.00  0.00     0.338 C 
ATOM     37  O   UNL     1      -1.721  -0.028 -10.944  1.00  0.00    -0.246 OA
BRANCH  36  38
ATOM     38  C   UNL     1      -2.941   1.688 -12.014  1.00  0.00     0.060 A 
ATOM     39  C   UNL     1      -4.058   1.467 -11.202  1.00  0.00     0.016 A 
ATOM     40  C   UNL     1      -3.035   2.354 -13.245  1.00  0.00     0.016 A 
ATOM     41  C   UNL     1      -5.305   1.737 -11.720  1.00  0.00     0.010 A 
ATOM     42  C   UNL     1      -4.279   2.606 -13.766  1.00  0.00     0.010 A 
ATOM     43  C   UNL     1      -5.394   2.217 -13.030  1.00  0.00    -0.014 A 
BRANCH  43  44
ATOM     44  C   UNL     1      -6.708   2.375 -13.611  1.00  0.00     0.031 A 
ATOM     45  C   UNL     1      -7.457   3.527 -13.064  1.00  0.00     0.074 A 
ATOM     46  C   UNL     1      -7.120   1.618 -14.645  1.00  0.00     0.049 A 
ATOM     47  N   UNL     1      -8.562   3.504 -12.399  1.00  0.00    -0.248 NA
ATOM     48  C   UNL     1      -6.817   4.852 -13.126  1.00  0.00     0.031 C 
ATOM     49  C   UNL     1      -6.348   0.656 -15.436  1.00  0.00     0.029 A 
ATOM     50  N   UNL     1      -8.317   1.645 -15.284  1.00  0.00    -0.354 N 
ATOM     51  C   UNL     1      -8.860   4.833 -12.122  1.00  0.00     0.074 A 
ATOM     52  C   UNL     1      -7.679   5.594 -12.432  1.00  0.00     0.031 C 
ATOM     53  C   UNL     1      -7.019   0.386 -16.580  1.00  0.00     0.029 A 
ATOM     54  C   UNL     1      -8.307   1.057 -16.541  1.00  0.00     0.049 A 
ATOM     55  H   UNL     1      -9.124   2.047 -14.890  1.00  0.00     0.167 HD
ATOM     56  C   UNL     1     -10.137   5.232 -11.881  1.00  0.00     0.037 A 
ATOM     57  C   UNL     1      -9.258   1.225 -17.494  1.00  0.00     0.037 A 
ATOM     58  C   UNL     1     -10.982   4.114 -11.550  1.00  0.00     0.049 A 
ATOM     59  C   UNL     1     -10.483   1.728 -16.812  1.00  0.00     0.074 A 
ATOM     60  C   UNL     1     -10.974   3.162 -10.548  1.00  0.00     0.029 A 
ATOM     61  N   UNL     1     -11.805   3.618 -12.532  1.00  0.00    -0.354 N 
ATOM     62  N   UNL     1     -11.203   1.011 -15.994  1.00  0.00    -0.248 NA
ATOM     63  C   UNL     1     -10.632   3.171 -16.669  1.00  0.00     0.031 C 
ATOM     64  C   UNL     1     -11.381   1.954 -11.185  1.00  0.00     0.029 A 
ATOM     65  C   UNL     1     -11.675   2.253 -12.516  1.00  0.00     0.049 A 
ATOM     66  H   UNL     1     -12.380   4.144 -13.133  1.00  0.00     0.167 HD
ATOM     67  C   UNL     1     -11.545   1.881 -14.967  1.00  0.00     0.074 A 
ATOM     68  C   UNL     1     -11.233   3.215 -15.476  1.00  0.00     0.031 C 
ATOM     69  C   UNL     1     -11.765   1.428 -13.697  1.00  0.00     0.037 A 
BRANCH  56  70
ATOM     70  C   UNL     1     -10.693   6.563 -12.311  1.00  0.00     0.057 A 
ATOM     71  C   UNL     1     -11.975   6.939 -11.875  1.00  0.00     0.134 A 
ATOM     72  C   UNL     1     -10.160   7.342 -13.358  1.00  0.00     0.134 A 
ATOM     73  F   UNL     1     -12.593   6.266 -10.893  1.00  0.00    -0.206 F 
ATOM     74  C   UNL     1     -12.702   7.964 -12.491  1.00  0.00     0.040 A 
ATOM     75  C   UNL     1     -10.856   8.401 -13.943  1.00  0.00     0.040 A 
ATOM     76  F   UNL     1      -8.990   7.060 -13.943  1.00  0.00    -0.206 F 
ATOM     77  C   UNL     1     -12.146   8.693 -13.534  1.00  0.00     0.006 A 
ENDBRANCH  56  70
BRANCH  57  78
ATOM     78  C   UNL     1      -9.069   1.333 -18.962  1.00  0.00     0.057 A 
ATOM     79  C   UNL     1     -10.168   1.299 -19.834  1.00  0.00     0.134 A 
ATOM     80  C   UNL     1      -7.850   1.745 -19.531  1.00  0.00     0.134 A 
ATOM     81  F   UNL     1     -11.383   0.957 -19.383  1.00  0.00    -0.206 F 
ATOM     82  C   UNL     1     -10.067   1.681 -21.179  1.00  0.00     0.040 A 
ATOM     83  C   UNL     1      -7.733   2.119 -20.874  1.00  0.00     0.040 A 
ATOM     84  F   UNL     1      -6.745   1.889 -18.787  1.00  0.00    -0.206 F 
ATOM     85  C   UNL     1      -8.848   2.105 -21.700  1.00  0.00     0.006 A 
ENDBRANCH  57  78
BRANCH  69  86
ATOM     86  C   UNL     1     -11.856  -0.057 -13.480  1.00  0.00     0.057 A 
ATOM     87  C   UNL     1     -10.809  -0.956 -13.738  1.00  0.00     0.134 A 
ATOM     88  C   UNL     1     -12.987  -0.575 -12.840  1.00  0.00     0.134 A 
ATOM     89  F   UNL     1      -9.644  -0.537 -14.246  1.00  0.00    -0.206 F 
ATOM     90  C   UNL     1     -10.906  -2.314 -13.421  1.00  0.00     0.040 A 
ATOM     91  C   UNL     1     -13.082  -1.922 -12.484  1.00  0.00     0.040 A 
ATOM     92  F   UNL     1     -14.003   0.235 -12.503  1.00  0.00    -0.206 F 
ATOM     93  C   UNL     1     -12.044  -2.800 -12.785  1.00  0.00     0.006 A 
ENDBRANCH  69  86
ENDBRANCH  43  44
ENDBRANCH  36  38
ENDBRANCH  35  36
ENDBRANCH  34  35
ENDBRANCH   1  34
TORSDOF 16
