REMARK SMILES Nc1cc(C(=O)OCCOC(=O)c2ccc(-c3c4nc(c(-c5c(F)cccc5F)c5ccc([nH]5)c(-c5c(F)cccc5F)c5nc(c(-c6c(F)cccc6F)c6ccc3[nH]6)C=C5)C=C4)cc2)c(O)c([N+](=O)[O-])c1
REMARK SMILES IDX 9 1 8 2 7 3 5 4 6 5 4 6 2 7 3 8 73 9 69 10 67 11 1 12 70 15
REMARK SMILES IDX 71 16 72 17 68 18 10 20 11 21 12 22 13 23 14 24 66 25 15 26
REMARK SMILES IDX 65 27 16 28 17 29 18 30 59 31 19 32 64 33 58 34 60 35 20 36
REMARK SMILES IDX 63 37 57 38 56 39 21 41 47 42 30 43 46 44 31 45 34 46 45 47
REMARK SMILES IDX 61 48 32 49 33 50 44 52 62 53 35 54 22 55 23 56 28 57 24 58
REMARK SMILES IDX 25 59 27 60 29 61 26 62 48 63 49 64 54 65 50 66 51 67 53 68
REMARK SMILES IDX 55 69 52 70 36 71 37 72 42 73 38 74 39 75 41 76 43 77 40 78
REMARK H PARENT 1 13 1 14 68 19 60 40 34 51
REMARK Flexibility Score: inf
ROOT
ATOM      1  C   UNL     1       3.007   4.433  -0.865  1.00  0.00     0.275 C 
ENDROOT
BRANCH   1   2
ATOM      2  C   UNL     1       3.292   3.450   0.267  1.00  0.00     0.275 C 
BRANCH   2   3
ATOM      3  O   UNL     1       2.603   2.203   0.045  1.00  0.00    -0.458 OA
BRANCH   3   4
ATOM      4  C   UNL     1       1.575   1.926   0.882  1.00  0.00     0.342 C 
ATOM      5  O   UNL     1       1.109   2.666   1.735  1.00  0.00    -0.246 OA
BRANCH   4   6
ATOM      6  C   UNL     1       0.947   0.629   0.539  1.00  0.00     0.111 A 
ATOM      7  C   UNL     1      -1.154  -0.556   0.136  1.00  0.00     0.039 A 
ATOM      8  C   UNL     1      -0.459   0.595   0.497  1.00  0.00     0.045 A 
ATOM      9  C   UNL     1      -0.431  -1.726  -0.067  1.00  0.00     0.115 A 
ATOM     10  C   UNL     1       0.974  -1.723   0.032  1.00  0.00     0.313 A 
ATOM     11  C   UNL     1       1.679  -0.542   0.318  1.00  0.00     0.209 A 
BRANCH   7  12
ATOM     12  N   UNL     1      -2.536  -0.561   0.112  1.00  0.00    -0.398 N 
ATOM     13  H   UNL     1      -3.034   0.276   0.257  1.00  0.00     0.156 HD
ATOM     14  H   UNL     1      -3.022  -1.401  -0.050  1.00  0.00     0.156 HD
ENDBRANCH   7  12
BRANCH  10  15
ATOM     15  N   UNL     1       1.675  -2.998  -0.136  1.00  0.00     0.066 N 
ATOM     16  O   UNL     1       2.912  -2.959  -0.233  1.00  0.00    -0.258 OA
ATOM     17  O   UNL     1       1.002  -4.037  -0.163  1.00  0.00    -0.258 OA
ENDBRANCH  10  15
BRANCH  11  18
ATOM     18  O   UNL     1       3.041  -0.486   0.457  1.00  0.00    -0.501 OA
ATOM     19  H   UNL     1       3.459   0.330   0.648  1.00  0.00     0.293 HD
ENDBRANCH  11  18
ENDBRANCH   4   6
ENDBRANCH   3   4
ENDBRANCH   2   3
ENDBRANCH   1   2
BRANCH   1  20
ATOM     20  O   UNL     1       1.615   4.796  -0.844  1.00  0.00    -0.458 OA
BRANCH  20  21
ATOM     21  C   UNL     1       0.902   4.455  -1.939  1.00  0.00     0.338 C 
ATOM     22  O   UNL     1       1.304   3.949  -2.971  1.00  0.00    -0.246 OA
BRANCH  21  23
ATOM     23  C   UNL     1      -0.519   4.753  -1.702  1.00  0.00     0.060 A 
ATOM     24  C   UNL     1      -1.204   4.033  -0.727  1.00  0.00     0.016 A 
ATOM     25  C   UNL     1      -1.204   5.634  -2.535  1.00  0.00     0.016 A 
ATOM     26  C   UNL     1      -2.592   4.110  -0.647  1.00  0.00     0.010 A 
ATOM     27  C   UNL     1      -2.586   5.788  -2.382  1.00  0.00     0.010 A 
ATOM     28  C   UNL     1      -3.306   4.995  -1.468  1.00  0.00    -0.014 A 
BRANCH  28  29
ATOM     29  C   UNL     1      -4.797   5.059  -1.410  1.00  0.00     0.031 A 
ATOM     30  C   UNL     1      -5.616   4.809  -2.653  1.00  0.00     0.074 A 
ATOM     31  C   UNL     1      -5.433   5.327  -0.251  1.00  0.00     0.049 A 
ATOM     32  N   UNL     1      -6.895   5.002  -2.857  1.00  0.00    -0.248 NA
ATOM     33  C   UNL     1      -4.898   4.286  -3.827  1.00  0.00     0.031 C 
ATOM     34  C   UNL     1      -4.786   5.548   1.043  1.00  0.00     0.029 A 
ATOM     35  N   UNL     1      -6.773   5.453   0.025  1.00  0.00    -0.354 N 
ATOM     36  C   UNL     1      -7.120   4.694  -4.194  1.00  0.00     0.074 A 
ATOM     37  C   UNL     1      -5.847   4.293  -4.753  1.00  0.00     0.031 C 
ATOM     38  C   UNL     1      -5.727   5.738   1.980  1.00  0.00     0.029 A 
ATOM     39  C   UNL     1      -7.039   5.745   1.342  1.00  0.00     0.049 A 
ATOM     40  H   UNL     1      -7.477   5.344  -0.655  1.00  0.00     0.167 HD
ATOM     41  C   UNL     1      -8.280   4.743  -4.892  1.00  0.00     0.037 A 
ATOM     42  C   UNL     1      -8.198   6.032   1.964  1.00  0.00     0.037 A 
ATOM     43  C   UNL     1      -9.561   5.071  -4.323  1.00  0.00     0.049 A 
ATOM     44  C   UNL     1      -9.470   6.092   1.167  1.00  0.00     0.074 A 
ATOM     45  C   UNL     1     -10.796   5.123  -4.948  1.00  0.00     0.029 A 
ATOM     46  N   UNL     1      -9.776   5.383  -2.990  1.00  0.00    -0.354 N 
ATOM     47  N   UNL     1      -9.656   5.860  -0.109  1.00  0.00    -0.248 NA
ATOM     48  C   UNL     1     -10.688   6.480   1.892  1.00  0.00     0.031 C 
ATOM     49  C   UNL     1     -11.754   5.491  -3.998  1.00  0.00     0.029 A 
ATOM     50  C   UNL     1     -11.121   5.634  -2.774  1.00  0.00     0.049 A 
ATOM     51  H   UNL     1      -9.076   5.420  -2.298  1.00  0.00     0.167 HD
ATOM     52  C   UNL     1     -11.009   6.066  -0.338  1.00  0.00     0.074 A 
ATOM     53  C   UNL     1     -11.602   6.420   0.935  1.00  0.00     0.031 C 
ATOM     54  C   UNL     1     -11.698   5.979  -1.502  1.00  0.00     0.037 A 
BRANCH  41  55
ATOM     55  C   UNL     1      -8.218   4.464  -6.365  1.00  0.00     0.057 A 
ATOM     56  C   UNL     1      -8.052   3.171  -6.875  1.00  0.00     0.134 A 
ATOM     57  C   UNL     1      -8.377   5.507  -7.288  1.00  0.00     0.134 A 
ATOM     58  F   UNL     1      -7.881   2.130  -6.045  1.00  0.00    -0.206 F 
ATOM     59  C   UNL     1      -8.028   2.927  -8.250  1.00  0.00     0.040 A 
ATOM     60  C   UNL     1      -8.379   5.273  -8.664  1.00  0.00     0.040 A 
ATOM     61  F   UNL     1      -8.548   6.769  -6.866  1.00  0.00    -0.206 F 
ATOM     62  C   UNL     1      -8.199   3.979  -9.148  1.00  0.00     0.006 A 
ENDBRANCH  41  55
BRANCH  42  63
ATOM     63  C   UNL     1      -8.205   6.331   3.418  1.00  0.00     0.057 A 
ATOM     64  C   UNL     1      -8.787   5.447   4.334  1.00  0.00     0.134 A 
ATOM     65  C   UNL     1      -7.631   7.503   3.926  1.00  0.00     0.134 A 
ATOM     66  F   UNL     1      -9.376   4.321   3.905  1.00  0.00    -0.206 F 
ATOM     67  C   UNL     1      -8.805   5.722   5.703  1.00  0.00     0.040 A 
ATOM     68  C   UNL     1      -7.617   7.777   5.294  1.00  0.00     0.040 A 
ATOM     69  F   UNL     1      -7.058   8.390   3.099  1.00  0.00    -0.206 F 
ATOM     70  C   UNL     1      -8.211   6.886   6.186  1.00  0.00     0.006 A 
ENDBRANCH  42  63
BRANCH  54  71
ATOM     71  C   UNL     1     -13.172   6.242  -1.443  1.00  0.00     0.057 A 
ATOM     72  C   UNL     1     -13.683   7.540  -1.315  1.00  0.00     0.134 A 
ATOM     73  C   UNL     1     -14.089   5.189  -1.540  1.00  0.00     0.134 A 
ATOM     74  F   UNL     1     -12.854   8.588  -1.202  1.00  0.00    -0.206 F 
ATOM     75  C   UNL     1     -15.057   7.778  -1.266  1.00  0.00     0.040 A 
ATOM     76  C   UNL     1     -15.466   5.417  -1.513  1.00  0.00     0.040 A 
ATOM     77  F   UNL     1     -13.663   3.924  -1.670  1.00  0.00    -0.206 F 
ATOM     78  C   UNL     1     -15.953   6.715  -1.370  1.00  0.00     0.006 A 
ENDBRANCH  54  71
ENDBRANCH  28  29
ENDBRANCH  21  23
ENDBRANCH  20  21
ENDBRANCH   1  20
TORSDOF 14
