REMARK SMILES COc1ccc(NS(=O)(=O)c2ccc(Cl)c(C(=O)OCCOC(=O)c3ccc(-c4c5nc(c(-c6c(F)cccc6F)c6ccc([nH]6)c(-c6c(F)cccc6F)c6nc(c(-c7c(F)cccc7F)c7ccc4[nH]7)C=C6)C=C5)cc3)c2)cc1Cl
REMARK SMILES IDX 20 1 19 2 17 3 18 4 16 5 11 6 12 7 79 8 13 9 14 10 15 11
REMARK SMILES IDX 8 12 9 13 10 14 7 15 6 17 3 18 4 19 81 20 5 21 80 22 82 23
REMARK SMILES IDX 2 24 1 25 21 26 22 27 23 28 24 29 25 30 26 31 78 32 27 33
REMARK SMILES IDX 77 34 28 35 29 36 30 37 71 38 31 39 76 40 70 41 72 42 32 43
REMARK SMILES IDX 75 44 69 45 68 46 33 48 59 49 42 50 58 51 43 52 46 53 57 54
REMARK SMILES IDX 73 55 44 56 45 57 56 59 74 60 47 61 34 62 35 63 40 64 36 65
REMARK SMILES IDX 37 66 39 67 41 68 38 69 60 70 61 71 66 72 62 73 63 74 65 75
REMARK SMILES IDX 67 76 64 77 48 78 49 79 54 80 50 81 51 82 53 83 55 84 52 85
REMARK H PARENT 7 16 72 47 46 58
REMARK Flexibility Score: inf
ROOT
ATOM      1  C   UNL     1      -4.320   1.840   2.117  1.00  0.00     0.275 C 
ENDROOT
BRANCH   1   2
ATOM      2  O   UNL     1      -3.921   3.231   2.147  1.00  0.00    -0.458 OA
BRANCH   2   3
ATOM      3  C   UNL     1      -3.371   3.706   3.293  1.00  0.00     0.339 C 
ATOM      4  O   UNL     1      -3.141   3.059   4.304  1.00  0.00    -0.246 OA
BRANCH   3   5
ATOM      5  C   UNL     1      -2.885   5.101   3.116  1.00  0.00     0.080 A 
ATOM      6  C   UNL     1      -0.962   6.589   3.223  1.00  0.00     0.088 A 
ATOM      7  C   UNL     1      -1.702   7.608   2.627  1.00  0.00     0.024 A 
ATOM      8  C   UNL     1      -1.575   5.378   3.550  1.00  0.00     0.039 A 
ATOM      9  C   UNL     1      -3.038   7.377   2.292  1.00  0.00     0.023 A 
ATOM     10  C   UNL     1      -3.626   6.119   2.504  1.00  0.00     0.055 A 
ATOM     11  Cl  UNL     1      -5.272   5.930   2.025  1.00  0.00    -0.083 Cl
BRANCH   6  12
ATOM     12  S   UNL     1       0.802   6.779   3.374  1.00  0.00     0.261 S 
ATOM     13  O   UNL     1       1.101   6.645   4.786  1.00  0.00    -0.201 OA
ATOM     14  O   UNL     1       1.195   7.955   2.633  1.00  0.00    -0.201 OA
BRANCH  12  15
ATOM     15  N   UNL     1       1.501   5.449   2.634  1.00  0.00    -0.280 N 
ATOM     16  H   UNL     1       2.045   4.864   3.209  1.00  0.00     0.180 HD
BRANCH  15  17
ATOM     17  C   UNL     1       1.396   5.068   1.260  1.00  0.00     0.051 A 
ATOM     18  C   UNL     1       1.071   3.520  -1.064  1.00  0.00     0.137 A 
ATOM     19  C   UNL     1       0.016   4.276  -0.578  1.00  0.00     0.050 A 
ATOM     20  C   UNL     1       2.340   3.702  -0.519  1.00  0.00     0.085 A 
ATOM     21  C   UNL     1       0.185   5.060   0.570  1.00  0.00     0.030 A 
ATOM     22  C   UNL     1       2.494   4.428   0.671  1.00  0.00     0.051 A 
ATOM     23  Cl  UNL     1       3.724   3.044  -1.313  1.00  0.00    -0.080 Cl
BRANCH  18  24
ATOM     24  O   UNL     1       0.820   2.628  -2.073  1.00  0.00    -0.495 OA
ATOM     25  C   UNL     1       0.757   1.293  -1.553  1.00  0.00     0.278 C 
ENDBRANCH  18  24
ENDBRANCH  15  17
ENDBRANCH  12  15
ENDBRANCH   6  12
ENDBRANCH   3   5
ENDBRANCH   2   3
ENDBRANCH   1   2
BRANCH   1  26
ATOM     26  C   UNL     1      -3.420   0.971   1.217  1.00  0.00     0.275 C 
BRANCH  26  27
ATOM     27  O   UNL     1      -2.170   0.590   1.841  1.00  0.00    -0.458 OA
BRANCH  27  28
ATOM     28  C   UNL     1      -1.244   1.565   1.771  1.00  0.00     0.338 C 
ATOM     29  O   UNL     1      -1.417   2.666   1.271  1.00  0.00    -0.246 OA
BRANCH  28  30
ATOM     30  C   UNL     1       0.036   1.267   2.430  1.00  0.00     0.060 A 
ATOM     31  C   UNL     1       0.435   2.205   3.374  1.00  0.00     0.016 A 
ATOM     32  C   UNL     1       0.945   0.308   1.986  1.00  0.00     0.016 A 
ATOM     33  C   UNL     1       1.755   2.290   3.784  1.00  0.00     0.010 A 
ATOM     34  C   UNL     1       2.270   0.338   2.465  1.00  0.00     0.010 A 
ATOM     35  C   UNL     1       2.696   1.352   3.343  1.00  0.00    -0.014 A 
BRANCH  35  36
ATOM     36  C   UNL     1       4.068   1.428   3.915  1.00  0.00     0.031 A 
ATOM     37  C   UNL     1       5.275   1.788   3.093  1.00  0.00     0.074 A 
ATOM     38  C   UNL     1       4.201   1.274   5.246  1.00  0.00     0.049 A 
ATOM     39  N   UNL     1       6.506   2.021   3.476  1.00  0.00    -0.248 NA
ATOM     40  C   UNL     1       5.067   1.943   1.653  1.00  0.00     0.031 C 
ATOM     41  C   UNL     1       3.103   0.979   6.170  1.00  0.00     0.029 A 
ATOM     42  N   UNL     1       5.303   1.360   6.053  1.00  0.00    -0.354 N 
ATOM     43  C   UNL     1       7.203   2.394   2.330  1.00  0.00     0.074 A 
ATOM     44  C   UNL     1       6.261   2.346   1.235  1.00  0.00     0.031 C 
ATOM     45  C   UNL     1       3.584   0.919   7.417  1.00  0.00     0.029 A 
ATOM     46  C   UNL     1       5.032   1.080   7.367  1.00  0.00     0.049 A 
ATOM     47  H   UNL     1       6.200   1.598   5.723  1.00  0.00     0.167 HD
ATOM     48  C   UNL     1       8.512   2.723   2.201  1.00  0.00     0.037 A 
ATOM     49  C   UNL     1       5.859   0.904   8.412  1.00  0.00     0.037 A 
ATOM     50  C   UNL     1       9.472   2.643   3.272  1.00  0.00     0.049 A 
ATOM     51  C   UNL     1       7.330   1.085   8.209  1.00  0.00     0.074 A 
ATOM     52  C   UNL     1      10.835   2.883   3.235  1.00  0.00     0.029 A 
ATOM     53  N   UNL     1       9.172   2.248   4.567  1.00  0.00    -0.354 N 
ATOM     54  N   UNL     1       7.972   1.459   7.129  1.00  0.00    -0.248 NA
ATOM     55  C   UNL     1       8.193   0.808   9.363  1.00  0.00     0.031 C 
ATOM     56  C   UNL     1      11.368   2.566   4.489  1.00  0.00     0.029 A 
ATOM     57  C   UNL     1      10.329   2.185   5.324  1.00  0.00     0.049 A 
ATOM     58  H   UNL     1       8.268   2.043   4.900  1.00  0.00     0.167 HD
ATOM     59  C   UNL     1       9.315   1.475   7.474  1.00  0.00     0.074 A 
ATOM     60  C   UNL     1       9.391   1.087   8.869  1.00  0.00     0.031 C 
ATOM     61  C   UNL     1      10.387   1.784   6.706  1.00  0.00     0.037 A 
BRANCH  48  62
ATOM     62  C   UNL     1       9.005   3.138   0.844  1.00  0.00     0.057 A 
ATOM     63  C   UNL     1       8.767   4.422   0.336  1.00  0.00     0.134 A 
ATOM     64  C   UNL     1       9.792   2.275   0.071  1.00  0.00     0.134 A 
ATOM     65  F   UNL     1       8.018   5.297   1.023  1.00  0.00    -0.206 F 
ATOM     66  C   UNL     1       9.293   4.830  -0.893  1.00  0.00     0.040 A 
ATOM     67  C   UNL     1      10.334   2.675  -1.152  1.00  0.00     0.040 A 
ATOM     68  F   UNL     1      10.062   1.033   0.502  1.00  0.00    -0.206 F 
ATOM     69  C   UNL     1      10.085   3.957  -1.638  1.00  0.00     0.006 A 
ENDBRANCH  48  62
BRANCH  49  70
ATOM     70  C   UNL     1       5.291   0.449   9.703  1.00  0.00     0.057 A 
ATOM     71  C   UNL     1       5.265   1.276  10.827  1.00  0.00     0.134 A 
ATOM     72  C   UNL     1       4.701  -0.820   9.816  1.00  0.00     0.134 A 
ATOM     73  F   UNL     1       5.827   2.493  10.784  1.00  0.00    -0.206 F 
ATOM     74  C   UNL     1       4.669   0.861  12.019  1.00  0.00     0.040 A 
ATOM     75  C   UNL     1       4.075  -1.234  10.989  1.00  0.00     0.040 A 
ATOM     76  F   UNL     1       4.687  -1.656   8.767  1.00  0.00    -0.206 F 
ATOM     77  C   UNL     1       4.061  -0.392  12.098  1.00  0.00     0.006 A 
ENDBRANCH  49  70
BRANCH  61  78
ATOM     78  C   UNL     1      11.730   1.725   7.366  1.00  0.00     0.057 A 
ATOM     79  C   UNL     1      12.343   0.505   7.679  1.00  0.00     0.134 A 
ATOM     80  C   UNL     1      12.424   2.901   7.677  1.00  0.00     0.134 A 
ATOM     81  F   UNL     1      11.720  -0.655   7.420  1.00  0.00    -0.206 F 
ATOM     82  C   UNL     1      13.591   0.458   8.302  1.00  0.00     0.040 A 
ATOM     83  C   UNL     1      13.682   2.866   8.276  1.00  0.00     0.040 A 
ATOM     84  F   UNL     1      11.892   4.100   7.396  1.00  0.00    -0.206 F 
ATOM     85  C   UNL     1      14.266   1.641   8.597  1.00  0.00     0.006 A 
ENDBRANCH  61  78
ENDBRANCH  35  36
ENDBRANCH  28  30
ENDBRANCH  27  28
ENDBRANCH  26  27
ENDBRANCH   1  26
TORSDOF 15
