REMARK SMILES COc1cc(OC)cc(-c2ccc([C@@H](C)C(=O)OCCOC(=O)c3ccc(-c4c5nc(c(-c6c(F)cccc6F)c6ccc([nH]6)c(-c6c(F)cccc6F)c6nc(c(-c7c(F)cccc7F)c7ccc4[nH]7)C=C6)C=C5)cc3)cc2F)c1
REMARK SMILES IDX 19 1 18 2 16 3 17 4 14 5 15 6 13 7 10 8 11 9 79 10 12 11
REMARK SMILES IDX 78 12 80 13 9 14 3 15 4 16 81 17 5 18 8 19 2 20 1 21 6 22
REMARK SMILES IDX 7 23 20 24 21 25 22 26 23 27 24 28 25 29 77 30 26 31 76 32
REMARK SMILES IDX 27 33 28 34 29 35 70 36 30 37 75 38 69 39 71 40 31 41 74 42
REMARK SMILES IDX 68 43 67 44 32 46 58 47 41 48 57 49 42 50 45 51 56 52 72 53
REMARK SMILES IDX 43 54 44 55 55 57 73 58 46 59 33 60 34 61 39 62 35 63 36 64
REMARK SMILES IDX 38 65 40 66 37 67 59 68 60 69 65 70 61 71 62 72 64 73 66 74
REMARK SMILES IDX 63 75 47 76 48 77 53 78 49 79 50 80 52 81 54 82 51 83
REMARK H PARENT 71 45 45 56
REMARK Flexibility Score: inf
ROOT
ATOM      1  C   UNL     1       8.395  -1.476  -6.476  1.00  0.00     0.274 C 
ENDROOT
BRANCH   1   2
ATOM      2  O   UNL     1       7.687  -2.617  -5.954  1.00  0.00    -0.462 OA
BRANCH   2   3
ATOM      3  C   UNL     1       8.436  -3.607  -5.401  1.00  0.00     0.313 C 
ATOM      4  O   UNL     1       9.663  -3.626  -5.395  1.00  0.00    -0.252 OA
BRANCH   3   5
ATOM      5  C   UNL     1       7.605  -4.742  -4.816  1.00  0.00     0.126 C 
ATOM      6  C   UNL     1       7.482  -5.875  -5.833  1.00  0.00     0.025 C 
BRANCH   5   7
ATOM      7  C   UNL     1       6.263  -4.337  -4.223  1.00  0.00    -0.031 A 
ATOM      8  C   UNL     1       3.747  -3.664  -3.075  1.00  0.00     0.018 A 
ATOM      9  C   UNL     1       3.950  -3.614  -4.463  1.00  0.00     0.012 A 
ATOM     10  C   UNL     1       4.838  -4.018  -2.275  1.00  0.00     0.131 A 
ATOM     11  C   UNL     1       5.185  -3.949  -5.029  1.00  0.00     0.005 A 
ATOM     12  C   UNL     1       6.072  -4.358  -2.832  1.00  0.00     0.044 A 
ATOM     13  F   UNL     1       4.707  -4.089  -0.941  1.00  0.00    -0.206 F 
BRANCH   8  14
ATOM     14  C   UNL     1       2.407  -3.442  -2.510  1.00  0.00    -0.008 A 
ATOM     15  C   UNL     1       0.867  -2.287  -1.026  1.00  0.00     0.123 A 
ATOM     16  C   UNL     1      -0.165  -3.130  -1.443  1.00  0.00     0.092 A 
ATOM     17  C   UNL     1       2.154  -2.453  -1.545  1.00  0.00     0.055 A 
ATOM     18  C   UNL     1       0.064  -4.120  -2.396  1.00  0.00     0.123 A 
ATOM     19  C   UNL     1       1.343  -4.263  -2.929  1.00  0.00     0.055 A 
BRANCH  15  20
ATOM     20  O   UNL     1       0.519  -1.370  -0.071  1.00  0.00    -0.497 OA
ATOM     21  C   UNL     1       1.206  -0.126  -0.150  1.00  0.00     0.278 C 
ENDBRANCH  15  20
BRANCH  18  22
ATOM     22  O   UNL     1      -1.027  -4.877  -2.727  1.00  0.00    -0.497 OA
ATOM     23  C   UNL     1      -0.791  -6.000  -3.568  1.00  0.00     0.278 C 
ENDBRANCH  18  22
ENDBRANCH   8  14
ENDBRANCH   5   7
ENDBRANCH   3   5
ENDBRANCH   2   3
ENDBRANCH   1   2
BRANCH   1  24
ATOM     24  C   UNL     1       8.354  -0.305  -5.492  1.00  0.00     0.275 C 
BRANCH  24  25
ATOM     25  O   UNL     1       9.156  -0.579  -4.328  1.00  0.00    -0.458 OA
BRANCH  25  26
ATOM     26  C   UNL     1       8.473  -1.028  -3.251  1.00  0.00     0.338 C 
ATOM     27  O   UNL     1       7.269  -1.169  -3.138  1.00  0.00    -0.246 OA
BRANCH  26  28
ATOM     28  C   UNL     1       9.426  -1.460  -2.218  1.00  0.00     0.060 A 
ATOM     29  C   UNL     1       9.509  -2.824  -1.933  1.00  0.00     0.016 A 
ATOM     30  C   UNL     1      10.164  -0.533  -1.482  1.00  0.00     0.016 A 
ATOM     31  C   UNL     1      10.315  -3.273  -0.893  1.00  0.00     0.010 A 
ATOM     32  C   UNL     1      10.985  -0.986  -0.444  1.00  0.00     0.010 A 
ATOM     33  C   UNL     1      11.052  -2.356  -0.134  1.00  0.00    -0.014 A 
BRANCH  33  34
ATOM     34  C   UNL     1      11.851  -2.840   1.015  1.00  0.00     0.031 A 
ATOM     35  C   UNL     1      11.357  -2.621   2.415  1.00  0.00     0.074 A 
ATOM     36  C   UNL     1      12.996  -3.511   0.798  1.00  0.00     0.049 A 
ATOM     37  N   UNL     1      11.930  -2.926   3.551  1.00  0.00    -0.248 NA
ATOM     38  C   UNL     1      10.044  -1.973   2.554  1.00  0.00     0.031 C 
ATOM     39  C   UNL     1      13.553  -3.828  -0.517  1.00  0.00     0.029 A 
ATOM     40  N   UNL     1      13.893  -4.053   1.683  1.00  0.00    -0.354 N 
ATOM     41  C   UNL     1      11.057  -2.494   4.541  1.00  0.00     0.074 A 
ATOM     42  C   UNL     1       9.924  -1.890   3.872  1.00  0.00     0.031 C 
ATOM     43  C   UNL     1      14.694  -4.518  -0.352  1.00  0.00     0.029 A 
ATOM     44  C   UNL     1      14.966  -4.656   1.076  1.00  0.00     0.049 A 
ATOM     45  H   UNL     1      13.778  -4.013   2.660  1.00  0.00     0.167 HD
ATOM     46  C   UNL     1      11.187  -2.597   5.885  1.00  0.00     0.037 A 
ATOM     47  C   UNL     1      16.054  -5.238   1.612  1.00  0.00     0.037 A 
ATOM     48  C   UNL     1      12.307  -3.209   6.549  1.00  0.00     0.049 A 
ATOM     49  C   UNL     1      16.201  -5.291   3.107  1.00  0.00     0.074 A 
ATOM     50  C   UNL     1      12.530  -3.363   7.907  1.00  0.00     0.029 A 
ATOM     51  N   UNL     1      13.396  -3.773   5.900  1.00  0.00    -0.354 N 
ATOM     52  N   UNL     1      15.379  -4.863   4.033  1.00  0.00    -0.248 NA
ATOM     53  C   UNL     1      17.432  -5.900   3.629  1.00  0.00     0.031 C 
ATOM     54  C   UNL     1      13.768  -3.992   8.080  1.00  0.00     0.029 A 
ATOM     55  C   UNL     1      14.300  -4.262   6.829  1.00  0.00     0.049 A 
ATOM     56  H   UNL     1      13.509  -3.819   4.923  1.00  0.00     0.167 HD
ATOM     57  C   UNL     1      15.983  -5.164   5.246  1.00  0.00     0.074 A 
ATOM     58  C   UNL     1      17.235  -5.825   4.938  1.00  0.00     0.031 C 
ATOM     59  C   UNL     1      15.541  -4.915   6.503  1.00  0.00     0.037 A 
BRANCH  46  60
ATOM     60  C   UNL     1      10.095  -2.004   6.725  1.00  0.00     0.057 A 
ATOM     61  C   UNL     1       8.845  -2.621   6.854  1.00  0.00     0.134 A 
ATOM     62  C   UNL     1      10.303  -0.808   7.423  1.00  0.00     0.134 A 
ATOM     63  F   UNL     1       8.578  -3.761   6.197  1.00  0.00    -0.206 F 
ATOM     64  C   UNL     1       7.831  -2.057   7.630  1.00  0.00     0.040 A 
ATOM     65  C   UNL     1       9.305  -0.245   8.218  1.00  0.00     0.040 A 
ATOM     66  F   UNL     1      11.480  -0.169   7.343  1.00  0.00    -0.206 F 
ATOM     67  C   UNL     1       8.062  -0.867   8.319  1.00  0.00     0.006 A 
ENDBRANCH  46  60
BRANCH  47  68
ATOM     68  C   UNL     1      17.097  -5.810   0.727  1.00  0.00     0.057 A 
ATOM     69  C   UNL     1      17.272  -7.193   0.617  1.00  0.00     0.134 A 
ATOM     70  C   UNL     1      17.941  -4.987  -0.028  1.00  0.00     0.134 A 
ATOM     71  F   UNL     1      16.507  -8.029   1.334  1.00  0.00    -0.206 F 
ATOM     72  C   UNL     1      18.255  -7.740  -0.209  1.00  0.00     0.040 A 
ATOM     73  C   UNL     1      18.915  -5.521  -0.873  1.00  0.00     0.040 A 
ATOM     74  F   UNL     1      17.823  -3.653   0.036  1.00  0.00    -0.206 F 
ATOM     75  C   UNL     1      19.076  -6.902  -0.962  1.00  0.00     0.006 A 
ENDBRANCH  47  68
BRANCH  59  76
ATOM     76  C   UNL     1      16.411  -5.378   7.633  1.00  0.00     0.057 A 
ATOM     77  C   UNL     1      17.587  -4.702   7.980  1.00  0.00     0.134 A 
ATOM     78  C   UNL     1      16.056  -6.498   8.395  1.00  0.00     0.134 A 
ATOM     79  F   UNL     1      17.988  -3.631   7.278  1.00  0.00    -0.206 F 
ATOM     80  C   UNL     1      18.392  -5.137   9.034  1.00  0.00     0.040 A 
ATOM     81  C   UNL     1      16.841  -6.930   9.464  1.00  0.00     0.040 A 
ATOM     82  F   UNL     1      14.938  -7.185   8.115  1.00  0.00    -0.206 F 
ATOM     83  C   UNL     1      18.016  -6.251   9.782  1.00  0.00     0.006 A 
ENDBRANCH  59  76
ENDBRANCH  33  34
ENDBRANCH  26  28
ENDBRANCH  25  26
ENDBRANCH  24  25
ENDBRANCH   1  24
TORSDOF 15
