REMARK SMILES COc1cccc(NC(=O)[C@@H]2[C@@H](C(=O)OCCOC(=O)c3ccc(-c4c5nc(c(-c6c(F)cccc6F)c6ccc([nH]6)c(-c6c(F)cccc6F)c6nc(c(-c7c(F)cccc7F)c7ccc4[nH]7)C=C6)C=C5)cc3)[C@H]3C=C[C@@H]2C3)c1
REMARK SMILES IDX 16 1 15 2 13 3 14 4 12 5 11 6 78 7 75 8 77 9 79 10 76 11
REMARK SMILES IDX 9 12 8 13 10 15 7 16 3 17 4 18 80 19 5 20 6 21 2 22 1 23
REMARK SMILES IDX 17 24 18 25 19 26 20 27 21 28 22 29 74 30 23 31 73 32 24 33
REMARK SMILES IDX 25 34 26 35 67 36 27 37 72 38 66 39 68 40 28 41 71 42 65 43
REMARK SMILES IDX 64 44 29 46 55 47 38 48 54 49 39 50 42 51 53 52 69 53 40 54
REMARK SMILES IDX 41 55 52 57 70 58 43 59 30 60 31 61 36 62 32 63 33 64 35 65
REMARK SMILES IDX 37 66 34 67 56 68 57 69 62 70 58 71 59 72 61 73 63 74 60 75
REMARK SMILES IDX 44 76 45 77 50 78 46 79 47 80 49 81 51 82 48 83
REMARK H PARENT 8 14 68 45 42 56
REMARK Flexibility Score: inf
ROOT
ATOM      1  C   UNL     1       4.772   3.319  -9.711  1.00  0.00     0.274 C 
ENDROOT
BRANCH   1   2
ATOM      2  O   UNL     1       4.249   2.649  -8.540  1.00  0.00    -0.462 OA
BRANCH   2   3
ATOM      3  C   UNL     1       3.792   3.445  -7.541  1.00  0.00     0.310 C 
ATOM      4  O   UNL     1       3.815   4.673  -7.564  1.00  0.00    -0.252 OA
BRANCH   3   5
ATOM      5  C   UNL     1       3.165   2.689  -6.385  1.00  0.00     0.119 C 
ATOM      6  C   UNL     1       3.355   1.123  -6.295  1.00  0.00     0.100 C 
ATOM      7  C   UNL     1       1.894   0.655  -6.284  1.00  0.00     0.025 C 
ATOM      8  C   UNL     1       1.617   2.860  -6.417  1.00  0.00     0.027 C 
ATOM      9  C   UNL     1       1.271   0.933  -7.625  1.00  0.00    -0.027 C 
ATOM     10  C   UNL     1       1.194   1.752  -5.463  1.00  0.00     0.017 C 
ATOM     11  C   UNL     1       1.047   2.246  -7.670  1.00  0.00    -0.027 C 
BRANCH   6  12
ATOM     12  C   UNL     1       4.289   0.821  -5.107  1.00  0.00     0.228 C 
ATOM     13  N   UNL     1       3.908   0.449  -3.850  1.00  0.00    -0.326 N 
ATOM     14  H   UNL     1       4.571   0.681  -3.160  1.00  0.00     0.169 HD
ATOM     15  O   UNL     1       5.485   1.128  -5.234  1.00  0.00    -0.274 OA
BRANCH  13  16
ATOM     16  C   UNL     1       2.775  -0.195  -3.333  1.00  0.00     0.044 A 
ATOM     17  C   UNL     1       1.048  -0.255  -1.633  1.00  0.00     0.120 A 
ATOM     18  C   UNL     1       0.341  -1.185  -2.393  1.00  0.00     0.046 A 
ATOM     19  C   UNL     1       2.268   0.243  -2.103  1.00  0.00     0.072 A 
ATOM     20  C   UNL     1       0.907  -1.715  -3.548  1.00  0.00     0.006 A 
ATOM     21  C   UNL     1       2.153  -1.257  -3.981  1.00  0.00     0.026 A 
BRANCH  17  22
ATOM     22  O   UNL     1       0.429   0.137  -0.479  1.00  0.00    -0.497 OA
ATOM     23  C   UNL     1       1.294   0.559   0.569  1.00  0.00     0.278 C 
ENDBRANCH  17  22
ENDBRANCH  13  16
ENDBRANCH   6  12
ENDBRANCH   3   5
ENDBRANCH   2   3
ENDBRANCH   1   2
BRANCH   1  24
ATOM     24  C   UNL     1       3.737   3.310 -10.838  1.00  0.00     0.275 C 
BRANCH  24  25
ATOM     25  O   UNL     1       2.617   4.116 -10.445  1.00  0.00    -0.458 OA
BRANCH  25  26
ATOM     26  C   UNL     1       1.431   3.814 -11.023  1.00  0.00     0.338 C 
ATOM     27  O   UNL     1       1.259   3.027 -11.945  1.00  0.00    -0.246 OA
BRANCH  26  28
ATOM     28  C   UNL     1       0.322   4.491 -10.296  1.00  0.00     0.060 A 
ATOM     29  C   UNL     1       0.543   5.151  -9.081  1.00  0.00     0.016 A 
ATOM     30  C   UNL     1      -0.992   4.313 -10.742  1.00  0.00     0.016 A 
ATOM     31  C   UNL     1      -0.536   5.529  -8.279  1.00  0.00     0.010 A 
ATOM     32  C   UNL     1      -2.068   4.805  -9.989  1.00  0.00     0.010 A 
ATOM     33  C   UNL     1      -1.856   5.412  -8.739  1.00  0.00    -0.014 A 
BRANCH  33  34
ATOM     34  C   UNL     1      -3.007   5.972  -7.970  1.00  0.00     0.031 A 
ATOM     35  C   UNL     1      -4.227   5.139  -7.673  1.00  0.00     0.074 A 
ATOM     36  C   UNL     1      -3.000   7.269  -7.597  1.00  0.00     0.049 A 
ATOM     37  N   UNL     1      -5.437   5.528  -7.352  1.00  0.00    -0.248 NA
ATOM     38  C   UNL     1      -4.070   3.679  -7.756  1.00  0.00     0.031 C 
ATOM     39  C   UNL     1      -1.880   8.199  -7.755  1.00  0.00     0.029 A 
ATOM     40  N   UNL     1      -3.987   8.042  -7.031  1.00  0.00    -0.354 N 
ATOM     41  C   UNL     1      -6.200   4.370  -7.260  1.00  0.00     0.074 A 
ATOM     42  C   UNL     1      -5.312   3.260  -7.538  1.00  0.00     0.031 C 
ATOM     43  C   UNL     1      -2.231   9.402  -7.288  1.00  0.00     0.029 A 
ATOM     44  C   UNL     1      -3.638   9.366  -6.915  1.00  0.00     0.049 A 
ATOM     45  H   UNL     1      -4.856   7.682  -6.738  1.00  0.00     0.167 HD
ATOM     46  C   UNL     1      -7.522   4.252  -6.982  1.00  0.00     0.037 A 
ATOM     47  C   UNL     1      -4.373  10.456  -6.631  1.00  0.00     0.037 A 
ATOM     48  C   UNL     1      -8.388   5.356  -6.650  1.00  0.00     0.049 A 
ATOM     49  C   UNL     1      -5.844  10.316  -6.398  1.00  0.00     0.074 A 
ATOM     50  C   UNL     1      -9.737   5.332  -6.333  1.00  0.00     0.029 A 
ATOM     51  N   UNL     1      -7.988   6.681  -6.577  1.00  0.00    -0.354 N 
ATOM     52  N   UNL     1      -6.578   9.232  -6.405  1.00  0.00    -0.248 NA
ATOM     53  C   UNL     1      -6.594  11.554  -6.149  1.00  0.00     0.031 C 
ATOM     54  C   UNL     1     -10.159   6.645  -6.099  1.00  0.00     0.029 A 
ATOM     55  C   UNL     1      -9.065   7.483  -6.232  1.00  0.00     0.049 A 
ATOM     56  H   UNL     1      -7.073   7.005  -6.744  1.00  0.00     0.167 HD
ATOM     57  C   UNL     1      -7.875   9.653  -6.151  1.00  0.00     0.074 A 
ATOM     58  C   UNL     1      -7.826  11.091  -5.984  1.00  0.00     0.031 C 
ATOM     59  C   UNL     1      -9.005   8.911  -6.067  1.00  0.00     0.037 A 
BRANCH  46  60
ATOM     60  C   UNL     1      -8.141   2.885  -7.057  1.00  0.00     0.057 A 
ATOM     61  C   UNL     1      -7.952   1.923  -6.059  1.00  0.00     0.134 A 
ATOM     62  C   UNL     1      -9.013   2.563  -8.107  1.00  0.00     0.134 A 
ATOM     63  F   UNL     1      -7.127   2.165  -5.029  1.00  0.00    -0.206 F 
ATOM     64  C   UNL     1      -8.599   0.685  -6.107  1.00  0.00     0.040 A 
ATOM     65  C   UNL     1      -9.681   1.339  -8.156  1.00  0.00     0.040 A 
ATOM     66  F   UNL     1      -9.249   3.445  -9.091  1.00  0.00    -0.206 F 
ATOM     67  C   UNL     1      -9.473   0.394  -7.154  1.00  0.00     0.006 A 
ENDBRANCH  46  60
BRANCH  47  68
ATOM     68  C   UNL     1      -3.722  11.790  -6.638  1.00  0.00     0.057 A 
ATOM     69  C   UNL     1      -3.488  12.483  -5.448  1.00  0.00     0.134 A 
ATOM     70  C   UNL     1      -3.277  12.376  -7.830  1.00  0.00     0.134 A 
ATOM     71  F   UNL     1      -3.912  11.980  -4.279  1.00  0.00    -0.206 F 
ATOM     72  C   UNL     1      -2.827  13.712  -5.440  1.00  0.00     0.040 A 
ATOM     73  C   UNL     1      -2.591  13.590  -7.835  1.00  0.00     0.040 A 
ATOM     74  F   UNL     1      -3.467  11.754  -9.004  1.00  0.00    -0.206 F 
ATOM     75  C   UNL     1      -2.366  14.262  -6.636  1.00  0.00     0.006 A 
ENDBRANCH  47  68
BRANCH  59  76
ATOM     76  C   UNL     1     -10.272   9.640  -5.743  1.00  0.00     0.057 A 
ATOM     77  C   UNL     1     -10.951  10.399  -6.704  1.00  0.00     0.134 A 
ATOM     78  C   UNL     1     -10.828   9.565  -4.461  1.00  0.00     0.134 A 
ATOM     79  F   UNL     1     -10.457  10.523  -7.945  1.00  0.00    -0.206 F 
ATOM     80  C   UNL     1     -12.134  11.071  -6.395  1.00  0.00     0.040 A 
ATOM     81  C   UNL     1     -12.020  10.218  -4.145  1.00  0.00     0.040 A 
ATOM     82  F   UNL     1     -10.225   8.852  -3.497  1.00  0.00    -0.206 F 
ATOM     83  C   UNL     1     -12.674  10.977  -5.113  1.00  0.00     0.006 A 
ENDBRANCH  59  76
ENDBRANCH  33  34
ENDBRANCH  26  28
ENDBRANCH  25  26
ENDBRANCH  24  25
ENDBRANCH   1  24
TORSDOF 14
