REMARK SMILES O=C(OCCOC(=O)[C@H]1CC1(c1ccccc1)c1ccccc1)c1ccc(-c2c3nc(c(-c4c(F)cccc4F)c4ccc([nH]4)c(-c4c(F)cccc4F)c4nc(c(-c5c(F)cccc5F)c5ccc2[nH]5)C=C4)C=C3)cc1
REMARK SMILES IDX 4 1 3 2 2 3 1 4 24 5 25 6 77 7 26 8 76 9 27 10 28 11 29 12
REMARK SMILES IDX 70 13 30 14 75 15 69 16 71 17 31 18 74 19 68 20 67 21 32 23
REMARK SMILES IDX 58 24 41 25 57 26 42 27 45 28 56 29 72 30 43 31 44 32 55 34
REMARK SMILES IDX 73 35 46 36 33 37 34 38 39 39 35 40 36 41 38 42 40 43 37 44
REMARK SMILES IDX 59 45 60 46 65 47 61 48 62 49 64 50 66 51 63 52 47 53 48 54
REMARK SMILES IDX 53 55 49 56 50 57 52 58 54 59 51 60 5 61 6 62 7 63 8 64 9 65
REMARK SMILES IDX 10 66 11 67 12 68 13 69 17 70 14 71 16 72 15 73 18 74 19 75
REMARK SMILES IDX 23 76 20 77 22 78 21 79
REMARK H PARENT 71 22 45 33
REMARK Flexibility Score: inf
ROOT
ATOM      1  C   UNL     1       0.611   0.579  -1.934  1.00  0.00     0.275 C 
ENDROOT
BRANCH   1   2
ATOM      2  O   UNL     1       1.582   0.095  -2.885  1.00  0.00    -0.458 OA
BRANCH   2   3
ATOM      3  C   UNL     1       2.884  -0.233  -2.712  1.00  0.00     0.338 C 
ATOM      4  O   UNL     1       3.543  -0.607  -3.681  1.00  0.00    -0.246 OA
BRANCH   3   5
ATOM      5  C   UNL     1       3.538  -0.282  -1.373  1.00  0.00     0.060 A 
ATOM      6  C   UNL     1       3.324   0.621  -0.328  1.00  0.00     0.016 A 
ATOM      7  C   UNL     1       4.466  -1.313  -1.176  1.00  0.00     0.016 A 
ATOM      8  C   UNL     1       3.910   0.418   0.930  1.00  0.00     0.010 A 
ATOM      9  C   UNL     1       5.082  -1.489   0.066  1.00  0.00     0.010 A 
ATOM     10  C   UNL     1       4.781  -0.652   1.145  1.00  0.00    -0.014 A 
BRANCH  10  11
ATOM     11  C   UNL     1       5.478  -0.817   2.445  1.00  0.00     0.031 A 
ATOM     12  C   UNL     1       6.932  -0.446   2.529  1.00  0.00     0.074 A 
ATOM     13  C   UNL     1       4.835  -1.282   3.535  1.00  0.00     0.049 A 
ATOM     14  N   UNL     1       7.718  -0.410   3.574  1.00  0.00    -0.248 NA
ATOM     15  C   UNL     1       7.588  -0.064   1.268  1.00  0.00     0.031 C 
ATOM     16  C   UNL     1       3.437  -1.710   3.586  1.00  0.00     0.029 A 
ATOM     17  N   UNL     1       5.282  -1.475   4.822  1.00  0.00    -0.354 N 
ATOM     18  C   UNL     1       8.947   0.024   3.098  1.00  0.00     0.074 A 
ATOM     19  C   UNL     1       8.829   0.162   1.665  1.00  0.00     0.031 C 
ATOM     20  C   UNL     1       3.142  -2.119   4.833  1.00  0.00     0.029 A 
ATOM     21  C   UNL     1       4.323  -1.968   5.678  1.00  0.00     0.049 A 
ATOM     22  H   UNL     1       6.204  -1.279   5.105  1.00  0.00     0.167 HD
ATOM     23  C   UNL     1      10.066   0.327   3.795  1.00  0.00     0.037 A 
ATOM     24  C   UNL     1       4.390  -2.242   6.997  1.00  0.00     0.037 A 
ATOM     25  C   UNL     1      10.190   0.191   5.218  1.00  0.00     0.049 A 
ATOM     26  C   UNL     1       5.666  -1.942   7.744  1.00  0.00     0.074 A 
ATOM     27  C   UNL     1      11.270   0.500   6.024  1.00  0.00     0.029 A 
ATOM     28  N   UNL     1       9.197  -0.310   6.045  1.00  0.00    -0.354 N 
ATOM     29  N   UNL     1       6.782  -1.417   7.299  1.00  0.00    -0.248 NA
ATOM     30  C   UNL     1       5.683  -2.248   9.183  1.00  0.00     0.031 C 
ATOM     31  C   UNL     1      10.943   0.151   7.338  1.00  0.00     0.029 A 
ATOM     32  C   UNL     1       9.647  -0.341   7.353  1.00  0.00     0.049 A 
ATOM     33  H   UNL     1       8.305  -0.600   5.747  1.00  0.00     0.167 HD
ATOM     34  C   UNL     1       7.614  -1.293   8.406  1.00  0.00     0.074 A 
ATOM     35  C   UNL     1       6.872  -1.788   9.545  1.00  0.00     0.031 C 
ATOM     36  C   UNL     1       8.879  -0.813   8.475  1.00  0.00     0.037 A 
BRANCH  23  37
ATOM     37  C   UNL     1      11.229   0.848   3.010  1.00  0.00     0.057 A 
ATOM     38  C   UNL     1      11.219   2.137   2.459  1.00  0.00     0.134 A 
ATOM     39  C   UNL     1      12.359   0.054   2.785  1.00  0.00     0.134 A 
ATOM     40  F   UNL     1      10.154   2.937   2.623  1.00  0.00    -0.206 F 
ATOM     41  C   UNL     1      12.280   2.608   1.687  1.00  0.00     0.040 A 
ATOM     42  C   UNL     1      13.437   0.523   2.032  1.00  0.00     0.040 A 
ATOM     43  F   UNL     1      12.428  -1.190   3.282  1.00  0.00    -0.206 F 
ATOM     44  C   UNL     1      13.395   1.800   1.474  1.00  0.00     0.006 A 
ENDBRANCH  23  37
BRANCH  24  45
ATOM     45  C   UNL     1       3.218  -2.799   7.725  1.00  0.00     0.057 A 
ATOM     46  C   UNL     1       2.539  -2.049   8.694  1.00  0.00     0.134 A 
ATOM     47  C   UNL     1       2.799  -4.120   7.530  1.00  0.00     0.134 A 
ATOM     48  F   UNL     1       2.906  -0.783   8.946  1.00  0.00    -0.206 F 
ATOM     49  C   UNL     1       1.515  -2.601   9.468  1.00  0.00     0.040 A 
ATOM     50  C   UNL     1       1.762  -4.679   8.280  1.00  0.00     0.040 A 
ATOM     51  F   UNL     1       3.404  -4.894   6.616  1.00  0.00    -0.206 F 
ATOM     52  C   UNL     1       1.125  -3.922   9.262  1.00  0.00     0.006 A 
ENDBRANCH  24  45
BRANCH  36  53
ATOM     53  C   UNL     1       9.528  -0.760   9.826  1.00  0.00     0.057 A 
ATOM     54  C   UNL     1       9.984  -1.916  10.470  1.00  0.00     0.134 A 
ATOM     55  C   UNL     1       9.761   0.470  10.455  1.00  0.00     0.134 A 
ATOM     56  F   UNL     1       9.780  -3.124   9.923  1.00  0.00    -0.206 F 
ATOM     57  C   UNL     1      10.638  -1.852  11.700  1.00  0.00     0.040 A 
ATOM     58  C   UNL     1      10.436   0.548  11.672  1.00  0.00     0.040 A 
ATOM     59  F   UNL     1       9.356   1.615   9.884  1.00  0.00    -0.206 F 
ATOM     60  C   UNL     1      10.875  -0.616  12.300  1.00  0.00     0.006 A 
ENDBRANCH  36  53
ENDBRANCH  10  11
ENDBRANCH   3   5
ENDBRANCH   2   3
ENDBRANCH   1   2
BRANCH   1  61
ATOM     61  C   UNL     1      -0.033  -0.515  -1.087  1.00  0.00     0.274 C 
BRANCH  61  62
ATOM     62  O   UNL     1       0.958  -1.300  -0.408  1.00  0.00    -0.462 OA
BRANCH  62  63
ATOM     63  C   UNL     1       0.904  -2.649  -0.600  1.00  0.00     0.310 C 
ATOM     64  O   UNL     1       0.043  -3.237  -1.232  1.00  0.00    -0.252 OA
BRANCH  63  65
ATOM     65  C   UNL     1       2.000  -3.334   0.136  1.00  0.00     0.115 C 
ATOM     66  C   UNL     1       1.701  -4.632   0.825  1.00  0.00     0.034 C 
ATOM     67  C   UNL     1       2.717  -4.611  -0.323  1.00  0.00     0.034 C 
BRANCH  67  68
ATOM     68  C   UNL     1       2.292  -5.345  -1.603  1.00  0.00    -0.037 A 
ATOM     69  C   UNL     1       1.958  -6.710  -1.554  1.00  0.00     0.004 A 
ATOM     70  C   UNL     1       2.383  -4.745  -2.873  1.00  0.00     0.004 A 
ATOM     71  C   UNL     1       1.774  -7.458  -2.717  1.00  0.00     0.000 A 
ATOM     72  C   UNL     1       2.216  -5.494  -4.041  1.00  0.00     0.000 A 
ATOM     73  C   UNL     1       1.923  -6.852  -3.961  1.00  0.00     0.000 A 
ENDBRANCH  67  68
BRANCH  67  74
ATOM     74  C   UNL     1       4.245  -4.761   0.010  1.00  0.00    -0.037 A 
ATOM     75  C   UNL     1       5.196  -4.981  -1.018  1.00  0.00     0.004 A 
ATOM     76  C   UNL     1       4.778  -4.688   1.313  1.00  0.00     0.004 A 
ATOM     77  C   UNL     1       6.566  -5.123  -0.773  1.00  0.00     0.000 A 
ATOM     78  C   UNL     1       6.153  -4.818   1.567  1.00  0.00     0.000 A 
ATOM     79  C   UNL     1       7.046  -5.038   0.524  1.00  0.00     0.000 A 
ENDBRANCH  67  74
ENDBRANCH  63  65
ENDBRANCH  62  63
ENDBRANCH  61  62
ENDBRANCH   1  61
TORSDOF 13
