REMARK SMILES C[C@H]1c2ccc(O)cc2OC(=O)[C@@H]1CC(=O)N[C@@H](CC1=c2ccccc2=NC1)C(=O)OCCOC(=O)c1ccc(-c2c3nc(c(-c4c(F)cccc4F)c4ccc([nH]4)c(-c4c(F)cccc4F)c4nc(c(-c5c(F)cccc5F)c5ccc2[nH]5)C=C4)C=C3)cc1
REMARK SMILES IDX 32 1 31 2 29 3 30 4 18 5 17 6 15 7 16 8 14 10 13 11 1 12
REMARK SMILES IDX 2 13 3 14 4 15 9 16 11 17 5 18 8 19 10 20 12 21 6 22 7 23
REMARK SMILES IDX 19 25 20 26 21 27 28 28 22 29 26 30 27 31 23 32 25 33 24 34
REMARK SMILES IDX 33 35 34 36 35 37 36 38 37 39 38 40 90 41 39 42 89 43 40 44
REMARK SMILES IDX 41 45 42 46 83 47 43 48 88 49 82 50 84 51 44 52 87 53 81 54
REMARK SMILES IDX 80 55 45 57 71 58 54 59 70 60 55 61 58 62 69 63 85 64 56 65
REMARK SMILES IDX 57 66 68 68 86 69 59 70 46 71 47 72 52 73 48 74 49 75 51 76
REMARK SMILES IDX 53 77 50 78 72 79 73 80 78 81 74 82 75 83 77 84 79 85 76 86
REMARK SMILES IDX 60 87 61 88 66 89 62 90 63 91 65 92 67 93 64 94
REMARK H PARENT 17 9 7 24 84 56 58 67
REMARK Flexibility Score: inf
ROOT
ATOM      1  C   UNL     1      -2.424  -7.745   2.350  1.00  0.00     0.274 C 
ENDROOT
BRANCH   1   2
ATOM      2  O   UNL     1      -2.576  -6.329   2.135  1.00  0.00    -0.461 OA
BRANCH   2   3
ATOM      3  C   UNL     1      -1.415  -5.636   2.032  1.00  0.00     0.329 C 
ATOM      4  O   UNL     1      -0.293  -6.132   2.122  1.00  0.00    -0.250 OA
BRANCH   3   5
ATOM      5  C   UNL     1      -1.612  -4.125   1.960  1.00  0.00     0.196 C 
BRANCH   5   6
ATOM      6  N   UNL     1      -2.753  -3.571   1.220  1.00  0.00    -0.342 N 
ATOM      7  C   UNL     1      -2.817  -2.551   0.310  1.00  0.00     0.221 C 
ATOM      8  O   UNL     1      -3.921  -2.085   0.023  1.00  0.00    -0.275 OA
ATOM      9  H   UNL     1      -3.616  -4.006   1.410  1.00  0.00     0.164 HD
BRANCH   7  10
ATOM     10  C   UNL     1      -1.571  -2.061  -0.424  1.00  0.00     0.116 C 
BRANCH  10  11
ATOM     11  C   UNL     1      -0.931  -0.739   0.051  1.00  0.00     0.116 C 
ATOM     12  C   UNL     1       0.956   0.975  -0.324  1.00  0.00     0.014 C 
ATOM     13  C   UNL     1       0.403  -0.410  -0.673  1.00  0.00     0.034 C 
ATOM     14  C   UNL     1       1.418  -1.457  -0.297  1.00  0.00    -0.001 A 
ATOM     15  C   UNL     1       2.405  -1.903  -1.181  1.00  0.00     0.011 A 
ATOM     16  C   UNL     1       1.316  -2.054   0.959  1.00  0.00     0.138 A 
ATOM     17  C   UNL     1      -0.658  -0.769   1.530  1.00  0.00     0.315 C 
ATOM     18  C   UNL     1       3.185  -3.008  -0.837  1.00  0.00     0.047 A 
ATOM     19  C   UNL     1       2.045  -3.180   1.294  1.00  0.00     0.093 A 
ATOM     20  O   UNL     1       0.417  -1.560   1.917  1.00  0.00    -0.426 OA
ATOM     21  O   UNL     1      -1.357  -0.189   2.351  1.00  0.00    -0.251 OA
ATOM     22  C   UNL     1       2.938  -3.671   0.362  1.00  0.00     0.119 A 
BRANCH  22  23
ATOM     23  O   UNL     1       3.511  -4.877   0.606  1.00  0.00    -0.508 OA
ATOM     24  H   UNL     1       4.121  -5.238  -0.007  1.00  0.00     0.293 HD
ENDBRANCH  22  23
ENDBRANCH  10  11
ENDBRANCH   7  10
ENDBRANCH   5   6
BRANCH   5  25
ATOM     25  C   UNL     1      -1.514  -3.597   3.418  1.00  0.00     0.070 C 
BRANCH  25  26
ATOM     26  C   UNL     1      -2.688  -3.696   4.410  1.00  0.00    -0.037 C 
ATOM     27  C   UNL     1      -3.951  -3.776   3.970  1.00  0.00     0.001 A 
ATOM     28  C   UNL     1      -2.630  -2.528   5.385  1.00  0.00     0.174 C 
ATOM     29  C   UNL     1      -5.011  -4.698   4.312  1.00  0.00     0.010 A 
ATOM     30  C   UNL     1      -4.372  -2.356   4.134  1.00  0.00     0.065 A 
ATOM     31  N   UNL     1      -3.662  -1.589   4.898  1.00  0.00    -0.280 NA
ATOM     32  C   UNL     1      -6.273  -4.315   4.032  1.00  0.00     0.001 A 
ATOM     33  C   UNL     1      -5.627  -2.032   3.431  1.00  0.00     0.028 A 
ATOM     34  C   UNL     1      -6.527  -3.031   3.381  1.00  0.00     0.002 A 
ENDBRANCH  25  26
ENDBRANCH   5  25
ENDBRANCH   3   5
ENDBRANCH   2   3
ENDBRANCH   1   2
BRANCH   1  35
ATOM     35  C   UNL     1      -2.614  -8.530   1.050  1.00  0.00     0.275 C 
BRANCH  35  36
ATOM     36  O   UNL     1      -1.535  -8.306   0.119  1.00  0.00    -0.458 OA
BRANCH  36  37
ATOM     37  C   UNL     1      -1.702  -7.259  -0.723  1.00  0.00     0.338 C 
ATOM     38  O   UNL     1      -2.675  -6.521  -0.787  1.00  0.00    -0.246 OA
BRANCH  37  39
ATOM     39  C   UNL     1      -0.444  -6.987  -1.452  1.00  0.00     0.060 A 
ATOM     40  C   UNL     1       0.337  -7.990  -2.031  1.00  0.00     0.016 A 
ATOM     41  C   UNL     1      -0.055  -5.654  -1.575  1.00  0.00     0.016 A 
ATOM     42  C   UNL     1       1.531  -7.655  -2.694  1.00  0.00     0.010 A 
ATOM     43  C   UNL     1       1.130  -5.326  -2.232  1.00  0.00     0.010 A 
ATOM     44  C   UNL     1       1.957  -6.321  -2.773  1.00  0.00    -0.014 A 
BRANCH  44  45
ATOM     45  C   UNL     1       3.197  -5.925  -3.499  1.00  0.00     0.031 A 
ATOM     46  C   UNL     1       4.552  -5.923  -2.840  1.00  0.00     0.074 A 
ATOM     47  C   UNL     1       3.083  -5.442  -4.747  1.00  0.00     0.049 A 
ATOM     48  N   UNL     1       5.689  -5.416  -3.257  1.00  0.00    -0.248 NA
ATOM     49  C   UNL     1       4.613  -6.484  -1.492  1.00  0.00     0.031 C 
ATOM     50  C   UNL     1       1.833  -5.321  -5.494  1.00  0.00     0.029 A 
ATOM     51  N   UNL     1       4.041  -4.971  -5.605  1.00  0.00    -0.354 N 
ATOM     52  C   UNL     1       6.565  -5.495  -2.175  1.00  0.00     0.074 A 
ATOM     53  C   UNL     1       5.800  -6.055  -1.082  1.00  0.00     0.031 C 
ATOM     54  C   UNL     1       2.106  -4.850  -6.721  1.00  0.00     0.029 A 
ATOM     55  C   UNL     1       3.546  -4.637  -6.839  1.00  0.00     0.049 A 
ATOM     56  H   UNL     1       4.990  -4.881  -5.360  1.00  0.00     0.167 HD
ATOM     57  C   UNL     1       7.882  -5.162  -2.107  1.00  0.00     0.037 A 
ATOM     58  C   UNL     1       4.193  -4.247  -7.952  1.00  0.00     0.037 A 
ATOM     59  C   UNL     1       8.668  -4.791  -3.262  1.00  0.00     0.049 A 
ATOM     60  C   UNL     1       5.691  -4.129  -7.936  1.00  0.00     0.074 A 
ATOM     61  C   UNL     1      10.040  -4.625  -3.364  1.00  0.00     0.029 A 
ATOM     62  N   UNL     1       8.151  -4.584  -4.532  1.00  0.00    -0.354 N 
ATOM     63  N   UNL     1       6.524  -4.264  -6.933  1.00  0.00    -0.248 NA
ATOM     64  C   UNL     1       6.341  -3.831  -9.220  1.00  0.00     0.031 C 
ATOM     65  C   UNL     1      10.351  -4.315  -4.693  1.00  0.00     0.029 A 
ATOM     66  C   UNL     1       9.176  -4.321  -5.426  1.00  0.00     0.049 A 
ATOM     67  H   UNL     1       7.195  -4.619  -4.764  1.00  0.00     0.167 HD
ATOM     68  C   UNL     1       7.795  -4.097  -7.469  1.00  0.00     0.074 A 
ATOM     69  C   UNL     1       7.623  -3.878  -8.890  1.00  0.00     0.031 C 
ATOM     70  C   UNL     1       8.996  -4.117  -6.841  1.00  0.00     0.037 A 
BRANCH  57  71
ATOM     71  C   UNL     1       8.585  -5.236  -0.768  1.00  0.00     0.057 A 
ATOM     72  C   UNL     1       9.197  -4.100  -0.210  1.00  0.00     0.134 A 
ATOM     73  C   UNL     1       8.712  -6.431  -0.045  1.00  0.00     0.134 A 
ATOM     74  F   UNL     1       9.170  -2.922  -0.853  1.00  0.00    -0.206 F 
ATOM     75  C   UNL     1       9.874  -4.148   1.014  1.00  0.00     0.040 A 
ATOM     76  C   UNL     1       9.339  -6.480   1.203  1.00  0.00     0.040 A 
ATOM     77  F   UNL     1       8.195  -7.573  -0.524  1.00  0.00    -0.206 F 
ATOM     78  C   UNL     1       9.927  -5.337   1.735  1.00  0.00     0.006 A 
ENDBRANCH  57  71
BRANCH  58  79
ATOM     79  C   UNL     1       3.430  -4.076  -9.210  1.00  0.00     0.057 A 
ATOM     80  C   UNL     1       2.571  -2.993  -9.414  1.00  0.00     0.134 A 
ATOM     81  C   UNL     1       3.535  -5.026 -10.233  1.00  0.00     0.134 A 
ATOM     82  F   UNL     1       2.406  -2.067  -8.457  1.00  0.00    -0.206 F 
ATOM     83  C   UNL     1       1.846  -2.856 -10.598  1.00  0.00     0.040 A 
ATOM     84  C   UNL     1       2.839  -4.888 -11.432  1.00  0.00     0.040 A 
ATOM     85  F   UNL     1       4.346  -6.085 -10.089  1.00  0.00    -0.206 F 
ATOM     86  C   UNL     1       1.988  -3.800 -11.615  1.00  0.00     0.006 A 
ENDBRANCH  58  79
BRANCH  70  87
ATOM     87  C   UNL     1      10.220  -3.931  -7.692  1.00  0.00     0.057 A 
ATOM     88  C   UNL     1      11.104  -4.995  -7.915  1.00  0.00     0.134 A 
ATOM     89  C   UNL     1      10.534  -2.697  -8.277  1.00  0.00     0.134 A 
ATOM     90  F   UNL     1      10.868  -6.201  -7.379  1.00  0.00    -0.206 F 
ATOM     91  C   UNL     1      12.253  -4.838  -8.693  1.00  0.00     0.040 A 
ATOM     92  C   UNL     1      11.665  -2.536  -9.079  1.00  0.00     0.040 A 
ATOM     93  F   UNL     1       9.723  -1.641  -8.113  1.00  0.00    -0.206 F 
ATOM     94  C   UNL     1      12.531  -3.608  -9.284  1.00  0.00     0.006 A 
ENDBRANCH  70  87
ENDBRANCH  44  45
ENDBRANCH  37  39
ENDBRANCH  36  37
ENDBRANCH  35  36
ENDBRANCH   1  35
TORSDOF 17
