REMARK SMILES CCOc1cccc(-c2ccc([C@@H](C)C(=O)OCCOC(=O)c3ccc(-c4c5nc(c(-c6c(F)cccc6F)c6ccc([nH]6)c(-c6c(F)cccc6F)c6nc(c(-c7c(F)cccc7F)c7ccc4[nH]7)C=C6)C=C5)cc3)cc2F)c1
REMARK SMILES IDX 18 1 17 2 15 3 16 4 13 5 14 6 12 7 9 8 10 9 78 10 11 11
REMARK SMILES IDX 77 12 79 13 8 14 4 15 5 16 80 17 6 18 7 19 3 20 2 21 1 22
REMARK SMILES IDX 19 23 20 24 21 25 22 26 23 27 24 28 76 29 25 30 75 31 26 32
REMARK SMILES IDX 27 33 28 34 69 35 29 36 74 37 68 38 70 39 30 40 73 41 67 42
REMARK SMILES IDX 66 43 31 45 57 46 40 47 56 48 41 49 44 50 55 51 71 52 42 53
REMARK SMILES IDX 43 54 54 56 72 57 45 58 32 59 33 60 38 61 34 62 35 63 37 64
REMARK SMILES IDX 39 65 36 66 58 67 59 68 64 69 60 70 61 71 63 72 65 73 62 74
REMARK SMILES IDX 46 75 47 76 52 77 48 78 49 79 51 80 53 81 50 82
REMARK H PARENT 70 44 44 55
REMARK Flexibility Score: inf
ROOT
ATOM      1  C   UNL     1       8.151  -4.157  -0.932  1.00  0.00     0.274 C 
ENDROOT
BRANCH   1   2
ATOM      2  O   UNL     1       8.182  -2.777  -1.343  1.00  0.00    -0.462 OA
BRANCH   2   3
ATOM      3  C   UNL     1       8.488  -2.528  -2.643  1.00  0.00     0.313 C 
ATOM      4  O   UNL     1       8.803  -3.392  -3.456  1.00  0.00    -0.252 OA
BRANCH   3   5
ATOM      5  C   UNL     1       8.454  -1.048  -3.010  1.00  0.00     0.126 C 
ATOM      6  C   UNL     1       9.867  -0.471  -2.992  1.00  0.00     0.025 C 
BRANCH   5   7
ATOM      7  C   UNL     1       7.464  -0.195  -2.232  1.00  0.00    -0.031 A 
ATOM      8  C   UNL     1       5.556   1.379  -0.812  1.00  0.00     0.018 A 
ATOM      9  C   UNL     1       6.715   0.895  -0.184  1.00  0.00     0.012 A 
ATOM     10  C   UNL     1       5.385   1.063  -2.167  1.00  0.00     0.131 A 
ATOM     11  C   UNL     1       7.655   0.125  -0.882  1.00  0.00     0.005 A 
ATOM     12  C   UNL     1       6.315   0.295  -2.868  1.00  0.00     0.044 A 
ATOM     13  F   UNL     1       4.309   1.505  -2.839  1.00  0.00    -0.206 F 
BRANCH   8  14
ATOM     14  C   UNL     1       4.557   2.158  -0.059  1.00  0.00    -0.012 A 
ATOM     15  C   UNL     1       2.244   2.546   0.605  1.00  0.00     0.119 A 
ATOM     16  C   UNL     1       2.631   3.620   1.400  1.00  0.00     0.046 A 
ATOM     17  C   UNL     1       3.191   1.840  -0.136  1.00  0.00     0.055 A 
ATOM     18  C   UNL     1       3.979   3.962   1.484  1.00  0.00     0.004 A 
ATOM     19  C   UNL     1       4.933   3.233   0.766  1.00  0.00     0.009 A 
BRANCH  15  20
ATOM     20  O   UNL     1       0.911   2.266   0.491  1.00  0.00    -0.494 OA
BRANCH  20  21
ATOM     21  C   UNL     1       0.547   1.046   1.149  1.00  0.00     0.226 C 
ATOM     22  C   UNL     1       0.456  -0.107   0.162  1.00  0.00     0.049 C 
ENDBRANCH  20  21
ENDBRANCH  15  20
ENDBRANCH   8  14
ENDBRANCH   5   7
ENDBRANCH   3   5
ENDBRANCH   2   3
ENDBRANCH   1   2
BRANCH   1  23
ATOM     23  C   UNL     1       6.716  -4.686  -0.861  1.00  0.00     0.275 C 
BRANCH  23  24
ATOM     24  O   UNL     1       6.141  -4.814  -2.174  1.00  0.00    -0.458 OA
BRANCH  24  25
ATOM     25  C   UNL     1       5.384  -3.767  -2.574  1.00  0.00     0.338 C 
ATOM     26  O   UNL     1       5.098  -2.768  -1.938  1.00  0.00    -0.246 OA
BRANCH  25  27
ATOM     27  C   UNL     1       5.027  -3.939  -3.989  1.00  0.00     0.060 A 
ATOM     28  C   UNL     1       5.573  -3.051  -4.918  1.00  0.00     0.016 A 
ATOM     29  C   UNL     1       4.104  -4.907  -4.386  1.00  0.00     0.016 A 
ATOM     30  C   UNL     1       5.189  -3.114  -6.253  1.00  0.00     0.010 A 
ATOM     31  C   UNL     1       3.724  -4.976  -5.729  1.00  0.00     0.010 A 
ATOM     32  C   UNL     1       4.255  -4.072  -6.667  1.00  0.00    -0.014 A 
BRANCH  32  33
ATOM     33  C   UNL     1       3.799  -4.091  -8.076  1.00  0.00     0.031 A 
ATOM     34  C   UNL     1       2.437  -3.570  -8.428  1.00  0.00     0.074 A 
ATOM     35  C   UNL     1       4.617  -4.556  -9.038  1.00  0.00     0.049 A 
ATOM     36  N   UNL     1       1.821  -3.575  -9.583  1.00  0.00    -0.248 NA
ATOM     37  C   UNL     1       1.663  -2.963  -7.334  1.00  0.00     0.031 C 
ATOM     38  C   UNL     1       5.979  -5.043  -8.825  1.00  0.00     0.029 A 
ATOM     39  N   UNL     1       4.416  -4.694 -10.388  1.00  0.00    -0.354 N 
ATOM     40  C   UNL     1       0.583  -2.991  -9.353  1.00  0.00     0.074 A 
ATOM     41  C   UNL     1       0.527  -2.657  -7.945  1.00  0.00     0.031 C 
ATOM     42  C   UNL     1       6.494  -5.427 -10.005  1.00  0.00     0.029 A 
ATOM     43  C   UNL     1       5.484  -5.253 -11.045  1.00  0.00     0.049 A 
ATOM     44  H   UNL     1       3.587  -4.419 -10.842  1.00  0.00     0.167 HD
ATOM     45  C   UNL     1      -0.414  -2.753 -10.238  1.00  0.00     0.037 A 
ATOM     46  C   UNL     1       5.620  -5.610 -12.336  1.00  0.00     0.037 A 
ATOM     47  C   UNL     1      -0.349  -3.073 -11.640  1.00  0.00     0.049 A 
ATOM     48  C   UNL     1       4.476  -5.390 -13.286  1.00  0.00     0.074 A 
ATOM     49  C   UNL     1      -1.306  -2.864 -12.618  1.00  0.00     0.029 A 
ATOM     50  N   UNL     1       0.737  -3.669 -12.262  1.00  0.00    -0.354 N 
ATOM     51  N   UNL     1       3.304  -4.851 -13.056  1.00  0.00    -0.248 NA
ATOM     52  C   UNL     1       4.672  -5.836 -14.672  1.00  0.00     0.031 C 
ATOM     53  C   UNL     1      -0.810  -3.365 -13.828  1.00  0.00     0.029 A 
ATOM     54  C   UNL     1       0.468  -3.852 -13.609  1.00  0.00     0.049 A 
ATOM     55  H   UNL     1       1.575  -3.925 -11.813  1.00  0.00     0.167 HD
ATOM     56  C   UNL     1       2.629  -4.875 -14.269  1.00  0.00     0.074 A 
ATOM     57  C   UNL     1       3.528  -5.472 -15.236  1.00  0.00     0.031 C 
ATOM     58  C   UNL     1       1.377  -4.444 -14.556  1.00  0.00     0.037 A 
BRANCH  45  59
ATOM     59  C   UNL     1      -1.673  -2.139  -9.705  1.00  0.00     0.057 A 
ATOM     60  C   UNL     1      -1.743  -0.786  -9.348  1.00  0.00     0.134 A 
ATOM     61  C   UNL     1      -2.837  -2.905  -9.571  1.00  0.00     0.134 A 
ATOM     62  F   UNL     1      -0.658  -0.002  -9.440  1.00  0.00    -0.206 F 
ATOM     63  C   UNL     1      -2.922  -0.223  -8.856  1.00  0.00     0.040 A 
ATOM     64  C   UNL     1      -4.028  -2.348  -9.101  1.00  0.00     0.040 A 
ATOM     65  F   UNL     1      -2.838  -4.206  -9.899  1.00  0.00    -0.206 F 
ATOM     66  C   UNL     1      -4.070  -1.004  -8.737  1.00  0.00     0.006 A 
ENDBRANCH  45  59
BRANCH  46  67
ATOM     67  C   UNL     1       6.883  -6.234 -12.801  1.00  0.00     0.057 A 
ATOM     68  C   UNL     1       7.764  -5.545 -13.640  1.00  0.00     0.134 A 
ATOM     69  C   UNL     1       7.236  -7.534 -12.419  1.00  0.00     0.134 A 
ATOM     70  F   UNL     1       7.468  -4.305 -14.058  1.00  0.00    -0.206 F 
ATOM     71  C   UNL     1       8.948  -6.129 -14.093  1.00  0.00     0.040 A 
ATOM     72  C   UNL     1       8.427  -8.122 -12.846  1.00  0.00     0.040 A 
ATOM     73  F   UNL     1       6.432  -8.246 -11.616  1.00  0.00    -0.206 F 
ATOM     74  C   UNL     1       9.285  -7.420 -13.690  1.00  0.00     0.006 A 
ENDBRANCH  46  67
BRANCH  58  75
ATOM     75  C   UNL     1       0.919  -4.579 -15.977  1.00  0.00     0.057 A 
ATOM     76  C   UNL     1       0.542  -5.815 -16.515  1.00  0.00     0.134 A 
ATOM     77  C   UNL     1       0.821  -3.453 -16.804  1.00  0.00     0.134 A 
ATOM     78  F   UNL     1       0.628  -6.932 -15.776  1.00  0.00    -0.206 F 
ATOM     79  C   UNL     1       0.100  -5.930 -17.833  1.00  0.00     0.040 A 
ATOM     80  C   UNL     1       0.361  -3.553 -18.117  1.00  0.00     0.040 A 
ATOM     81  F   UNL     1       1.161  -2.239 -16.346  1.00  0.00    -0.206 F 
ATOM     82  C   UNL     1       0.003  -4.795 -18.637  1.00  0.00     0.006 A 
ENDBRANCH  58  75
ENDBRANCH  32  33
ENDBRANCH  25  27
ENDBRANCH  24  25
ENDBRANCH  23  24
ENDBRANCH   1  23
TORSDOF 15
