REMARK SMILES O=C(OCCOC(=O)c1cc(S(=O)(=O)Nc2ccc(F)c(C(F)(F)F)c2)c[nH]1)c1ccc(-c2c3nc(c(-c4c(F)cccc4F)c4ccc([nH]4)c(-c4c(F)cccc4F)c4nc(c(-c5c(F)cccc5F)c5ccc2[nH]5)C=C4)C=C3)cc1
REMARK SMILES IDX 5 1 4 2 3 3 2 4 1 5 29 6 30 7 82 8 31 9 81 10 32 11 33 12
REMARK SMILES IDX 34 13 75 14 35 15 80 16 74 17 76 18 36 19 79 20 73 21 72 22
REMARK SMILES IDX 37 24 63 25 46 26 62 27 47 28 50 29 61 30 77 31 48 32 49 33
REMARK SMILES IDX 60 35 78 36 51 37 38 38 39 39 44 40 40 41 41 42 43 43 45 44
REMARK SMILES IDX 42 45 64 46 65 47 70 48 66 49 67 50 69 51 71 52 68 53 52 54
REMARK SMILES IDX 53 55 58 56 54 57 55 58 57 59 59 60 56 61 6 62 7 63 8 64
REMARK SMILES IDX 9 65 10 66 28 67 11 68 27 69 12 71 13 72 14 73 15 74 16 76
REMARK SMILES IDX 17 77 26 78 18 79 21 80 19 81 20 82 22 83 23 84 24 85 25 86
REMARK H PARENT 76 23 50 34 28 70 15 75
REMARK Flexibility Score: inf
ROOT
ATOM      1  C   UNL     1       4.700   0.275  -1.580  1.00  0.00     0.275 C 
ENDROOT
BRANCH   1   2
ATOM      2  C   UNL     1       4.427  -1.119  -1.006  1.00  0.00     0.275 C 
BRANCH   2   3
ATOM      3  O   UNL     1       3.026  -1.406  -0.806  1.00  0.00    -0.458 OA
BRANCH   3   4
ATOM      4  C   UNL     1       2.239  -0.742   0.073  1.00  0.00     0.338 C 
ATOM      5  O   UNL     1       1.160  -0.259  -0.259  1.00  0.00    -0.246 OA
BRANCH   4   6
ATOM      6  C   UNL     1       2.563  -0.830   1.517  1.00  0.00     0.060 A 
ATOM      7  C   UNL     1       3.818  -0.542   2.057  1.00  0.00     0.016 A 
ATOM      8  C   UNL     1       1.491  -1.121   2.377  1.00  0.00     0.016 A 
ATOM      9  C   UNL     1       4.023  -0.623   3.429  1.00  0.00     0.010 A 
ATOM     10  C   UNL     1       1.680  -1.161   3.756  1.00  0.00     0.010 A 
ATOM     11  C   UNL     1       2.953  -0.917   4.279  1.00  0.00    -0.014 A 
BRANCH  11  12
ATOM     12  C   UNL     1       3.184  -0.818   5.737  1.00  0.00     0.031 A 
ATOM     13  C   UNL     1       3.252   0.622   6.234  1.00  0.00     0.074 A 
ATOM     14  C   UNL     1       3.358  -1.986   6.417  1.00  0.00     0.049 A 
ATOM     15  N   UNL     1       3.890   1.118   7.250  1.00  0.00    -0.248 NA
ATOM     16  C   UNL     1       2.578   1.681   5.437  1.00  0.00     0.031 C 
ATOM     17  C   UNL     1       3.282  -3.309   5.781  1.00  0.00     0.029 A 
ATOM     18  N   UNL     1       3.634  -2.316   7.731  1.00  0.00    -0.354 N 
ATOM     19  C   UNL     1       3.538   2.478   7.332  1.00  0.00     0.074 A 
ATOM     20  C   UNL     1       2.849   2.796   6.117  1.00  0.00     0.031 C 
ATOM     21  C   UNL     1       3.560  -4.278   6.670  1.00  0.00     0.029 A 
ATOM     22  C   UNL     1       3.830  -3.699   7.972  1.00  0.00     0.049 A 
ATOM     23  H   UNL     1       3.691  -1.641   8.446  1.00  0.00     0.167 HD
ATOM     24  C   UNL     1       3.694   3.226   8.462  1.00  0.00     0.037 A 
ATOM     25  C   UNL     1       4.218  -4.344   9.116  1.00  0.00     0.037 A 
ATOM     26  C   UNL     1       4.316   2.468   9.495  1.00  0.00     0.049 A 
ATOM     27  C   UNL     1       4.277  -3.318  10.177  1.00  0.00     0.074 A 
ATOM     28  C   UNL     1       5.592   2.022   9.716  1.00  0.00     0.029 A 
ATOM     29  N   UNL     1       3.478   1.854  10.391  1.00  0.00    -0.354 N 
ATOM     30  N   UNL     1       3.244  -2.747  10.726  1.00  0.00    -0.248 NA
ATOM     31  C   UNL     1       5.590  -2.834  10.625  1.00  0.00     0.031 C 
ATOM     32  C   UNL     1       5.435   0.865  10.514  1.00  0.00     0.029 A 
ATOM     33  C   UNL     1       4.076   0.683  10.787  1.00  0.00     0.049 A 
ATOM     34  H   UNL     1       2.604   2.191  10.695  1.00  0.00     0.167 HD
ATOM     35  C   UNL     1       3.792  -1.633  11.322  1.00  0.00     0.074 A 
ATOM     36  C   UNL     1       5.200  -1.900  11.488  1.00  0.00     0.031 C 
ATOM     37  C   UNL     1       3.209  -0.421  11.142  1.00  0.00     0.037 A 
BRANCH  24  38
ATOM     38  C   UNL     1       3.091   4.550   8.848  1.00  0.00     0.057 A 
ATOM     39  C   UNL     1       1.808   4.965   8.473  1.00  0.00     0.134 A 
ATOM     40  C   UNL     1       3.683   5.276   9.908  1.00  0.00     0.134 A 
ATOM     41  F   UNL     1       1.117   4.333   7.515  1.00  0.00    -0.206 F 
ATOM     42  C   UNL     1       1.134   5.994   9.146  1.00  0.00     0.040 A 
ATOM     43  C   UNL     1       3.001   6.266  10.618  1.00  0.00     0.040 A 
ATOM     44  F   UNL     1       4.922   4.985  10.336  1.00  0.00    -0.206 F 
ATOM     45  C   UNL     1       1.712   6.619  10.246  1.00  0.00     0.006 A 
ENDBRANCH  24  38
BRANCH  25  46
ATOM     46  C   UNL     1       4.661  -5.748   9.488  1.00  0.00     0.057 A 
ATOM     47  C   UNL     1       5.238  -6.007  10.761  1.00  0.00     0.134 A 
ATOM     48  C   UNL     1       4.634  -6.876   8.659  1.00  0.00     0.134 A 
ATOM     49  F   UNL     1       5.221  -5.099  11.746  1.00  0.00    -0.206 F 
ATOM     50  C   UNL     1       5.868  -7.209  11.111  1.00  0.00     0.040 A 
ATOM     51  C   UNL     1       5.240  -8.100   9.005  1.00  0.00     0.040 A 
ATOM     52  F   UNL     1       3.999  -6.882   7.487  1.00  0.00    -0.206 F 
ATOM     53  C   UNL     1       5.892  -8.260  10.218  1.00  0.00     0.006 A 
ENDBRANCH  25  46
BRANCH  37  54
ATOM     54  C   UNL     1       1.725  -0.493  10.864  1.00  0.00     0.057 A 
ATOM     55  C   UNL     1       1.167  -0.275   9.597  1.00  0.00     0.134 A 
ATOM     56  C   UNL     1       0.833  -0.900  11.861  1.00  0.00     0.134 A 
ATOM     57  F   UNL     1       1.936   0.088   8.573  1.00  0.00    -0.206 F 
ATOM     58  C   UNL     1      -0.195  -0.432   9.325  1.00  0.00     0.040 A 
ATOM     59  C   UNL     1      -0.534  -1.079  11.606  1.00  0.00     0.040 A 
ATOM     60  F   UNL     1       1.274  -1.136  13.106  1.00  0.00    -0.206 F 
ATOM     61  C   UNL     1      -1.053  -0.844  10.334  1.00  0.00     0.006 A 
ENDBRANCH  37  54
ENDBRANCH  11  12
ENDBRANCH   4   6
ENDBRANCH   3   4
ENDBRANCH   2   3
ENDBRANCH   1   2
BRANCH   1  62
ATOM     62  O   UNL     1       4.192   1.317  -0.730  1.00  0.00    -0.457 OA
BRANCH  62  63
ATOM     63  C   UNL     1       3.035   1.893  -1.162  1.00  0.00     0.354 C 
ATOM     64  O   UNL     1       2.465   1.640  -2.216  1.00  0.00    -0.244 OA
BRANCH  63  65
ATOM     65  C   UNL     1       2.550   2.840  -0.195  1.00  0.00     0.126 A 
ATOM     66  C   UNL     1       3.232   3.759   0.582  1.00  0.00     0.057 A 
ATOM     67  N   UNL     1       1.205   3.040   0.037  1.00  0.00    -0.354 N 
ATOM     68  C   UNL     1       2.277   4.733   0.982  1.00  0.00     0.106 A 
ATOM     69  C   UNL     1       1.025   4.215   0.721  1.00  0.00     0.105 A 
ATOM     70  H   UNL     1       0.484   2.432  -0.246  1.00  0.00     0.166 HD
BRANCH  68  71
ATOM     71  S   UNL     1       2.678   6.328   1.523  1.00  0.00     0.263 S 
ATOM     72  O   UNL     1       1.417   6.933   1.909  1.00  0.00    -0.201 OA
ATOM     73  O   UNL     1       3.753   6.143   2.466  1.00  0.00    -0.201 OA
BRANCH  71  74
ATOM     74  N   UNL     1       3.280   7.232   0.198  1.00  0.00    -0.280 N 
ATOM     75  H   UNL     1       2.927   8.123  -0.028  1.00  0.00     0.180 HD
BRANCH  74  76
ATOM     76  C   UNL     1       4.325   6.617  -0.561  1.00  0.00     0.050 A 
ATOM     77  C   UNL     1       3.976   5.893  -1.703  1.00  0.00     0.030 A 
ATOM     78  C   UNL     1       5.647   6.620  -0.112  1.00  0.00     0.043 A 
ATOM     79  C   UNL     1       4.943   5.152  -2.382  1.00  0.00     0.042 A 
ATOM     80  C   UNL     1       6.632   5.883  -0.799  1.00  0.00     0.093 A 
ATOM     81  C   UNL     1       6.258   5.152  -1.926  1.00  0.00     0.135 A 
ATOM     82  F   UNL     1       7.159   4.419  -2.591  1.00  0.00    -0.206 F 
BRANCH  80  83
ATOM     83  C   UNL     1       8.059   5.903  -0.335  1.00  0.00     0.419 C 
ATOM     84  F   UNL     1       8.667   7.088  -0.619  1.00  0.00    -0.166 F 
ATOM     85  F   UNL     1       8.163   5.750   1.015  1.00  0.00    -0.166 F 
ATOM     86  F   UNL     1       8.850   4.936  -0.872  1.00  0.00    -0.166 F 
ENDBRANCH  80  83
ENDBRANCH  74  76
ENDBRANCH  71  74
ENDBRANCH  68  71
ENDBRANCH  63  65
ENDBRANCH  62  63
ENDBRANCH   1  62
TORSDOF 15
