REMARK SMILES C=C1C[C@]23CC[C@@H]4[C@](C)(CCC[C@@]4(C)C(=O)OCCOC(=O)c4ccc(-c5c6nc(c(-c7c(F)cccc7F)c7ccc([nH]7)c(-c7c(F)cccc7F)c7nc(c(-c8c(F)cccc8F)c8ccc5[nH]8)C=C7)C=C6)cc4)[C@@H]2CC[C@@]1(O)C3
REMARK SMILES IDX 19 1 18 2 17 3 15 4 16 5 13 6 1 7 2 8 3 9 80 10 4 11 79 12
REMARK SMILES IDX 82 13 5 14 77 15 78 16 6 17 8 18 7 19 10 20 9 21 11 22 12 23
REMARK SMILES IDX 14 24 81 25 20 27 21 28 22 29 23 30 24 31 76 32 25 33 75 34
REMARK SMILES IDX 26 35 27 36 28 37 69 38 29 39 74 40 68 41 70 42 30 43 73 44
REMARK SMILES IDX 67 45 66 46 31 48 57 49 40 50 56 51 41 52 44 53 55 54 71 55
REMARK SMILES IDX 42 56 43 57 54 59 72 60 45 61 32 62 33 63 38 64 34 65 35 66
REMARK SMILES IDX 37 67 39 68 36 69 58 70 59 71 64 72 60 73 61 74 63 75 65 76
REMARK SMILES IDX 62 77 46 78 47 79 52 80 48 81 49 82 51 83 53 84 50 85
REMARK H PARENT 81 26 70 47 44 58
REMARK Flexibility Score: inf
ROOT
ATOM      1  C   UNL     1       4.497   5.581   5.002  1.00  0.00     0.275 C 
ENDROOT
BRANCH   1   2
ATOM      2  C   UNL     1       3.374   4.763   4.367  1.00  0.00     0.274 C 
BRANCH   2   3
ATOM      3  O   UNL     1       2.108   5.032   4.994  1.00  0.00    -0.462 OA
BRANCH   3   4
ATOM      4  C   UNL     1       1.540   4.245   5.970  1.00  0.00     0.312 C 
ATOM      5  O   UNL     1       2.088   3.272   6.457  1.00  0.00    -0.252 OA
BRANCH   4   6
ATOM      6  C   UNL     1       0.046   4.657   6.086  1.00  0.00     0.069 C 
ATOM      7  C   UNL     1       0.196  -0.588  -0.022  1.00  0.00     0.011 C 
ATOM      8  C   UNL     1       0.187   0.416   0.865  1.00  0.00    -0.045 C 
ATOM      9  C   UNL     1      -1.011   0.833   1.713  1.00  0.00     0.040 C 
ATOM     10  C   UNL     1       1.402   1.131   1.390  1.00  0.00     0.086 C 
ATOM     11  C   UNL     1      -0.372   1.619   2.897  1.00  0.00    -0.020 C 
ATOM     12  C   UNL     1       1.467   2.594   0.895  1.00  0.00     0.040 C 
ATOM     13  C   UNL     1       1.074   1.043   2.864  1.00  0.00     0.047 C 
ATOM     14  C   UNL     1      -0.992   1.301   4.235  1.00  0.00     0.008 C 
ATOM     15  C   UNL     1      -0.222   3.181   2.684  1.00  0.00     0.002 C 
ATOM     16  C   UNL     1       0.206   3.461   1.221  1.00  0.00     0.008 C 
ATOM     17  C   UNL     1      -0.192   2.094   5.269  1.00  0.00     0.006 C 
ATOM     18  C   UNL     1      -0.855   4.266   3.705  1.00  0.00    -0.025 C 
ATOM     19  C   UNL     1      -0.444   3.632   5.033  1.00  0.00     0.012 C 
ATOM     20  C   UNL     1      -2.323   4.727   4.230  1.00  0.00     0.007 C 
ATOM     21  C   UNL     1      -0.256   5.611   3.202  1.00  0.00     0.012 C 
ATOM     22  C   UNL     1      -2.504   4.880   5.952  1.00  0.00     0.002 C 
ATOM     23  C   UNL     1      -1.211   4.525   6.961  1.00  0.00     0.019 C 
ATOM     24  C   UNL     1       0.133   6.223   6.110  1.00  0.00     0.024 C 
BRANCH  10  25
ATOM     25  O   UNL     1       2.619   0.447   1.167  1.00  0.00    -0.386 OA
ATOM     26  H   UNL     1       2.847   0.492   0.225  1.00  0.00     0.211 HD
ENDBRANCH  10  25
ENDBRANCH   4   6
ENDBRANCH   3   4
ENDBRANCH   2   3
ENDBRANCH   1   2
BRANCH   1  27
ATOM     27  O   UNL     1       4.758   5.108   6.327  1.00  0.00    -0.458 OA
BRANCH  27  28
ATOM     28  C   UNL     1       3.991   5.672   7.298  1.00  0.00     0.338 C 
ATOM     29  O   UNL     1       3.296   6.661   7.214  1.00  0.00    -0.246 OA
BRANCH  28  30
ATOM     30  C   UNL     1       3.933   4.713   8.416  1.00  0.00     0.060 A 
ATOM     31  C   UNL     1       2.668   4.344   8.898  1.00  0.00     0.016 A 
ATOM     32  C   UNL     1       5.089   4.105   8.898  1.00  0.00     0.016 A 
ATOM     33  C   UNL     1       2.540   3.284   9.779  1.00  0.00     0.010 A 
ATOM     34  C   UNL     1       4.970   3.106   9.855  1.00  0.00     0.010 A 
ATOM     35  C   UNL     1       3.696   2.690  10.282  1.00  0.00    -0.014 A 
BRANCH  35  36
ATOM     36  C   UNL     1       3.591   1.778  11.427  1.00  0.00     0.031 A 
ATOM     37  C   UNL     1       3.778   2.380  12.783  1.00  0.00     0.074 A 
ATOM     38  C   UNL     1       3.372   0.468  11.240  1.00  0.00     0.049 A 
ATOM     39  N   UNL     1       3.966   1.792  13.930  1.00  0.00    -0.248 NA
ATOM     40  C   UNL     1       3.772   3.854  12.848  1.00  0.00     0.031 C 
ATOM     41  C   UNL     1       3.098  -0.172   9.953  1.00  0.00     0.029 A 
ATOM     42  N   UNL     1       3.379  -0.563  12.139  1.00  0.00    -0.354 N 
ATOM     43  C   UNL     1       4.148   2.821  14.843  1.00  0.00     0.074 A 
ATOM     44  C   UNL     1       4.041   4.069  14.126  1.00  0.00     0.031 C 
ATOM     45  C   UNL     1       3.001  -1.500  10.142  1.00  0.00     0.029 A 
ATOM     46  C   UNL     1       3.263  -1.797  11.547  1.00  0.00     0.049 A 
ATOM     47  H   UNL     1       3.459  -0.434  13.112  1.00  0.00     0.167 HD
ATOM     48  C   UNL     1       4.401   2.713  16.165  1.00  0.00     0.037 A 
ATOM     49  C   UNL     1       3.414  -3.020  12.090  1.00  0.00     0.037 A 
ATOM     50  C   UNL     1       4.488   1.450  16.843  1.00  0.00     0.049 A 
ATOM     51  C   UNL     1       3.763  -3.107  13.554  1.00  0.00     0.074 A 
ATOM     52  C   UNL     1       4.703   1.204  18.184  1.00  0.00     0.029 A 
ATOM     53  N   UNL     1       4.367   0.217  16.216  1.00  0.00    -0.354 N 
ATOM     54  N   UNL     1       3.926  -2.140  14.427  1.00  0.00    -0.248 NA
ATOM     55  C   UNL     1       3.965  -4.453  14.107  1.00  0.00     0.031 C 
ATOM     56  C   UNL     1       4.770  -0.181  18.361  1.00  0.00     0.029 A 
ATOM     57  C   UNL     1       4.537  -0.797  17.140  1.00  0.00     0.049 A 
ATOM     58  H   UNL     1       4.188   0.084  15.257  1.00  0.00     0.167 HD
ATOM     59  C   UNL     1       4.219  -2.759  15.635  1.00  0.00     0.074 A 
ATOM     60  C   UNL     1       4.195  -4.186  15.384  1.00  0.00     0.031 C 
ATOM     61  C   UNL     1       4.487  -2.207  16.845  1.00  0.00     0.037 A 
BRANCH  48  62
ATOM     62  C   UNL     1       4.653   3.972  16.935  1.00  0.00     0.057 A 
ATOM     63  C   UNL     1       3.635   4.887  17.230  1.00  0.00     0.134 A 
ATOM     64  C   UNL     1       5.938   4.257  17.416  1.00  0.00     0.134 A 
ATOM     65  F   UNL     1       2.389   4.689  16.776  1.00  0.00    -0.206 F 
ATOM     66  C   UNL     1       3.887   6.043  17.972  1.00  0.00     0.040 A 
ATOM     67  C   UNL     1       6.197   5.396  18.180  1.00  0.00     0.040 A 
ATOM     68  F   UNL     1       6.961   3.428  17.159  1.00  0.00    -0.206 F 
ATOM     69  C   UNL     1       5.169   6.294  18.458  1.00  0.00     0.006 A 
ENDBRANCH  48  62
BRANCH  49  70
ATOM     70  C   UNL     1       3.295  -4.244  11.256  1.00  0.00     0.057 A 
ATOM     71  C   UNL     1       2.272  -5.173  11.478  1.00  0.00     0.134 A 
ATOM     72  C   UNL     1       4.221  -4.539  10.246  1.00  0.00     0.134 A 
ATOM     73  F   UNL     1       1.367  -4.960  12.444  1.00  0.00    -0.206 F 
ATOM     74  C   UNL     1       2.189  -6.361  10.749  1.00  0.00     0.040 A 
ATOM     75  C   UNL     1       4.132  -5.709   9.489  1.00  0.00     0.040 A 
ATOM     76  F   UNL     1       5.228  -3.694   9.980  1.00  0.00    -0.206 F 
ATOM     77  C   UNL     1       3.119  -6.630   9.748  1.00  0.00     0.006 A 
ENDBRANCH  49  70
BRANCH  61  78
ATOM     78  C   UNL     1       4.728  -3.150  17.984  1.00  0.00     0.057 A 
ATOM     79  C   UNL     1       5.909  -3.894  18.090  1.00  0.00     0.134 A 
ATOM     80  C   UNL     1       3.787  -3.271  19.014  1.00  0.00     0.134 A 
ATOM     81  F   UNL     1       6.843  -3.830  17.129  1.00  0.00    -0.206 F 
ATOM     82  C   UNL     1       6.136  -4.743  19.173  1.00  0.00     0.040 A 
ATOM     83  C   UNL     1       4.017  -4.092  20.116  1.00  0.00     0.040 A 
ATOM     84  F   UNL     1       2.641  -2.574  18.976  1.00  0.00    -0.206 F 
ATOM     85  C   UNL     1       5.192  -4.836  20.194  1.00  0.00     0.006 A 
ENDBRANCH  61  78
ENDBRANCH  35  36
ENDBRANCH  28  30
ENDBRANCH  27  28
ENDBRANCH   1  27
TORSDOF 12
