REMARK SMILES O=C(OCCOC(=O)[C@]1(NC(=O)C2CCN(C(=O)C3CC3)CC2)CCCc2ccccc21)c1ccc(-c2c3nc(c(-c4c(F)cccc4F)c4ccc([nH]4)c(-c4c(F)cccc4F)c4nc(c(-c5c(F)cccc5F)c5ccc2[nH]5)C=C4)C=C3)cc1
REMARK SMILES IDX 5 1 4 2 3 3 2 4 1 5 33 6 34 7 86 8 35 9 85 10 36 11 37 12
REMARK SMILES IDX 38 13 79 14 39 15 84 16 78 17 80 18 40 19 83 20 77 21 76 22
REMARK SMILES IDX 41 24 67 25 50 26 66 27 51 28 54 29 65 30 81 31 52 32 53 33
REMARK SMILES IDX 64 35 82 36 55 37 42 38 43 39 48 40 44 41 45 42 47 43 49 44
REMARK SMILES IDX 46 45 68 46 69 47 74 48 70 49 71 50 73 51 75 52 72 53 56 54
REMARK SMILES IDX 57 55 62 56 58 57 59 58 61 59 63 60 60 61 6 62 7 63 8 64
REMARK SMILES IDX 9 65 24 66 32 67 25 68 27 69 31 70 26 71 28 72 30 73 29 74
REMARK SMILES IDX 10 75 11 76 12 78 13 79 14 80 23 81 15 82 22 83 16 84 17 85
REMARK SMILES IDX 18 86 19 87 20 88 21 89
REMARK H PARENT 80 23 54 34 10 77
REMARK Flexibility Score: inf
ROOT
ATOM      1  C   UNL     1       4.245   0.660   2.435  1.00  0.00     0.274 C 
ENDROOT
BRANCH   1   2
ATOM      2  C   UNL     1       3.912   1.464   1.130  1.00  0.00     0.275 C 
BRANCH   2   3
ATOM      3  O   UNL     1       2.549   1.338   0.649  1.00  0.00    -0.458 OA
BRANCH   3   4
ATOM      4  C   UNL     1       2.068   0.567  -0.360  1.00  0.00     0.338 C 
ATOM      5  O   UNL     1       1.031   0.849  -0.947  1.00  0.00    -0.246 OA
BRANCH   4   6
ATOM      6  C   UNL     1       2.696  -0.737  -0.673  1.00  0.00     0.060 A 
ATOM      7  C   UNL     1       4.340  -1.198  -0.015  1.00  0.00     0.016 A 
ATOM      8  C   UNL     1       1.788  -1.974  -1.696  1.00  0.00     0.016 A 
ATOM      9  C   UNL     1       5.101  -2.780  -0.430  1.00  0.00     0.010 A 
ATOM     10  C   UNL     1       2.570  -3.604  -2.105  1.00  0.00     0.010 A 
ATOM     11  C   UNL     1       4.252  -3.967  -1.480  1.00  0.00    -0.014 A 
BRANCH  11  12
ATOM     12  C   UNL     1       5.088  -5.187  -1.747  1.00  0.00     0.031 A 
ATOM     13  C   UNL     1       5.595  -5.514  -3.128  1.00  0.00     0.074 A 
ATOM     14  C   UNL     1       5.651  -5.884  -0.727  1.00  0.00     0.049 A 
ATOM     15  N   UNL     1       6.556  -6.342  -3.454  1.00  0.00    -0.248 NA
ATOM     16  C   UNL     1       5.102  -4.722  -4.255  1.00  0.00     0.031 C 
ATOM     17  C   UNL     1       5.625  -5.565   0.703  1.00  0.00     0.029 A 
ATOM     18  N   UNL     1       6.299  -7.099  -0.737  1.00  0.00    -0.354 N 
ATOM     19  C   UNL     1       6.896  -6.038  -4.764  1.00  0.00     0.074 A 
ATOM     20  C   UNL     1       5.999  -4.994  -5.198  1.00  0.00     0.031 C 
ATOM     21  C   UNL     1       5.968  -6.642   1.423  1.00  0.00     0.029 A 
ATOM     22  C   UNL     1       6.301  -7.702   0.504  1.00  0.00     0.049 A 
ATOM     23  H   UNL     1       6.714  -7.493  -1.538  1.00  0.00     0.167 HD
ATOM     24  C   UNL     1       7.864  -6.599  -5.527  1.00  0.00     0.037 A 
ATOM     25  C   UNL     1       6.471  -8.990   0.841  1.00  0.00     0.037 A 
ATOM     26  C   UNL     1       8.516  -7.834  -5.179  1.00  0.00     0.049 A 
ATOM     27  C   UNL     1       7.072  -9.880  -0.188  1.00  0.00     0.074 A 
ATOM     28  C   UNL     1       9.362  -8.611  -5.948  1.00  0.00     0.029 A 
ATOM     29  N   UNL     1       8.285  -8.532  -4.003  1.00  0.00    -0.354 N 
ATOM     30  N   UNL     1       7.445  -9.564  -1.402  1.00  0.00    -0.248 NA
ATOM     31  C   UNL     1       7.373 -11.255   0.213  1.00  0.00     0.031 C 
ATOM     32  C   UNL     1       9.517  -9.843  -5.300  1.00  0.00     0.029 A 
ATOM     33  C   UNL     1       8.863  -9.786  -4.080  1.00  0.00     0.049 A 
ATOM     34  H   UNL     1       7.784  -8.186  -3.229  1.00  0.00     0.167 HD
ATOM     35  C   UNL     1       8.115 -10.670  -1.884  1.00  0.00     0.074 A 
ATOM     36  C   UNL     1       8.054 -11.679  -0.843  1.00  0.00     0.031 C 
ATOM     37  C   UNL     1       8.768 -10.802  -3.062  1.00  0.00     0.037 A 
BRANCH  24  38
ATOM     38  C   UNL     1       8.160  -5.990  -6.861  1.00  0.00     0.057 A 
ATOM     39  C   UNL     1       9.054  -4.921  -7.001  1.00  0.00     0.134 A 
ATOM     40  C   UNL     1       7.610  -6.530  -8.029  1.00  0.00     0.134 A 
ATOM     41  F   UNL     1       9.627  -4.366  -5.923  1.00  0.00    -0.206 F 
ATOM     42  C   UNL     1       9.380  -4.405  -8.260  1.00  0.00     0.040 A 
ATOM     43  C   UNL     1       7.931  -6.027  -9.290  1.00  0.00     0.040 A 
ATOM     44  F   UNL     1       6.764  -7.568  -7.959  1.00  0.00    -0.206 F 
ATOM     45  C   UNL     1       8.816  -4.957  -9.409  1.00  0.00     0.006 A 
ENDBRANCH  24  38
BRANCH  25  46
ATOM     46  C   UNL     1       6.019  -9.505   2.155  1.00  0.00     0.057 A 
ATOM     47  C   UNL     1       6.902  -9.855   3.176  1.00  0.00     0.134 A 
ATOM     48  C   UNL     1       4.651  -9.722   2.385  1.00  0.00     0.134 A 
ATOM     49  F   UNL     1       8.223  -9.706   3.004  1.00  0.00    -0.206 F 
ATOM     50  C   UNL     1       6.447 -10.413   4.375  1.00  0.00     0.040 A 
ATOM     51  C   UNL     1       4.179 -10.256   3.585  1.00  0.00     0.040 A 
ATOM     52  F   UNL     1       3.752  -9.442   1.429  1.00  0.00    -0.206 F 
ATOM     53  C   UNL     1       5.081 -10.611   4.583  1.00  0.00     0.006 A 
ENDBRANCH  25  46
BRANCH  37  54
ATOM     54  C   UNL     1       9.502 -12.084  -3.276  1.00  0.00     0.057 A 
ATOM     55  C   UNL     1       8.835 -13.302  -3.445  1.00  0.00     0.134 A 
ATOM     56  C   UNL     1      10.901 -12.091  -3.319  1.00  0.00     0.134 A 
ATOM     57  F   UNL     1       7.496 -13.360  -3.390  1.00  0.00    -0.206 F 
ATOM     58  C   UNL     1       9.539 -14.492  -3.616  1.00  0.00     0.040 A 
ATOM     59  C   UNL     1      11.614 -13.267  -3.531  1.00  0.00     0.040 A 
ATOM     60  F   UNL     1      11.595 -10.953  -3.163  1.00  0.00    -0.206 F 
ATOM     61  C   UNL     1      10.932 -14.474  -3.669  1.00  0.00     0.006 A 
ENDBRANCH  37  54
ENDBRANCH  11  12
ENDBRANCH   4   6
ENDBRANCH   3   4
ENDBRANCH   2   3
ENDBRANCH   1   2
BRANCH   1  62
ATOM     62  O   UNL     1       4.055  -0.791   2.357  1.00  0.00    -0.460 OA
BRANCH  62  63
ATOM     63  C   UNL     1       2.754  -1.159   2.276  1.00  0.00     0.336 C 
ATOM     64  O   UNL     1       1.918  -0.432   2.808  1.00  0.00    -0.249 OA
BRANCH  63  65
ATOM     65  C   UNL     1       2.373  -2.426   1.312  1.00  0.00     0.164 C 
ATOM     66  C   UNL     1       0.782  -2.317   1.183  1.00  0.00     0.046 C 
ATOM     67  C   UNL     1       2.420  -3.853   2.042  1.00  0.00    -0.008 A 
ATOM     68  C   UNL     1       0.014  -2.338   2.538  1.00  0.00     0.008 C 
ATOM     69  C   UNL     1       1.724  -4.126   3.228  1.00  0.00    -0.042 A 
ATOM     70  C   UNL     1       2.805  -5.033   1.391  1.00  0.00     0.007 A 
ATOM     71  C   UNL     1       0.412  -3.436   3.512  1.00  0.00     0.036 C 
ATOM     72  C   UNL     1       1.889  -5.353   3.928  1.00  0.00     0.004 A 
ATOM     73  C   UNL     1       2.820  -6.302   1.988  1.00  0.00     0.000 A 
ATOM     74  C   UNL     1       2.468  -6.444   3.307  1.00  0.00     0.000 A 
BRANCH  65  75
ATOM     75  N   UNL     1       3.084  -2.681  -0.317  1.00  0.00    -0.336 N 
ATOM     76  C   UNL     1       3.869  -1.885  -1.928  1.00  0.00     0.224 C 
ATOM     77  H   UNL     1       3.075  -3.653  -0.470  1.00  0.00     0.164 HD
ATOM     78  O   UNL     1       3.553  -2.059  -3.155  1.00  0.00    -0.275 OA
BRANCH  76  79
ATOM     79  C   UNL     1       5.219  -0.751  -2.118  1.00  0.00     0.082 C 
ATOM     80  C   UNL     1       4.778   0.550  -2.862  1.00  0.00     0.035 C 
ATOM     81  C   UNL     1       6.344  -1.477  -2.899  1.00  0.00     0.035 C 
ATOM     82  C   UNL     1       4.761   0.470  -4.393  1.00  0.00     0.120 C 
ATOM     83  C   UNL     1       6.052  -1.555  -4.382  1.00  0.00     0.120 C 
ATOM     84  N   UNL     1       5.958  -0.211  -4.880  1.00  0.00    -0.342 N 
ATOM     85  C   UNL     1       6.944   0.495  -5.551  1.00  0.00     0.225 C 
ATOM     86  O   UNL     1       6.793   1.682  -5.834  1.00  0.00    -0.275 OA
BRANCH  85  87
ATOM     87  C   UNL     1       8.242  -0.120  -5.984  1.00  0.00     0.079 C 
ATOM     88  C   UNL     1       8.993  -1.305  -5.437  1.00  0.00     0.014 C 
ATOM     89  C   UNL     1       8.269  -1.416  -6.755  1.00  0.00     0.014 C 
ENDBRANCH  85  87
ENDBRANCH  76  79
ENDBRANCH  65  75
ENDBRANCH  63  65
ENDBRANCH  62  63
ENDBRANCH   1  62
TORSDOF 14
