REMARK SMILES O=C(CS[C@@H]1CCS(=O)(=O)C1)Nc1nc(CC(=O)OCCOC(=O)c2ccc(-c3c4nc(c(-c5c(F)cccc5F)c5ccc([nH]5)c(-c5c(F)cccc5F)c5nc(c(-c6c(F)cccc6F)c6ccc3[nH]6)C=C5)C=C4)cc2)cs1
REMARK SMILES IDX 19 1 17 2 18 3 16 4 15 5 13 6 14 7 80 8 79 9 12 10 1 11 2 12
REMARK SMILES IDX 3 14 4 15 5 16 6 17 11 18 7 19 8 20 9 21 10 22 20 23 21 24
REMARK SMILES IDX 22 25 23 26 24 27 25 28 26 29 78 30 27 31 77 32 28 33 29 34
REMARK SMILES IDX 30 35 71 36 31 37 76 38 70 39 72 40 32 41 75 42 69 43 68 44
REMARK SMILES IDX 33 46 59 47 42 48 58 49 43 50 46 51 57 52 73 53 44 54 45 55
REMARK SMILES IDX 56 57 74 58 47 59 34 60 35 61 40 62 36 63 37 64 39 65 41 66
REMARK SMILES IDX 38 67 60 68 61 69 66 70 62 71 63 72 65 73 67 74 64 75 48 76
REMARK SMILES IDX 49 77 54 78 50 79 51 80 53 81 55 82 52 83
REMARK H PARENT 12 13 72 45 46 56
REMARK Flexibility Score: inf
ROOT
ATOM      1  O   UNL     1       1.033   6.024   1.343  1.00  0.00    -0.462 OA
ENDROOT
BRANCH   1   2
ATOM      2  C   UNL     1      -0.257   5.638   1.160  1.00  0.00     0.312 C 
ATOM      3  O   UNL     1      -1.233   6.347   1.392  1.00  0.00    -0.252 OA
BRANCH   2   4
ATOM      4  C   UNL     1      -0.408   4.220   0.670  1.00  0.00     0.179 C 
BRANCH   4   5
ATOM      5  C   UNL     1       0.778   3.640  -0.022  1.00  0.00     0.065 A 
ATOM      6  C   UNL     1       2.248   2.019  -0.285  1.00  0.00     0.189 A 
ATOM      7  N   UNL     1       1.212   2.401   0.411  1.00  0.00    -0.224 NA
ATOM      8  S   UNL     1       2.813   3.110  -1.462  1.00  0.00    -0.105 S 
ATOM      9  C   UNL     1       1.478   4.135  -1.109  1.00  0.00     0.093 A 
BRANCH   6  10
ATOM     10  N   UNL     1       2.921   0.834  -0.207  1.00  0.00    -0.301 N 
ATOM     11  O   UNL     1       1.177  -0.337   0.797  1.00  0.00    -0.274 OA
ATOM     12  C   UNL     1       2.331  -0.267   0.378  1.00  0.00     0.236 C 
ATOM     13  H   UNL     1       3.833   0.765  -0.571  1.00  0.00     0.172 HD
BRANCH  12  14
ATOM     14  C   UNL     1       3.227  -1.481   0.503  1.00  0.00     0.170 C 
BRANCH  14  15
ATOM     15  S   UNL     1       4.320  -1.769  -0.919  1.00  0.00    -0.148 SA
BRANCH  15  16
ATOM     16  C   UNL     1       3.122  -2.248  -2.242  1.00  0.00     0.063 C 
ATOM     17  C   UNL     1       3.911  -2.936  -3.373  1.00  0.00     0.031 C 
ATOM     18  C   UNL     1       2.437  -1.077  -2.946  1.00  0.00     0.151 C 
ATOM     19  C   UNL     1       4.696  -1.852  -4.119  1.00  0.00     0.138 C 
ATOM     20  S   UNL     1       3.685  -0.380  -4.010  1.00  0.00     0.151 S 
ATOM     21  O   UNL     1       4.401   0.630  -3.257  1.00  0.00    -0.229 OA
ATOM     22  O   UNL     1       3.095  -0.107  -5.303  1.00  0.00    -0.229 OA
ENDBRANCH  15  16
ENDBRANCH  14  15
ENDBRANCH  12  14
ENDBRANCH   6  10
ENDBRANCH   4   5
ENDBRANCH   2   4
ENDBRANCH   1   2
BRANCH   1  23
ATOM     23  C   UNL     1       1.232   7.371   1.811  1.00  0.00     0.274 C 
BRANCH  23  24
ATOM     24  C   UNL     1       1.518   8.318   0.647  1.00  0.00     0.275 C 
BRANCH  24  25
ATOM     25  O   UNL     1       0.396   8.354  -0.254  1.00  0.00    -0.458 OA
BRANCH  25  26
ATOM     26  C   UNL     1       0.632   7.897  -1.503  1.00  0.00     0.338 C 
ATOM     27  O   UNL     1       1.686   7.505  -1.972  1.00  0.00    -0.246 OA
BRANCH  26  28
ATOM     28  C   UNL     1      -0.619   7.901  -2.270  1.00  0.00     0.060 A 
ATOM     29  C   UNL     1      -1.525   6.847  -2.126  1.00  0.00     0.016 A 
ATOM     30  C   UNL     1      -0.830   8.895  -3.224  1.00  0.00     0.016 A 
ATOM     31  C   UNL     1      -2.643   6.773  -2.954  1.00  0.00     0.010 A 
ATOM     32  C   UNL     1      -1.970   8.840  -4.028  1.00  0.00     0.010 A 
ATOM     33  C   UNL     1      -2.875   7.770  -3.913  1.00  0.00    -0.014 A 
BRANCH  33  34
ATOM     34  C   UNL     1      -4.044   7.689  -4.821  1.00  0.00     0.031 A 
ATOM     35  C   UNL     1      -3.840   7.421  -6.286  1.00  0.00     0.074 A 
ATOM     36  C   UNL     1      -5.285   7.881  -4.337  1.00  0.00     0.049 A 
ATOM     37  N   UNL     1      -4.709   7.458  -7.263  1.00  0.00    -0.248 NA
ATOM     38  C   UNL     1      -2.474   7.073  -6.706  1.00  0.00     0.031 C 
ATOM     39  C   UNL     1      -5.618   8.116  -2.932  1.00  0.00     0.029 A 
ATOM     40  N   UNL     1      -6.496   7.925  -4.981  1.00  0.00    -0.354 N 
ATOM     41  C   UNL     1      -3.994   7.164  -8.417  1.00  0.00     0.074 A 
ATOM     42  C   UNL     1      -2.616   6.965  -8.020  1.00  0.00     0.031 C 
ATOM     43  C   UNL     1      -6.945   8.282  -2.819  1.00  0.00     0.029 A 
ATOM     44  C   UNL     1      -7.547   8.218  -4.147  1.00  0.00     0.049 A 
ATOM     45  H   UNL     1      -6.601   7.761  -5.946  1.00  0.00     0.167 HD
ATOM     46  C   UNL     1      -4.448   7.067  -9.689  1.00  0.00     0.037 A 
ATOM     47  C   UNL     1      -8.844   8.445  -4.428  1.00  0.00     0.037 A 
ATOM     48  C   UNL     1      -5.822   7.246 -10.078  1.00  0.00     0.049 A 
ATOM     49  C   UNL     1      -9.313   8.383  -5.854  1.00  0.00     0.074 A 
ATOM     50  C   UNL     1      -6.382   7.151 -11.340  1.00  0.00     0.029 A 
ATOM     51  N   UNL     1      -6.855   7.555  -9.205  1.00  0.00    -0.354 N 
ATOM     52  N   UNL     1      -8.627   8.114  -6.938  1.00  0.00    -0.248 NA
ATOM     53  C   UNL     1     -10.735   8.665  -6.097  1.00  0.00     0.031 C 
ATOM     54  C   UNL     1      -7.748   7.436 -11.237  1.00  0.00     0.029 A 
ATOM     55  C   UNL     1      -8.045   7.670  -9.904  1.00  0.00     0.049 A 
ATOM     56  H   UNL     1      -6.756   7.675  -8.233  1.00  0.00     0.167 HD
ATOM     57  C   UNL     1      -9.535   8.172  -7.987  1.00  0.00     0.074 A 
ATOM     58  C   UNL     1     -10.824   8.490  -7.408  1.00  0.00     0.031 C 
ATOM     59  C   UNL     1      -9.320   7.981  -9.311  1.00  0.00     0.037 A 
BRANCH  46  60
ATOM     60  C   UNL     1      -3.442   6.773 -10.762  1.00  0.00     0.057 A 
ATOM     61  C   UNL     1      -2.880   5.500 -10.921  1.00  0.00     0.134 A 
ATOM     62  C   UNL     1      -3.060   7.767 -11.672  1.00  0.00     0.134 A 
ATOM     63  F   UNL     1      -3.195   4.508 -10.075  1.00  0.00    -0.206 F 
ATOM     64  C   UNL     1      -1.961   5.231 -11.938  1.00  0.00     0.040 A 
ATOM     65  C   UNL     1      -2.160   7.505 -12.705  1.00  0.00     0.040 A 
ATOM     66  F   UNL     1      -3.565   9.007 -11.577  1.00  0.00    -0.206 F 
ATOM     67  C   UNL     1      -1.604   6.234 -12.837  1.00  0.00     0.006 A 
ENDBRANCH  46  60
BRANCH  47  68
ATOM     68  C   UNL     1      -9.790   8.778  -3.334  1.00  0.00     0.057 A 
ATOM     69  C   UNL     1     -10.779   7.874  -2.934  1.00  0.00     0.134 A 
ATOM     70  C   UNL     1      -9.732  10.009  -2.670  1.00  0.00     0.134 A 
ATOM     71  F   UNL     1     -10.898   6.689  -3.551  1.00  0.00    -0.206 F 
ATOM     72  C   UNL     1     -11.686   8.185  -1.920  1.00  0.00     0.040 A 
ATOM     73  C   UNL     1     -10.616  10.324  -1.637  1.00  0.00     0.040 A 
ATOM     74  F   UNL     1      -8.806  10.919  -3.007  1.00  0.00    -0.206 F 
ATOM     75  C   UNL     1     -11.601   9.412  -1.264  1.00  0.00     0.006 A 
ENDBRANCH  47  68
BRANCH  59  76
ATOM     76  C   UNL     1     -10.511   8.077 -10.216  1.00  0.00     0.057 A 
ATOM     77  C   UNL     1     -11.088   9.309 -10.548  1.00  0.00     0.134 A 
ATOM     78  C   UNL     1     -11.067   6.925 -10.787  1.00  0.00     0.134 A 
ATOM     79  F   UNL     1     -10.610  10.447 -10.022  1.00  0.00    -0.206 F 
ATOM     80  C   UNL     1     -12.190   9.390 -11.401  1.00  0.00     0.040 A 
ATOM     81  C   UNL     1     -12.154   6.995 -11.659  1.00  0.00     0.040 A 
ATOM     82  F   UNL     1     -10.556   5.715 -10.514  1.00  0.00    -0.206 F 
ATOM     83  C   UNL     1     -12.722   8.231 -11.964  1.00  0.00     0.006 A 
ENDBRANCH  59  76
ENDBRANCH  33  34
ENDBRANCH  26  28
ENDBRANCH  25  26
ENDBRANCH  24  25
ENDBRANCH  23  24
ENDBRANCH   1  23
TORSDOF 16
