REMARK SMILES COc1cc(Cl)c(C)cc1N1C(=O)C[C@H](Nc2cc(C(=O)OCCOC(=O)c3ccc(-c4c5nc(c(-c6c(F)cccc6F)c6ccc([nH]6)c(-c6c(F)cccc6F)c6nc(c(-c7c(F)cccc7F)c7ccc4[nH]7)C=C6)C=C5)cc3)ccc2C)C1=O
REMARK SMILES IDX 23 1 22 2 20 3 21 4 19 5 17 6 18 7 84 8 83 9 85 10 82 11
REMARK SMILES IDX 16 12 15 14 11 15 12 16 86 17 13 18 14 19 87 20 10 21 3 22
REMARK SMILES IDX 4 23 5 24 9 25 6 26 7 27 8 28 2 29 1 30 24 31 25 32 26 33
REMARK SMILES IDX 27 34 28 35 29 36 81 37 30 38 80 39 31 40 32 41 33 42 74 43
REMARK SMILES IDX 34 44 79 45 73 46 75 47 35 48 78 49 72 50 71 51 36 53 62 54
REMARK SMILES IDX 45 55 61 56 46 57 49 58 60 59 76 60 47 61 48 62 59 64 77 65
REMARK SMILES IDX 50 66 37 67 38 68 43 69 39 70 40 71 42 72 44 73 41 74 63 75
REMARK SMILES IDX 64 76 69 77 65 78 66 79 68 80 70 81 67 82 51 83 52 84 57 85
REMARK SMILES IDX 53 86 54 87 56 88 58 89 55 90
REMARK H PARENT 16 13 75 52 49 63
REMARK Flexibility Score: inf
ROOT
ATOM      1  C   UNL     1       3.522  -3.964  -6.111  1.00  0.00     0.275 C 
ENDROOT
BRANCH   1   2
ATOM      2  O   UNL     1       4.294  -3.510  -4.990  1.00  0.00    -0.458 OA
BRANCH   2   3
ATOM      3  C   UNL     1       5.546  -3.057  -5.221  1.00  0.00     0.338 C 
ATOM      4  O   UNL     1       6.126  -3.041  -6.278  1.00  0.00    -0.246 OA
BRANCH   3   5
ATOM      5  C   UNL     1       6.165  -2.659  -3.937  1.00  0.00     0.062 A 
ATOM      6  C   UNL     1       6.256  -1.205  -1.994  1.00  0.00     0.038 A 
ATOM      7  C   UNL     1       5.572  -1.694  -3.117  1.00  0.00     0.041 A 
ATOM      8  C   UNL     1       7.532  -1.720  -1.688  1.00  0.00    -0.028 A 
ATOM      9  C   UNL     1       8.080  -2.743  -2.477  1.00  0.00     0.006 A 
ATOM     10  C   UNL     1       8.331  -1.226  -0.509  1.00  0.00     0.046 C 
ATOM     11  C   UNL     1       7.418  -3.181  -3.619  1.00  0.00     0.016 A 
BRANCH   6  12
ATOM     12  N   UNL     1       5.804  -0.069  -1.332  1.00  0.00    -0.373 N 
ATOM     13  H   UNL     1       6.345   0.754  -1.348  1.00  0.00     0.161 HD
BRANCH  12  14
ATOM     14  C   UNL     1       4.534  -0.085  -0.613  1.00  0.00     0.179 C 
ATOM     15  N   UNL     1       3.136   1.799  -0.546  1.00  0.00    -0.245 N 
ATOM     16  C   UNL     1       3.887   1.867   0.599  1.00  0.00     0.236 C 
ATOM     17  C   UNL     1       3.472   0.726  -1.337  1.00  0.00     0.256 C 
ATOM     18  O   UNL     1       3.864   2.733   1.464  1.00  0.00    -0.274 OA
ATOM     19  C   UNL     1       4.709   0.623   0.721  1.00  0.00     0.136 C 
ATOM     20  O   UNL     1       3.093   0.485  -2.476  1.00  0.00    -0.272 OA
BRANCH  15  21
ATOM     21  C   UNL     1       2.134   2.739  -0.879  1.00  0.00     0.094 A 
ATOM     22  C   UNL     1       0.864   2.341  -1.326  1.00  0.00     0.144 A 
ATOM     23  C   UNL     1      -0.103   3.293  -1.656  1.00  0.00     0.069 A 
ATOM     24  C   UNL     1       0.190   4.653  -1.562  1.00  0.00     0.047 A 
ATOM     25  C   UNL     1       2.408   4.113  -0.771  1.00  0.00     0.035 A 
ATOM     26  Cl  UNL     1      -1.054   5.778  -1.973  1.00  0.00    -0.084 Cl
ATOM     27  C   UNL     1       1.460   5.081  -1.150  1.00  0.00    -0.030 A 
ATOM     28  C   UNL     1       1.840   6.536  -1.133  1.00  0.00     0.046 C 
BRANCH  22  29
ATOM     29  O   UNL     1       0.492   1.034  -1.498  1.00  0.00    -0.495 OA
ATOM     30  C   UNL     1       0.320   0.336  -0.269  1.00  0.00     0.278 C 
ENDBRANCH  22  29
ENDBRANCH  15  21
ENDBRANCH  12  14
ENDBRANCH   6  12
ENDBRANCH   3   5
ENDBRANCH   2   3
ENDBRANCH   1   2
BRANCH   1  31
ATOM     31  C   UNL     1       4.165  -4.814  -7.240  1.00  0.00     0.275 C 
BRANCH  31  32
ATOM     32  O   UNL     1       5.149  -5.891  -7.090  1.00  0.00    -0.458 OA
BRANCH  32  33
ATOM     33  C   UNL     1       5.898  -6.278  -6.035  1.00  0.00     0.338 C 
ATOM     34  O   UNL     1       7.054  -6.666  -6.122  1.00  0.00    -0.246 OA
BRANCH  33  35
ATOM     35  C   UNL     1       5.191  -6.341  -4.761  1.00  0.00     0.060 A 
ATOM     36  C   UNL     1       5.873  -6.122  -3.553  1.00  0.00     0.016 A 
ATOM     37  C   UNL     1       3.822  -6.556  -4.805  1.00  0.00     0.016 A 
ATOM     38  C   UNL     1       5.154  -6.028  -2.373  1.00  0.00     0.010 A 
ATOM     39  C   UNL     1       3.094  -6.262  -3.693  1.00  0.00     0.010 A 
ATOM     40  C   UNL     1       3.769  -6.103  -2.473  1.00  0.00    -0.014 A 
BRANCH  40  41
ATOM     41  C   UNL     1       2.908  -6.484  -1.376  1.00  0.00     0.031 A 
ATOM     42  C   UNL     1       2.213  -5.477  -0.579  1.00  0.00     0.074 A 
ATOM     43  C   UNL     1       2.594  -7.796  -1.495  1.00  0.00     0.049 A 
ATOM     44  N   UNL     1       1.639  -5.736   0.538  1.00  0.00    -0.248 NA
ATOM     45  C   UNL     1       2.123  -4.065  -0.950  1.00  0.00     0.031 C 
ATOM     46  C   UNL     1       1.437  -8.556  -1.073  1.00  0.00     0.029 A 
ATOM     47  N   UNL     1       3.407  -8.757  -2.117  1.00  0.00    -0.354 N 
ATOM     48  C   UNL     1       0.808  -4.674   0.826  1.00  0.00     0.074 A 
ATOM     49  C   UNL     1       1.258  -3.606  -0.033  1.00  0.00     0.031 C 
ATOM     50  C   UNL     1       1.734  -9.871  -1.164  1.00  0.00     0.029 A 
ATOM     51  C   UNL     1       3.145  -9.987  -1.524  1.00  0.00     0.049 A 
ATOM     52  H   UNL     1       4.049  -8.589  -2.845  1.00  0.00     0.167 HD
ATOM     53  C   UNL     1      -0.283  -4.909   1.613  1.00  0.00     0.037 A 
ATOM     54  C   UNL     1       4.141 -10.495  -0.736  1.00  0.00     0.037 A 
ATOM     55  C   UNL     1      -0.330  -6.331   1.949  1.00  0.00     0.049 A 
ATOM     56  C   UNL     1       3.749 -10.374   0.718  1.00  0.00     0.074 A 
ATOM     57  C   UNL     1      -0.982  -7.392   1.342  1.00  0.00     0.029 A 
ATOM     58  N   UNL     1       0.674  -6.878   2.735  1.00  0.00    -0.354 N 
ATOM     59  N   UNL     1       2.936  -9.464   1.188  1.00  0.00    -0.248 NA
ATOM     60  C   UNL     1       4.162 -11.337   1.731  1.00  0.00     0.031 C 
ATOM     61  C   UNL     1      -0.296  -8.583   1.704  1.00  0.00     0.029 A 
ATOM     62  C   UNL     1       0.766  -8.241   2.525  1.00  0.00     0.049 A 
ATOM     63  H   UNL     1       1.243  -6.367   3.355  1.00  0.00     0.167 HD
ATOM     64  C   UNL     1       2.653  -9.740   2.495  1.00  0.00     0.074 A 
ATOM     65  C   UNL     1       3.462 -10.909   2.796  1.00  0.00     0.031 C 
ATOM     66  C   UNL     1       1.763  -9.020   3.239  1.00  0.00     0.037 A 
BRANCH  53  67
ATOM     67  C   UNL     1      -1.460  -3.984   1.824  1.00  0.00     0.057 A 
ATOM     68  C   UNL     1      -2.730  -4.502   2.162  1.00  0.00     0.134 A 
ATOM     69  C   UNL     1      -1.418  -2.585   1.721  1.00  0.00     0.134 A 
ATOM     70  F   UNL     1      -2.922  -5.808   2.388  1.00  0.00    -0.206 F 
ATOM     71  C   UNL     1      -3.875  -3.707   2.298  1.00  0.00     0.040 A 
ATOM     72  C   UNL     1      -2.565  -1.777   1.819  1.00  0.00     0.040 A 
ATOM     73  F   UNL     1      -0.258  -1.931   1.578  1.00  0.00    -0.206 F 
ATOM     74  C   UNL     1      -3.802  -2.339   2.100  1.00  0.00     0.006 A 
ENDBRANCH  53  67
BRANCH  54  75
ATOM     75  C   UNL     1       5.507 -10.261  -1.325  1.00  0.00     0.057 A 
ATOM     76  C   UNL     1       5.774 -10.800  -2.605  1.00  0.00     0.134 A 
ATOM     77  C   UNL     1       6.382  -9.262  -0.885  1.00  0.00     0.134 A 
ATOM     78  F   UNL     1       4.983 -11.764  -3.105  1.00  0.00    -0.206 F 
ATOM     79  C   UNL     1       6.769 -10.290  -3.448  1.00  0.00     0.040 A 
ATOM     80  C   UNL     1       7.403  -8.759  -1.714  1.00  0.00     0.040 A 
ATOM     81  F   UNL     1       6.210  -8.678   0.308  1.00  0.00    -0.206 F 
ATOM     82  C   UNL     1       7.572  -9.243  -3.011  1.00  0.00     0.006 A 
ENDBRANCH  54  75
BRANCH  66  83
ATOM     83  C   UNL     1       1.714  -9.026   4.742  1.00  0.00     0.057 A 
ATOM     84  C   UNL     1       2.835  -9.274   5.543  1.00  0.00     0.134 A 
ATOM     85  C   UNL     1       0.566  -8.570   5.428  1.00  0.00     0.134 A 
ATOM     86  F   UNL     1       4.025  -9.590   5.012  1.00  0.00    -0.206 F 
ATOM     87  C   UNL     1       2.801  -9.144   6.933  1.00  0.00     0.040 A 
ATOM     88  C   UNL     1       0.546  -8.361   6.806  1.00  0.00     0.040 A 
ATOM     89  F   UNL     1      -0.573  -8.265   4.787  1.00  0.00    -0.206 F 
ATOM     90  C   UNL     1       1.661  -8.669   7.568  1.00  0.00     0.006 A 
ENDBRANCH  66  83
ENDBRANCH  40  41
ENDBRANCH  33  35
ENDBRANCH  32  33
ENDBRANCH  31  32
ENDBRANCH   1  31
TORSDOF 15
