REMARK SMILES CC(C)[C@H](NC(=O)Cc1cccc2ccccc12)C(=O)OCCOC(=O)c1ccc(-c2c3nc(c(-c4c(F)cccc4F)c4ccc([nH]4)c(-c4c(F)cccc4F)c4nc(c(-c5c(F)cccc5F)c5ccc2[nH]5)C=C4)C=C3)cc1
REMARK SMILES IDX 22 1 21 2 19 3 20 4 4 5 2 6 1 7 3 8 5 9 6 10 7 12 8 13 9 14
REMARK SMILES IDX 10 15 18 16 11 17 13 18 17 19 12 20 14 21 16 22 15 23 23 24
REMARK SMILES IDX 24 25 25 26 26 27 27 28 28 29 80 30 29 31 79 32 30 33 31 34
REMARK SMILES IDX 32 35 73 36 33 37 78 38 72 39 74 40 34 41 77 42 71 43 70 44
REMARK SMILES IDX 35 46 61 47 44 48 60 49 45 50 48 51 59 52 75 53 46 54 47 55
REMARK SMILES IDX 58 57 76 58 49 59 36 60 37 61 42 62 38 63 39 64 41 65 43 66
REMARK SMILES IDX 40 67 62 68 63 69 68 70 64 71 65 72 67 73 69 74 66 75 50 76
REMARK SMILES IDX 51 77 56 78 52 79 53 80 55 81 57 82 54 83
REMARK H PARENT 5 11 74 45 48 56
REMARK Flexibility Score: inf
ROOT
ATOM      1  C   UNL     1      -0.909  -4.789   2.760  1.00  0.00     0.274 C 
ENDROOT
BRANCH   1   2
ATOM      2  O   UNL     1      -0.416  -3.717   1.931  1.00  0.00    -0.461 OA
BRANCH   2   3
ATOM      3  C   UNL     1      -1.379  -2.894   1.439  1.00  0.00     0.329 C 
ATOM      4  O   UNL     1      -2.568  -2.969   1.736  1.00  0.00    -0.250 OA
BRANCH   3   5
ATOM      5  C   UNL     1      -0.870  -1.925   0.360  1.00  0.00     0.194 C 
BRANCH   5   6
ATOM      6  C   UNL     1      -1.349  -2.376  -1.052  1.00  0.00     0.017 C 
ATOM      7  C   UNL     1      -0.901  -3.797  -1.417  1.00  0.00     0.010 C 
ATOM      8  C   UNL     1      -2.863  -2.242  -1.234  1.00  0.00     0.010 C 
ENDBRANCH   5   6
BRANCH   5   9
ATOM      9  N   UNL     1       0.579  -1.664   0.292  1.00  0.00    -0.342 N 
ATOM     10  C   UNL     1       1.260  -0.527   0.638  1.00  0.00     0.225 C 
ATOM     11  H   UNL     1       1.131  -2.405  -0.047  1.00  0.00     0.164 HD
ATOM     12  O   UNL     1       2.362  -0.333   0.123  1.00  0.00    -0.275 OA
BRANCH  10  13
ATOM     13  C   UNL     1       0.702   0.394   1.691  1.00  0.00     0.136 C 
BRANCH  13  14
ATOM     14  C   UNL     1      -0.054   1.679   1.365  1.00  0.00    -0.031 A 
ATOM     15  C   UNL     1      -0.087   2.603   2.439  1.00  0.00     0.005 A 
ATOM     16  C   UNL     1      -0.861   1.946   0.218  1.00  0.00    -0.015 A 
ATOM     17  C   UNL     1      -0.927   3.710   2.435  1.00  0.00     0.001 A 
ATOM     18  C   UNL     1      -1.774   3.040   0.268  1.00  0.00    -0.018 A 
ATOM     19  C   UNL     1      -0.837   1.217  -0.993  1.00  0.00     0.009 A 
ATOM     20  C   UNL     1      -1.792   3.903   1.369  1.00  0.00     0.009 A 
ATOM     21  C   UNL     1      -2.674   3.274  -0.786  1.00  0.00     0.009 A 
ATOM     22  C   UNL     1      -1.733   1.464  -2.040  1.00  0.00     0.001 A 
ATOM     23  C   UNL     1      -2.669   2.478  -1.926  1.00  0.00     0.001 A 
ENDBRANCH  13  14
ENDBRANCH  10  13
ENDBRANCH   5   9
ENDBRANCH   3   5
ENDBRANCH   2   3
ENDBRANCH   1   2
BRANCH   1  24
ATOM     24  C   UNL     1      -0.814  -4.476   4.253  1.00  0.00     0.275 C 
BRANCH  24  25
ATOM     25  O   UNL     1      -1.563  -3.298   4.600  1.00  0.00    -0.458 OA
BRANCH  25  26
ATOM     26  C   UNL     1      -0.811  -2.200   4.829  1.00  0.00     0.338 C 
ATOM     27  O   UNL     1       0.405  -2.104   4.778  1.00  0.00    -0.246 OA
BRANCH  26  28
ATOM     28  C   UNL     1      -1.661  -1.041   5.121  1.00  0.00     0.060 A 
ATOM     29  C   UNL     1      -2.127  -0.272   4.056  1.00  0.00     0.016 A 
ATOM     30  C   UNL     1      -1.790  -0.587   6.434  1.00  0.00     0.016 A 
ATOM     31  C   UNL     1      -2.619   1.007   4.295  1.00  0.00     0.010 A 
ATOM     32  C   UNL     1      -2.346   0.675   6.674  1.00  0.00     0.010 A 
ATOM     33  C   UNL     1      -2.707   1.509   5.603  1.00  0.00    -0.014 A 
BRANCH  33  34
ATOM     34  C   UNL     1      -3.074   2.934   5.828  1.00  0.00     0.031 A 
ATOM     35  C   UNL     1      -2.081   3.885   6.448  1.00  0.00     0.074 A 
ATOM     36  C   UNL     1      -4.267   3.408   5.421  1.00  0.00     0.049 A 
ATOM     37  N   UNL     1      -2.256   5.123   6.838  1.00  0.00    -0.248 NA
ATOM     38  C   UNL     1      -0.715   3.380   6.660  1.00  0.00     0.031 C 
ATOM     39  C   UNL     1      -5.309   2.628   4.755  1.00  0.00     0.029 A 
ATOM     40  N   UNL     1      -4.789   4.676   5.486  1.00  0.00    -0.354 N 
ATOM     41  C   UNL     1      -1.051   5.517   7.407  1.00  0.00     0.074 A 
ATOM     42  C   UNL     1      -0.140   4.400   7.282  1.00  0.00     0.031 C 
ATOM     43  C   UNL     1      -6.321   3.445   4.420  1.00  0.00     0.029 A 
ATOM     44  C   UNL     1      -6.025   4.790   4.902  1.00  0.00     0.049 A 
ATOM     45  H   UNL     1      -4.321   5.431   5.912  1.00  0.00     0.167 HD
ATOM     46  C   UNL     1      -0.737   6.697   7.993  1.00  0.00     0.037 A 
ATOM     47  C   UNL     1      -6.839   5.854   4.781  1.00  0.00     0.037 A 
ATOM     48  C   UNL     1      -1.608   7.838   8.061  1.00  0.00     0.049 A 
ATOM     49  C   UNL     1      -6.451   7.167   5.391  1.00  0.00     0.074 A 
ATOM     50  C   UNL     1      -1.386   9.064   8.666  1.00  0.00     0.029 A 
ATOM     51  N   UNL     1      -2.858   7.906   7.468  1.00  0.00    -0.354 N 
ATOM     52  N   UNL     1      -5.358   7.484   6.038  1.00  0.00    -0.248 NA
ATOM     53  C   UNL     1      -7.427   8.262   5.281  1.00  0.00     0.031 C 
ATOM     54  C   UNL     1      -2.503   9.877   8.435  1.00  0.00     0.029 A 
ATOM     55  C   UNL     1      -3.412   9.157   7.678  1.00  0.00     0.049 A 
ATOM     56  H   UNL     1      -3.288   7.173   6.971  1.00  0.00     0.167 HD
ATOM     57  C   UNL     1      -5.523   8.803   6.435  1.00  0.00     0.074 A 
ATOM     58  C   UNL     1      -6.806   9.240   5.926  1.00  0.00     0.031 C 
ATOM     59  C   UNL     1      -4.692   9.574   7.174  1.00  0.00     0.037 A 
BRANCH  46  60
ATOM     60  C   UNL     1       0.606   6.801   8.644  1.00  0.00     0.057 A 
ATOM     61  C   UNL     1       1.759   7.108   7.915  1.00  0.00     0.134 A 
ATOM     62  C   UNL     1       0.735   6.627  10.028  1.00  0.00     0.134 A 
ATOM     63  F   UNL     1       1.699   7.271   6.585  1.00  0.00    -0.206 F 
ATOM     64  C   UNL     1       3.001   7.232   8.541  1.00  0.00     0.040 A 
ATOM     65  C   UNL     1       1.968   6.759  10.667  1.00  0.00     0.040 A 
ATOM     66  F   UNL     1      -0.336   6.330  10.779  1.00  0.00    -0.206 F 
ATOM     67  C   UNL     1       3.106   7.062   9.922  1.00  0.00     0.006 A 
ENDBRANCH  46  60
BRANCH  47  68
ATOM     68  C   UNL     1      -8.124   5.710   4.063  1.00  0.00     0.057 A 
ATOM     69  C   UNL     1      -8.264   6.167   2.749  1.00  0.00     0.134 A 
ATOM     70  C   UNL     1      -9.230   5.102   4.666  1.00  0.00     0.134 A 
ATOM     71  F   UNL     1      -7.239   6.771   2.132  1.00  0.00    -0.206 F 
ATOM     72  C   UNL     1      -9.466   6.024   2.056  1.00  0.00     0.040 A 
ATOM     73  C   UNL     1     -10.434   4.942   3.980  1.00  0.00     0.040 A 
ATOM     74  F   UNL     1      -9.149   4.648   5.925  1.00  0.00    -0.206 F 
ATOM     75  C   UNL     1     -10.553   5.405   2.671  1.00  0.00     0.006 A 
ENDBRANCH  47  68
BRANCH  59  76
ATOM     76  C   UNL     1      -5.158  10.958   7.491  1.00  0.00     0.057 A 
ATOM     77  C   UNL     1      -6.019  11.199   8.568  1.00  0.00     0.134 A 
ATOM     78  C   UNL     1      -4.731  12.055   6.736  1.00  0.00     0.134 A 
ATOM     79  F   UNL     1      -6.469  10.183   9.319  1.00  0.00    -0.206 F 
ATOM     80  C   UNL     1      -6.449  12.489   8.879  1.00  0.00     0.040 A 
ATOM     81  C   UNL     1      -5.148  13.351   7.042  1.00  0.00     0.040 A 
ATOM     82  F   UNL     1      -3.908  11.883   5.691  1.00  0.00    -0.206 F 
ATOM     83  C   UNL     1      -6.010  13.570   8.115  1.00  0.00     0.006 A 
ENDBRANCH  59  76
ENDBRANCH  33  34
ENDBRANCH  26  28
ENDBRANCH  25  26
ENDBRANCH  24  25
ENDBRANCH   1  24
TORSDOF 15
