REMARK SMILES CCCC[C@H](C(=O)OCCOC(=O)c1ccc(-c2c3nc(c(-c4c(F)cccc4F)c4ccc([nH]4)c(-c4c(F)cccc4F)c4nc(c(-c5c(F)cccc5F)c5ccc2[nH]5)C=C4)C=C3)cc1)[C@H](C)O
REMARK SMILES IDX 9 1 8 2 6 3 7 4 5 5 4 6 3 7 2 8 1 9 68 10 69 11 70 12 10 14
REMARK SMILES IDX 11 15 12 16 13 17 14 18 15 19 67 20 16 21 66 22 17 23 18 24
REMARK SMILES IDX 19 25 60 26 20 27 65 28 59 29 61 30 21 31 64 32 58 33 57 34
REMARK SMILES IDX 22 36 48 37 31 38 47 39 32 40 35 41 46 42 62 43 33 44 34 45
REMARK SMILES IDX 45 47 63 48 36 49 23 50 24 51 29 52 25 53 26 54 28 55 30 56
REMARK SMILES IDX 27 57 49 58 50 59 55 60 51 61 52 62 54 63 56 64 53 65 37 66
REMARK SMILES IDX 38 67 43 68 39 69 40 70 42 71 44 72 41 73
REMARK H PARENT 70 13 61 35 35 46
REMARK Flexibility Score: inf
ROOT
ATOM      1  C   UNL     1      -1.885   6.968  -1.217  1.00  0.00     0.274 C 
ENDROOT
BRANCH   1   2
ATOM      2  O   UNL     1      -2.059   5.543  -1.097  1.00  0.00    -0.462 OA
BRANCH   2   3
ATOM      3  C   UNL     1      -1.036   4.884  -0.488  1.00  0.00     0.311 C 
ATOM      4  O   UNL     1      -0.059   5.428   0.013  1.00  0.00    -0.252 OA
BRANCH   3   5
ATOM      5  C   UNL     1      -1.245   3.375  -0.513  1.00  0.00     0.127 C 
BRANCH   5   6
ATOM      6  C   UNL     1       0.134   2.694  -0.692  1.00  0.00     0.018 C 
BRANCH   6   7
ATOM      7  C   UNL     1       0.544   2.478  -2.160  1.00  0.00     0.001 C 
BRANCH   7   8
ATOM      8  C   UNL     1       0.503   3.690  -3.091  1.00  0.00    -0.003 C 
ATOM      9  C   UNL     1       1.602   4.707  -2.832  1.00  0.00     0.004 C 
ENDBRANCH   7   8
ENDBRANCH   6   7
ENDBRANCH   5   6
BRANCH   5  10
ATOM     10  C   UNL     1      -2.046   2.994   0.757  1.00  0.00     0.125 C 
ATOM     11  C   UNL     1      -1.410   1.997   1.721  1.00  0.00     0.039 C 
BRANCH  10  12
ATOM     12  O   UNL     1      -3.317   2.462   0.358  1.00  0.00    -0.393 OA
ATOM     13  H   UNL     1      -3.182   1.636  -0.131  1.00  0.00     0.210 HD
ENDBRANCH  10  12
ENDBRANCH   5  10
ENDBRANCH   3   5
ENDBRANCH   2   3
ENDBRANCH   1   2
BRANCH   1  14
ATOM     14  C   UNL     1      -2.504   7.717  -0.038  1.00  0.00     0.275 C 
BRANCH  14  15
ATOM     15  O   UNL     1      -1.841   7.350   1.185  1.00  0.00    -0.458 OA
BRANCH  15  16
ATOM     16  C   UNL     1      -2.644   6.915   2.181  1.00  0.00     0.338 C 
ATOM     17  O   UNL     1      -3.861   6.866   2.188  1.00  0.00    -0.246 OA
BRANCH  16  18
ATOM     18  C   UNL     1      -1.827   6.510   3.338  1.00  0.00     0.060 A 
ATOM     19  C   UNL     1      -0.884   5.488   3.221  1.00  0.00     0.016 A 
ATOM     20  C   UNL     1      -2.090   7.081   4.583  1.00  0.00     0.016 A 
ATOM     21  C   UNL     1      -0.254   4.983   4.354  1.00  0.00     0.010 A 
ATOM     22  C   UNL     1      -1.394   6.633   5.708  1.00  0.00     0.010 A 
ATOM     23  C   UNL     1      -0.489   5.562   5.607  1.00  0.00    -0.014 A 
BRANCH  23  24
ATOM     24  C   UNL     1       0.200   5.039   6.812  1.00  0.00     0.031 A 
ATOM     25  C   UNL     1      -0.597   4.433   7.931  1.00  0.00     0.074 A 
ATOM     26  C   UNL     1       1.542   5.102   6.895  1.00  0.00     0.049 A 
ATOM     27  N   UNL     1      -0.205   4.085   9.130  1.00  0.00    -0.248 NA
ATOM     28  C   UNL     1      -2.025   4.192   7.672  1.00  0.00     0.031 C 
ATOM     29  C   UNL     1       2.433   5.619   5.854  1.00  0.00     0.029 A 
ATOM     30  N   UNL     1       2.393   4.726   7.903  1.00  0.00    -0.354 N 
ATOM     31  C   UNL     1      -1.343   3.632   9.784  1.00  0.00     0.074 A 
ATOM     32  C   UNL     1      -2.442   3.743   8.848  1.00  0.00     0.031 C 
ATOM     33  C   UNL     1       3.704   5.503   6.265  1.00  0.00     0.029 A 
ATOM     34  C   UNL     1       3.714   4.981   7.627  1.00  0.00     0.049 A 
ATOM     35  H   UNL     1       2.087   4.312   8.742  1.00  0.00     0.167 HD
ATOM     36  C   UNL     1      -1.458   3.173  11.052  1.00  0.00     0.037 A 
ATOM     37  C   UNL     1       4.808   4.855   8.400  1.00  0.00     0.037 A 
ATOM     38  C   UNL     1      -0.352   3.028  11.963  1.00  0.00     0.049 A 
ATOM     39  C   UNL     1       4.650   4.382   9.815  1.00  0.00     0.074 A 
ATOM     40  C   UNL     1      -0.361   2.563  13.267  1.00  0.00     0.029 A 
ATOM     41  N   UNL     1       0.964   3.337  11.657  1.00  0.00    -0.354 N 
ATOM     42  N   UNL     1       3.560   4.017  10.445  1.00  0.00    -0.248 NA
ATOM     43  C   UNL     1       5.867   4.332  10.635  1.00  0.00     0.031 C 
ATOM     44  C   UNL     1       0.948   2.617  13.758  1.00  0.00     0.029 A 
ATOM     45  C   UNL     1       1.776   3.086  12.751  1.00  0.00     0.049 A 
ATOM     46  H   UNL     1       1.276   3.683  10.790  1.00  0.00     0.167 HD
ATOM     47  C   UNL     1       3.956   3.699  11.735  1.00  0.00     0.074 A 
ATOM     48  C   UNL     1       5.392   3.888  11.790  1.00  0.00     0.031 C 
ATOM     49  C   UNL     1       3.200   3.295  12.784  1.00  0.00     0.037 A 
BRANCH  36  50
ATOM     50  C   UNL     1      -2.833   2.830  11.541  1.00  0.00     0.057 A 
ATOM     51  C   UNL     1      -3.490   1.657  11.151  1.00  0.00     0.134 A 
ATOM     52  C   UNL     1      -3.495   3.676  12.440  1.00  0.00     0.134 A 
ATOM     53  F   UNL     1      -2.915   0.814  10.280  1.00  0.00    -0.206 F 
ATOM     54  C   UNL     1      -4.766   1.345  11.625  1.00  0.00     0.040 A 
ATOM     55  C   UNL     1      -4.762   3.365  12.936  1.00  0.00     0.040 A 
ATOM     56  F   UNL     1      -2.919   4.814  12.854  1.00  0.00    -0.206 F 
ATOM     57  C   UNL     1      -5.403   2.198  12.525  1.00  0.00     0.006 A 
ENDBRANCH  36  50
BRANCH  37  58
ATOM     58  C   UNL     1       6.136   5.236   7.863  1.00  0.00     0.057 A 
ATOM     59  C   UNL     1       7.101   4.267   7.568  1.00  0.00     0.134 A 
ATOM     60  C   UNL     1       6.463   6.574   7.609  1.00  0.00     0.134 A 
ATOM     61  F   UNL     1       6.853   2.972   7.811  1.00  0.00    -0.206 F 
ATOM     62  C   UNL     1       8.345   4.615   7.040  1.00  0.00     0.040 A 
ATOM     63  C   UNL     1       7.693   6.934   7.059  1.00  0.00     0.040 A 
ATOM     64  F   UNL     1       5.579   7.548   7.870  1.00  0.00    -0.206 F 
ATOM     65  C   UNL     1       8.640   5.952   6.775  1.00  0.00     0.006 A 
ENDBRANCH  37  58
BRANCH  49  66
ATOM     66  C   UNL     1       3.918   3.036  14.072  1.00  0.00     0.057 A 
ATOM     67  C   UNL     1       4.348   4.086  14.891  1.00  0.00     0.134 A 
ATOM     68  C   UNL     1       4.165   1.728  14.504  1.00  0.00     0.134 A 
ATOM     69  F   UNL     1       4.153   5.361  14.521  1.00  0.00    -0.206 F 
ATOM     70  C   UNL     1       5.015   3.844  16.092  1.00  0.00     0.040 A 
ATOM     71  C   UNL     1       4.816   1.473  15.711  1.00  0.00     0.040 A 
ATOM     72  F   UNL     1       3.774   0.680  13.762  1.00  0.00    -0.206 F 
ATOM     73  C   UNL     1       5.247   2.533  16.506  1.00  0.00     0.006 A 
ENDBRANCH  49  66
ENDBRANCH  23  24
ENDBRANCH  16  18
ENDBRANCH  15  16
ENDBRANCH  14  15
ENDBRANCH   1  14
TORSDOF 16
