REMARK SMILES O=C(OCCOC(=O)c1nn(Cc2ccc(F)cc2)c2c1CN(C(=O)[C@H]1CC1(F)F)CC2)c1ccc(-c2c3nc(c(-c4c(F)cccc4F)c4ccc([nH]4)c(-c4c(F)cccc4F)c4nc(c(-c5c(F)cccc5F)c5ccc2[nH]5)C=C4)C=C3)cc1
REMARK SMILES IDX 4 1 3 2 2 3 1 4 33 5 34 6 86 7 35 8 85 9 36 10 37 11 38 12
REMARK SMILES IDX 79 13 39 14 84 15 78 16 80 17 40 18 83 19 77 20 76 21 41 23
REMARK SMILES IDX 67 24 50 25 66 26 51 27 54 28 65 29 81 30 52 31 53 32 64 34
REMARK SMILES IDX 82 35 55 36 42 37 43 38 48 39 44 40 45 41 47 42 49 43 46 44
REMARK SMILES IDX 68 45 69 46 74 47 70 48 71 49 73 50 75 51 72 52 56 53 57 54
REMARK SMILES IDX 62 55 58 56 59 57 61 58 63 59 60 60 5 61 6 62 7 63 8 64 9 65
REMARK SMILES IDX 10 66 21 67 11 68 20 69 22 70 32 71 23 72 31 73 12 74 13 75
REMARK SMILES IDX 14 76 19 77 15 78 18 79 16 80 17 81 24 82 25 83 26 84 27 85
REMARK SMILES IDX 28 86 29 87 30 88
REMARK H PARENT 80 22 54 33
REMARK Flexibility Score: inf
ROOT
ATOM      1  C   UNL     1      -5.598  -2.895   3.765  1.00  0.00     0.275 C 
ENDROOT
BRANCH   1   2
ATOM      2  O   UNL     1      -4.418  -2.177   4.174  1.00  0.00    -0.458 OA
BRANCH   2   3
ATOM      3  C   UNL     1      -4.336  -0.867   3.874  1.00  0.00     0.338 C 
ATOM      4  O   UNL     1      -4.918   0.030   4.454  1.00  0.00    -0.246 OA
BRANCH   3   5
ATOM      5  C   UNL     1      -3.365  -0.654   2.779  1.00  0.00     0.060 A 
ATOM      6  C   UNL     1      -3.106  -1.639   1.817  1.00  0.00     0.016 A 
ATOM      7  C   UNL     1      -2.761   0.596   2.681  1.00  0.00     0.016 A 
ATOM      8  C   UNL     1      -2.207  -1.390   0.786  1.00  0.00     0.010 A 
ATOM      9  C   UNL     1      -1.912   0.863   1.615  1.00  0.00     0.010 A 
ATOM     10  C   UNL     1      -1.591  -0.139   0.687  1.00  0.00    -0.014 A 
BRANCH  10  11
ATOM     11  C   UNL     1      -0.657   0.110  -0.423  1.00  0.00     0.031 A 
ATOM     12  C   UNL     1      -1.110  -0.179  -1.835  1.00  0.00     0.074 A 
ATOM     13  C   UNL     1       0.518   0.749  -0.221  1.00  0.00     0.049 A 
ATOM     14  N   UNL     1      -0.409  -0.595  -2.846  1.00  0.00    -0.248 NA
ATOM     15  C   UNL     1      -2.520   0.060  -2.186  1.00  0.00     0.031 C 
ATOM     16  C   UNL     1       1.055   1.316   1.023  1.00  0.00     0.029 A 
ATOM     17  N   UNL     1       1.449   1.121  -1.145  1.00  0.00    -0.354 N 
ATOM     18  C   UNL     1      -1.237  -0.522  -3.969  1.00  0.00     0.074 A 
ATOM     19  C   UNL     1      -2.521  -0.059  -3.515  1.00  0.00     0.031 C 
ATOM     20  C   UNL     1       2.082   2.144   0.737  1.00  0.00     0.029 A 
ATOM     21  C   UNL     1       2.383   2.031  -0.676  1.00  0.00     0.049 A 
ATOM     22  H   UNL     1       1.456   0.774  -2.066  1.00  0.00     0.167 HD
ATOM     23  C   UNL     1      -0.825  -0.827  -5.229  1.00  0.00     0.037 A 
ATOM     24  C   UNL     1       3.336   2.670  -1.392  1.00  0.00     0.037 A 
ATOM     25  C   UNL     1       0.223  -1.803  -5.216  1.00  0.00     0.049 A 
ATOM     26  C   UNL     1       3.561   1.896  -2.631  1.00  0.00     0.074 A 
ATOM     27  C   UNL     1       0.301  -3.102  -4.751  1.00  0.00     0.029 A 
ATOM     28  N   UNL     1       1.519  -1.420  -5.437  1.00  0.00    -0.354 N 
ATOM     29  N   UNL     1       4.101   0.711  -2.670  1.00  0.00    -0.248 NA
ATOM     30  C   UNL     1       2.826   2.292  -3.821  1.00  0.00     0.031 C 
ATOM     31  C   UNL     1       1.610  -3.208  -4.201  1.00  0.00     0.029 A 
ATOM     32  C   UNL     1       2.245  -1.984  -4.419  1.00  0.00     0.049 A 
ATOM     33  H   UNL     1       1.858  -0.859  -6.172  1.00  0.00     0.167 HD
ATOM     34  C   UNL     1       3.441   0.057  -3.696  1.00  0.00     0.074 A 
ATOM     35  C   UNL     1       2.750   1.110  -4.435  1.00  0.00     0.031 C 
ATOM     36  C   UNL     1       3.293  -1.300  -3.700  1.00  0.00     0.037 A 
BRANCH  23  37
ATOM     37  C   UNL     1      -1.245  -0.091  -6.468  1.00  0.00     0.057 A 
ATOM     38  C   UNL     1      -1.665   1.252  -6.444  1.00  0.00     0.134 A 
ATOM     39  C   UNL     1      -0.940  -0.608  -7.741  1.00  0.00     0.134 A 
ATOM     40  F   UNL     1      -1.946   1.879  -5.291  1.00  0.00    -0.206 F 
ATOM     41  C   UNL     1      -1.735   2.039  -7.599  1.00  0.00     0.040 A 
ATOM     42  C   UNL     1      -0.982   0.177  -8.900  1.00  0.00     0.040 A 
ATOM     43  F   UNL     1      -0.521  -1.874  -7.888  1.00  0.00    -0.206 F 
ATOM     44  C   UNL     1      -1.366   1.511  -8.829  1.00  0.00     0.006 A 
ENDBRANCH  23  37
BRANCH  24  45
ATOM     45  C   UNL     1       3.894   4.021  -1.184  1.00  0.00     0.057 A 
ATOM     46  C   UNL     1       3.120   5.054  -0.627  1.00  0.00     0.134 A 
ATOM     47  C   UNL     1       5.107   4.402  -1.770  1.00  0.00     0.134 A 
ATOM     48  F   UNL     1       1.905   4.808  -0.112  1.00  0.00    -0.206 F 
ATOM     49  C   UNL     1       3.522   6.392  -0.663  1.00  0.00     0.040 A 
ATOM     50  C   UNL     1       5.518   5.740  -1.822  1.00  0.00     0.040 A 
ATOM     51  F   UNL     1       5.893   3.492  -2.362  1.00  0.00    -0.206 F 
ATOM     52  C   UNL     1       4.719   6.741  -1.276  1.00  0.00     0.006 A 
ENDBRANCH  24  45
BRANCH  36  53
ATOM     53  C   UNL     1       4.039  -2.115  -2.676  1.00  0.00     0.057 A 
ATOM     54  C   UNL     1       4.821  -3.193  -3.107  1.00  0.00     0.134 A 
ATOM     55  C   UNL     1       3.844  -1.995  -1.292  1.00  0.00     0.134 A 
ATOM     56  F   UNL     1       5.000  -3.417  -4.419  1.00  0.00    -0.206 F 
ATOM     57  C   UNL     1       5.381  -4.107  -2.209  1.00  0.00     0.040 A 
ATOM     58  C   UNL     1       4.428  -2.880  -0.380  1.00  0.00     0.040 A 
ATOM     59  F   UNL     1       3.026  -1.068  -0.783  1.00  0.00    -0.206 F 
ATOM     60  C   UNL     1       5.191  -3.947  -0.840  1.00  0.00     0.006 A 
ENDBRANCH  36  53
ENDBRANCH  10  11
ENDBRANCH   3   5
ENDBRANCH   2   3
ENDBRANCH   1   2
BRANCH   1  61
ATOM     61  C   UNL     1      -6.811  -2.091   3.281  1.00  0.00     0.275 C 
BRANCH  61  62
ATOM     62  O   UNL     1      -6.533  -1.415   2.039  1.00  0.00    -0.457 OA
BRANCH  62  63
ATOM     63  C   UNL     1      -6.948  -0.108   1.934  1.00  0.00     0.359 C 
ATOM     64  O   UNL     1      -7.431   0.552   2.842  1.00  0.00    -0.244 OA
BRANCH  63  65
ATOM     65  C   UNL     1      -6.795   0.411   0.570  1.00  0.00     0.175 A 
ATOM     66  N   UNL     1      -7.458  -0.178  -0.448  1.00  0.00    -0.165 NA
ATOM     67  C   UNL     1      -6.069   1.551   0.103  1.00  0.00     0.028 A 
ATOM     68  N   UNL     1      -7.199   0.587  -1.526  1.00  0.00    -0.264 N 
ATOM     69  C   UNL     1      -6.276   1.550  -1.259  1.00  0.00     0.046 A 
ATOM     70  C   UNL     1      -5.226   2.565   0.801  1.00  0.00     0.159 C 
ATOM     71  C   UNL     1      -5.657   2.496  -2.204  1.00  0.00     0.078 C 
ATOM     72  N   UNL     1      -4.510   3.454  -0.161  1.00  0.00    -0.337 N 
ATOM     73  C   UNL     1      -4.373   3.041  -1.567  1.00  0.00     0.126 C 
BRANCH  68  74
ATOM     74  C   UNL     1      -8.042   0.488  -2.713  1.00  0.00     0.180 C 
BRANCH  74  75
ATOM     75  C   UNL     1      -7.912  -0.828  -3.433  1.00  0.00    -0.026 A 
ATOM     76  C   UNL     1      -8.550  -1.972  -2.923  1.00  0.00     0.008 A 
ATOM     77  C   UNL     1      -7.193  -0.924  -4.634  1.00  0.00     0.008 A 
ATOM     78  C   UNL     1      -8.486  -3.184  -3.609  1.00  0.00     0.039 A 
ATOM     79  C   UNL     1      -7.134  -2.138  -5.320  1.00  0.00     0.039 A 
ATOM     80  C   UNL     1      -7.783  -3.254  -4.804  1.00  0.00     0.123 A 
ATOM     81  F   UNL     1      -7.735  -4.413  -5.473  1.00  0.00    -0.207 F 
ENDBRANCH  74  75
ENDBRANCH  68  74
BRANCH  72  82
ATOM     82  C   UNL     1      -3.711   4.459   0.390  1.00  0.00     0.232 C 
ATOM     83  O   UNL     1      -3.685   4.707   1.589  1.00  0.00    -0.274 OA
BRANCH  82  84
ATOM     84  C   UNL     1      -2.769   5.162  -0.515  1.00  0.00     0.154 C 
ATOM     85  C   UNL     1      -3.260   6.063  -1.639  1.00  0.00     0.097 C 
ATOM     86  C   UNL     1      -2.615   6.635  -0.436  1.00  0.00     0.260 C 
ATOM     87  F   UNL     1      -3.370   7.440   0.382  1.00  0.00    -0.206 F 
ATOM     88  F   UNL     1      -1.385   7.236  -0.584  1.00  0.00    -0.206 F 
ENDBRANCH  82  84
ENDBRANCH  72  82
ENDBRANCH  63  65
ENDBRANCH  62  63
ENDBRANCH  61  62
ENDBRANCH   1  61
TORSDOF 15
