REMARK SMILES CC[C@H](C(=O)OCCOC(=O)c1ccc(-c2c3nc(c(-c4c(F)cccc4F)c4ccc([nH]4)c(-c4c(F)cccc4F)c4nc(c(-c5c(F)cccc5F)c5ccc2[nH]5)C=C4)C=C3)cc1)N1C(=O)c2ccc([N+](=O)[O-])cc2C1=O
REMARK SMILES IDX 7 1 6 2 4 3 5 4 3 5 2 6 1 7 66 8 67 9 78 10 68 11 69 12
REMARK SMILES IDX 77 13 79 14 70 15 76 16 71 17 72 18 73 19 74 20 75 21 8 22
REMARK SMILES IDX 9 23 10 24 11 25 12 26 13 27 65 28 14 29 64 30 15 31 16 32
REMARK SMILES IDX 17 33 58 34 18 35 63 36 57 37 59 38 19 39 62 40 56 41 55 42
REMARK SMILES IDX 20 44 46 45 29 46 45 47 30 48 33 49 44 50 60 51 31 52 32 53
REMARK SMILES IDX 43 55 61 56 34 57 21 58 22 59 27 60 23 61 24 62 26 63 28 64
REMARK SMILES IDX 25 65 47 66 48 67 53 68 49 69 50 70 52 71 54 72 51 73 35 74
REMARK SMILES IDX 36 75 41 76 37 77 38 78 40 79 42 80 39 81
REMARK H PARENT 59 43 33 54
REMARK Flexibility Score: inf
ROOT
ATOM      1  C   UNL     1       0.649   1.087   0.529  1.00  0.00     0.274 C 
ENDROOT
BRANCH   1   2
ATOM      2  O   UNL     1       0.953   0.092  -0.473  1.00  0.00    -0.461 OA
BRANCH   2   3
ATOM      3  C   UNL     1       0.140   0.112  -1.568  1.00  0.00     0.329 C 
ATOM      4  O   UNL     1      -0.683   0.997  -1.782  1.00  0.00    -0.250 OA
BRANCH   3   5
ATOM      5  C   UNL     1       0.416  -1.066  -2.528  1.00  0.00     0.203 C 
BRANCH   5   6
ATOM      6  C   UNL     1       0.267  -2.480  -1.953  1.00  0.00     0.034 C 
ATOM      7  C   UNL     1      -0.638  -2.619  -0.739  1.00  0.00     0.007 C 
ENDBRANCH   5   6
BRANCH   5   8
ATOM      8  N   UNL     1      -0.382  -0.872  -3.753  1.00  0.00    -0.260 N 
ATOM      9  C   UNL     1      -1.748  -0.749  -3.776  1.00  0.00     0.262 C 
ATOM     10  C   UNL     1       0.144  -0.759  -5.011  1.00  0.00     0.262 C 
ATOM     11  O   UNL     1      -2.562  -0.955  -2.907  1.00  0.00    -0.269 OA
ATOM     12  C   UNL     1      -2.096  -0.306  -5.126  1.00  0.00     0.053 A 
ATOM     13  C   UNL     1      -0.954  -0.382  -5.903  1.00  0.00     0.060 A 
ATOM     14  O   UNL     1       1.300  -0.872  -5.374  1.00  0.00    -0.269 OA
ATOM     15  C   UNL     1      -3.286   0.197  -5.615  1.00  0.00     0.022 A 
ATOM     16  C   UNL     1      -0.948  -0.019  -7.240  1.00  0.00     0.100 A 
ATOM     17  C   UNL     1      -3.311   0.602  -6.954  1.00  0.00     0.086 A 
ATOM     18  C   UNL     1      -2.155   0.476  -7.764  1.00  0.00     0.270 A 
BRANCH  18  19
ATOM     19  N   UNL     1      -2.226   0.869  -9.180  1.00  0.00     0.062 N 
ATOM     20  O   UNL     1      -3.266   1.417  -9.570  1.00  0.00    -0.258 OA
ATOM     21  O   UNL     1      -1.259   0.584  -9.898  1.00  0.00    -0.258 OA
ENDBRANCH  18  19
ENDBRANCH   5   8
ENDBRANCH   3   5
ENDBRANCH   2   3
ENDBRANCH   1   2
BRANCH   1  22
ATOM     22  C   UNL     1       1.488   2.366   0.407  1.00  0.00     0.275 C 
BRANCH  22  23
ATOM     23  O   UNL     1       1.206   3.106  -0.795  1.00  0.00    -0.458 OA
BRANCH  23  24
ATOM     24  C   UNL     1       2.031   2.838  -1.834  1.00  0.00     0.338 C 
ATOM     25  O   UNL     1       2.989   2.083  -1.840  1.00  0.00    -0.246 OA
BRANCH  24  26
ATOM     26  C   UNL     1       1.483   3.429  -3.065  1.00  0.00     0.060 A 
ATOM     27  C   UNL     1       0.977   2.536  -4.006  1.00  0.00     0.016 A 
ATOM     28  C   UNL     1       1.528   4.794  -3.347  1.00  0.00     0.016 A 
ATOM     29  C   UNL     1       0.478   2.992  -5.216  1.00  0.00     0.010 A 
ATOM     30  C   UNL     1       1.039   5.256  -4.580  1.00  0.00     0.010 A 
ATOM     31  C   UNL     1       0.504   4.354  -5.517  1.00  0.00    -0.014 A 
BRANCH  31  32
ATOM     32  C   UNL     1       0.056   4.774  -6.865  1.00  0.00     0.031 A 
ATOM     33  C   UNL     1       1.080   5.089  -7.913  1.00  0.00     0.074 A 
ATOM     34  C   UNL     1      -1.251   4.747  -7.184  1.00  0.00     0.049 A 
ATOM     35  N   UNL     1       0.911   5.559  -9.121  1.00  0.00    -0.248 NA
ATOM     36  C   UNL     1       2.483   4.829  -7.555  1.00  0.00     0.031 C 
ATOM     37  C   UNL     1      -2.330   4.332  -6.287  1.00  0.00     0.029 A 
ATOM     38  N   UNL     1      -1.892   5.056  -8.356  1.00  0.00    -0.354 N 
ATOM     39  C   UNL     1       2.186   5.691  -9.655  1.00  0.00     0.074 A 
ATOM     40  C   UNL     1       3.117   5.239  -8.643  1.00  0.00     0.031 C 
ATOM     41  C   UNL     1      -3.498   4.400  -6.948  1.00  0.00     0.029 A 
ATOM     42  C   UNL     1      -3.259   4.927  -8.289  1.00  0.00     0.049 A 
ATOM     43  H   UNL     1      -1.418   5.344  -9.170  1.00  0.00     0.167 HD
ATOM     44  C   UNL     1       2.543   6.165 -10.872  1.00  0.00     0.037 A 
ATOM     45  C   UNL     1      -4.207   5.241  -9.194  1.00  0.00     0.037 A 
ATOM     46  C   UNL     1       1.604   6.600 -11.873  1.00  0.00     0.049 A 
ATOM     47  C   UNL     1      -3.787   5.859 -10.503  1.00  0.00     0.074 A 
ATOM     48  C   UNL     1       1.859   7.147 -13.118  1.00  0.00     0.029 A 
ATOM     49  N   UNL     1       0.225   6.527 -11.743  1.00  0.00    -0.354 N 
ATOM     50  N   UNL     1      -2.579   6.082 -10.963  1.00  0.00    -0.248 NA
ATOM     51  C   UNL     1      -4.862   6.303 -11.401  1.00  0.00     0.031 C 
ATOM     52  C   UNL     1       0.633   7.451 -13.721  1.00  0.00     0.029 A 
ATOM     53  C   UNL     1      -0.386   7.042 -12.874  1.00  0.00     0.049 A 
ATOM     54  H   UNL     1      -0.251   6.162 -10.962  1.00  0.00     0.167 HD
ATOM     55  C   UNL     1      -2.749   6.675 -12.209  1.00  0.00     0.074 A 
ATOM     56  C   UNL     1      -4.176   6.760 -12.439  1.00  0.00     0.031 C 
ATOM     57  C   UNL     1      -1.810   7.117 -13.082  1.00  0.00     0.037 A 
BRANCH  44  58
ATOM     58  C   UNL     1       4.010   6.309 -11.148  1.00  0.00     0.057 A 
ATOM     59  C   UNL     1       4.845   5.207 -11.370  1.00  0.00     0.134 A 
ATOM     60  C   UNL     1       4.596   7.582 -11.186  1.00  0.00     0.134 A 
ATOM     61  F   UNL     1       4.352   3.961 -11.326  1.00  0.00    -0.206 F 
ATOM     62  C   UNL     1       6.215   5.365 -11.593  1.00  0.00     0.040 A 
ATOM     63  C   UNL     1       5.958   7.753 -11.434  1.00  0.00     0.040 A 
ATOM     64  F   UNL     1       3.853   8.680 -10.982  1.00  0.00    -0.206 F 
ATOM     65  C   UNL     1       6.774   6.641 -11.629  1.00  0.00     0.006 A 
ENDBRANCH  44  58
BRANCH  45  66
ATOM     66  C   UNL     1      -5.646   5.034  -8.882  1.00  0.00     0.057 A 
ATOM     67  C   UNL     1      -6.422   4.125  -9.610  1.00  0.00     0.134 A 
ATOM     68  C   UNL     1      -6.290   5.760  -7.871  1.00  0.00     0.134 A 
ATOM     69  F   UNL     1      -5.879   3.425 -10.616  1.00  0.00    -0.206 F 
ATOM     70  C   UNL     1      -7.784   3.949  -9.350  1.00  0.00     0.040 A 
ATOM     71  C   UNL     1      -7.643   5.574  -7.581  1.00  0.00     0.040 A 
ATOM     72  F   UNL     1      -5.610   6.656  -7.141  1.00  0.00    -0.206 F 
ATOM     73  C   UNL     1      -8.396   4.670  -8.327  1.00  0.00     0.006 A 
ENDBRANCH  45  66
BRANCH  57  74
ATOM     74  C   UNL     1      -2.296   7.713 -14.370  1.00  0.00     0.057 A 
ATOM     75  C   UNL     1      -2.893   8.980 -14.419  1.00  0.00     0.134 A 
ATOM     76  C   UNL     1      -2.120   7.033 -15.582  1.00  0.00     0.134 A 
ATOM     77  F   UNL     1      -3.101   9.677 -13.292  1.00  0.00    -0.206 F 
ATOM     78  C   UNL     1      -3.314   9.541 -15.626  1.00  0.00     0.040 A 
ATOM     79  C   UNL     1      -2.514   7.595 -16.798  1.00  0.00     0.040 A 
ATOM     80  F   UNL     1      -1.547   5.821 -15.607  1.00  0.00    -0.206 F 
ATOM     81  C   UNL     1      -3.117   8.851 -16.821  1.00  0.00     0.006 A 
ENDBRANCH  57  74
ENDBRANCH  31  32
ENDBRANCH  24  26
ENDBRANCH  23  24
ENDBRANCH  22  23
ENDBRANCH   1  22
TORSDOF 14
