REMARK SMILES CCCC[N@H+](CC)[C@H]1CCC[C@]([NH3+])(C(=O)OCCOC(=O)c2ccc(-c3c4nc(c(-c5c(F)cccc5F)c5ccc([nH]5)c(-c5c(F)cccc5F)c5nc(c(-c6c(F)cccc6F)c6ccc3[nH]6)C=C5)C=C4)cc2)C1
REMARK SMILES IDX 17 1 16 2 14 3 15 4 12 5 8 6 9 7 76 8 10 9 11 10 5 11 4 13
REMARK SMILES IDX 3 14 2 15 1 16 6 17 7 18 13 19 18 23 19 24 20 25 21 26 22 27
REMARK SMILES IDX 23 28 75 29 24 30 74 31 25 32 26 33 27 34 68 35 28 36 73 37
REMARK SMILES IDX 67 38 69 39 29 40 72 41 66 42 65 43 30 45 56 46 39 47 55 48
REMARK SMILES IDX 40 49 43 50 54 51 70 52 41 53 42 54 53 56 71 57 44 58 31 59
REMARK SMILES IDX 32 60 37 61 33 62 34 63 36 64 38 65 35 66 57 67 58 68 63 69
REMARK SMILES IDX 59 70 60 71 62 72 64 73 61 74 45 75 46 76 51 77 47 78 48 79
REMARK SMILES IDX 50 80 52 81 49 82
REMARK H PARENT 5 12 13 20 13 21 13 22 69 44 43 55
REMARK Flexibility Score: inf
ROOT
ATOM      1  C   UNL     1      -2.879  -0.582  -7.070  1.00  0.00     0.274 C 
ENDROOT
BRANCH   1   2
ATOM      2  O   UNL     1      -2.952  -0.372  -5.642  1.00  0.00    -0.457 OA
BRANCH   2   3
ATOM      3  C   UNL     1      -3.645  -1.312  -4.950  1.00  0.00     0.368 C 
ATOM      4  O   UNL     1      -4.150  -2.313  -5.457  1.00  0.00    -0.245 OA
BRANCH   3   5
ATOM      5  C   UNL     1      -3.848  -0.966  -3.445  1.00  0.00     0.198 C 
ATOM      6  C   UNL     1      -1.661   0.239  -2.668  1.00  0.00     0.190 C 
ATOM      7  C   UNL     1      -1.248  -1.053  -1.941  1.00  0.00     0.065 C 
ATOM      8  C   UNL     1      -3.187   0.332  -2.936  1.00  0.00     0.145 C 
ATOM      9  C   UNL     1      -1.882  -2.280  -2.557  1.00  0.00     0.013 C 
ATOM     10  C   UNL     1      -3.398  -2.167  -2.595  1.00  0.00     0.081 C 
BRANCH   6  11
ATOM     11  N   UNL     1      -1.102   1.414  -1.977  1.00  0.00    -0.333 N 
ATOM     12  H   UNL     1      -1.503   2.185  -2.511  1.00  0.00     0.348 HD
BRANCH  11  13
ATOM     13  C   UNL     1       0.324   1.654  -2.187  1.00  0.00     0.262 C 
BRANCH  13  14
ATOM     14  C   UNL     1       1.154   2.481  -1.187  1.00  0.00     0.061 C 
BRANCH  14  15
ATOM     15  C   UNL     1       1.348   1.908   0.220  1.00  0.00     0.002 C 
ATOM     16  C   UNL     1       1.838   0.469   0.254  1.00  0.00     0.004 C 
ENDBRANCH  14  15
ENDBRANCH  13  14
ENDBRANCH  11  13
BRANCH  11  17
ATOM     17  C   UNL     1      -1.829   2.065  -0.900  1.00  0.00     0.258 C 
ATOM     18  C   UNL     1      -2.177   1.182   0.297  1.00  0.00     0.071 C 
ENDBRANCH  11  17
ENDBRANCH   6  11
BRANCH   5  19
ATOM     19  N   UNL     1      -5.324  -0.823  -3.255  1.00  0.00    -0.343 N 
ATOM     20  H   UNL     1      -5.521  -0.594  -2.281  1.00  0.00     0.345 HD
ATOM     21  H   UNL     1      -5.785  -1.700  -3.498  1.00  0.00     0.345 HD
ATOM     22  H   UNL     1      -5.674  -0.077  -3.857  1.00  0.00     0.345 HD
ENDBRANCH   5  19
ENDBRANCH   3   5
ENDBRANCH   2   3
ENDBRANCH   1   2
BRANCH   1  23
ATOM     23  C   UNL     1      -1.538  -1.193  -7.463  1.00  0.00     0.275 C 
BRANCH  23  24
ATOM     24  O   UNL     1      -1.393  -2.475  -6.829  1.00  0.00    -0.458 OA
BRANCH  24  25
ATOM     25  C   UNL     1      -0.137  -2.799  -6.452  1.00  0.00     0.338 C 
ATOM     26  O   UNL     1       0.877  -2.144  -6.678  1.00  0.00    -0.246 OA
BRANCH  25  27
ATOM     27  C   UNL     1      -0.122  -4.043  -5.645  1.00  0.00     0.060 A 
ATOM     28  C   UNL     1      -1.256  -4.493  -4.964  1.00  0.00     0.016 A 
ATOM     29  C   UNL     1       1.097  -4.695  -5.444  1.00  0.00     0.016 A 
ATOM     30  C   UNL     1      -1.133  -5.468  -3.971  1.00  0.00     0.010 A 
ATOM     31  C   UNL     1       1.190  -5.752  -4.533  1.00  0.00     0.010 A 
ATOM     32  C   UNL     1       0.092  -6.110  -3.732  1.00  0.00    -0.014 A 
BRANCH  32  33
ATOM     33  C   UNL     1       0.264  -7.091  -2.618  1.00  0.00     0.031 A 
ATOM     34  C   UNL     1       1.371  -6.902  -1.605  1.00  0.00     0.074 A 
ATOM     35  C   UNL     1      -0.551  -8.156  -2.484  1.00  0.00     0.049 A 
ATOM     36  N   UNL     1       1.865  -7.758  -0.745  1.00  0.00    -0.248 NA
ATOM     37  C   UNL     1       2.022  -5.583  -1.573  1.00  0.00     0.031 C 
ATOM     38  C   UNL     1      -1.704  -8.463  -3.330  1.00  0.00     0.029 A 
ATOM     39  N   UNL     1      -0.533  -9.180  -1.567  1.00  0.00    -0.354 N 
ATOM     40  C   UNL     1       2.945  -7.118  -0.147  1.00  0.00     0.074 A 
ATOM     41  C   UNL     1       3.015  -5.790  -0.719  1.00  0.00     0.031 C 
ATOM     42  C   UNL     1      -2.317  -9.558  -2.858  1.00  0.00     0.029 A 
ATOM     43  C   UNL     1      -1.544 -10.092  -1.742  1.00  0.00     0.049 A 
ATOM     44  H   UNL     1       0.141  -9.253  -0.853  1.00  0.00     0.167 HD
ATOM     45  C   UNL     1       3.805  -7.598   0.784  1.00  0.00     0.037 A 
ATOM     46  C   UNL     1      -1.802 -11.254  -1.112  1.00  0.00     0.037 A 
ATOM     47  C   UNL     1       3.675  -8.876   1.435  1.00  0.00     0.049 A 
ATOM     48  C   UNL     1      -0.859 -11.756  -0.060  1.00  0.00     0.074 A 
ATOM     49  C   UNL     1       4.489  -9.442   2.402  1.00  0.00     0.029 A 
ATOM     50  N   UNL     1       2.640  -9.770   1.213  1.00  0.00    -0.354 N 
ATOM     51  N   UNL     1       0.233 -11.200   0.404  1.00  0.00    -0.248 NA
ATOM     52  C   UNL     1      -1.165 -13.067   0.530  1.00  0.00     0.031 C 
ATOM     53  C   UNL     1       3.951 -10.684   2.759  1.00  0.00     0.029 A 
ATOM     54  C   UNL     1       2.788 -10.878   2.032  1.00  0.00     0.049 A 
ATOM     55  H   UNL     1       1.907  -9.637   0.570  1.00  0.00     0.167 HD
ATOM     56  C   UNL     1       0.743 -12.089   1.339  1.00  0.00     0.074 A 
ATOM     57  C   UNL     1      -0.169 -13.213   1.392  1.00  0.00     0.031 C 
ATOM     58  C   UNL     1       1.874 -11.987   2.078  1.00  0.00     0.037 A 
BRANCH  45  59
ATOM     59  C   UNL     1       4.997  -6.754   1.128  1.00  0.00     0.057 A 
ATOM     60  C   UNL     1       4.906  -5.621   1.943  1.00  0.00     0.134 A 
ATOM     61  C   UNL     1       6.269  -7.115   0.660  1.00  0.00     0.134 A 
ATOM     62  F   UNL     1       3.717  -5.214   2.411  1.00  0.00    -0.206 F 
ATOM     63  C   UNL     1       6.035  -4.864   2.266  1.00  0.00     0.040 A 
ATOM     64  C   UNL     1       7.407  -6.380   0.994  1.00  0.00     0.040 A 
ATOM     65  F   UNL     1       6.426  -8.195  -0.120  1.00  0.00    -0.206 F 
ATOM     66  C   UNL     1       7.291  -5.247   1.796  1.00  0.00     0.006 A 
ENDBRANCH  45  59
BRANCH  46  67
ATOM     67  C   UNL     1      -3.000 -12.040  -1.491  1.00  0.00     0.057 A 
ATOM     68  C   UNL     1      -4.112 -12.101  -0.644  1.00  0.00     0.134 A 
ATOM     69  C   UNL     1      -3.077 -12.717  -2.713  1.00  0.00     0.134 A 
ATOM     70  F   UNL     1      -4.084 -11.492   0.551  1.00  0.00    -0.206 F 
ATOM     71  C   UNL     1      -5.261 -12.806  -1.001  1.00  0.00     0.040 A 
ATOM     72  C   UNL     1      -4.228 -13.406  -3.093  1.00  0.00     0.040 A 
ATOM     73  F   UNL     1      -2.043 -12.692  -3.567  1.00  0.00    -0.206 F 
ATOM     74  C   UNL     1      -5.324 -13.453  -2.234  1.00  0.00     0.006 A 
ENDBRANCH  46  67
BRANCH  58  75
ATOM     75  C   UNL     1       2.167 -13.109   3.026  1.00  0.00     0.057 A 
ATOM     76  C   UNL     1       2.688 -14.329   2.580  1.00  0.00     0.134 A 
ATOM     77  C   UNL     1       1.933 -12.963   4.398  1.00  0.00     0.134 A 
ATOM     78  F   UNL     1       2.919 -14.533   1.274  1.00  0.00    -0.206 F 
ATOM     79  C   UNL     1       2.947 -15.376   3.466  1.00  0.00     0.040 A 
ATOM     80  C   UNL     1       2.203 -13.997   5.296  1.00  0.00     0.040 A 
ATOM     81  F   UNL     1       1.437 -11.817   4.887  1.00  0.00    -0.206 F 
ATOM     82  C   UNL     1       2.707 -15.210   4.829  1.00  0.00     0.006 A 
ENDBRANCH  58  75
ENDBRANCH  32  33
ENDBRANCH  25  27
ENDBRANCH  24  25
ENDBRANCH  23  24
ENDBRANCH   1  23
TORSDOF 17
