REMARK SMILES O=C(OCCOC(=O)[C@@H]1C=C[C@@H]([NH+]2CC3(CCOCC3)C2)C1)c1ccc(-c2c3nc(c(-c4c(F)cccc4F)c4ccc([nH]4)c(-c4c(F)cccc4F)c4nc(c(-c5c(F)cccc5F)c5ccc2[nH]5)C=C4)C=C3)cc1
REMARK SMILES IDX 4 1 3 2 2 3 1 4 23 5 24 6 76 7 25 8 75 9 26 10 27 11 28 12
REMARK SMILES IDX 69 13 29 14 74 15 68 16 70 17 30 18 73 19 67 20 66 21 31 23
REMARK SMILES IDX 57 24 40 25 56 26 41 27 44 28 55 29 71 30 42 31 43 32 54 34
REMARK SMILES IDX 72 35 45 36 32 37 33 38 38 39 34 40 35 41 37 42 39 43 36 44
REMARK SMILES IDX 58 45 59 46 64 47 60 48 61 49 63 50 65 51 62 52 46 53 47 54
REMARK SMILES IDX 52 55 48 56 49 57 51 58 53 59 50 60 5 61 6 62 7 63 8 64 9 65
REMARK SMILES IDX 10 66 22 67 11 68 12 69 13 70 14 71 21 72 15 74 16 75 20 76
REMARK SMILES IDX 17 77 19 78 18 79
REMARK H PARENT 70 22 44 33 13 73
REMARK Flexibility Score: inf
ROOT
ATOM      1  C   UNL     1       2.690  -1.619  -4.414  1.00  0.00     0.275 C 
ENDROOT
BRANCH   1   2
ATOM      2  O   UNL     1       3.010  -0.625  -3.432  1.00  0.00    -0.458 OA
BRANCH   2   3
ATOM      3  C   UNL     1       2.287  -0.212  -2.368  1.00  0.00     0.338 C 
ATOM      4  O   UNL     1       2.776   0.659  -1.648  1.00  0.00    -0.246 OA
BRANCH   3   5
ATOM      5  C   UNL     1       0.978  -0.817  -1.935  1.00  0.00     0.060 A 
ATOM      6  C   UNL     1       0.104  -1.622  -2.678  1.00  0.00     0.016 A 
ATOM      7  C   UNL     1       0.627  -0.567  -0.604  1.00  0.00     0.016 A 
ATOM      8  C   UNL     1      -0.995  -2.276  -2.082  1.00  0.00     0.010 A 
ATOM      9  C   UNL     1      -0.467  -1.205  -0.021  1.00  0.00     0.010 A 
ATOM     10  C   UNL     1      -1.262  -2.120  -0.725  1.00  0.00    -0.014 A 
BRANCH  10  11
ATOM     11  C   UNL     1      -2.310  -2.884   0.023  1.00  0.00     0.031 A 
ATOM     12  C   UNL     1      -3.313  -2.114   0.843  1.00  0.00     0.074 A 
ATOM     13  C   UNL     1      -2.207  -4.224   0.186  1.00  0.00     0.049 A 
ATOM     14  N   UNL     1      -4.025  -2.501   1.870  1.00  0.00    -0.248 NA
ATOM     15  C   UNL     1      -3.472  -0.692   0.499  1.00  0.00     0.031 C 
ATOM     16  C   UNL     1      -1.235  -5.099  -0.476  1.00  0.00     0.029 A 
ATOM     17  N   UNL     1      -2.839  -5.064   1.082  1.00  0.00    -0.354 N 
ATOM     18  C   UNL     1      -4.684  -1.361   2.319  1.00  0.00     0.074 A 
ATOM     19  C   UNL     1      -4.235  -0.261   1.492  1.00  0.00     0.031 C 
ATOM     20  C   UNL     1      -1.250  -6.308   0.114  1.00  0.00     0.029 A 
ATOM     21  C   UNL     1      -2.220  -6.294   1.201  1.00  0.00     0.049 A 
ATOM     22  H   UNL     1      -3.648  -4.812   1.584  1.00  0.00     0.167 HD
ATOM     23  C   UNL     1      -5.603  -1.243   3.309  1.00  0.00     0.037 A 
ATOM     24  C   UNL     1      -2.355  -7.263   2.129  1.00  0.00     0.037 A 
ATOM     25  C   UNL     1      -6.101  -2.351   4.078  1.00  0.00     0.049 A 
ATOM     26  C   UNL     1      -3.381  -7.119   3.216  1.00  0.00     0.074 A 
ATOM     27  C   UNL     1      -7.167  -2.382   4.960  1.00  0.00     0.029 A 
ATOM     28  N   UNL     1      -5.556  -3.623   4.061  1.00  0.00    -0.354 N 
ATOM     29  N   UNL     1      -4.104  -6.076   3.538  1.00  0.00    -0.248 NA
ATOM     30  C   UNL     1      -3.637  -8.308   4.044  1.00  0.00     0.031 C 
ATOM     31  C   UNL     1      -7.248  -3.669   5.503  1.00  0.00     0.029 A 
ATOM     32  C   UNL     1      -6.256  -4.445   4.927  1.00  0.00     0.049 A 
ATOM     33  H   UNL     1      -4.786  -3.902   3.515  1.00  0.00     0.167 HD
ATOM     34  C   UNL     1      -4.960  -6.511   4.542  1.00  0.00     0.074 A 
ATOM     35  C   UNL     1      -4.630  -7.892   4.815  1.00  0.00     0.031 C 
ATOM     36  C   UNL     1      -5.957  -5.832   5.155  1.00  0.00     0.037 A 
BRANCH  23  37
ATOM     37  C   UNL     1      -6.161   0.122   3.592  1.00  0.00     0.057 A 
ATOM     38  C   UNL     1      -6.975   0.795   2.670  1.00  0.00     0.134 A 
ATOM     39  C   UNL     1      -5.920   0.755   4.818  1.00  0.00     0.134 A 
ATOM     40  F   UNL     1      -7.250   0.245   1.477  1.00  0.00    -0.206 F 
ATOM     41  C   UNL     1      -7.491   2.064   2.938  1.00  0.00     0.040 A 
ATOM     42  C   UNL     1      -6.456   2.010   5.110  1.00  0.00     0.040 A 
ATOM     43  F   UNL     1      -5.170   0.159   5.758  1.00  0.00    -0.206 F 
ATOM     44  C   UNL     1      -7.235   2.673   4.164  1.00  0.00     0.006 A 
ENDBRANCH  23  37
BRANCH  24  45
ATOM     45  C   UNL     1      -1.483  -8.466   2.136  1.00  0.00     0.057 A 
ATOM     46  C   UNL     1      -1.929  -9.691   1.629  1.00  0.00     0.134 A 
ATOM     47  C   UNL     1      -0.246  -8.451   2.791  1.00  0.00     0.134 A 
ATOM     48  F   UNL     1      -3.132  -9.778   1.044  1.00  0.00    -0.206 F 
ATOM     49  C   UNL     1      -1.189 -10.864   1.798  1.00  0.00     0.040 A 
ATOM     50  C   UNL     1       0.517  -9.610   2.943  1.00  0.00     0.040 A 
ATOM     51  F   UNL     1       0.207  -7.322   3.349  1.00  0.00    -0.206 F 
ATOM     52  C   UNL     1       0.038 -10.825   2.458  1.00  0.00     0.006 A 
ENDBRANCH  24  45
BRANCH  36  53
ATOM     53  C   UNL     1      -6.858  -6.603   6.069  1.00  0.00     0.057 A 
ATOM     54  C   UNL     1      -6.476  -6.989   7.357  1.00  0.00     0.134 A 
ATOM     55  C   UNL     1      -8.156  -6.927   5.650  1.00  0.00     0.134 A 
ATOM     56  F   UNL     1      -5.239  -6.728   7.807  1.00  0.00    -0.206 F 
ATOM     57  C   UNL     1      -7.351  -7.682   8.196  1.00  0.00     0.040 A 
ATOM     58  C   UNL     1      -9.047  -7.598   6.487  1.00  0.00     0.040 A 
ATOM     59  F   UNL     1      -8.581  -6.585   4.424  1.00  0.00    -0.206 F 
ATOM     60  C   UNL     1      -8.643  -7.980   7.764  1.00  0.00     0.006 A 
ENDBRANCH  36  53
ENDBRANCH  10  11
ENDBRANCH   3   5
ENDBRANCH   2   3
ENDBRANCH   1   2
BRANCH   1  61
ATOM     61  C   UNL     1       2.850  -3.064  -3.926  1.00  0.00     0.274 C 
BRANCH  61  62
ATOM     62  O   UNL     1       2.712  -3.179  -2.496  1.00  0.00    -0.462 OA
BRANCH  62  63
ATOM     63  C   UNL     1       3.749  -3.767  -1.833  1.00  0.00     0.313 C 
ATOM     64  O   UNL     1       4.714  -4.269  -2.395  1.00  0.00    -0.252 OA
BRANCH  63  65
ATOM     65  C   UNL     1       3.652  -3.596  -0.310  1.00  0.00     0.128 C 
ATOM     66  C   UNL     1       4.340  -4.731   0.390  1.00  0.00    -0.010 C 
ATOM     67  C   UNL     1       2.258  -3.593   0.342  1.00  0.00     0.089 C 
ATOM     68  C   UNL     1       3.531  -5.400   1.218  1.00  0.00     0.033 C 
ATOM     69  C   UNL     1       2.138  -4.858   1.227  1.00  0.00     0.208 C 
BRANCH  69  70
ATOM     70  N   UNL     1       1.555  -4.795   2.570  1.00  0.00    -0.328 N 
ATOM     71  C   UNL     1       0.254  -4.127   2.602  1.00  0.00     0.275 C 
ATOM     72  C   UNL     1       2.138  -3.838   3.509  1.00  0.00     0.275 C 
ATOM     73  H   UNL     1       1.642  -5.784   2.803  1.00  0.00     0.348 HD
ATOM     74  C   UNL     1       0.729  -3.217   3.758  1.00  0.00     0.073 C 
ATOM     75  C   UNL     1       0.035  -3.528   5.096  1.00  0.00     0.047 C 
ATOM     76  C   UNL     1       0.717  -1.705   3.502  1.00  0.00     0.047 C 
ATOM     77  C   UNL     1      -1.350  -2.876   5.111  1.00  0.00     0.161 C 
ATOM     78  C   UNL     1      -0.696  -1.157   3.659  1.00  0.00     0.161 C 
ATOM     79  O   UNL     1      -1.207  -1.460   4.952  1.00  0.00    -0.381 OA
ENDBRANCH  69  70
ENDBRANCH  63  65
ENDBRANCH  62  63
ENDBRANCH  61  62
ENDBRANCH   1  61
TORSDOF 12
