REMARK SMILES CC(C)[C@H](CO)NS(=O)(=O)c1ccc(C(=O)OCCOC(=O)c2ccc(-c3c4nc(c(-c5c(F)cccc5F)c5ccc([nH]5)c(-c5c(F)cccc5F)c5nc(c(-c6c(F)cccc6F)c6ccc3[nH]6)C=C5)C=C4)cc2)cn1
REMARK SMILES IDX 17 1 15 2 16 3 14 4 11 5 12 6 78 7 13 8 77 9 8 10 9 11 10 12
REMARK SMILES IDX 7 13 4 15 2 16 1 17 3 18 5 19 6 20 18 22 19 23 20 24 21 25
REMARK SMILES IDX 22 26 23 27 24 28 76 29 25 30 75 31 26 32 27 33 28 34 69 35
REMARK SMILES IDX 29 36 74 37 68 38 70 39 30 40 73 41 67 42 66 43 31 45 57 46
REMARK SMILES IDX 40 47 56 48 41 49 44 50 55 51 71 52 42 53 43 54 54 56 72 57
REMARK SMILES IDX 45 58 32 59 33 60 38 61 34 62 35 63 37 64 39 65 36 66 58 67
REMARK SMILES IDX 59 68 64 69 60 70 61 71 63 72 65 73 62 74 46 75 47 76 52 77
REMARK SMILES IDX 48 78 49 79 51 80 53 81 50 82
REMARK H PARENT 7 14 6 21 70 44 44 55
REMARK Flexibility Score: inf
ROOT
ATOM      1  O   UNL     1      -4.157  -5.962  -1.536  1.00  0.00    -0.458 OA
ENDROOT
BRANCH   1   2
ATOM      2  C   UNL     1      -5.072  -5.029  -1.895  1.00  0.00     0.339 C 
ATOM      3  O   UNL     1      -6.286  -5.158  -1.866  1.00  0.00    -0.246 OA
BRANCH   2   4
ATOM      4  C   UNL     1      -4.438  -3.740  -2.237  1.00  0.00     0.078 A 
ATOM      5  C   UNL     1      -3.529  -1.229  -2.823  1.00  0.00     0.170 A 
ATOM      6  C   UNL     1      -2.765  -2.314  -3.240  1.00  0.00     0.043 A 
ATOM      7  N   UNL     1      -4.702  -1.334  -2.156  1.00  0.00    -0.243 NA
ATOM      8  C   UNL     1      -3.223  -3.601  -2.915  1.00  0.00     0.020 A 
ATOM      9  C   UNL     1      -5.141  -2.584  -1.919  1.00  0.00     0.128 A 
BRANCH   5  10
ATOM     10  S   UNL     1      -3.122   0.459  -3.262  1.00  0.00     0.258 S 
ATOM     11  O   UNL     1      -3.889   1.358  -2.434  1.00  0.00    -0.205 OA
ATOM     12  O   UNL     1      -3.165   0.535  -4.712  1.00  0.00    -0.205 OA
BRANCH  10  13
ATOM     13  N   UNL     1      -1.516   0.652  -2.855  1.00  0.00    -0.204 NA
ATOM     14  H   UNL     1      -1.004  -0.009  -3.438  1.00  0.00     0.141 HD
BRANCH  13  15
ATOM     15  C   UNL     1      -0.973   0.483  -1.493  1.00  0.00     0.098 C 
BRANCH  15  16
ATOM     16  C   UNL     1      -1.312   1.667  -0.551  1.00  0.00     0.003 C 
ATOM     17  C   UNL     1      -0.395   1.719   0.680  1.00  0.00     0.009 C 
ATOM     18  C   UNL     1      -1.305   3.046  -1.220  1.00  0.00     0.009 C 
ENDBRANCH  15  16
BRANCH  15  19
ATOM     19  C   UNL     1       0.543   0.229  -1.670  1.00  0.00     0.176 C 
BRANCH  19  20
ATOM     20  O   UNL     1       0.743  -0.875  -2.565  1.00  0.00    -0.395 OA
ATOM     21  H   UNL     1       0.323  -1.669  -2.198  1.00  0.00     0.210 HD
ENDBRANCH  19  20
ENDBRANCH  15  19
ENDBRANCH  13  15
ENDBRANCH  10  13
ENDBRANCH   5  10
ENDBRANCH   2   4
ENDBRANCH   1   2
BRANCH   1  22
ATOM     22  C   UNL     1      -4.708  -7.224  -1.094  1.00  0.00     0.275 C 
BRANCH  22  23
ATOM     23  C   UNL     1      -4.679  -7.364   0.431  1.00  0.00     0.275 C 
BRANCH  23  24
ATOM     24  O   UNL     1      -5.580  -6.429   1.057  1.00  0.00    -0.458 OA
BRANCH  24  25
ATOM     25  C   UNL     1      -4.988  -5.415   1.726  1.00  0.00     0.338 C 
ATOM     26  O   UNL     1      -3.792  -5.214   1.862  1.00  0.00    -0.246 OA
BRANCH  25  27
ATOM     27  C   UNL     1      -5.994  -4.449   2.197  1.00  0.00     0.060 A 
ATOM     28  C   UNL     1      -6.490  -3.552   1.263  1.00  0.00     0.016 A 
ATOM     29  C   UNL     1      -6.278  -4.270   3.548  1.00  0.00     0.016 A 
ATOM     30  C   UNL     1      -7.153  -2.400   1.672  1.00  0.00     0.010 A 
ATOM     31  C   UNL     1      -7.067  -3.178   3.948  1.00  0.00     0.010 A 
ATOM     32  C   UNL     1      -7.477  -2.199   3.021  1.00  0.00    -0.014 A 
BRANCH  32  33
ATOM     33  C   UNL     1      -8.219  -0.963   3.430  1.00  0.00     0.031 A 
ATOM     34  C   UNL     1      -7.671  -0.035   4.489  1.00  0.00     0.074 A 
ATOM     35  C   UNL     1      -9.378  -0.636   2.818  1.00  0.00     0.049 A 
ATOM     36  N   UNL     1      -8.228   1.017   5.039  1.00  0.00    -0.248 NA
ATOM     37  C   UNL     1      -6.329  -0.337   5.012  1.00  0.00     0.031 C 
ATOM     38  C   UNL     1     -10.026  -1.412   1.758  1.00  0.00     0.029 A 
ATOM     39  N   UNL     1     -10.209   0.448   2.979  1.00  0.00    -0.354 N 
ATOM     40  C   UNL     1      -7.333   1.467   6.005  1.00  0.00     0.074 A 
ATOM     41  C   UNL     1      -6.202   0.564   5.976  1.00  0.00     0.031 C 
ATOM     42  C   UNL     1     -11.104  -0.750   1.318  1.00  0.00     0.029 A 
ATOM     43  C   UNL     1     -11.293   0.443   2.133  1.00  0.00     0.049 A 
ATOM     44  H   UNL     1     -10.043   1.161   3.639  1.00  0.00     0.167 HD
ATOM     45  C   UNL     1      -7.441   2.534   6.836  1.00  0.00     0.037 A 
ATOM     46  C   UNL     1     -12.349   1.273   2.041  1.00  0.00     0.037 A 
ATOM     47  C   UNL     1      -8.539   3.469   6.826  1.00  0.00     0.049 A 
ATOM     48  C   UNL     1     -12.459   2.431   2.989  1.00  0.00     0.074 A 
ATOM     49  C   UNL     1      -8.719   4.596   7.612  1.00  0.00     0.029 A 
ATOM     50  N   UNL     1      -9.637   3.396   5.982  1.00  0.00    -0.354 N 
ATOM     51  N   UNL     1     -11.624   2.815   3.923  1.00  0.00    -0.248 NA
ATOM     52  C   UNL     1     -13.669   3.257   2.884  1.00  0.00     0.031 C 
ATOM     53  C   UNL     1      -9.947   5.176   7.277  1.00  0.00     0.029 A 
ATOM     54  C   UNL     1     -10.509   4.442   6.245  1.00  0.00     0.049 A 
ATOM     55  H   UNL     1      -9.777   2.703   5.296  1.00  0.00     0.167 HD
ATOM     56  C   UNL     1     -12.202   3.930   4.512  1.00  0.00     0.074 A 
ATOM     57  C   UNL     1     -13.444   4.179   3.810  1.00  0.00     0.031 C 
ATOM     58  C   UNL     1     -11.748   4.676   5.549  1.00  0.00     0.037 A 
BRANCH  45  59
ATOM     59  C   UNL     1      -6.356   2.734   7.859  1.00  0.00     0.057 A 
ATOM     60  C   UNL     1      -5.065   3.155   7.514  1.00  0.00     0.134 A 
ATOM     61  C   UNL     1      -6.625   2.539   9.221  1.00  0.00     0.134 A 
ATOM     62  F   UNL     1      -4.734   3.352   6.229  1.00  0.00    -0.206 F 
ATOM     63  C   UNL     1      -4.075   3.347   8.481  1.00  0.00     0.040 A 
ATOM     64  C   UNL     1      -5.652   2.756  10.200  1.00  0.00     0.040 A 
ATOM     65  F   UNL     1      -7.842   2.147   9.626  1.00  0.00    -0.206 F 
ATOM     66  C   UNL     1      -4.370   3.154   9.830  1.00  0.00     0.006 A 
ENDBRANCH  45  59
BRANCH  46  67
ATOM     67  C   UNL     1     -13.414   1.008   1.038  1.00  0.00     0.057 A 
ATOM     68  C   UNL     1     -13.628   1.872  -0.042  1.00  0.00     0.134 A 
ATOM     69  C   UNL     1     -14.240  -0.120   1.132  1.00  0.00     0.134 A 
ATOM     70  F   UNL     1     -12.891   2.984  -0.173  1.00  0.00    -0.206 F 
ATOM     71  C   UNL     1     -14.627   1.628  -0.987  1.00  0.00     0.040 A 
ATOM     72  C   UNL     1     -15.219  -0.395   0.177  1.00  0.00     0.040 A 
ATOM     73  F   UNL     1     -14.087  -0.989   2.143  1.00  0.00    -0.206 F 
ATOM     74  C   UNL     1     -15.419   0.485  -0.883  1.00  0.00     0.006 A 
ENDBRANCH  46  67
BRANCH  58  75
ATOM     75  C   UNL     1     -12.595   5.843   5.968  1.00  0.00     0.057 A 
ATOM     76  C   UNL     1     -13.823   5.668   6.620  1.00  0.00     0.134 A 
ATOM     77  C   UNL     1     -12.178   7.156   5.717  1.00  0.00     0.134 A 
ATOM     78  F   UNL     1     -14.288   4.435   6.876  1.00  0.00    -0.206 F 
ATOM     79  C   UNL     1     -14.621   6.756   6.978  1.00  0.00     0.040 A 
ATOM     80  C   UNL     1     -12.954   8.253   6.095  1.00  0.00     0.040 A 
ATOM     81  F   UNL     1     -11.010   7.395   5.103  1.00  0.00    -0.206 F 
ATOM     82  C   UNL     1     -14.184   8.054   6.719  1.00  0.00     0.006 A 
ENDBRANCH  58  75
ENDBRANCH  32  33
ENDBRANCH  25  27
ENDBRANCH  24  25
ENDBRANCH  23  24
ENDBRANCH  22  23
ENDBRANCH   1  22
TORSDOF 17
