REMARK SMILES COc1ccc(-c2cccc(Cl)c2C(=O)OCCOC(=O)c2ccc(-c3c4nc(c(-c5c(F)cccc5F)c5ccc([nH]5)c(-c5c(F)cccc5F)c5nc(c(-c6c(F)cccc6F)c6ccc3[nH]6)C=C5)C=C4)cc2)c(F)c1
REMARK SMILES IDX 17 1 16 2 14 3 15 4 13 5 7 6 8 7 9 8 11 9 10 10 12 11 6 12
REMARK SMILES IDX 3 13 4 14 78 15 5 16 76 17 77 18 2 19 1 20 18 21 19 22 20 23
REMARK SMILES IDX 21 24 22 25 23 26 75 27 24 28 74 29 25 30 26 31 27 32 68 33
REMARK SMILES IDX 28 34 73 35 67 36 69 37 29 38 72 39 66 40 65 41 30 43 56 44
REMARK SMILES IDX 39 45 55 46 40 47 43 48 54 49 70 50 41 51 42 52 53 54 71 55
REMARK SMILES IDX 44 56 31 57 32 58 37 59 33 60 34 61 36 62 38 63 35 64 57 65
REMARK SMILES IDX 58 66 63 67 59 68 60 69 62 70 64 71 61 72 45 73 46 74 51 75
REMARK SMILES IDX 47 76 48 77 50 78 52 79 49 80
REMARK H PARENT 69 42 43 53
REMARK Flexibility Score: inf
ROOT
ATOM      1  C   UNL     1       5.134   4.067  -6.264  1.00  0.00     0.275 C 
ENDROOT
BRANCH   1   2
ATOM      2  O   UNL     1       4.697   5.006  -5.255  1.00  0.00    -0.458 OA
BRANCH   2   3
ATOM      3  C   UNL     1       3.363   5.239  -5.211  1.00  0.00     0.340 C 
ATOM      4  O   UNL     1       2.516   4.716  -5.916  1.00  0.00    -0.246 OA
BRANCH   3   5
ATOM      5  C   UNL     1       3.038   6.267  -4.197  1.00  0.00     0.086 A 
ATOM      6  C   UNL     1       2.244   5.962  -3.055  1.00  0.00     0.001 A 
ATOM      7  C   UNL     1       1.803   7.022  -2.250  1.00  0.00     0.010 A 
ATOM      8  C   UNL     1       2.141   8.343  -2.558  1.00  0.00     0.002 A 
ATOM      9  C   UNL     1       3.392   7.595  -4.485  1.00  0.00     0.056 A 
ATOM     10  C   UNL     1       2.943   8.627  -3.662  1.00  0.00     0.021 A 
ATOM     11  Cl  UNL     1       4.323   8.043  -5.875  1.00  0.00    -0.083 Cl
BRANCH   6  12
ATOM     12  C   UNL     1       1.784   4.598  -2.760  1.00  0.00     0.019 A 
ATOM     13  C   UNL     1       0.981   0.962  -2.893  1.00  0.00     0.121 A 
ATOM     14  C   UNL     1       2.193   1.513  -1.704  1.00  0.00     0.047 A 
ATOM     15  C   UNL     1       0.230   2.148  -3.933  1.00  0.00     0.086 A 
ATOM     16  C   UNL     1       2.612   3.491  -1.581  1.00  0.00     0.015 A 
ATOM     17  C   UNL     1       0.607   3.875  -3.870  1.00  0.00     0.134 A 
ATOM     18  F   UNL     1      -0.074   4.688  -4.693  1.00  0.00    -0.206 F 
BRANCH  13  19
ATOM     19  O   UNL     1       0.472  -0.306  -2.916  1.00  0.00    -0.497 OA
ATOM     20  C   UNL     1       0.624  -0.999  -1.677  1.00  0.00     0.278 C 
ENDBRANCH  13  19
ENDBRANCH   6  12
ENDBRANCH   3   5
ENDBRANCH   2   3
ENDBRANCH   1   2
BRANCH   1  21
ATOM     21  C   UNL     1       5.887   2.916  -5.609  1.00  0.00     0.275 C 
BRANCH  21  22
ATOM     22  O   UNL     1       4.986   2.253  -4.706  1.00  0.00    -0.458 OA
BRANCH  22  23
ATOM     23  C   UNL     1       5.183   2.562  -3.411  1.00  0.00     0.338 C 
ATOM     24  O   UNL     1       6.135   3.137  -2.909  1.00  0.00    -0.246 OA
BRANCH  23  25
ATOM     25  C   UNL     1       3.999   2.230  -2.625  1.00  0.00     0.060 A 
ATOM     26  C   UNL     1       2.352   2.604  -3.235  1.00  0.00     0.016 A 
ATOM     27  C   UNL     1       4.222   2.054  -0.894  1.00  0.00     0.016 A 
ATOM     28  C   UNL     1       0.871   2.854  -1.878  1.00  0.00     0.010 A 
ATOM     29  C   UNL     1       2.896   2.196   0.281  1.00  0.00     0.010 A 
ATOM     30  C   UNL     1       1.208   2.574  -0.129  1.00  0.00    -0.014 A 
BRANCH  30  31
ATOM     31  C   UNL     1       0.073   2.288   0.875  1.00  0.00     0.031 A 
ATOM     32  C   UNL     1       0.344   2.276   2.376  1.00  0.00     0.074 A 
ATOM     33  C   UNL     1      -1.166   1.859   0.504  1.00  0.00     0.049 A 
ATOM     34  N   UNL     1      -0.323   1.685   3.343  1.00  0.00    -0.248 NA
ATOM     35  C   UNL     1       1.560   2.952   2.846  1.00  0.00     0.031 C 
ATOM     36  C   UNL     1      -1.666   1.691  -0.852  1.00  0.00     0.029 A 
ATOM     37  N   UNL     1      -2.252   1.426   1.254  1.00  0.00    -0.354 N 
ATOM     38  C   UNL     1       0.446   1.837   4.495  1.00  0.00     0.074 A 
ATOM     39  C   UNL     1       1.673   2.482   4.081  1.00  0.00     0.031 C 
ATOM     40  C   UNL     1      -2.923   1.256  -0.865  1.00  0.00     0.029 A 
ATOM     41  C   UNL     1      -3.325   0.997   0.494  1.00  0.00     0.049 A 
ATOM     42  H   UNL     1      -2.257   1.425   2.239  1.00  0.00     0.167 HD
ATOM     43  C   UNL     1       0.145   1.546   5.787  1.00  0.00     0.037 A 
ATOM     44  C   UNL     1      -4.502   0.410   0.780  1.00  0.00     0.037 A 
ATOM     45  C   UNL     1      -1.142   1.073   6.237  1.00  0.00     0.049 A 
ATOM     46  C   UNL     1      -4.851   0.149   2.200  1.00  0.00     0.074 A 
ATOM     47  C   UNL     1      -1.587   0.902   7.539  1.00  0.00     0.029 A 
ATOM     48  N   UNL     1      -2.204   0.741   5.410  1.00  0.00    -0.354 N 
ATOM     49  N   UNL     1      -4.103   0.315   3.259  1.00  0.00    -0.248 NA
ATOM     50  C   UNL     1      -6.202  -0.353   2.472  1.00  0.00     0.031 C 
ATOM     51  C   UNL     1      -2.909   0.451   7.499  1.00  0.00     0.029 A 
ATOM     52  C   UNL     1      -3.303   0.376   6.175  1.00  0.00     0.049 A 
ATOM     53  H   UNL     1      -2.182   0.762   4.426  1.00  0.00     0.167 HD
ATOM     54  C   UNL     1      -4.905  -0.022   4.333  1.00  0.00     0.074 A 
ATOM     55  C   UNL     1      -6.196  -0.405   3.797  1.00  0.00     0.031 C 
ATOM     56  C   UNL     1      -4.589   0.001   5.648  1.00  0.00     0.037 A 
BRANCH  43  57
ATOM     57  C   UNL     1       1.198   1.809   6.838  1.00  0.00     0.057 A 
ATOM     58  C   UNL     1       1.744   0.761   7.594  1.00  0.00     0.134 A 
ATOM     59  C   UNL     1       1.636   3.106   7.142  1.00  0.00     0.134 A 
ATOM     60  F   UNL     1       1.354  -0.506   7.388  1.00  0.00    -0.206 F 
ATOM     61  C   UNL     1       2.692   0.993   8.595  1.00  0.00     0.040 A 
ATOM     62  C   UNL     1       2.614   3.347   8.110  1.00  0.00     0.040 A 
ATOM     63  F   UNL     1       1.153   4.162   6.469  1.00  0.00    -0.206 F 
ATOM     64  C   UNL     1       3.141   2.288   8.845  1.00  0.00     0.006 A 
ENDBRANCH  43  57
BRANCH  44  65
ATOM     65  C   UNL     1      -5.447   0.085  -0.327  1.00  0.00     0.057 A 
ATOM     66  C   UNL     1      -5.199  -0.960  -1.228  1.00  0.00     0.134 A 
ATOM     67  C   UNL     1      -6.565   0.891  -0.569  1.00  0.00     0.134 A 
ATOM     68  F   UNL     1      -4.125  -1.749  -1.072  1.00  0.00    -0.206 F 
ATOM     69  C   UNL     1      -6.014  -1.174  -2.343  1.00  0.00     0.040 A 
ATOM     70  C   UNL     1      -7.403   0.672  -1.664  1.00  0.00     0.040 A 
ATOM     71  F   UNL     1      -6.856   1.905   0.259  1.00  0.00    -0.206 F 
ATOM     72  C   UNL     1      -7.121  -0.357  -2.562  1.00  0.00     0.006 A 
ENDBRANCH  44  65
BRANCH  56  73
ATOM     73  C   UNL     1      -5.677  -0.350   6.612  1.00  0.00     0.057 A 
ATOM     74  C   UNL     1      -6.262   0.642   7.408  1.00  0.00     0.134 A 
ATOM     75  C   UNL     1      -6.120  -1.667   6.777  1.00  0.00     0.134 A 
ATOM     76  F   UNL     1      -5.883   1.923   7.291  1.00  0.00    -0.206 F 
ATOM     77  C   UNL     1      -7.240   0.332   8.352  1.00  0.00     0.040 A 
ATOM     78  C   UNL     1      -7.117  -1.985   7.700  1.00  0.00     0.040 A 
ATOM     79  F   UNL     1      -5.615  -2.655   6.023  1.00  0.00    -0.206 F 
ATOM     80  C   UNL     1      -7.671  -0.985   8.498  1.00  0.00     0.006 A 
ENDBRANCH  56  73
ENDBRANCH  30  31
ENDBRANCH  23  25
ENDBRANCH  22  23
ENDBRANCH  21  22
ENDBRANCH   1  21
TORSDOF 13
