REMARK SMILES O=C(OCCOC(=O)c1ccc(-c2c3nc(c(-c4c(F)cccc4F)c4ccc([nH]4)c(-c4c(F)cccc4F)c4nc(c(-c5c(F)cccc5F)c5ccc2[nH]5)C=C4)C=C3)cc1)C1=C[C@H]2C(=N1)C=CC(Cl)=C2Cl
REMARK SMILES IDX 5 1 4 2 3 3 2 4 1 5 63 6 64 7 67 8 65 9 66 10 72 11 68 12
REMARK SMILES IDX 70 13 73 14 69 15 71 16 6 17 7 18 8 19 9 20 10 21 62 22
REMARK SMILES IDX 11 23 61 24 12 25 13 26 14 27 55 28 15 29 60 30 54 31 56 32
REMARK SMILES IDX 16 33 59 34 53 35 52 36 17 38 43 39 26 40 42 41 27 42 30 43
REMARK SMILES IDX 41 44 57 45 28 46 29 47 40 49 58 50 31 51 18 52 19 53 24 54
REMARK SMILES IDX 20 55 21 56 23 57 25 58 22 59 44 60 45 61 50 62 46 63 47 64
REMARK SMILES IDX 49 65 51 66 48 67 32 68 33 69 38 70 34 71 35 72 37 73 39 74
REMARK SMILES IDX 36 75
REMARK H PARENT 56 37 30 48
REMARK Flexibility Score: inf
ROOT
ATOM      1  C   UNL     1       4.444  -1.246   1.613  1.00  0.00     0.275 C 
ENDROOT
BRANCH   1   2
ATOM      2  C   UNL     1       4.677   0.096   0.915  1.00  0.00     0.275 C 
BRANCH   2   3
ATOM      3  O   UNL     1       3.434   0.643   0.447  1.00  0.00    -0.457 OA
BRANCH   3   4
ATOM      4  C   UNL     1       2.961   0.483  -0.806  1.00  0.00     0.356 C 
ATOM      5  O   UNL     1       1.819   0.838  -1.096  1.00  0.00    -0.244 OA
BRANCH   4   6
ATOM      6  C   UNL     1       3.843  -0.089  -1.853  1.00  0.00     0.145 C 
ATOM      7  C   UNL     1       3.653   0.320  -3.111  1.00  0.00     0.024 C 
ATOM      8  N   UNL     1       4.647  -1.208  -1.742  1.00  0.00    -0.245 NA
ATOM      9  C   UNL     1       4.319  -0.627  -4.023  1.00  0.00     0.107 C 
ATOM     10  C   UNL     1       4.843  -1.577  -2.968  1.00  0.00     0.054 C 
ATOM     11  C   UNL     1       3.469  -1.451  -4.917  1.00  0.00     0.050 C 
ATOM     12  C   UNL     1       5.442  -2.857  -3.408  1.00  0.00     0.026 C 
ATOM     13  C   UNL     1       3.970  -2.616  -5.357  1.00  0.00     0.056 C 
ATOM     14  Cl  UNL     1       1.801  -1.051  -5.104  1.00  0.00    -0.086 Cl
ATOM     15  C   UNL     1       5.003  -3.311  -4.596  1.00  0.00     0.023 C 
ATOM     16  Cl  UNL     1       4.127  -2.727  -7.081  1.00  0.00    -0.083 Cl
ENDBRANCH   4   6
ENDBRANCH   3   4
ENDBRANCH   2   3
ENDBRANCH   1   2
BRANCH   1  17
ATOM     17  O   UNL     1       3.851  -2.226   0.742  1.00  0.00    -0.458 OA
BRANCH  17  18
ATOM     18  C   UNL     1       2.497  -2.375   0.792  1.00  0.00     0.338 C 
ATOM     19  O   UNL     1       1.737  -1.840   1.564  1.00  0.00    -0.246 OA
BRANCH  18  20
ATOM     20  C   UNL     1       2.070  -3.271  -0.324  1.00  0.00     0.060 A 
ATOM     21  C   UNL     1       0.831  -3.074  -0.952  1.00  0.00     0.016 A 
ATOM     22  C   UNL     1       2.892  -4.314  -0.749  1.00  0.00     0.016 A 
ATOM     23  C   UNL     1       0.420  -3.910  -2.013  1.00  0.00     0.010 A 
ATOM     24  C   UNL     1       2.492  -5.129  -1.812  1.00  0.00     0.010 A 
ATOM     25  C   UNL     1       1.249  -4.949  -2.455  1.00  0.00    -0.014 A 
BRANCH  25  26
ATOM     26  C   UNL     1       0.884  -5.960  -3.494  1.00  0.00     0.031 A 
ATOM     27  C   UNL     1       0.690  -7.385  -3.077  1.00  0.00     0.074 A 
ATOM     28  C   UNL     1       0.921  -5.696  -4.814  1.00  0.00     0.049 A 
ATOM     29  N   UNL     1       0.645  -8.460  -3.819  1.00  0.00    -0.248 NA
ATOM     30  C   UNL     1       0.510  -7.623  -1.639  1.00  0.00     0.031 C 
ATOM     31  C   UNL     1       0.941  -4.375  -5.412  1.00  0.00     0.029 A 
ATOM     32  N   UNL     1       1.050  -6.544  -5.894  1.00  0.00    -0.354 N 
ATOM     33  C   UNL     1       0.363  -9.496  -2.948  1.00  0.00     0.074 A 
ATOM     34  C   UNL     1       0.388  -8.941  -1.609  1.00  0.00     0.031 C 
ATOM     35  C   UNL     1       1.274  -4.481  -6.710  1.00  0.00     0.029 A 
ATOM     36  C   UNL     1       1.452  -5.889  -7.039  1.00  0.00     0.049 A 
ATOM     37  H   UNL     1       0.875  -7.512  -5.852  1.00  0.00     0.167 HD
ATOM     38  C   UNL     1       0.037 -10.776  -3.244  1.00  0.00     0.037 A 
ATOM     39  C   UNL     1       1.929  -6.367  -8.206  1.00  0.00     0.037 A 
ATOM     40  C   UNL     1       0.038 -11.329  -4.572  1.00  0.00     0.049 A 
ATOM     41  C   UNL     1       1.820  -7.834  -8.488  1.00  0.00     0.074 A 
ATOM     42  C   UNL     1      -0.349 -12.592  -4.982  1.00  0.00     0.029 A 
ATOM     43  N   UNL     1       0.480 -10.661  -5.704  1.00  0.00    -0.354 N 
ATOM     44  N   UNL     1       1.435  -8.794  -7.687  1.00  0.00    -0.248 NA
ATOM     45  C   UNL     1       2.104  -8.270  -9.863  1.00  0.00     0.031 C 
ATOM     46  C   UNL     1      -0.073 -12.711  -6.349  1.00  0.00     0.029 A 
ATOM     47  C   UNL     1       0.427 -11.502  -6.803  1.00  0.00     0.049 A 
ATOM     48  H   UNL     1       0.787  -9.725  -5.723  1.00  0.00     0.167 HD
ATOM     49  C   UNL     1       1.316  -9.922  -8.485  1.00  0.00     0.074 A 
ATOM     50  C   UNL     1       1.740  -9.544  -9.817  1.00  0.00     0.031 C 
ATOM     51  C   UNL     1       0.834 -11.139  -8.139  1.00  0.00     0.037 A 
BRANCH  38  52
ATOM     52  C   UNL     1      -0.360 -11.637  -2.086  1.00  0.00     0.057 A 
ATOM     53  C   UNL     1      -1.530 -11.382  -1.353  1.00  0.00     0.134 A 
ATOM     54  C   UNL     1       0.454 -12.691  -1.661  1.00  0.00     0.134 A 
ATOM     55  F   UNL     1      -2.349 -10.379  -1.707  1.00  0.00    -0.206 F 
ATOM     56  C   UNL     1      -1.837 -12.099  -0.199  1.00  0.00     0.040 A 
ATOM     57  C   UNL     1       0.138 -13.439  -0.527  1.00  0.00     0.040 A 
ATOM     58  F   UNL     1       1.579 -12.995  -2.325  1.00  0.00    -0.206 F 
ATOM     59  C   UNL     1      -1.000 -13.131   0.218  1.00  0.00     0.006 A 
ENDBRANCH  38  52
BRANCH  39  60
ATOM     60  C   UNL     1       2.513  -5.467  -9.230  1.00  0.00     0.057 A 
ATOM     61  C   UNL     1       1.765  -4.986 -10.307  1.00  0.00     0.134 A 
ATOM     62  C   UNL     1       3.871  -5.129  -9.186  1.00  0.00     0.134 A 
ATOM     63  F   UNL     1       0.478  -5.334 -10.439  1.00  0.00    -0.206 F 
ATOM     64  C   UNL     1       2.341  -4.184 -11.295  1.00  0.00     0.040 A 
ATOM     65  C   UNL     1       4.454  -4.304 -10.152  1.00  0.00     0.040 A 
ATOM     66  F   UNL     1       4.649  -5.586  -8.192  1.00  0.00    -0.206 F 
ATOM     67  C   UNL     1       3.687  -3.829 -11.212  1.00  0.00     0.006 A 
ENDBRANCH  39  60
BRANCH  51  68
ATOM     68  C   UNL     1       0.646 -12.152  -9.228  1.00  0.00     0.057 A 
ATOM     69  C   UNL     1       1.720 -12.801  -9.846  1.00  0.00     0.134 A 
ATOM     70  C   UNL     1      -0.648 -12.534  -9.611  1.00  0.00     0.134 A 
ATOM     71  F   UNL     1       2.983 -12.464  -9.545  1.00  0.00    -0.206 F 
ATOM     72  C   UNL     1       1.514 -13.797 -10.802  1.00  0.00     0.040 A 
ATOM     73  C   UNL     1      -0.867 -13.548 -10.543  1.00  0.00     0.040 A 
ATOM     74  F   UNL     1      -1.723 -11.946  -9.062  1.00  0.00    -0.206 F 
ATOM     75  C   UNL     1       0.218 -14.184 -11.141  1.00  0.00     0.006 A 
ENDBRANCH  51  68
ENDBRANCH  25  26
ENDBRANCH  18  20
ENDBRANCH  17  18
ENDBRANCH   1  17
TORSDOF 11
