REMARK SMILES Cc1ccc2c(=O)c3cccc(CC(=O)OCCOC(=O)c4ccc(-c5c6nc(c(-c7c(F)cccc7F)c7ccc([nH]7)c(-c7c(F)cccc7F)c7nc(c(-c8c(F)cccc8F)c8ccc5[nH]8)C=C7)C=C6)cc4)c3oc2c1C
REMARK SMILES IDX 18 1 17 2 16 3 14 4 15 5 13 6 12 7 1 8 2 9 3 10 79 11 4 12
REMARK SMILES IDX 78 13 80 14 5 15 77 16 6 17 76 18 7 19 8 20 9 21 11 22 10 23
REMARK SMILES IDX 19 24 20 25 21 26 22 27 23 28 75 29 24 30 74 31 25 32 26 33
REMARK SMILES IDX 27 34 68 35 28 36 73 37 67 38 69 39 29 40 72 41 66 42 65 43
REMARK SMILES IDX 30 45 56 46 39 47 55 48 40 49 43 50 54 51 70 52 41 53 42 54
REMARK SMILES IDX 53 56 71 57 44 58 31 59 32 60 37 61 33 62 34 63 36 64 38 65
REMARK SMILES IDX 35 66 57 67 58 68 63 69 59 70 60 71 62 72 64 73 61 74 45 75
REMARK SMILES IDX 46 76 51 77 47 78 48 79 50 80 52 81 49 82
REMARK H PARENT 69 44 43 55
REMARK Flexibility Score: inf
ROOT
ATOM      1  C   UNL     1       1.997   3.047   6.222  1.00  0.00     0.275 C 
ENDROOT
BRANCH   1   2
ATOM      2  C   UNL     1       1.316   2.498   7.482  1.00  0.00     0.274 C 
BRANCH   2   3
ATOM      3  O   UNL     1       0.391   1.431   7.180  1.00  0.00    -0.462 OA
BRANCH   3   4
ATOM      4  C   UNL     1      -0.918   1.782   7.110  1.00  0.00     0.310 C 
ATOM      5  O   UNL     1      -1.340   2.915   7.335  1.00  0.00    -0.252 OA
BRANCH   4   6
ATOM      6  C   UNL     1      -1.841   0.693   6.614  1.00  0.00     0.162 C 
BRANCH   6   7
ATOM      7  C   UNL     1      -1.419  -0.743   6.787  1.00  0.00     0.007 A 
ATOM      8  C   UNL     1       1.076  -0.919  -0.088  1.00  0.00     0.045 C 
ATOM      9  C   UNL     1       0.689  -1.619   1.190  1.00  0.00    -0.044 A 
ATOM     10  C   UNL     1       1.084  -2.953   1.356  1.00  0.00     0.005 A 
ATOM     11  C   UNL     1      -0.077  -0.992   2.202  1.00  0.00    -0.005 A 
ATOM     12  C   UNL     1       0.771  -3.642   2.525  1.00  0.00     0.016 A 
ATOM     13  C   UNL     1      -0.305  -1.659   3.425  1.00  0.00     0.141 A 
ATOM     14  C   UNL     1      -0.632   0.378   1.957  1.00  0.00     0.049 C 
ATOM     15  C   UNL     1       0.100  -2.985   3.557  1.00  0.00     0.066 A 
ATOM     16  O   UNL     1      -0.918  -0.965   4.450  1.00  0.00    -0.455 OA
ATOM     17  C   UNL     1      -0.187  -3.691   4.810  1.00  0.00     0.200 A 
ATOM     18  C   UNL     1      -0.983  -1.536   5.705  1.00  0.00     0.142 A 
ATOM     19  O   UNL     1      -0.004  -4.896   4.924  1.00  0.00    -0.288 OA
ATOM     20  C   UNL     1      -0.679  -2.879   5.928  1.00  0.00     0.066 A 
ATOM     21  C   UNL     1      -0.824  -3.454   7.195  1.00  0.00     0.016 A 
ATOM     22  C   UNL     1      -1.536  -1.324   8.064  1.00  0.00     0.008 A 
ATOM     23  C   UNL     1      -1.251  -2.673   8.264  1.00  0.00     0.001 A 
ENDBRANCH   6   7
ENDBRANCH   4   6
ENDBRANCH   3   4
ENDBRANCH   2   3
ENDBRANCH   1   2
BRANCH   1  24
ATOM     24  O   UNL     1       1.059   3.669   5.320  1.00  0.00    -0.458 OA
BRANCH  24  25
ATOM     25  C   UNL     1       0.546   2.808   4.414  1.00  0.00     0.338 C 
ATOM     26  O   UNL     1       0.805   1.621   4.315  1.00  0.00    -0.246 OA
BRANCH  25  27
ATOM     27  C   UNL     1      -0.452   3.443   3.541  1.00  0.00     0.060 A 
ATOM     28  C   UNL     1      -0.058   3.962   2.305  1.00  0.00     0.016 A 
ATOM     29  C   UNL     1      -1.805   3.242   3.823  1.00  0.00     0.016 A 
ATOM     30  C   UNL     1      -1.029   4.262   1.344  1.00  0.00     0.010 A 
ATOM     31  C   UNL     1      -2.766   3.488   2.847  1.00  0.00     0.010 A 
ATOM     32  C   UNL     1      -2.386   4.009   1.603  1.00  0.00    -0.014 A 
BRANCH  32  33
ATOM     33  C   UNL     1      -3.433   4.384   0.627  1.00  0.00     0.031 A 
ATOM     34  C   UNL     1      -4.198   5.652   0.853  1.00  0.00     0.074 A 
ATOM     35  C   UNL     1      -3.732   3.593  -0.420  1.00  0.00     0.049 A 
ATOM     36  N   UNL     1      -5.068   6.242   0.076  1.00  0.00    -0.248 NA
ATOM     37  C   UNL     1      -3.958   6.344   2.131  1.00  0.00     0.031 C 
ATOM     38  C   UNL     1      -3.113   2.303  -0.713  1.00  0.00     0.029 A 
ATOM     39  N   UNL     1      -4.644   3.760  -1.432  1.00  0.00    -0.354 N 
ATOM     40  C   UNL     1      -5.447   7.392   0.752  1.00  0.00     0.074 A 
ATOM     41  C   UNL     1      -4.780   7.376   2.035  1.00  0.00     0.031 C 
ATOM     42  C   UNL     1      -3.655   1.796  -1.834  1.00  0.00     0.029 A 
ATOM     43  C   UNL     1      -4.652   2.733  -2.344  1.00  0.00     0.049 A 
ATOM     44  H   UNL     1      -5.238   4.543  -1.497  1.00  0.00     0.167 HD
ATOM     45  C   UNL     1      -6.248   8.394   0.327  1.00  0.00     0.037 A 
ATOM     46  C   UNL     1      -5.369   2.584  -3.475  1.00  0.00     0.037 A 
ATOM     47  C   UNL     1      -6.932   8.397  -0.935  1.00  0.00     0.049 A 
ATOM     48  C   UNL     1      -6.314   3.676  -3.893  1.00  0.00     0.074 A 
ATOM     49  C   UNL     1      -7.705   9.393  -1.501  1.00  0.00     0.029 A 
ATOM     50  N   UNL     1      -6.943   7.326  -1.816  1.00  0.00    -0.354 N 
ATOM     51  N   UNL     1      -6.543   4.835  -3.324  1.00  0.00    -0.248 NA
ATOM     52  C   UNL     1      -7.093   3.444  -5.119  1.00  0.00     0.031 C 
ATOM     53  C   UNL     1      -8.220   8.908  -2.710  1.00  0.00     0.029 A 
ATOM     54  C   UNL     1      -7.745   7.620  -2.904  1.00  0.00     0.049 A 
ATOM     55  H   UNL     1      -6.453   6.482  -1.686  1.00  0.00     0.167 HD
ATOM     56  C   UNL     1      -7.463   5.484  -4.137  1.00  0.00     0.074 A 
ATOM     57  C   UNL     1      -7.751   4.588  -5.240  1.00  0.00     0.031 C 
ATOM     58  C   UNL     1      -8.014   6.713  -3.990  1.00  0.00     0.037 A 
BRANCH  45  59
ATOM     59  C   UNL     1      -6.394   9.563   1.249  1.00  0.00     0.057 A 
ATOM     60  C   UNL     1      -7.559   9.750   1.999  1.00  0.00     0.134 A 
ATOM     61  C   UNL     1      -5.345  10.476   1.432  1.00  0.00     0.134 A 
ATOM     62  F   UNL     1      -8.592   8.905   1.875  1.00  0.00    -0.206 F 
ATOM     63  C   UNL     1      -7.670  10.799   2.913  1.00  0.00     0.040 A 
ATOM     64  C   UNL     1      -5.438  11.516   2.356  1.00  0.00     0.040 A 
ATOM     65  F   UNL     1      -4.193  10.331   0.759  1.00  0.00    -0.206 F 
ATOM     66  C   UNL     1      -6.605  11.680   3.100  1.00  0.00     0.006 A 
ENDBRANCH  45  59
BRANCH  46  67
ATOM     67  C   UNL     1      -5.185   1.388  -4.333  1.00  0.00     0.057 A 
ATOM     68  C   UNL     1      -5.720   0.143  -3.983  1.00  0.00     0.134 A 
ATOM     69  C   UNL     1      -4.502   1.479  -5.551  1.00  0.00     0.134 A 
ATOM     70  F   UNL     1      -6.389  -0.007  -2.831  1.00  0.00    -0.206 F 
ATOM     71  C   UNL     1      -5.584  -0.969  -4.817  1.00  0.00     0.040 A 
ATOM     72  C   UNL     1      -4.371   0.380  -6.401  1.00  0.00     0.040 A 
ATOM     73  F   UNL     1      -3.988   2.652  -5.948  1.00  0.00    -0.206 F 
ATOM     74  C   UNL     1      -4.913  -0.850  -6.034  1.00  0.00     0.006 A 
ENDBRANCH  46  67
BRANCH  58  75
ATOM     75  C   UNL     1      -8.966   7.164  -5.054  1.00  0.00     0.057 A 
ATOM     76  C   UNL     1      -8.579   8.121  -5.999  1.00  0.00     0.134 A 
ATOM     77  C   UNL     1     -10.277   6.678  -5.116  1.00  0.00     0.134 A 
ATOM     78  F   UNL     1      -7.337   8.626  -5.988  1.00  0.00    -0.206 F 
ATOM     79  C   UNL     1      -9.469   8.587  -6.967  1.00  0.00     0.040 A 
ATOM     80  C   UNL     1     -11.170   7.123  -6.092  1.00  0.00     0.040 A 
ATOM     81  F   UNL     1     -10.699   5.747  -4.247  1.00  0.00    -0.206 F 
ATOM     82  C   UNL     1     -10.768   8.085  -7.016  1.00  0.00     0.006 A 
ENDBRANCH  58  75
ENDBRANCH  32  33
ENDBRANCH  25  27
ENDBRANCH  24  25
ENDBRANCH   1  24
TORSDOF 12
