REMARK SMILES COc1ccc2cc([C@@H](C)C(=O)OCCOC(=O)c3ccc(-c4c5nc(c(-c6c(F)cccc6F)c6ccc([nH]6)c(-c6c(F)cccc6F)c6nc(c(-c7c(F)cccc7F)c7ccc4[nH]7)C=C6)C=C5)cc3)ccc2c1
REMARK SMILES IDX 14 1 13 2 11 3 12 4 9 5 10 6 8 7 3 8 4 9 76 10 5 11 75 12
REMARK SMILES IDX 6 13 74 14 7 15 73 16 2 17 1 18 15 19 16 20 17 21 18 22
REMARK SMILES IDX 19 23 20 24 72 25 21 26 71 27 22 28 23 29 24 30 65 31 25 32
REMARK SMILES IDX 70 33 64 34 66 35 26 36 69 37 63 38 62 39 27 41 53 42 36 43
REMARK SMILES IDX 52 44 37 45 40 46 51 47 67 48 38 49 39 50 50 52 68 53 41 54
REMARK SMILES IDX 28 55 29 56 34 57 30 58 31 59 33 60 35 61 32 62 54 63 55 64
REMARK SMILES IDX 60 65 56 66 57 67 59 68 61 69 58 70 42 71 43 72 48 73 44 74
REMARK SMILES IDX 45 75 47 76 49 77 46 78
REMARK H PARENT 66 40 40 51
REMARK Flexibility Score: inf
ROOT
ATOM      1  C   UNL     1       3.853   8.986   3.358  1.00  0.00     0.274 C 
ENDROOT
BRANCH   1   2
ATOM      2  O   UNL     1       3.023   7.891   3.792  1.00  0.00    -0.462 OA
BRANCH   2   3
ATOM      3  C   UNL     1       2.157   8.141   4.807  1.00  0.00     0.313 C 
ATOM      4  O   UNL     1       2.087   9.210   5.408  1.00  0.00    -0.252 OA
BRANCH   3   5
ATOM      5  C   UNL     1       1.292   6.945   5.187  1.00  0.00     0.126 C 
ATOM      6  C   UNL     1       1.885   6.245   6.409  1.00  0.00     0.025 C 
BRANCH   5   7
ATOM      7  C   UNL     1       0.962   5.974   4.064  1.00  0.00    -0.033 A 
ATOM      8  C   UNL     1       0.930   2.321   0.533  1.00  0.00     0.119 A 
ATOM      9  C   UNL     1       2.246   2.411   0.980  1.00  0.00     0.047 A 
ATOM     10  C   UNL     1      -0.036   3.200   1.023  1.00  0.00     0.055 A 
ATOM     11  C   UNL     1       2.583   3.345   1.962  1.00  0.00     0.012 A 
ATOM     12  C   UNL     1       0.288   4.135   2.018  1.00  0.00    -0.015 A 
ATOM     13  C   UNL     1       1.612   4.201   2.503  1.00  0.00    -0.018 A 
ATOM     14  C   UNL     1      -0.677   5.001   2.549  1.00  0.00     0.009 A 
ATOM     15  C   UNL     1       1.931   5.118   3.518  1.00  0.00     0.013 A 
ATOM     16  C   UNL     1      -0.345   5.905   3.561  1.00  0.00     0.005 A 
BRANCH   8  17
ATOM     17  O   UNL     1       0.514   1.427  -0.417  1.00  0.00    -0.497 OA
ATOM     18  C   UNL     1       0.993   0.103  -0.189  1.00  0.00     0.278 C 
ENDBRANCH   8  17
ENDBRANCH   5   7
ENDBRANCH   3   5
ENDBRANCH   2   3
ENDBRANCH   1   2
BRANCH   1  19
ATOM     19  C   UNL     1       3.297   9.639   2.091  1.00  0.00     0.275 C 
BRANCH  19  20
ATOM     20  O   UNL     1       2.071  10.341   2.363  1.00  0.00    -0.458 OA
BRANCH  20  21
ATOM     21  C   UNL     1       0.941   9.660   2.064  1.00  0.00     0.338 C 
ATOM     22  O   UNL     1       0.847   8.562   1.548  1.00  0.00    -0.246 OA
BRANCH  21  23
ATOM     23  C   UNL     1      -0.222  10.402   2.566  1.00  0.00     0.060 A 
ATOM     24  C   UNL     1      -0.931   9.863   3.642  1.00  0.00     0.016 A 
ATOM     25  C   UNL     1      -0.663  11.565   1.934  1.00  0.00     0.016 A 
ATOM     26  C   UNL     1      -2.097  10.477   4.088  1.00  0.00     0.010 A 
ATOM     27  C   UNL     1      -1.831  12.186   2.387  1.00  0.00     0.010 A 
ATOM     28  C   UNL     1      -2.561  11.639   3.457  1.00  0.00    -0.014 A 
BRANCH  28  29
ATOM     29  C   UNL     1      -3.835  12.252   3.897  1.00  0.00     0.031 A 
ATOM     30  C   UNL     1      -5.072  12.086   3.064  1.00  0.00     0.074 A 
ATOM     31  C   UNL     1      -3.882  12.938   5.053  1.00  0.00     0.049 A 
ATOM     32  N   UNL     1      -6.261  12.604   3.239  1.00  0.00    -0.248 NA
ATOM     33  C   UNL     1      -4.958  11.223   1.878  1.00  0.00     0.031 C 
ATOM     34  C   UNL     1      -2.755  13.136   5.965  1.00  0.00     0.029 A 
ATOM     35  N   UNL     1      -4.921  13.602   5.654  1.00  0.00    -0.354 N 
ATOM     36  C   UNL     1      -7.030  12.150   2.176  1.00  0.00     0.074 A 
ATOM     37  C   UNL     1      -6.173  11.320   1.356  1.00  0.00     0.031 C 
ATOM     38  C   UNL     1      -3.162  13.877   7.009  1.00  0.00     0.029 A 
ATOM     39  C   UNL     1      -4.564  14.237   6.819  1.00  0.00     0.049 A 
ATOM     40  H   UNL     1      -5.834  13.622   5.287  1.00  0.00     0.167 HD
ATOM     41  C   UNL     1      -8.334  12.403   1.911  1.00  0.00     0.037 A 
ATOM     42  C   UNL     1      -5.282  15.041   7.625  1.00  0.00     0.037 A 
ATOM     43  C   UNL     1      -9.190  13.210   2.738  1.00  0.00     0.049 A 
ATOM     44  C   UNL     1      -6.716  15.335   7.287  1.00  0.00     0.074 A 
ATOM     45  C   UNL     1     -10.531  13.506   2.562  1.00  0.00     0.029 A 
ATOM     46  N   UNL     1      -8.789  13.849   3.901  1.00  0.00    -0.354 N 
ATOM     47  N   UNL     1      -7.433  14.899   6.279  1.00  0.00    -0.248 NA
ATOM     48  C   UNL     1      -7.440  16.237   8.194  1.00  0.00     0.031 C 
ATOM     49  C   UNL     1     -10.933  14.350   3.603  1.00  0.00     0.029 A 
ATOM     50  C   UNL     1      -9.851  14.552   4.444  1.00  0.00     0.049 A 
ATOM     51  H   UNL     1      -7.883  13.809   4.284  1.00  0.00     0.167 HD
ATOM     52  C   UNL     1      -8.693  15.461   6.439  1.00  0.00     0.074 A 
ATOM     53  C   UNL     1      -8.648  16.256   7.649  1.00  0.00     0.031 C 
ATOM     54  C   UNL     1      -9.788  15.333   5.651  1.00  0.00     0.037 A 
BRANCH  41  55
ATOM     55  C   UNL     1      -8.911  11.818   0.659  1.00  0.00     0.057 A 
ATOM     56  C   UNL     1      -9.255  10.464   0.567  1.00  0.00     0.134 A 
ATOM     57  C   UNL     1      -9.172  12.631  -0.451  1.00  0.00     0.134 A 
ATOM     58  F   UNL     1      -9.017   9.631   1.591  1.00  0.00    -0.206 F 
ATOM     59  C   UNL     1      -9.829   9.937  -0.592  1.00  0.00     0.040 A 
ATOM     60  C   UNL     1      -9.762  12.120  -1.607  1.00  0.00     0.040 A 
ATOM     61  F   UNL     1      -8.868  13.938  -0.424  1.00  0.00    -0.206 F 
ATOM     62  C   UNL     1     -10.090  10.767  -1.680  1.00  0.00     0.006 A 
ENDBRANCH  41  55
BRANCH  42  63
ATOM     63  C   UNL     1      -4.647  15.651   8.819  1.00  0.00     0.057 A 
ATOM     64  C   UNL     1      -4.995  15.248  10.112  1.00  0.00     0.134 A 
ATOM     65  C   UNL     1      -3.690  16.665   8.692  1.00  0.00     0.134 A 
ATOM     66  F   UNL     1      -5.924  14.297  10.296  1.00  0.00    -0.206 F 
ATOM     67  C   UNL     1      -4.425  15.841  11.239  1.00  0.00     0.040 A 
ATOM     68  C   UNL     1      -3.095  17.252   9.809  1.00  0.00     0.040 A 
ATOM     69  F   UNL     1      -3.316  17.095   7.478  1.00  0.00    -0.206 F 
ATOM     70  C   UNL     1      -3.468  16.843  11.089  1.00  0.00     0.006 A 
ENDBRANCH  42  63
BRANCH  54  71
ATOM     71  C   UNL     1     -11.029  16.050   6.088  1.00  0.00     0.057 A 
ATOM     72  C   UNL     1     -11.170  17.434   5.932  1.00  0.00     0.134 A 
ATOM     73  C   UNL     1     -12.105  15.344   6.641  1.00  0.00     0.134 A 
ATOM     74  F   UNL     1     -10.169  18.166   5.422  1.00  0.00    -0.206 F 
ATOM     75  C   UNL     1     -12.334  18.095   6.327  1.00  0.00     0.040 A 
ATOM     76  C   UNL     1     -13.281  15.991   7.021  1.00  0.00     0.040 A 
ATOM     77  F   UNL     1     -12.032  14.015   6.811  1.00  0.00    -0.206 F 
ATOM     78  C   UNL     1     -13.396  17.372   6.868  1.00  0.00     0.006 A 
ENDBRANCH  54  71
ENDBRANCH  28  29
ENDBRANCH  21  23
ENDBRANCH  20  21
ENDBRANCH  19  20
ENDBRANCH   1  19
TORSDOF 13
