REMARK SMILES CCOC(=O)c1c(NC(=O)[C@H]2CCCC[C@@H]2C(=O)OCCOC(=O)c2ccc(-c3c4nc(c(-c5c(F)cccc5F)c5ccc([nH]5)c(-c5c(F)cccc5F)c5nc(c(-c6c(F)cccc6F)c6ccc3[nH]6)C=C5)C=C4)cc2)sc2c1CC[C@H](C)C2
REMARK SMILES IDX 19 1 17 2 18 3 16 4 11 5 12 6 13 7 15 8 14 9 9 10 8 11 10 13
REMARK SMILES IDX 7 14 6 15 81 16 79 17 80 18 82 19 86 20 83 21 84 22 85 23
REMARK SMILES IDX 4 24 5 25 3 26 2 27 1 28 20 29 21 30 22 31 23 32 24 33 25 34
REMARK SMILES IDX 26 35 78 36 27 37 77 38 28 39 29 40 30 41 71 42 31 43 76 44
REMARK SMILES IDX 70 45 72 46 32 47 75 48 69 49 68 50 33 52 59 53 42 54 58 55
REMARK SMILES IDX 43 56 46 57 57 58 73 59 44 60 45 61 56 63 74 64 47 65 34 66
REMARK SMILES IDX 35 67 40 68 36 69 37 70 39 71 41 72 38 73 60 74 61 75 66 76
REMARK SMILES IDX 62 77 63 78 65 79 67 80 64 81 48 82 49 83 54 84 50 85 51 86
REMARK SMILES IDX 53 87 55 88 52 89
REMARK H PARENT 8 12 72 51 46 62
REMARK Flexibility Score: inf
ROOT
ATOM      1  O   UNL     1       3.830   0.490   3.740  1.00  0.00    -0.462 OA
ENDROOT
BRANCH   1   2
ATOM      2  C   UNL     1       3.168   1.494   3.096  1.00  0.00     0.309 C 
ATOM      3  O   UNL     1       3.404   2.683   3.288  1.00  0.00    -0.252 OA
BRANCH   2   4
ATOM      4  C   UNL     1       2.145   1.028   2.006  1.00  0.00     0.111 C 
ATOM      5  C   UNL     1       0.779   0.460   2.450  1.00  0.00     0.093 C 
ATOM      6  C   UNL     1       0.335  -0.971   2.045  1.00  0.00     0.014 C 
ATOM      7  C   UNL     1       1.124  -1.620   0.930  1.00  0.00     0.001 C 
ATOM      8  C   UNL     1       2.831   0.210   0.914  1.00  0.00     0.016 C 
ATOM      9  C   UNL     1       2.603  -1.292   1.011  1.00  0.00     0.001 C 
BRANCH   5  10
ATOM     10  C   UNL     1      -0.355   1.380   2.115  1.00  0.00     0.228 C 
ATOM     11  N   UNL     1      -1.018   2.064   3.080  1.00  0.00    -0.317 N 
ATOM     12  H   UNL     1      -1.844   2.472   2.732  1.00  0.00     0.170 HD
ATOM     13  O   UNL     1      -0.750   1.477   0.949  1.00  0.00    -0.274 OA
BRANCH  11  14
ATOM     14  C   UNL     1      -0.843   2.340   4.422  1.00  0.00     0.110 A 
ATOM     15  C   UNL     1       0.004   2.109   5.512  1.00  0.00     0.098 A 
ATOM     16  C   UNL     1      -0.315   3.097   6.573  1.00  0.00    -0.017 A 
ATOM     17  S   UNL     1      -2.140   3.397   4.817  1.00  0.00    -0.122 S 
ATOM     18  C   UNL     1      -1.461   3.815   6.295  1.00  0.00     0.011 A 
ATOM     19  C   UNL     1       0.469   3.418   7.829  1.00  0.00     0.038 C 
ATOM     20  C   UNL     1      -2.108   4.854   7.161  1.00  0.00     0.050 C 
ATOM     21  C   UNL     1      -0.390   4.166   8.877  1.00  0.00     0.008 C 
ATOM     22  C   UNL     1      -1.135   5.358   8.240  1.00  0.00    -0.009 C 
ATOM     23  C   UNL     1      -1.893   6.185   9.277  1.00  0.00     0.008 C 
BRANCH  15  24
ATOM     24  C   UNL     1       1.159   1.199   5.581  1.00  0.00     0.341 C 
ATOM     25  O   UNL     1       2.289   1.658   5.816  1.00  0.00    -0.246 OA
BRANCH  24  26
ATOM     26  O   UNL     1       0.895  -0.134   5.408  1.00  0.00    -0.462 OA
BRANCH  26  27
ATOM     27  C   UNL     1       1.751  -1.260   4.927  1.00  0.00     0.230 C 
ATOM     28  C   UNL     1       2.925  -1.997   5.575  1.00  0.00     0.049 C 
ENDBRANCH  26  27
ENDBRANCH  24  26
ENDBRANCH  15  24
ENDBRANCH  11  14
ENDBRANCH   5  10
ENDBRANCH   2   4
ENDBRANCH   1   2
BRANCH   1  29
ATOM     29  C   UNL     1       5.041   0.816   4.498  1.00  0.00     0.274 C 
BRANCH  29  30
ATOM     30  C   UNL     1       4.941   1.105   6.020  1.00  0.00     0.275 C 
BRANCH  30  31
ATOM     31  O   UNL     1       4.200   0.105   6.755  1.00  0.00    -0.458 OA
BRANCH  31  32
ATOM     32  C   UNL     1       3.974   0.403   8.055  1.00  0.00     0.338 C 
ATOM     33  O   UNL     1       4.472   1.335   8.671  1.00  0.00    -0.246 OA
BRANCH  32  34
ATOM     34  C   UNL     1       2.954  -0.476   8.707  1.00  0.00     0.060 A 
ATOM     35  C   UNL     1       1.666  -0.469   8.186  1.00  0.00     0.016 A 
ATOM     36  C   UNL     1       3.083  -0.651  10.071  1.00  0.00     0.016 A 
ATOM     37  C   UNL     1       0.580  -0.086   8.919  1.00  0.00     0.010 A 
ATOM     38  C   UNL     1       1.967  -0.444  10.862  1.00  0.00     0.010 A 
ATOM     39  C   UNL     1       0.778   0.021  10.272  1.00  0.00    -0.014 A 
BRANCH  39  40
ATOM     40  C   UNL     1      -0.325   0.536  11.069  1.00  0.00     0.031 A 
ATOM     41  C   UNL     1      -1.565  -0.304  11.020  1.00  0.00     0.074 A 
ATOM     42  C   UNL     1      -0.016   1.578  11.871  1.00  0.00     0.049 A 
ATOM     43  N   UNL     1      -2.802   0.043  11.185  1.00  0.00    -0.248 NA
ATOM     44  C   UNL     1      -1.412  -1.728  10.626  1.00  0.00     0.031 C 
ATOM     45  C   UNL     1       1.280   2.280  11.926  1.00  0.00     0.029 A 
ATOM     46  N   UNL     1      -0.660   2.092  12.950  1.00  0.00    -0.354 N 
ATOM     47  C   UNL     1      -3.531  -1.150  11.148  1.00  0.00     0.074 A 
ATOM     48  C   UNL     1      -2.667  -2.163  10.622  1.00  0.00     0.031 C 
ATOM     49  C   UNL     1       1.435   2.825  13.147  1.00  0.00     0.029 A 
ATOM     50  C   UNL     1       0.224   2.587  13.906  1.00  0.00     0.049 A 
ATOM     51  H   UNL     1      -1.639   2.112  13.046  1.00  0.00     0.167 HD
ATOM     52  C   UNL     1      -4.669  -1.297  11.875  1.00  0.00     0.037 A 
ATOM     53  C   UNL     1       0.032   2.625  15.248  1.00  0.00     0.037 A 
ATOM     54  C   UNL     1      -5.362  -0.044  12.003  1.00  0.00     0.049 A 
ATOM     55  C   UNL     1      -1.405   2.347  15.503  1.00  0.00     0.074 A 
ATOM     56  C   UNL     1      -5.868   0.864  11.093  1.00  0.00     0.029 A 
ATOM     57  N   UNL     1      -5.312   0.617  13.204  1.00  0.00    -0.354 N 
ATOM     58  N   UNL     1      -2.375   3.162  15.198  1.00  0.00    -0.248 NA
ATOM     59  C   UNL     1      -1.792   0.952  15.671  1.00  0.00     0.031 C 
ATOM     60  C   UNL     1      -5.630   2.140  11.675  1.00  0.00     0.029 A 
ATOM     61  C   UNL     1      -5.056   1.935  12.929  1.00  0.00     0.049 A 
ATOM     62  H   UNL     1      -5.437   0.220  14.096  1.00  0.00     0.167 HD
ATOM     63  C   UNL     1      -3.385   2.342  14.716  1.00  0.00     0.074 A 
ATOM     64  C   UNL     1      -3.002   0.988  15.107  1.00  0.00     0.031 C 
ATOM     65  C   UNL     1      -4.285   2.795  13.794  1.00  0.00     0.037 A 
BRANCH  52  66
ATOM     66  C   UNL     1      -4.864  -2.463  12.823  1.00  0.00     0.057 A 
ATOM     67  C   UNL     1      -6.068  -2.562  13.540  1.00  0.00     0.134 A 
ATOM     68  C   UNL     1      -3.827  -3.306  13.288  1.00  0.00     0.134 A 
ATOM     69  F   UNL     1      -7.133  -1.821  13.200  1.00  0.00    -0.206 F 
ATOM     70  C   UNL     1      -6.195  -3.352  14.690  1.00  0.00     0.040 A 
ATOM     71  C   UNL     1      -3.959  -4.132  14.406  1.00  0.00     0.040 A 
ATOM     72  F   UNL     1      -2.601  -3.319  12.755  1.00  0.00    -0.206 F 
ATOM     73  C   UNL     1      -5.133  -4.128  15.136  1.00  0.00     0.006 A 
ENDBRANCH  52  66
BRANCH  53  74
ATOM     74  C   UNL     1       1.063   2.511  16.310  1.00  0.00     0.057 A 
ATOM     75  C   UNL     1       0.796   2.933  17.618  1.00  0.00     0.134 A 
ATOM     76  C   UNL     1       2.261   1.791  16.130  1.00  0.00     0.134 A 
ATOM     77  F   UNL     1      -0.345   3.577  17.903  1.00  0.00    -0.206 F 
ATOM     78  C   UNL     1       1.667   2.660  18.682  1.00  0.00     0.040 A 
ATOM     79  C   UNL     1       3.149   1.531  17.179  1.00  0.00     0.040 A 
ATOM     80  F   UNL     1       2.575   1.241  14.949  1.00  0.00    -0.206 F 
ATOM     81  C   UNL     1       2.848   1.957  18.465  1.00  0.00     0.006 A 
ENDBRANCH  53  74
BRANCH  65  82
ATOM     82  C   UNL     1      -4.297   4.265  13.475  1.00  0.00     0.057 A 
ATOM     83  C   UNL     1      -3.195   4.970  12.967  1.00  0.00     0.134 A 
ATOM     84  C   UNL     1      -5.510   4.960  13.538  1.00  0.00     0.134 A 
ATOM     85  F   UNL     1      -2.024   4.363  12.742  1.00  0.00    -0.206 F 
ATOM     86  C   UNL     1      -3.282   6.316  12.603  1.00  0.00     0.040 A 
ATOM     87  C   UNL     1      -5.623   6.288  13.123  1.00  0.00     0.040 A 
ATOM     88  F   UNL     1      -6.624   4.339  13.956  1.00  0.00    -0.206 F 
ATOM     89  C   UNL     1      -4.503   6.976  12.666  1.00  0.00     0.006 A 
ENDBRANCH  65  82
ENDBRANCH  39  40
ENDBRANCH  32  34
ENDBRANCH  31  32
ENDBRANCH  30  31
ENDBRANCH  29  30
ENDBRANCH   1  29
TORSDOF 16
