REMARK SMILES Cc1c(C(=O)OCCOC(=O)c2ccc(-c3c4nc(c(-c5c(F)cccc5F)c5ccc([nH]5)c(-c5c(F)cccc5F)c5nc(c(-c6c(F)cccc6F)c6ccc3[nH]6)C=C5)C=C4)cc2)sc2c1=C(CSc1nncn1-c1ccccc1)CC(=O)N=2
REMARK SMILES IDX 7 1 6 2 4 3 5 4 3 5 1 6 2 7 68 8 66 9 67 10 69 11 86 12
REMARK SMILES IDX 83 13 84 14 85 15 70 16 71 17 72 18 73 19 76 20 74 21 75 22
REMARK SMILES IDX 77 23 78 24 82 25 79 26 81 27 80 28 8 29 9 30 10 31 11 32
REMARK SMILES IDX 12 33 13 34 65 35 14 36 64 37 15 38 16 39 17 40 58 41 18 42
REMARK SMILES IDX 63 43 57 44 59 45 19 46 62 47 56 48 55 49 20 51 46 52 29 53
REMARK SMILES IDX 45 54 30 55 33 56 44 57 60 58 31 59 32 60 43 62 61 63 34 64
REMARK SMILES IDX 21 65 22 66 27 67 23 68 24 69 26 70 28 71 25 72 47 73 48 74
REMARK SMILES IDX 53 75 49 76 50 77 52 78 54 79 51 80 35 81 36 82 41 83 37 84
REMARK SMILES IDX 38 85 40 86 42 87 39 88
REMARK H PARENT 59 50 33 61
REMARK Flexibility Score: inf
ROOT
ATOM      1  C   UNL     1      -2.476  -0.759  -2.356  1.00  0.00     0.275 C 
ENDROOT
BRANCH   1   2
ATOM      2  O   UNL     1      -1.416   0.024  -1.778  1.00  0.00    -0.458 OA
BRANCH   2   3
ATOM      3  C   UNL     1      -1.214   1.250  -2.326  1.00  0.00     0.348 C 
ATOM      4  O   UNL     1      -1.796   1.665  -3.321  1.00  0.00    -0.245 OA
BRANCH   3   5
ATOM      5  C   UNL     1      -0.243   2.067  -1.538  1.00  0.00     0.118 A 
ATOM      6  C   UNL     1       0.910   0.385   0.029  1.00  0.00     0.047 C 
ATOM      7  C   UNL     1       0.686   1.710  -0.624  1.00  0.00    -0.016 A 
ATOM      8  C   UNL     1       1.369   2.849  -0.042  1.00  0.00     0.016 A 
ATOM      9  S   UNL     1      -0.410   3.819  -1.700  1.00  0.00    -0.108 S 
ATOM     10  C   UNL     1       0.757   4.148  -0.437  1.00  0.00     0.128 A 
ATOM     11  C   UNL     1       2.626   3.070   0.394  1.00  0.00    -0.040 C 
ATOM     12  N   UNL     1       1.039   5.330  -0.026  1.00  0.00    -0.202 NA
ATOM     13  C   UNL     1       2.683   4.160   1.450  1.00  0.00     0.135 C 
ATOM     14  C   UNL     1       2.049   5.447   0.915  1.00  0.00     0.251 C 
ATOM     15  O   UNL     1       2.425   6.525   1.344  1.00  0.00    -0.272 OA
BRANCH  11  16
ATOM     16  C   UNL     1       3.877   3.125  -0.481  1.00  0.00     0.110 C 
BRANCH  16  17
ATOM     17  S   UNL     1       3.919   2.095  -1.945  1.00  0.00    -0.081 SA
BRANCH  17  18
ATOM     18  C   UNL     1       4.527   0.610  -1.290  1.00  0.00     0.195 A 
ATOM     19  N   UNL     1       5.363   0.528  -0.278  1.00  0.00    -0.123 NA
ATOM     20  N   UNL     1       4.008  -0.638  -1.583  1.00  0.00    -0.277 N 
ATOM     21  N   UNL     1       5.365  -0.770   0.160  1.00  0.00    -0.138 NA
ATOM     22  C   UNL     1       4.532  -1.444  -0.600  1.00  0.00     0.231 A 
BRANCH  20  23
ATOM     23  C   UNL     1       3.027  -0.996  -2.543  1.00  0.00     0.049 A 
ATOM     24  C   UNL     1       2.981  -0.357  -3.789  1.00  0.00     0.027 A 
ATOM     25  C   UNL     1       2.034  -1.921  -2.200  1.00  0.00     0.027 A 
ATOM     26  C   UNL     1       1.900  -0.567  -4.642  1.00  0.00     0.002 A 
ATOM     27  C   UNL     1       0.946  -2.111  -3.053  1.00  0.00     0.002 A 
ATOM     28  C   UNL     1       0.870  -1.422  -4.262  1.00  0.00     0.000 A 
ENDBRANCH  20  23
ENDBRANCH  17  18
ENDBRANCH  16  17
ENDBRANCH  11  16
ENDBRANCH   3   5
ENDBRANCH   2   3
ENDBRANCH   1   2
BRANCH   1  29
ATOM     29  C   UNL     1      -3.780  -0.586  -1.592  1.00  0.00     0.275 C 
BRANCH  29  30
ATOM     30  O   UNL     1      -4.339   0.717  -1.756  1.00  0.00    -0.458 OA
BRANCH  30  31
ATOM     31  C   UNL     1      -4.000   1.599  -0.790  1.00  0.00     0.338 C 
ATOM     32  O   UNL     1      -3.006   1.570  -0.080  1.00  0.00    -0.246 OA
BRANCH  31  33
ATOM     33  C   UNL     1      -5.145   2.479  -0.520  1.00  0.00     0.060 A 
ATOM     34  C   UNL     1      -4.954   3.521   0.392  1.00  0.00     0.016 A 
ATOM     35  C   UNL     1      -6.426   2.133  -0.977  1.00  0.00     0.016 A 
ATOM     36  C   UNL     1      -6.062   4.151   0.926  1.00  0.00     0.010 A 
ATOM     37  C   UNL     1      -7.531   2.755  -0.434  1.00  0.00     0.010 A 
ATOM     38  C   UNL     1      -7.341   3.728   0.545  1.00  0.00    -0.014 A 
BRANCH  38  39
ATOM     39  C   UNL     1      -8.481   4.440   1.093  1.00  0.00     0.031 A 
ATOM     40  C   UNL     1      -8.624   5.826   0.580  1.00  0.00     0.074 A 
ATOM     41  C   UNL     1      -9.410   3.859   1.874  1.00  0.00     0.049 A 
ATOM     42  N   UNL     1      -8.624   6.928   1.253  1.00  0.00    -0.248 NA
ATOM     43  C   UNL     1      -8.659   6.010  -0.881  1.00  0.00     0.031 C 
ATOM     44  C   UNL     1      -9.553   2.438   2.198  1.00  0.00     0.029 A 
ATOM     45  N   UNL     1     -10.503   4.423   2.458  1.00  0.00    -0.354 N 
ATOM     46  C   UNL     1      -8.842   7.938   0.320  1.00  0.00     0.074 A 
ATOM     47  C   UNL     1      -8.705   7.338  -0.980  1.00  0.00     0.031 C 
ATOM     48  C   UNL     1     -10.777   2.228   2.732  1.00  0.00     0.029 A 
ATOM     49  C   UNL     1     -11.451   3.507   2.893  1.00  0.00     0.049 A 
ATOM     50  H   UNL     1     -10.611   5.395   2.564  1.00  0.00     0.167 HD
ATOM     51  C   UNL     1      -9.356   9.141   0.691  1.00  0.00     0.037 A 
ATOM     52  C   UNL     1     -12.720   3.784   3.281  1.00  0.00     0.037 A 
ATOM     53  C   UNL     1      -9.164   9.384   2.097  1.00  0.00     0.049 A 
ATOM     54  C   UNL     1     -12.791   5.232   3.600  1.00  0.00     0.074 A 
ATOM     55  C   UNL     1      -8.064   9.458   2.930  1.00  0.00     0.029 A 
ATOM     56  N   UNL     1     -10.250   9.263   2.927  1.00  0.00    -0.354 N 
ATOM     57  N   UNL     1     -12.230   5.785   4.637  1.00  0.00    -0.248 NA
ATOM     58  C   UNL     1     -13.161   6.148   2.530  1.00  0.00     0.031 C 
ATOM     59  C   UNL     1      -8.498   8.896   4.167  1.00  0.00     0.029 A 
ATOM     60  C   UNL     1      -9.843   8.555   4.026  1.00  0.00     0.049 A 
ATOM     61  H   UNL     1     -11.153   9.619   2.763  1.00  0.00     0.167 HD
ATOM     62  C   UNL     1     -11.782   7.015   4.180  1.00  0.00     0.074 A 
ATOM     63  C   UNL     1     -12.482   7.230   2.917  1.00  0.00     0.031 C 
ATOM     64  C   UNL     1     -10.679   7.607   4.722  1.00  0.00     0.037 A 
BRANCH  51  65
ATOM     65  C   UNL     1     -10.373   9.897  -0.130  1.00  0.00     0.057 A 
ATOM     66  C   UNL     1     -10.780  11.174   0.296  1.00  0.00     0.134 A 
ATOM     67  C   UNL     1     -11.188   9.310  -1.121  1.00  0.00     0.134 A 
ATOM     68  F   UNL     1     -10.094  11.836   1.241  1.00  0.00    -0.206 F 
ATOM     69  C   UNL     1     -11.960  11.775  -0.156  1.00  0.00     0.040 A 
ATOM     70  C   UNL     1     -12.339   9.926  -1.619  1.00  0.00     0.040 A 
ATOM     71  F   UNL     1     -10.982   8.073  -1.588  1.00  0.00    -0.206 F 
ATOM     72  C   UNL     1     -12.750  11.145  -1.109  1.00  0.00     0.006 A 
ENDBRANCH  51  65
BRANCH  52  73
ATOM     73  C   UNL     1     -13.940   2.955   3.147  1.00  0.00     0.057 A 
ATOM     74  C   UNL     1     -15.111   3.274   3.849  1.00  0.00     0.134 A 
ATOM     75  C   UNL     1     -14.076   1.995   2.128  1.00  0.00     0.134 A 
ATOM     76  F   UNL     1     -15.096   4.204   4.815  1.00  0.00    -0.206 F 
ATOM     77  C   UNL     1     -16.349   2.696   3.538  1.00  0.00     0.040 A 
ATOM     78  C   UNL     1     -15.304   1.403   1.815  1.00  0.00     0.040 A 
ATOM     79  F   UNL     1     -13.043   1.665   1.340  1.00  0.00    -0.206 F 
ATOM     80  C   UNL     1     -16.450   1.765   2.510  1.00  0.00     0.006 A 
ENDBRANCH  52  73
BRANCH  64  81
ATOM     81  C   UNL     1     -10.144   7.051   6.011  1.00  0.00     0.057 A 
ATOM     82  C   UNL     1      -9.642   5.749   6.158  1.00  0.00     0.134 A 
ATOM     83  C   UNL     1     -10.002   7.913   7.104  1.00  0.00     0.134 A 
ATOM     84  F   UNL     1      -9.640   4.885   5.135  1.00  0.00    -0.206 F 
ATOM     85  C   UNL     1      -9.070   5.313   7.357  1.00  0.00     0.040 A 
ATOM     86  C   UNL     1      -9.400   7.500   8.294  1.00  0.00     0.040 A 
ATOM     87  F   UNL     1     -10.408   9.190   7.016  1.00  0.00    -0.206 F 
ATOM     88  C   UNL     1      -8.942   6.192   8.428  1.00  0.00     0.006 A 
ENDBRANCH  64  81
ENDBRANCH  38  39
ENDBRANCH  31  33
ENDBRANCH  30  31
ENDBRANCH  29  30
ENDBRANCH   1  29
TORSDOF 15
