REMARK SMILES COc1cc([C@@H]2Oc3c(OC)cc(/C=C/C(=O)OCCOC(=O)c4ccc(-c5c6nc(c(-c7c(F)cccc7F)c7ccc([nH]7)c(-c7c(F)cccc7F)c7nc(c(-c8c(F)cccc8F)c8ccc5[nH]8)C=C7)C=C6)cc4)cc3[C@@H]2CO)ccc1O
REMARK SMILES IDX 19 1 18 2 16 3 17 4 15 5 14 6 13 7 6 8 7 9 80 10 8 11 79 12
REMARK SMILES IDX 9 13 78 14 12 15 5 16 3 17 4 18 85 19 84 20 83 21 2 22 1 23
REMARK SMILES IDX 86 24 81 26 82 27 10 29 11 30 20 31 21 32 22 33 23 34 24 35
REMARK SMILES IDX 25 36 77 37 26 38 76 39 27 40 28 41 29 42 70 43 30 44 75 45
REMARK SMILES IDX 69 46 71 47 31 48 74 49 68 50 67 51 32 53 58 54 41 55 57 56
REMARK SMILES IDX 42 57 45 58 56 59 72 60 43 61 44 62 55 64 73 65 46 66 33 67
REMARK SMILES IDX 34 68 39 69 35 70 36 71 38 72 40 73 37 74 59 75 60 76 65 77
REMARK SMILES IDX 61 78 62 79 64 80 66 81 63 82 47 83 48 84 53 85 49 86 50 87
REMARK SMILES IDX 52 88 54 89 51 90
REMARK H PARENT 86 25 82 28 71 52 45 63
REMARK Flexibility Score: inf
ROOT
ATOM      1  C   UNL     1       9.028   1.555  -8.905  1.00  0.00     0.275 C 
ENDROOT
BRANCH   1   2
ATOM      2  O   UNL     1       7.629   1.374  -8.618  1.00  0.00    -0.459 OA
BRANCH   2   3
ATOM      3  C   UNL     1       7.021   0.377  -9.300  1.00  0.00     0.330 C 
ATOM      4  O   UNL     1       7.527  -0.323 -10.165  1.00  0.00    -0.247 OA
BRANCH   3   5
ATOM      5  C   UNL     1       5.627   0.161  -8.872  1.00  0.00     0.094 C 
ATOM      6  C   UNL     1       5.024   0.713  -7.806  1.00  0.00     0.016 C 
BRANCH   6   7
ATOM      7  C   UNL     1       3.648   0.349  -7.423  1.00  0.00    -0.021 A 
ATOM      8  C   UNL     1      -0.605   0.596  -5.615  1.00  0.00     0.214 C 
ATOM      9  O   UNL     1      -0.308  -0.498  -6.548  1.00  0.00    -0.481 OA
ATOM     10  C   UNL     1       0.298   1.752  -6.124  1.00  0.00     0.094 C 
ATOM     11  C   UNL     1       1.037  -0.359  -6.803  1.00  0.00     0.165 A 
ATOM     12  C   UNL     1       1.476   0.948  -6.586  1.00  0.00     0.008 A 
ATOM     13  C   UNL     1       1.883  -1.351  -7.264  1.00  0.00     0.161 A 
ATOM     14  C   UNL     1       2.779   1.318  -6.897  1.00  0.00     0.016 A 
ATOM     15  C   UNL     1       3.195  -0.981  -7.563  1.00  0.00     0.058 A 
BRANCH   8  16
ATOM     16  C   UNL     1      -0.567  -0.032  -4.217  1.00  0.00    -0.003 A 
ATOM     17  C   UNL     1      -0.182  -0.073  -1.809  1.00  0.00     0.160 A 
ATOM     18  C   UNL     1      -0.153   0.606  -3.039  1.00  0.00     0.058 A 
ATOM     19  C   UNL     1      -0.647  -1.386  -1.734  1.00  0.00     0.157 A 
ATOM     20  C   UNL     1      -1.069  -2.039  -2.875  1.00  0.00     0.050 A 
ATOM     21  C   UNL     1      -1.062  -1.353  -4.089  1.00  0.00     0.011 A 
BRANCH  17  22
ATOM     22  O   UNL     1       0.139   0.630  -0.675  1.00  0.00    -0.493 OA
ATOM     23  C   UNL     1       1.388   0.208  -0.124  1.00  0.00     0.278 C 
ENDBRANCH  17  22
BRANCH  19  24
ATOM     24  O   UNL     1      -0.771  -2.047  -0.548  1.00  0.00    -0.504 OA
ATOM     25  H   UNL     1      -0.496  -1.637   0.248  1.00  0.00     0.293 HD
ENDBRANCH  19  24
ENDBRANCH   8  16
BRANCH  10  26
ATOM     26  C   UNL     1       0.553   2.933  -5.205  1.00  0.00     0.168 C 
BRANCH  26  27
ATOM     27  O   UNL     1       0.806   4.122  -5.957  1.00  0.00    -0.396 OA
ATOM     28  H   UNL     1       1.593   3.994  -6.510  1.00  0.00     0.210 HD
ENDBRANCH  26  27
ENDBRANCH  10  26
BRANCH  13  29
ATOM     29  O   UNL     1       1.591  -2.662  -7.497  1.00  0.00    -0.493 OA
ATOM     30  C   UNL     1       0.568  -3.224  -6.686  1.00  0.00     0.278 C 
ENDBRANCH  13  29
ENDBRANCH   6   7
ENDBRANCH   3   5
ENDBRANCH   2   3
ENDBRANCH   1   2
BRANCH   1  31
ATOM     31  C   UNL     1       9.905   0.928  -7.818  1.00  0.00     0.275 C 
BRANCH  31  32
ATOM     32  O   UNL     1       9.806  -0.509  -7.804  1.00  0.00    -0.458 OA
BRANCH  32  33
ATOM     33  C   UNL     1       8.855  -1.016  -6.988  1.00  0.00     0.338 C 
ATOM     34  O   UNL     1       8.102  -0.388  -6.252  1.00  0.00    -0.246 OA
BRANCH  33  35
ATOM     35  C   UNL     1       8.751  -2.471  -7.178  1.00  0.00     0.060 A 
ATOM     36  C   UNL     1       7.492  -3.013  -7.457  1.00  0.00     0.016 A 
ATOM     37  C   UNL     1       9.861  -3.306  -7.022  1.00  0.00     0.016 A 
ATOM     38  C   UNL     1       7.338  -4.393  -7.582  1.00  0.00     0.010 A 
ATOM     39  C   UNL     1       9.704  -4.691  -7.145  1.00  0.00     0.010 A 
ATOM     40  C   UNL     1       8.441  -5.244  -7.417  1.00  0.00    -0.014 A 
BRANCH  40  41
ATOM     41  C   UNL     1       8.259  -6.714  -7.502  1.00  0.00     0.031 A 
ATOM     42  C   UNL     1       8.245  -7.546  -6.252  1.00  0.00     0.074 A 
ATOM     43  C   UNL     1       8.093  -7.300  -8.702  1.00  0.00     0.049 A 
ATOM     44  N   UNL     1       8.133  -8.844  -6.123  1.00  0.00    -0.248 NA
ATOM     45  C   UNL     1       8.378  -6.822  -4.979  1.00  0.00     0.031 C 
ATOM     46  C   UNL     1       8.063  -6.599  -9.985  1.00  0.00     0.029 A 
ATOM     47  N   UNL     1       7.919  -8.620  -9.035  1.00  0.00    -0.354 N 
ATOM     48  C   UNL     1       8.187  -9.095  -4.758  1.00  0.00     0.074 A 
ATOM     49  C   UNL     1       8.369  -7.817  -4.102  1.00  0.00     0.031 C 
ATOM     50  C   UNL     1       7.879  -7.496 -10.967  1.00  0.00     0.029 A 
ATOM     51  C   UNL     1       7.813  -8.835 -10.387  1.00  0.00     0.049 A 
ATOM     52  H   UNL     1       7.874  -9.343  -8.368  1.00  0.00     0.167 HD
ATOM     53  C   UNL     1       8.086 -10.281  -4.111  1.00  0.00     0.037 A 
ATOM     54  C   UNL     1       7.697  -9.983 -11.080  1.00  0.00     0.037 A 
ATOM     55  C   UNL     1       7.897 -11.551  -4.763  1.00  0.00     0.049 A 
ATOM     56  C   UNL     1       7.649 -11.292 -10.342  1.00  0.00     0.074 A 
ATOM     57  C   UNL     1       7.752 -12.803  -4.189  1.00  0.00     0.029 A 
ATOM     58  N   UNL     1       7.835 -11.733  -6.137  1.00  0.00    -0.354 N 
ATOM     59  N   UNL     1       7.676 -11.515  -9.050  1.00  0.00    -0.248 NA
ATOM     60  C   UNL     1       7.561 -12.511 -11.159  1.00  0.00     0.031 C 
ATOM     61  C   UNL     1       7.646 -13.747  -5.217  1.00  0.00     0.029 A 
ATOM     62  C   UNL     1       7.684 -13.079  -6.430  1.00  0.00     0.049 A 
ATOM     63  H   UNL     1       7.891 -11.012  -6.805  1.00  0.00     0.167 HD
ATOM     64  C   UNL     1       7.592 -12.893  -8.899  1.00  0.00     0.074 A 
ATOM     65  C   UNL     1       7.496 -13.455 -10.231  1.00  0.00     0.031 C 
ATOM     66  C   UNL     1       7.596 -13.626  -7.760  1.00  0.00     0.037 A 
BRANCH  53  67
ATOM     67  C   UNL     1       8.199 -10.263  -2.616  1.00  0.00     0.057 A 
ATOM     68  C   UNL     1       7.170  -9.773  -1.802  1.00  0.00     0.134 A 
ATOM     69  C   UNL     1       9.339 -10.771  -1.981  1.00  0.00     0.134 A 
ATOM     70  F   UNL     1       6.056  -9.262  -2.348  1.00  0.00    -0.206 F 
ATOM     71  C   UNL     1       7.280  -9.770  -0.410  1.00  0.00     0.040 A 
ATOM     72  C   UNL     1       9.452 -10.794  -0.590  1.00  0.00     0.040 A 
ATOM     73  F   UNL     1      10.359 -11.261  -2.702  1.00  0.00    -0.206 F 
ATOM     74  C   UNL     1       8.422 -10.287   0.200  1.00  0.00     0.006 A 
ENDBRANCH  53  67
BRANCH  54  75
ATOM     75  C   UNL     1       7.632  -9.948 -12.562  1.00  0.00     0.057 A 
ATOM     76  C   UNL     1       6.451 -10.263 -13.243  1.00  0.00     0.134 A 
ATOM     77  C   UNL     1       8.751  -9.609 -13.331  1.00  0.00     0.134 A 
ATOM     78  F   UNL     1       5.353 -10.621 -12.561  1.00  0.00    -0.206 F 
ATOM     79  C   UNL     1       6.387 -10.251 -14.637  1.00  0.00     0.040 A 
ATOM     80  C   UNL     1       8.696  -9.570 -14.725  1.00  0.00     0.040 A 
ATOM     81  F   UNL     1       9.913  -9.300 -12.737  1.00  0.00    -0.206 F 
ATOM     82  C   UNL     1       7.511  -9.898 -15.382  1.00  0.00     0.006 A 
ENDBRANCH  54  75
BRANCH  66  83
ATOM     83  C   UNL     1       7.480 -15.115  -7.902  1.00  0.00     0.057 A 
ATOM     84  C   UNL     1       8.551 -15.896  -8.356  1.00  0.00     0.134 A 
ATOM     85  C   UNL     1       6.298 -15.779  -7.550  1.00  0.00     0.134 A 
ATOM     86  F   UNL     1       9.705 -15.319  -8.723  1.00  0.00    -0.206 F 
ATOM     87  C   UNL     1       8.444 -17.283  -8.472  1.00  0.00     0.040 A 
ATOM     88  C   UNL     1       6.187 -17.167  -7.640  1.00  0.00     0.040 A 
ATOM     89  F   UNL     1       5.238 -15.090  -7.102  1.00  0.00    -0.206 F 
ATOM     90  C   UNL     1       7.261 -17.923  -8.107  1.00  0.00     0.006 A 
ENDBRANCH  66  83
ENDBRANCH  40  41
ENDBRANCH  33  35
ENDBRANCH  32  33
ENDBRANCH  31  32
ENDBRANCH   1  31
TORSDOF 18
