REMARK SMILES Cc1c(C(=O)OCCOC(=O)c2ccc(-c3c4nc(c(-c5c(F)cccc5F)c5ccc([nH]5)c(-c5c(F)cccc5F)c5nc(c(-c6c(F)cccc6F)c6ccc3[nH]6)C=C5)C=C4)cc2)cccc1-n1c(C)cc(/C=C2/C(=O)NC(=S)N=C2O)c1C
REMARK SMILES IDX 7 1 6 2 4 3 5 4 3 5 1 6 2 7 69 8 66 9 68 10 67 11 70 12
REMARK SMILES IDX 71 13 85 14 72 15 73 16 74 17 86 18 75 19 76 20 77 21 83 22
REMARK SMILES IDX 78 23 79 24 82 25 80 26 81 28 84 29 8 31 9 32 10 33 11 34
REMARK SMILES IDX 12 35 13 36 65 37 14 38 64 39 15 40 16 41 17 42 58 43 18 44
REMARK SMILES IDX 63 45 57 46 59 47 19 48 62 49 56 50 55 51 20 53 46 54 29 55
REMARK SMILES IDX 45 56 30 57 33 58 44 59 60 60 31 61 32 62 43 64 61 65 34 66
REMARK SMILES IDX 21 67 22 68 27 69 23 70 24 71 26 72 28 73 25 74 47 75 48 76
REMARK SMILES IDX 53 77 49 78 50 79 52 80 54 81 51 82 35 83 36 84 41 85 37 86
REMARK SMILES IDX 38 87 40 88 42 89 39 90
REMARK H PARENT 79 27 84 30 59 52 33 63
REMARK Flexibility Score: inf
ROOT
ATOM      1  C   UNL     1       3.085  -3.106   2.167  1.00  0.00     0.275 C 
ENDROOT
BRANCH   1   2
ATOM      2  O   UNL     1       1.984  -2.205   2.009  1.00  0.00    -0.458 OA
BRANCH   2   3
ATOM      3  C   UNL     1       2.049  -1.548   0.830  1.00  0.00     0.338 C 
ATOM      4  O   UNL     1       2.926  -1.679  -0.012  1.00  0.00    -0.246 OA
BRANCH   3   5
ATOM      5  C   UNL     1       1.012  -0.520   0.666  1.00  0.00     0.065 A 
ATOM      6  C   UNL     1       2.943   1.066   0.352  1.00  0.00     0.047 C 
ATOM      7  C   UNL     1       1.469   0.736   0.256  1.00  0.00    -0.012 A 
ATOM      8  C   UNL     1       0.499   1.669  -0.137  1.00  0.00     0.049 A 
ATOM      9  C   UNL     1      -0.359  -0.781   0.812  1.00  0.00     0.016 A 
ATOM     10  C   UNL     1      -0.875   1.384  -0.109  1.00  0.00     0.027 A 
ATOM     11  C   UNL     1      -1.303   0.157   0.385  1.00  0.00     0.003 A 
BRANCH   8  12
ATOM     12  N   UNL     1       0.871   3.023  -0.137  1.00  0.00    -0.318 N 
ATOM     13  C   UNL     1       1.621   3.666  -1.101  1.00  0.00     0.020 A 
ATOM     14  C   UNL     1       0.904   3.752   1.048  1.00  0.00     0.027 A 
ATOM     15  C   UNL     1       1.990   3.038  -2.404  1.00  0.00     0.065 C 
ATOM     16  C   UNL     1       1.950   4.905  -0.585  1.00  0.00     0.031 A 
ATOM     17  C   UNL     1       1.452   4.985   0.747  1.00  0.00    -0.003 A 
ATOM     18  C   UNL     1       0.476   3.123   2.344  1.00  0.00     0.065 C 
BRANCH  17  19
ATOM     19  C   UNL     1       1.700   6.072   1.637  1.00  0.00     0.029 C 
ATOM     20  C   UNL     1       0.999   6.529   2.692  1.00  0.00     0.102 C 
ATOM     21  C   UNL     1       1.671   7.561   3.518  1.00  0.00     0.262 C 
ATOM     22  C   UNL     1      -0.287   6.092   3.239  1.00  0.00     0.226 C 
ATOM     23  O   UNL     1       2.624   8.235   3.145  1.00  0.00    -0.269 OA
ATOM     24  N   UNL     1       1.163   7.667   4.786  1.00  0.00    -0.297 N 
ATOM     25  N   UNL     1      -0.715   6.278   4.434  1.00  0.00    -0.184 NA
ATOM     26  C   UNL     1       0.072   7.002   5.289  1.00  0.00     0.203 C 
ATOM     27  H   UNL     1       1.628   8.281   5.399  1.00  0.00     0.172 HD
ATOM     28  S   UNL     1      -0.264   7.178   6.921  1.00  0.00    -0.038 S 
BRANCH  22  29
ATOM     29  O   UNL     1      -1.127   5.491   2.393  1.00  0.00    -0.493 OA
ATOM     30  H   UNL     1      -0.865   5.330   1.508  1.00  0.00     0.295 HD
ENDBRANCH  22  29
ENDBRANCH  17  19
ENDBRANCH   8  12
ENDBRANCH   3   5
ENDBRANCH   2   3
ENDBRANCH   1   2
BRANCH   1  31
ATOM     31  C   UNL     1       2.684  -4.424   2.826  1.00  0.00     0.275 C 
BRANCH  31  32
ATOM     32  O   UNL     1       1.287  -4.835   2.786  1.00  0.00    -0.458 OA
BRANCH  32  33
ATOM     33  C   UNL     1       0.345  -4.676   1.816  1.00  0.00     0.338 C 
ATOM     34  O   UNL     1      -0.839  -4.646   2.070  1.00  0.00    -0.246 OA
BRANCH  33  35
ATOM     35  C   UNL     1       0.799  -4.500   0.422  1.00  0.00     0.060 A 
ATOM     36  C   UNL     1       0.032  -3.704  -0.451  1.00  0.00     0.016 A 
ATOM     37  C   UNL     1       2.008  -5.037   0.013  1.00  0.00     0.016 A 
ATOM     38  C   UNL     1       0.540  -3.329  -1.688  1.00  0.00     0.010 A 
ATOM     39  C   UNL     1       2.576  -4.566  -1.140  1.00  0.00     0.010 A 
ATOM     40  C   UNL     1       1.824  -3.756  -2.006  1.00  0.00    -0.014 A 
BRANCH  40  41
ATOM     41  C   UNL     1       2.347  -3.739  -3.357  1.00  0.00     0.031 A 
ATOM     42  C   UNL     1       2.921  -2.524  -3.942  1.00  0.00     0.074 A 
ATOM     43  C   UNL     1       2.292  -4.974  -3.901  1.00  0.00     0.049 A 
ATOM     44  N   UNL     1       2.724  -2.147  -5.159  1.00  0.00    -0.248 NA
ATOM     45  C   UNL     1       3.728  -1.571  -3.175  1.00  0.00     0.031 C 
ATOM     46  C   UNL     1       2.907  -5.562  -5.069  1.00  0.00     0.029 A 
ATOM     47  N   UNL     1       1.444  -5.991  -3.426  1.00  0.00    -0.354 N 
ATOM     48  C   UNL     1       3.693  -1.196  -5.409  1.00  0.00     0.074 A 
ATOM     49  C   UNL     1       4.109  -0.702  -4.120  1.00  0.00     0.031 C 
ATOM     50  C   UNL     1       2.209  -6.673  -5.395  1.00  0.00     0.029 A 
ATOM     51  C   UNL     1       1.035  -6.735  -4.525  1.00  0.00     0.049 A 
ATOM     52  H   UNL     1       1.188  -6.146  -2.488  1.00  0.00     0.167 HD
ATOM     53  C   UNL     1       4.322  -1.175  -6.618  1.00  0.00     0.037 A 
ATOM     54  C   UNL     1      -0.275  -6.604  -4.897  1.00  0.00     0.037 A 
ATOM     55  C   UNL     1       3.897  -2.320  -7.413  1.00  0.00     0.049 A 
ATOM     56  C   UNL     1      -0.402  -5.883  -6.220  1.00  0.00     0.074 A 
ATOM     57  C   UNL     1       4.448  -3.578  -7.598  1.00  0.00     0.029 A 
ATOM     58  N   UNL     1       2.579  -2.422  -7.804  1.00  0.00    -0.354 N 
ATOM     59  N   UNL     1       0.529  -5.123  -6.729  1.00  0.00    -0.248 NA
ATOM     60  C   UNL     1      -1.601  -5.926  -7.048  1.00  0.00     0.031 C 
ATOM     61  C   UNL     1       3.453  -4.422  -8.161  1.00  0.00     0.029 A 
ATOM     62  C   UNL     1       2.293  -3.682  -8.286  1.00  0.00     0.049 A 
ATOM     63  H   UNL     1       1.925  -1.689  -7.747  1.00  0.00     0.167 HD
ATOM     64  C   UNL     1       0.126  -4.660  -7.949  1.00  0.00     0.074 A 
ATOM     65  C   UNL     1      -1.243  -5.130  -8.070  1.00  0.00     0.031 C 
ATOM     66  C   UNL     1       0.953  -3.946  -8.769  1.00  0.00     0.037 A 
BRANCH  53  67
ATOM     67  C   UNL     1       5.564  -0.373  -6.912  1.00  0.00     0.057 A 
ATOM     68  C   UNL     1       6.575  -0.873  -7.755  1.00  0.00     0.134 A 
ATOM     69  C   UNL     1       5.803   0.918  -6.408  1.00  0.00     0.134 A 
ATOM     70  F   UNL     1       6.462  -2.054  -8.374  1.00  0.00    -0.206 F 
ATOM     71  C   UNL     1       7.766  -0.187  -8.011  1.00  0.00     0.040 A 
ATOM     72  C   UNL     1       7.004   1.610  -6.641  1.00  0.00     0.040 A 
ATOM     73  F   UNL     1       4.873   1.565  -5.688  1.00  0.00    -0.206 F 
ATOM     74  C   UNL     1       7.996   1.052  -7.437  1.00  0.00     0.006 A 
ENDBRANCH  53  67
BRANCH  54  75
ATOM     75  C   UNL     1      -1.230  -6.436  -3.743  1.00  0.00     0.057 A 
ATOM     76  C   UNL     1      -1.182  -7.343  -2.660  1.00  0.00     0.134 A 
ATOM     77  C   UNL     1      -1.983  -5.275  -3.537  1.00  0.00     0.134 A 
ATOM     78  F   UNL     1      -0.486  -8.488  -2.766  1.00  0.00    -0.206 F 
ATOM     79  C   UNL     1      -1.752  -7.060  -1.413  1.00  0.00     0.040 A 
ATOM     80  C   UNL     1      -2.587  -4.995  -2.300  1.00  0.00     0.040 A 
ATOM     81  F   UNL     1      -2.090  -4.346  -4.496  1.00  0.00    -0.206 F 
ATOM     82  C   UNL     1      -2.444  -5.871  -1.225  1.00  0.00     0.006 A 
ENDBRANCH  54  75
BRANCH  66  83
ATOM     83  C   UNL     1       0.573  -3.423 -10.123  1.00  0.00     0.057 A 
ATOM     84  C   UNL     1      -0.237  -4.134 -11.014  1.00  0.00     0.134 A 
ATOM     85  C   UNL     1       1.099  -2.210 -10.622  1.00  0.00     0.134 A 
ATOM     86  F   UNL     1      -0.667  -5.371 -10.728  1.00  0.00    -0.206 F 
ATOM     87  C   UNL     1      -0.605  -3.614 -12.259  1.00  0.00     0.040 A 
ATOM     88  C   UNL     1       0.786  -1.709 -11.883  1.00  0.00     0.040 A 
ATOM     89  F   UNL     1       1.933  -1.439  -9.912  1.00  0.00    -0.206 F 
ATOM     90  C   UNL     1      -0.099  -2.395 -12.694  1.00  0.00     0.006 A 
ENDBRANCH  66  83
ENDBRANCH  40  41
ENDBRANCH  33  35
ENDBRANCH  32  33
ENDBRANCH  31  32
ENDBRANCH   1  31
TORSDOF 14
