REMARK SMILES CCC[NH2+]CC(=O)N1[C@@H](C(=O)OCCOC(=O)c2ccc(-c3c4nc(c(-c5c(F)cccc5F)c5ccc([nH]5)c(-c5c(F)cccc5F)c5nc(c(-c6c(F)cccc6F)c6ccc3[nH]6)C=C5)C=C4)cc2)CC[C@@H]2CCCC[C@@H]21
REMARK SMILES IDX 12 1 10 2 11 3 9 4 8 5 79 6 72 7 74 8 78 9 73 10 75 11 77 12
REMARK SMILES IDX 76 13 6 14 7 15 5 16 4 17 3 20 2 21 1 22 13 23 14 24 15 25
REMARK SMILES IDX 16 26 17 27 18 28 19 29 71 30 20 31 70 32 21 33 22 34 23 35
REMARK SMILES IDX 64 36 24 37 69 38 63 39 65 40 25 41 68 42 62 43 61 44 26 46
REMARK SMILES IDX 52 47 35 48 51 49 36 50 39 51 50 52 66 53 37 54 38 55 49 57
REMARK SMILES IDX 67 58 40 59 27 60 28 61 33 62 29 63 30 64 32 65 34 66 31 67
REMARK SMILES IDX 53 68 54 69 59 70 55 71 56 72 58 73 60 74 57 75 41 76 42 77
REMARK SMILES IDX 47 78 43 79 44 80 46 81 48 82 45 83
REMARK H PARENT 4 18 4 19 65 45 39 56
REMARK Flexibility Score: inf
ROOT
ATOM      1  O   UNL     1       3.618  -0.184   0.019  1.00  0.00    -0.461 OA
ENDROOT
BRANCH   1   2
ATOM      2  C   UNL     1       2.922  -0.498  -1.101  1.00  0.00     0.328 C 
ATOM      3  O   UNL     1       1.707  -0.590  -1.127  1.00  0.00    -0.250 OA
BRANCH   2   4
ATOM      4  C   UNL     1       3.755  -0.622  -2.376  1.00  0.00     0.195 C 
ATOM      5  N   UNL     1       3.521  -1.818  -3.204  1.00  0.00    -0.321 N 
ATOM      6  C   UNL     1       4.229  -1.929  -4.497  1.00  0.00     0.089 C 
ATOM      7  C   UNL     1       5.223  -0.256  -2.230  1.00  0.00     0.037 C 
ATOM      8  C   UNL     1       5.708  -1.469  -4.368  1.00  0.00     0.012 C 
ATOM      9  C   UNL     1       3.456  -1.195  -5.607  1.00  0.00     0.025 C 
ATOM     10  C   UNL     1       5.842  -0.135  -3.615  1.00  0.00     0.008 C 
ATOM     11  C   UNL     1       6.403  -1.393  -5.731  1.00  0.00     0.006 C 
ATOM     12  C   UNL     1       4.225  -0.946  -6.904  1.00  0.00     0.002 C 
ATOM     13  C   UNL     1       5.662  -0.489  -6.707  1.00  0.00     0.000 C 
BRANCH   5  14
ATOM     14  C   UNL     1       2.721  -2.837  -2.700  1.00  0.00     0.278 C 
ATOM     15  O   UNL     1       3.059  -3.463  -1.694  1.00  0.00    -0.268 OA
BRANCH  14  16
ATOM     16  C   UNL     1       1.303  -2.962  -3.320  1.00  0.00     0.362 C 
BRANCH  16  17
ATOM     17  N   UNL     1       0.251  -2.463  -2.386  1.00  0.00    -0.338 N 
ATOM     18  H   UNL     1      -0.428  -3.207  -2.226  1.00  0.00     0.346 HD
ATOM     19  H   UNL     1       0.706  -2.186  -1.516  1.00  0.00     0.346 HD
BRANCH  17  20
ATOM     20  C   UNL     1      -0.449  -1.290  -2.926  1.00  0.00     0.260 C 
BRANCH  20  21
ATOM     21  C   UNL     1      -1.421  -0.548  -1.978  1.00  0.00     0.058 C 
ATOM     22  C   UNL     1      -1.298  -0.759  -0.474  1.00  0.00     0.010 C 
ENDBRANCH  20  21
ENDBRANCH  17  20
ENDBRANCH  16  17
ENDBRANCH  14  16
ENDBRANCH   5  14
ENDBRANCH   2   4
ENDBRANCH   1   2
BRANCH   1  23
ATOM     23  C   UNL     1       2.776   0.075   1.158  1.00  0.00     0.274 C 
BRANCH  23  24
ATOM     24  C   UNL     1       2.387   1.559   1.263  1.00  0.00     0.275 C 
BRANCH  24  25
ATOM     25  O   UNL     1       1.526   2.031   0.199  1.00  0.00    -0.458 OA
BRANCH  25  26
ATOM     26  C   UNL     1       2.155   2.524  -0.893  1.00  0.00     0.338 C 
ATOM     27  O   UNL     1       3.368   2.571  -1.073  1.00  0.00    -0.246 OA
BRANCH  26  28
ATOM     28  C   UNL     1       1.202   2.908  -1.958  1.00  0.00     0.060 A 
ATOM     29  C   UNL     1       1.476   2.481  -3.264  1.00  0.00     0.016 A 
ATOM     30  C   UNL     1       0.117   3.756  -1.726  1.00  0.00     0.016 A 
ATOM     31  C   UNL     1       0.669   2.868  -4.332  1.00  0.00     0.010 A 
ATOM     32  C   UNL     1      -0.677   4.175  -2.807  1.00  0.00     0.010 A 
ATOM     33  C   UNL     1      -0.403   3.738  -4.116  1.00  0.00    -0.014 A 
BRANCH  33  34
ATOM     34  C   UNL     1      -1.176   4.242  -5.278  1.00  0.00     0.031 A 
ATOM     35  C   UNL     1      -0.811   5.556  -5.907  1.00  0.00     0.074 A 
ATOM     36  C   UNL     1      -2.171   3.507  -5.807  1.00  0.00     0.049 A 
ATOM     37  N   UNL     1      -1.399   6.198  -6.885  1.00  0.00    -0.248 NA
ATOM     38  C   UNL     1       0.381   6.230  -5.372  1.00  0.00     0.031 C 
ATOM     39  C   UNL     1      -2.573   2.177  -5.354  1.00  0.00     0.029 A 
ATOM     40  N   UNL     1      -3.030   3.787  -6.841  1.00  0.00    -0.354 N 
ATOM     41  C   UNL     1      -0.654   7.353  -7.081  1.00  0.00     0.074 A 
ATOM     42  C   UNL     1       0.423   7.329  -6.113  1.00  0.00     0.031 C 
ATOM     43  C   UNL     1      -3.617   1.764  -6.094  1.00  0.00     0.029 A 
ATOM     44  C   UNL     1      -3.981   2.816  -7.042  1.00  0.00     0.049 A 
ATOM     45  H   UNL     1      -2.970   4.604  -7.387  1.00  0.00     0.167 HD
ATOM     46  C   UNL     1      -0.849   8.343  -7.985  1.00  0.00     0.037 A 
ATOM     47  C   UNL     1      -5.046   2.796  -7.867  1.00  0.00     0.037 A 
ATOM     48  C   UNL     1      -1.922   8.379  -8.944  1.00  0.00     0.049 A 
ATOM     49  C   UNL     1      -5.319   3.971  -8.769  1.00  0.00     0.074 A 
ATOM     50  C   UNL     1      -2.191   9.344  -9.901  1.00  0.00     0.029 A 
ATOM     51  N   UNL     1      -2.911   7.416  -9.062  1.00  0.00    -0.354 N 
ATOM     52  N   UNL     1      -4.611   5.060  -8.948  1.00  0.00    -0.248 NA
ATOM     53  C   UNL     1      -6.549   3.919  -9.575  1.00  0.00     0.031 C 
ATOM     54  C   UNL     1      -3.372   8.991 -10.562  1.00  0.00     0.029 A 
ATOM     55  C   UNL     1      -3.812   7.782 -10.049  1.00  0.00     0.049 A 
ATOM     56  H   UNL     1      -2.966   6.594  -8.523  1.00  0.00     0.167 HD
ATOM     57  C   UNL     1      -5.295   5.808  -9.899  1.00  0.00     0.074 A 
ATOM     58  C   UNL     1      -6.468   5.046 -10.269  1.00  0.00     0.031 C 
ATOM     59  C   UNL     1      -4.977   7.019 -10.417  1.00  0.00     0.037 A 
BRANCH  46  60
ATOM     60  C   UNL     1       0.104   9.499  -7.955  1.00  0.00     0.057 A 
ATOM     61  C   UNL     1       1.411   9.395  -8.447  1.00  0.00     0.134 A 
ATOM     62  C   UNL     1      -0.307  10.745  -7.465  1.00  0.00     0.134 A 
ATOM     63  F   UNL     1       1.868   8.225  -8.919  1.00  0.00    -0.206 F 
ATOM     64  C   UNL     1       2.282  10.486  -8.437  1.00  0.00     0.040 A 
ATOM     65  C   UNL     1       0.547  11.848  -7.469  1.00  0.00     0.040 A 
ATOM     66  F   UNL     1      -1.548  10.912  -6.984  1.00  0.00    -0.206 F 
ATOM     67  C   UNL     1       1.848  11.719  -7.952  1.00  0.00     0.006 A 
ENDBRANCH  46  60
BRANCH  47  68
ATOM     68  C   UNL     1      -5.980   1.642  -7.848  1.00  0.00     0.057 A 
ATOM     69  C   UNL     1      -6.087   0.778  -8.943  1.00  0.00     0.134 A 
ATOM     70  C   UNL     1      -6.819   1.406  -6.752  1.00  0.00     0.134 A 
ATOM     71  F   UNL     1      -5.332   0.973 -10.034  1.00  0.00    -0.206 F 
ATOM     72  C   UNL     1      -7.007  -0.272  -8.956  1.00  0.00     0.040 A 
ATOM     73  C   UNL     1      -7.725   0.345  -6.741  1.00  0.00     0.040 A 
ATOM     74  F   UNL     1      -6.769   2.204  -5.676  1.00  0.00    -0.206 F 
ATOM     75  C   UNL     1      -7.826  -0.493  -7.850  1.00  0.00     0.006 A 
ENDBRANCH  47  68
BRANCH  59  76
ATOM     76  C   UNL     1      -5.892   7.591 -11.461  1.00  0.00     0.057 A 
ATOM     77  C   UNL     1      -7.147   8.119 -11.132  1.00  0.00     0.134 A 
ATOM     78  C   UNL     1      -5.493   7.664 -12.802  1.00  0.00     0.134 A 
ATOM     79  F   UNL     1      -7.596   8.068  -9.868  1.00  0.00    -0.206 F 
ATOM     80  C   UNL     1      -7.977   8.686 -12.101  1.00  0.00     0.040 A 
ATOM     81  C   UNL     1      -6.303   8.250 -13.775  1.00  0.00     0.040 A 
ATOM     82  F   UNL     1      -4.300   7.184 -13.184  1.00  0.00    -0.206 F 
ATOM     83  C   UNL     1      -7.552   8.761 -13.426  1.00  0.00     0.006 A 
ENDBRANCH  59  76
ENDBRANCH  33  34
ENDBRANCH  26  28
ENDBRANCH  25  26
ENDBRANCH  24  25
ENDBRANCH  23  24
ENDBRANCH   1  23
TORSDOF 16
