REMARK SMILES O=C(CN1C(=O)/C(=C2/Sc3ccccc3N2CCCS(=O)(=O)[O-])SC1=S)OCCOC(=O)c1ccc(-c2c3nc(c(-c4c(F)cccc4F)c4ccc([nH]4)c(-c4c(F)cccc4F)c4nc(c(-c5c(F)cccc5F)c5ccc2[nH]5)C=C4)C=C3)cc1
REMARK SMILES IDX 27 1 2 2 1 3 3 4 4 5 5 6 25 7 6 8 7 9 24 10 26 11 8 12 9 13
REMARK SMILES IDX 16 14 10 15 15 16 11 17 14 18 12 19 13 20 17 21 18 22 19 23
REMARK SMILES IDX 20 24 21 25 22 26 23 27 28 28 29 29 30 30 31 31 32 32 33 33
REMARK SMILES IDX 34 34 86 35 35 36 85 37 36 38 37 39 38 40 79 41 39 42 84 43
REMARK SMILES IDX 78 44 80 45 40 46 83 47 77 48 76 49 41 51 67 52 50 53 66 54
REMARK SMILES IDX 51 55 54 56 65 57 81 58 52 59 53 60 64 62 82 63 55 64 42 65
REMARK SMILES IDX 43 66 48 67 44 68 45 69 47 70 49 71 46 72 68 73 69 74 74 75
REMARK SMILES IDX 70 76 71 77 73 78 75 79 72 80 56 81 57 82 62 83 58 84 59 85
REMARK SMILES IDX 61 86 63 87 60 88
REMARK H PARENT 80 50 54 61
REMARK Flexibility Score: inf
ROOT
ATOM      1  O   UNL     1       2.392   0.467   0.467  1.00  0.00    -0.461 OA
ENDROOT
BRANCH   1   2
ATOM      2  C   UNL     1       2.515  -0.760  -0.092  1.00  0.00     0.326 C 
ATOM      3  O   UNL     1       1.912  -1.104  -1.100  1.00  0.00    -0.250 OA
BRANCH   2   4
ATOM      4  C   UNL     1       3.392  -1.685   0.771  1.00  0.00     0.250 C 
BRANCH   4   5
ATOM      5  N   UNL     1       3.641  -2.965   0.073  1.00  0.00    -0.281 N 
ATOM      6  C   UNL     1       4.654  -3.057  -0.849  1.00  0.00     0.269 C 
ATOM      7  C   UNL     1       3.055  -4.173   0.335  1.00  0.00     0.148 C 
ATOM      8  O   UNL     1       5.699  -2.430  -0.783  1.00  0.00    -0.268 OA
ATOM      9  C   UNL     1       4.407  -4.165  -1.798  1.00  0.00     0.111 C 
ATOM     10  S   UNL     1       3.552  -5.361  -0.872  1.00  0.00    -0.052 SA
ATOM     11  S   UNL     1       2.058  -4.579   1.595  1.00  0.00    -0.052 S 
ATOM     12  C   UNL     1       4.624  -4.160  -3.136  1.00  0.00     0.100 C 
ATOM     13  S   UNL     1       4.202  -5.670  -4.064  1.00  0.00    -0.068 SA
ATOM     14  N   UNL     1       5.080  -3.137  -4.002  1.00  0.00    -0.334 N 
ATOM     15  C   UNL     1       4.594  -4.836  -5.585  1.00  0.00     0.037 A 
ATOM     16  C   UNL     1       4.965  -3.499  -5.372  1.00  0.00     0.056 A 
ATOM     17  C   UNL     1       4.582  -5.396  -6.855  1.00  0.00     0.017 A 
ATOM     18  C   UNL     1       5.202  -2.683  -6.478  1.00  0.00     0.027 A 
ATOM     19  C   UNL     1       4.885  -4.585  -7.949  1.00  0.00     0.001 A 
ATOM     20  C   UNL     1       5.162  -3.227  -7.764  1.00  0.00     0.002 A 
BRANCH  14  21
ATOM     21  C   UNL     1       6.010  -2.044  -3.725  1.00  0.00     0.124 C 
BRANCH  21  22
ATOM     22  C   UNL     1       5.321  -0.683  -3.731  1.00  0.00     0.037 C 
BRANCH  22  23
ATOM     23  C   UNL     1       5.013  -0.122  -2.372  1.00  0.00     0.124 C 
BRANCH  23  24
ATOM     24  S   UNL     1       6.389   0.512  -1.416  1.00  0.00     0.095 S 
ATOM     25  O   UNL     1       6.803   1.775  -1.980  1.00  0.00    -0.243 OA
ATOM     26  O   UNL     1       6.086   0.397  -0.006  1.00  0.00    -0.243 OA
ATOM     27  O   UNL     1       7.555  -0.539  -1.766  1.00  0.00    -0.748 OA
ENDBRANCH  23  24
ENDBRANCH  22  23
ENDBRANCH  21  22
ENDBRANCH  14  21
ENDBRANCH   4   5
ENDBRANCH   2   4
ENDBRANCH   1   2
BRANCH   1  28
ATOM     28  C   UNL     1       2.980   1.665  -0.112  1.00  0.00     0.274 C 
BRANCH  28  29
ATOM     29  C   UNL     1       3.760   2.469   0.952  1.00  0.00     0.275 C 
BRANCH  29  30
ATOM     30  O   UNL     1       3.618   1.884   2.244  1.00  0.00    -0.458 OA
BRANCH  30  31
ATOM     31  C   UNL     1       2.327   1.884   2.674  1.00  0.00     0.338 C 
ATOM     32  O   UNL     1       1.421   2.563   2.258  1.00  0.00    -0.246 OA
BRANCH  31  33
ATOM     33  C   UNL     1       2.170   0.707   3.552  1.00  0.00     0.060 A 
ATOM     34  C   UNL     1       3.216   0.292   4.378  1.00  0.00     0.016 A 
ATOM     35  C   UNL     1       0.953   0.016   3.523  1.00  0.00     0.016 A 
ATOM     36  C   UNL     1       3.006  -0.756   5.260  1.00  0.00     0.010 A 
ATOM     37  C   UNL     1       0.731  -1.013   4.430  1.00  0.00     0.010 A 
ATOM     38  C   UNL     1       1.740  -1.359   5.338  1.00  0.00    -0.014 A 
BRANCH  38  39
ATOM     39  C   UNL     1       1.433  -2.172   6.529  1.00  0.00     0.031 A 
ATOM     40  C   UNL     1       1.322  -3.654   6.471  1.00  0.00     0.074 A 
ATOM     41  C   UNL     1       1.282  -1.514   7.691  1.00  0.00     0.049 A 
ATOM     42  N   UNL     1       1.301  -4.522   7.447  1.00  0.00    -0.248 NA
ATOM     43  C   UNL     1       1.231  -4.242   5.136  1.00  0.00     0.031 C 
ATOM     44  C   UNL     1       1.313  -0.056   7.847  1.00  0.00     0.029 A 
ATOM     45  N   UNL     1       1.091  -1.985   8.957  1.00  0.00    -0.354 N 
ATOM     46  C   UNL     1       1.275  -5.766   6.834  1.00  0.00     0.074 A 
ATOM     47  C   UNL     1       1.215  -5.539   5.408  1.00  0.00     0.031 C 
ATOM     48  C   UNL     1       1.176   0.245   9.146  1.00  0.00     0.029 A 
ATOM     49  C   UNL     1       1.023  -0.993   9.899  1.00  0.00     0.049 A 
ATOM     50  H   UNL     1       1.009  -2.943   9.172  1.00  0.00     0.167 HD
ATOM     51  C   UNL     1       1.305  -6.987   7.417  1.00  0.00     0.037 A 
ATOM     52  C   UNL     1       0.857  -1.084  11.228  1.00  0.00     0.037 A 
ATOM     53  C   UNL     1       1.218  -7.189   8.839  1.00  0.00     0.049 A 
ATOM     54  C   UNL     1       0.775  -2.449  11.845  1.00  0.00     0.074 A 
ATOM     55  C   UNL     1       1.198  -8.375   9.549  1.00  0.00     0.029 A 
ATOM     56  N   UNL     1       1.083  -6.164   9.766  1.00  0.00    -0.354 N 
ATOM     57  N   UNL     1       0.877  -3.626  11.276  1.00  0.00    -0.248 NA
ATOM     58  C   UNL     1       0.566  -2.494  13.296  1.00  0.00     0.031 C 
ATOM     59  C   UNL     1       0.983  -8.069  10.899  1.00  0.00     0.029 A 
ATOM     60  C   UNL     1       0.934  -6.690  11.038  1.00  0.00     0.049 A 
ATOM     61  H   UNL     1       1.091  -5.204   9.550  1.00  0.00     0.167 HD
ATOM     62  C   UNL     1       0.761  -4.555  12.300  1.00  0.00     0.074 A 
ATOM     63  C   UNL     1       0.619  -3.797  13.528  1.00  0.00     0.031 C 
ATOM     64  C   UNL     1       0.767  -5.910  12.238  1.00  0.00     0.037 A 
BRANCH  51  65
ATOM     65  C   UNL     1       1.407  -8.173   6.506  1.00  0.00     0.057 A 
ATOM     66  C   UNL     1       0.332  -9.053   6.335  1.00  0.00     0.134 A 
ATOM     67  C   UNL     1       2.584  -8.446   5.794  1.00  0.00     0.134 A 
ATOM     68  F   UNL     1      -0.825  -8.850   6.983  1.00  0.00    -0.206 F 
ATOM     69  C   UNL     1       0.425 -10.162   5.492  1.00  0.00     0.040 A 
ATOM     70  C   UNL     1       2.682  -9.539   4.931  1.00  0.00     0.040 A 
ATOM     71  F   UNL     1       3.648  -7.634   5.902  1.00  0.00    -0.206 F 
ATOM     72  C   UNL     1       1.600 -10.404   4.782  1.00  0.00     0.006 A 
ENDBRANCH  51  65
BRANCH  52  73
ATOM     73  C   UNL     1       0.764   0.145  12.049  1.00  0.00     0.057 A 
ATOM     74  C   UNL     1      -0.332   1.010  11.936  1.00  0.00     0.134 A 
ATOM     75  C   UNL     1       1.756   0.475  12.978  1.00  0.00     0.134 A 
ATOM     76  F   UNL     1      -1.307   0.758  11.050  1.00  0.00    -0.206 F 
ATOM     77  C   UNL     1      -0.442   2.155  12.724  1.00  0.00     0.040 A 
ATOM     78  C   UNL     1       1.644   1.601  13.794  1.00  0.00     0.040 A 
ATOM     79  F   UNL     1       2.826  -0.318  13.134  1.00  0.00    -0.206 F 
ATOM     80  C   UNL     1       0.542   2.445  13.666  1.00  0.00     0.006 A 
ENDBRANCH  52  73
BRANCH  64  81
ATOM     81  C   UNL     1       0.617  -6.637  13.543  1.00  0.00     0.057 A 
ATOM     82  C   UNL     1       1.690  -7.353  14.088  1.00  0.00     0.134 A 
ATOM     83  C   UNL     1      -0.582  -6.615  14.268  1.00  0.00     0.134 A 
ATOM     84  F   UNL     1       2.863  -7.424  13.441  1.00  0.00    -0.206 F 
ATOM     85  C   UNL     1       1.579  -8.011  15.312  1.00  0.00     0.040 A 
ATOM     86  C   UNL     1      -0.694  -7.238  15.511  1.00  0.00     0.040 A 
ATOM     87  F   UNL     1      -1.643  -5.933  13.808  1.00  0.00    -0.206 F 
ATOM     88  C   UNL     1       0.389  -7.942  16.034  1.00  0.00     0.006 A 
ENDBRANCH  64  81
ENDBRANCH  38  39
ENDBRANCH  31  33
ENDBRANCH  30  31
ENDBRANCH  29  30
ENDBRANCH  28  29
ENDBRANCH   1  28
TORSDOF 16
