REMARK SMILES Cc1cccc(C(=O)Nc2cnc(N3CCN(c4cccc(C)c4)[C@H](C)C3)c(C(=O)OCCOC(=O)c3ccc(-c4c5nc(c(-c6c(F)cccc6F)c6ccc([nH]6)c(-c6c(F)cccc6F)c6nc(c(-c7c(F)cccc7F)c7ccc4[nH]7)C=C6)C=C5)cc3)c2)c1
REMARK SMILES IDX 32 1 31 2 29 3 30 4 28 5 10 6 11 7 91 8 12 9 13 10 9 11 7 12
REMARK SMILES IDX 8 13 6 15 1 16 2 17 3 18 92 19 4 20 5 21 14 22 15 23 27 24
REMARK SMILES IDX 16 25 25 26 17 27 26 28 18 29 19 30 24 31 20 32 22 33 21 34
REMARK SMILES IDX 23 35 33 36 34 37 35 38 36 39 37 40 38 41 90 42 39 43 89 44
REMARK SMILES IDX 40 45 41 46 42 47 83 48 43 49 88 50 82 51 84 52 44 53 87 54
REMARK SMILES IDX 81 55 80 56 45 58 71 59 54 60 70 61 55 62 58 63 69 64 85 65
REMARK SMILES IDX 56 66 57 67 68 69 86 70 59 71 46 72 47 73 52 74 48 75 49 76
REMARK SMILES IDX 51 77 53 78 50 79 72 80 73 81 78 82 74 83 75 84 77 85 79 86
REMARK SMILES IDX 76 87 60 88 61 89 66 90 62 91 63 92 65 93 67 94 64 95
REMARK H PARENT 9 14 84 57 58 68
REMARK Flexibility Score: inf
ROOT
ATOM      1  C   UNL     1       2.320   2.170  -4.504  1.00  0.00     0.275 C 
ENDROOT
BRANCH   1   2
ATOM      2  O   UNL     1       2.429   3.354  -3.649  1.00  0.00    -0.458 OA
BRANCH   2   3
ATOM      3  C   UNL     1       2.280   3.069  -2.325  1.00  0.00     0.342 C 
ATOM      4  O   UNL     1       2.029   1.929  -1.935  1.00  0.00    -0.246 OA
BRANCH   3   5
ATOM      5  C   UNL     1       2.013   4.136  -1.333  1.00  0.00     0.104 A 
ATOM      6  C   UNL     1       0.081   4.149   0.153  1.00  0.00     0.061 A 
ATOM      7  C   UNL     1       0.893   4.846   1.030  1.00  0.00     0.139 A 
ATOM      8  C   UNL     1       0.608   3.963  -1.095  1.00  0.00     0.047 A 
ATOM      9  N   UNL     1       2.211   5.139   0.815  1.00  0.00    -0.236 NA
ATOM     10  C   UNL     1       2.854   4.695  -0.303  1.00  0.00     0.143 A 
BRANCH   6  11
ATOM     11  N   UNL     1      -1.185   3.691   0.551  1.00  0.00    -0.321 N 
ATOM     12  C   UNL     1      -2.057   2.686   0.164  1.00  0.00     0.255 C 
ATOM     13  O   UNL     1      -3.231   2.862   0.514  1.00  0.00    -0.269 OA
ATOM     14  H   UNL     1      -1.547   4.221   1.298  1.00  0.00     0.170 HD
BRANCH  12  15
ATOM     15  C   UNL     1      -1.740   1.357  -0.482  1.00  0.00     0.040 A 
ATOM     16  C   UNL     1       1.009  -1.077  -1.576  1.00  0.00     0.044 C 
ATOM     17  C   UNL     1      -0.329  -0.499  -1.236  1.00  0.00    -0.050 A 
ATOM     18  C   UNL     1      -1.443  -1.283  -1.520  1.00  0.00     0.003 A 
ATOM     19  C   UNL     1      -0.477   0.794  -0.664  1.00  0.00     0.017 A 
ATOM     20  C   UNL     1      -2.705  -0.767  -1.299  1.00  0.00     0.001 A 
ATOM     21  C   UNL     1      -2.847   0.539  -0.810  1.00  0.00     0.014 A 
ENDBRANCH  12  15
ENDBRANCH   6  11
BRANCH  10  22
ATOM     22  N   UNL     1       4.260   4.711  -0.177  1.00  0.00    -0.352 N 
ATOM     23  C   UNL     1       4.825   4.864   1.216  1.00  0.00     0.139 C 
ATOM     24  C   UNL     1       5.183   5.372  -1.143  1.00  0.00     0.142 C 
ATOM     25  C   UNL     1       6.347   4.473   1.407  1.00  0.00     0.138 C 
ATOM     26  C   UNL     1       6.618   4.689  -1.082  1.00  0.00     0.098 C 
ATOM     27  N   UNL     1       7.271   4.831   0.288  1.00  0.00    -0.365 N 
ATOM     28  C   UNL     1       7.482   5.059  -2.287  1.00  0.00     0.033 C 
BRANCH  27  29
ATOM     29  C   UNL     1       8.661   4.556   0.407  1.00  0.00     0.037 A 
ATOM     30  C   UNL     1       9.580   5.369  -0.277  1.00  0.00     0.026 A 
ATOM     31  C   UNL     1       9.252   3.473   1.104  1.00  0.00     0.029 A 
ATOM     32  C   UNL     1      10.929   5.025  -0.457  1.00  0.00     0.002 A 
ATOM     33  C   UNL     1      10.614   3.082   0.911  1.00  0.00    -0.049 A 
ATOM     34  C   UNL     1      11.432   3.859   0.095  1.00  0.00     0.003 A 
ATOM     35  C   UNL     1      11.215   1.807   1.452  1.00  0.00     0.044 C 
ENDBRANCH  27  29
ENDBRANCH  10  22
ENDBRANCH   3   5
ENDBRANCH   2   3
ENDBRANCH   1   2
BRANCH   1  36
ATOM     36  C   UNL     1       3.473   1.971  -5.510  1.00  0.00     0.275 C 
BRANCH  36  37
ATOM     37  O   UNL     1       4.810   1.814  -5.000  1.00  0.00    -0.458 OA
BRANCH  37  38
ATOM     38  C   UNL     1       5.034   2.360  -3.797  1.00  0.00     0.338 C 
ATOM     39  O   UNL     1       5.203   3.559  -3.607  1.00  0.00    -0.246 OA
BRANCH  38  40
ATOM     40  C   UNL     1       4.869   1.351  -2.735  1.00  0.00     0.060 A 
ATOM     41  C   UNL     1       4.631   1.780  -1.421  1.00  0.00     0.016 A 
ATOM     42  C   UNL     1       4.731   0.016  -3.051  1.00  0.00     0.016 A 
ATOM     43  C   UNL     1       4.265   0.936  -0.386  1.00  0.00     0.010 A 
ATOM     44  C   UNL     1       4.337  -0.836  -2.052  1.00  0.00     0.010 A 
ATOM     45  C   UNL     1       4.194  -0.390  -0.709  1.00  0.00    -0.014 A 
BRANCH  45  46
ATOM     46  C   UNL     1       4.174  -1.448   0.275  1.00  0.00     0.031 A 
ATOM     47  C   UNL     1       2.966  -1.872   0.997  1.00  0.00     0.074 A 
ATOM     48  C   UNL     1       5.265  -2.230   0.097  1.00  0.00     0.049 A 
ATOM     49  N   UNL     1       2.835  -3.112   1.275  1.00  0.00    -0.248 NA
ATOM     50  C   UNL     1       1.779  -1.103   1.385  1.00  0.00     0.031 C 
ATOM     51  C   UNL     1       5.489  -3.637   0.327  1.00  0.00     0.029 A 
ATOM     52  N   UNL     1       6.529  -1.782  -0.294  1.00  0.00    -0.354 N 
ATOM     53  C   UNL     1       1.562  -3.365   1.693  1.00  0.00     0.074 A 
ATOM     54  C   UNL     1       0.899  -2.088   1.673  1.00  0.00     0.031 C 
ATOM     55  C   UNL     1       6.810  -3.853   0.467  1.00  0.00     0.029 A 
ATOM     56  C   UNL     1       7.461  -2.559   0.415  1.00  0.00     0.049 A 
ATOM     57  H   UNL     1       6.728  -1.065  -0.939  1.00  0.00     0.167 HD
ATOM     58  C   UNL     1       1.323  -4.684   1.904  1.00  0.00     0.037 A 
ATOM     59  C   UNL     1       8.099  -1.938   1.456  1.00  0.00     0.037 A 
ATOM     60  C   UNL     1       2.571  -5.280   2.383  1.00  0.00     0.049 A 
ATOM     61  C   UNL     1       7.537  -2.357   2.795  1.00  0.00     0.074 A 
ATOM     62  C   UNL     1       3.576  -6.053   1.832  1.00  0.00     0.029 A 
ATOM     63  N   UNL     1       3.100  -4.707   3.531  1.00  0.00    -0.354 N 
ATOM     64  N   UNL     1       6.420  -3.017   2.935  1.00  0.00    -0.248 NA
ATOM     65  C   UNL     1       8.211  -2.141   4.068  1.00  0.00     0.031 C 
ATOM     66  C   UNL     1       4.766  -5.787   2.585  1.00  0.00     0.029 A 
ATOM     67  C   UNL     1       4.465  -4.873   3.585  1.00  0.00     0.049 A 
ATOM     68  H   UNL     1       2.568  -4.243   4.217  1.00  0.00     0.167 HD
ATOM     69  C   UNL     1       6.258  -3.401   4.233  1.00  0.00     0.074 A 
ATOM     70  C   UNL     1       7.407  -2.820   4.906  1.00  0.00     0.031 C 
ATOM     71  C   UNL     1       5.215  -4.189   4.636  1.00  0.00     0.037 A 
BRANCH  58  72
ATOM     72  C   UNL     1       0.094  -5.469   1.581  1.00  0.00     0.057 A 
ATOM     73  C   UNL     1       0.135  -6.877   1.681  1.00  0.00     0.134 A 
ATOM     74  C   UNL     1      -1.066  -4.949   0.989  1.00  0.00     0.134 A 
ATOM     75  F   UNL     1       1.187  -7.515   2.214  1.00  0.00    -0.206 F 
ATOM     76  C   UNL     1      -0.881  -7.708   1.201  1.00  0.00     0.040 A 
ATOM     77  C   UNL     1      -2.107  -5.773   0.525  1.00  0.00     0.040 A 
ATOM     78  F   UNL     1      -1.226  -3.633   0.798  1.00  0.00    -0.206 F 
ATOM     79  C   UNL     1      -2.010  -7.157   0.619  1.00  0.00     0.006 A 
ENDBRANCH  58  72
BRANCH  59  80
ATOM     80  C   UNL     1       8.478  -0.557   1.021  1.00  0.00     0.057 A 
ATOM     81  C   UNL     1       9.336  -0.488  -0.107  1.00  0.00     0.134 A 
ATOM     82  C   UNL     1       7.551   0.466   1.165  1.00  0.00     0.134 A 
ATOM     83  F   UNL     1      10.286  -1.421  -0.273  1.00  0.00    -0.206 F 
ATOM     84  C   UNL     1       9.129   0.410  -1.157  1.00  0.00     0.040 A 
ATOM     85  C   UNL     1       7.336   1.340   0.102  1.00  0.00     0.040 A 
ATOM     86  F   UNL     1       6.722   0.531   2.218  1.00  0.00    -0.206 F 
ATOM     87  C   UNL     1       8.077   1.296  -1.078  1.00  0.00     0.006 A 
ENDBRANCH  59  80
BRANCH  71  88
ATOM     88  C   UNL     1       4.827  -4.443   6.072  1.00  0.00     0.057 A 
ATOM     89  C   UNL     1       5.162  -3.600   7.139  1.00  0.00     0.134 A 
ATOM     90  C   UNL     1       3.966  -5.515   6.409  1.00  0.00     0.134 A 
ATOM     91  F   UNL     1       5.802  -2.440   6.950  1.00  0.00    -0.206 F 
ATOM     92  C   UNL     1       4.791  -3.879   8.458  1.00  0.00     0.040 A 
ATOM     93  C   UNL     1       3.508  -5.745   7.705  1.00  0.00     0.040 A 
ATOM     94  F   UNL     1       3.498  -6.375   5.492  1.00  0.00    -0.206 F 
ATOM     95  C   UNL     1       3.957  -4.951   8.745  1.00  0.00     0.006 A 
ENDBRANCH  71  88
ENDBRANCH  45  46
ENDBRANCH  38  40
ENDBRANCH  37  38
ENDBRANCH  36  37
ENDBRANCH   1  36
TORSDOF 15
