REMARK SMILES O=C(OCCOC(=O)[C@]1([NH2+]C2CC2)CCC[C@H](SC2CCCCC2)C1)c1ccc(-c2c3nc(c(-c4c(F)cccc4F)c4ccc([nH]4)c(-c4c(F)cccc4F)c4nc(c(-c5c(F)cccc5F)c5ccc2[nH]5)C=C4)C=C3)cc1
REMARK SMILES IDX 4 1 3 2 2 3 1 4 26 5 27 6 79 7 28 8 78 9 29 10 30 11 31 12
REMARK SMILES IDX 72 13 32 14 77 15 71 16 73 17 33 18 76 19 70 20 69 21 34 23
REMARK SMILES IDX 60 24 43 25 59 26 44 27 47 28 58 29 74 30 45 31 46 32 57 34
REMARK SMILES IDX 75 35 48 36 35 37 36 38 41 39 37 40 38 41 40 42 42 43 39 44
REMARK SMILES IDX 61 45 62 46 67 47 63 48 64 49 66 50 68 51 65 52 49 53 50 54
REMARK SMILES IDX 55 55 51 56 52 57 54 58 56 59 53 60 5 61 6 62 7 63 8 64 9 65
REMARK SMILES IDX 14 66 25 67 15 68 17 69 16 70 10 71 11 74 12 75 13 76 18 77
REMARK SMILES IDX 19 78 20 79 24 80 21 81 23 82 22 83
REMARK H PARENT 73 22 47 33 10 72 10 73
REMARK Flexibility Score: inf
ROOT
ATOM      1  C   UNL     1      -1.815  -0.120   3.441  1.00  0.00     0.275 C 
ENDROOT
BRANCH   1   2
ATOM      2  O   UNL     1      -2.163  -0.207   2.057  1.00  0.00    -0.458 OA
BRANCH   2   3
ATOM      3  C   UNL     1      -1.678   0.649   1.130  1.00  0.00     0.338 C 
ATOM      4  O   UNL     1      -2.114   0.688  -0.017  1.00  0.00    -0.246 OA
BRANCH   3   5
ATOM      5  C   UNL     1      -0.466   1.420   1.459  1.00  0.00     0.060 A 
ATOM      6  C   UNL     1      -0.440   2.607   2.193  1.00  0.00     0.016 A 
ATOM      7  C   UNL     1       0.705   0.920   0.916  1.00  0.00     0.016 A 
ATOM      8  C   UNL     1       0.776   3.291   2.362  1.00  0.00     0.010 A 
ATOM      9  C   UNL     1       1.911   1.579   1.105  1.00  0.00     0.010 A 
ATOM     10  C   UNL     1       1.953   2.791   1.785  1.00  0.00    -0.014 A 
BRANCH  10  11
ATOM     11  C   UNL     1       3.215   3.557   1.714  1.00  0.00     0.031 A 
ATOM     12  C   UNL     1       3.577   4.228   0.414  1.00  0.00     0.074 A 
ATOM     13  C   UNL     1       4.115   3.510   2.712  1.00  0.00     0.049 A 
ATOM     14  N   UNL     1       4.531   5.085   0.161  1.00  0.00    -0.248 NA
ATOM     15  C   UNL     1       2.794   3.840  -0.774  1.00  0.00     0.031 C 
ATOM     16  C   UNL     1       4.013   2.683   3.915  1.00  0.00     0.029 A 
ATOM     17  N   UNL     1       5.317   4.155   2.850  1.00  0.00    -0.354 N 
ATOM     18  C   UNL     1       4.421   5.376  -1.194  1.00  0.00     0.074 A 
ATOM     19  C   UNL     1       3.406   4.507  -1.739  1.00  0.00     0.031 C 
ATOM     20  C   UNL     1       5.106   2.881   4.675  1.00  0.00     0.029 A 
ATOM     21  C   UNL     1       5.950   3.890   4.039  1.00  0.00     0.049 A 
ATOM     22  H   UNL     1       5.691   4.751   2.162  1.00  0.00     0.167 HD
ATOM     23  C   UNL     1       5.061   6.335  -1.902  1.00  0.00     0.037 A 
ATOM     24  C   UNL     1       7.047   4.460   4.572  1.00  0.00     0.037 A 
ATOM     25  C   UNL     1       6.082   7.171  -1.334  1.00  0.00     0.049 A 
ATOM     26  C   UNL     1       7.666   5.628   3.848  1.00  0.00     0.074 A 
ATOM     27  C   UNL     1       6.736   8.256  -1.886  1.00  0.00     0.029 A 
ATOM     28  N   UNL     1       6.605   6.989  -0.061  1.00  0.00    -0.354 N 
ATOM     29  N   UNL     1       7.398   6.096   2.651  1.00  0.00    -0.248 NA
ATOM     30  C   UNL     1       8.684   6.397   4.577  1.00  0.00     0.031 C 
ATOM     31  C   UNL     1       7.668   8.721  -0.949  1.00  0.00     0.029 A 
ATOM     32  C   UNL     1       7.568   7.945   0.196  1.00  0.00     0.049 A 
ATOM     33  H   UNL     1       6.330   6.282   0.566  1.00  0.00     0.167 HD
ATOM     34  C   UNL     1       8.181   7.233   2.499  1.00  0.00     0.074 A 
ATOM     35  C   UNL     1       8.920   7.394   3.735  1.00  0.00     0.031 C 
ATOM     36  C   UNL     1       8.282   8.075   1.439  1.00  0.00     0.037 A 
BRANCH  23  37
ATOM     37  C   UNL     1       4.607   6.575  -3.315  1.00  0.00     0.057 A 
ATOM     38  C   UNL     1       3.314   7.052  -3.586  1.00  0.00     0.134 A 
ATOM     39  C   UNL     1       5.453   6.366  -4.409  1.00  0.00     0.134 A 
ATOM     40  F   UNL     1       2.447   7.273  -2.586  1.00  0.00    -0.206 F 
ATOM     41  C   UNL     1       2.870   7.278  -4.890  1.00  0.00     0.040 A 
ATOM     42  C   UNL     1       5.030   6.618  -5.718  1.00  0.00     0.040 A 
ATOM     43  F   UNL     1       6.705   5.919  -4.229  1.00  0.00    -0.206 F 
ATOM     44  C   UNL     1       3.733   7.067  -5.961  1.00  0.00     0.006 A 
ENDBRANCH  23  37
BRANCH  24  45
ATOM     45  C   UNL     1       7.512   4.059   5.925  1.00  0.00     0.057 A 
ATOM     46  C   UNL     1       7.270   4.875   7.037  1.00  0.00     0.134 A 
ATOM     47  C   UNL     1       8.195   2.859   6.146  1.00  0.00     0.134 A 
ATOM     48  F   UNL     1       6.624   6.042   6.889  1.00  0.00    -0.206 F 
ATOM     49  C   UNL     1       7.718   4.531   8.314  1.00  0.00     0.040 A 
ATOM     50  C   UNL     1       8.632   2.491   7.422  1.00  0.00     0.040 A 
ATOM     51  F   UNL     1       8.441   2.021   5.128  1.00  0.00    -0.206 F 
ATOM     52  C   UNL     1       8.400   3.333   8.509  1.00  0.00     0.006 A 
ENDBRANCH  24  45
BRANCH  36  53
ATOM     53  C   UNL     1       9.207   9.245   1.587  1.00  0.00     0.057 A 
ATOM     54  C   UNL     1      10.598   9.087   1.586  1.00  0.00     0.134 A 
ATOM     55  C   UNL     1       8.698  10.544   1.699  1.00  0.00     0.134 A 
ATOM     56  F   UNL     1      11.144   7.865   1.490  1.00  0.00    -0.206 F 
ATOM     57  C   UNL     1      11.453  10.180   1.725  1.00  0.00     0.040 A 
ATOM     58  C   UNL     1       9.543  11.648   1.811  1.00  0.00     0.040 A 
ATOM     59  F   UNL     1       7.375  10.762   1.693  1.00  0.00    -0.206 F 
ATOM     60  C   UNL     1      10.925  11.466   1.833  1.00  0.00     0.006 A 
ENDBRANCH  36  53
ENDBRANCH  10  11
ENDBRANCH   3   5
ENDBRANCH   2   3
ENDBRANCH   1   2
BRANCH   1  61
ATOM     61  C   UNL     1      -0.678  -1.043   3.861  1.00  0.00     0.274 C 
BRANCH  61  62
ATOM     62  O   UNL     1       0.563  -0.918   3.132  1.00  0.00    -0.457 OA
BRANCH  62  63
ATOM     63  C   UNL     1       0.972  -2.033   2.439  1.00  0.00     0.368 C 
ATOM     64  O   UNL     1       0.195  -2.905   2.062  1.00  0.00    -0.245 OA
BRANCH  63  65
ATOM     65  C   UNL     1       2.534  -2.117   2.246  1.00  0.00     0.195 C 
ATOM     66  C   UNL     1       2.959  -3.587   2.004  1.00  0.00     0.081 C 
ATOM     67  C   UNL     1       3.292  -1.569   3.514  1.00  0.00     0.095 C 
ATOM     68  C   UNL     1       2.901  -4.461   3.247  1.00  0.00     0.008 C 
ATOM     69  C   UNL     1       3.302  -2.487   4.777  1.00  0.00     0.053 C 
ATOM     70  C   UNL     1       3.756  -3.879   4.362  1.00  0.00     0.015 C 
BRANCH  65  71
ATOM     71  N   UNL     1       2.965  -1.275   1.070  1.00  0.00    -0.330 N 
ATOM     72  H   UNL     1       3.947  -1.043   1.218  1.00  0.00     0.347 HD
ATOM     73  H   UNL     1       2.295  -0.506   1.076  1.00  0.00     0.347 HD
BRANCH  71  74
ATOM     74  C   UNL     1       2.855  -1.811  -0.308  1.00  0.00     0.183 C 
ATOM     75  C   UNL     1       2.237  -1.045  -1.452  1.00  0.00     0.071 C 
ATOM     76  C   UNL     1       3.722  -1.132  -1.352  1.00  0.00     0.071 C 
ENDBRANCH  71  74
ENDBRANCH  65  71
BRANCH  69  77
ATOM     77  S   UNL     1       1.702  -2.292   5.661  1.00  0.00    -0.155 SA
BRANCH  77  78
ATOM     78  C   UNL     1       1.424  -3.687   6.807  1.00  0.00     0.047 C 
ATOM     79  C   UNL     1       1.180  -5.046   6.148  1.00  0.00     0.014 C 
ATOM     80  C   UNL     1       2.419  -3.718   7.963  1.00  0.00     0.014 C 
ATOM     81  C   UNL     1       0.868  -6.135   7.170  1.00  0.00     0.001 C 
ATOM     82  C   UNL     1       2.044  -4.816   8.961  1.00  0.00     0.001 C 
ATOM     83  C   UNL     1       1.921  -6.172   8.274  1.00  0.00     0.000 C 
ENDBRANCH  77  78
ENDBRANCH  69  77
ENDBRANCH  63  65
ENDBRANCH  62  63
ENDBRANCH  61  62
ENDBRANCH   1  61
TORSDOF 15
