REMARK SMILES Cc1ccc(C2=NN(C(=O)CCC(=O)OCCOC(=O)c3ccc(-c4c5nc(c(-c6c(F)cccc6F)c6ccc([nH]6)c(-c6c(F)cccc6F)c6nc(c(-c7c(F)cccc7F)c7ccc4[nH]7)C=C6)C=C5)cc3)[C@H](C[C@@H]3C=c4cccc(C)c4=NC3=O)C2)cc1
REMARK SMILES IDX 15 1 13 2 14 3 12 4 11 5 9 6 10 7 8 8 6 9 7 10 89 11 75 12
REMARK SMILES IDX 5 13 1 14 2 15 3 16 91 17 4 18 90 19 76 20 77 21 78 22 87 23
REMARK SMILES IDX 79 24 86 25 88 26 80 27 85 28 81 29 83 30 82 31 84 32 16 33
REMARK SMILES IDX 17 34 18 35 19 36 20 37 21 38 22 39 74 40 23 41 73 42 24 43
REMARK SMILES IDX 25 44 26 45 67 46 27 47 72 48 66 49 68 50 28 51 71 52 65 53
REMARK SMILES IDX 64 54 29 56 55 57 38 58 54 59 39 60 42 61 53 62 69 63 40 64
REMARK SMILES IDX 41 65 52 67 70 68 43 69 30 70 31 71 36 72 32 73 33 74 35 75
REMARK SMILES IDX 37 76 34 77 56 78 57 79 62 80 58 81 59 82 61 83 63 84 60 85
REMARK SMILES IDX 44 86 45 87 50 88 46 89 47 90 49 91 51 92 48 93
REMARK H PARENT 68 55 42 66
REMARK Flexibility Score: inf
ROOT
ATOM      1  O   UNL     1      -5.425   1.623  -0.311  1.00  0.00    -0.462 OA
ENDROOT
BRANCH   1   2
ATOM      2  C   UNL     1      -6.483   0.916   0.121  1.00  0.00     0.306 C 
ATOM      3  O   UNL     1      -7.330   0.397  -0.582  1.00  0.00    -0.252 OA
BRANCH   2   4
ATOM      4  C   UNL     1      -6.448   0.656   1.589  1.00  0.00     0.132 C 
BRANCH   4   5
ATOM      5  C   UNL     1      -6.668  -0.833   1.772  1.00  0.00     0.114 C 
BRANCH   5   6
ATOM      6  C   UNL     1      -5.338  -1.554   1.813  1.00  0.00     0.243 C 
ATOM      7  O   UNL     1      -4.980  -2.002   2.910  1.00  0.00    -0.273 OA
BRANCH   6   8
ATOM      8  N   UNL     1      -4.521  -1.618   0.686  1.00  0.00    -0.230 N 
ATOM      9  C   UNL     1      -2.554  -1.148  -0.083  1.00  0.00     0.070 C 
ATOM     10  N   UNL     1      -3.203  -1.362   1.008  1.00  0.00    -0.174 NA
ATOM     11  C   UNL     1      -3.294  -1.379  -1.349  1.00  0.00     0.086 C 
ATOM     12  C   UNL     1      -4.719  -1.528  -0.799  1.00  0.00     0.118 C 
BRANCH   9  13
ATOM     13  C   UNL     1      -1.153  -0.759  -0.091  1.00  0.00    -0.002 A 
ATOM     14  C   UNL     1       2.995   0.265   0.016  1.00  0.00     0.044 C 
ATOM     15  C   UNL     1       1.535  -0.075  -0.016  1.00  0.00    -0.051 A 
ATOM     16  C   UNL     1       1.147  -1.423  -0.005  1.00  0.00     0.004 A 
ATOM     17  C   UNL     1       0.557   0.930  -0.052  1.00  0.00     0.004 A 
ATOM     18  C   UNL     1      -0.198  -1.768  -0.038  1.00  0.00     0.010 A 
ATOM     19  C   UNL     1      -0.796   0.591  -0.086  1.00  0.00     0.010 A 
ENDBRANCH   9  13
BRANCH  12  20
ATOM     20  C   UNL     1      -5.447  -2.624  -1.611  1.00  0.00     0.045 C 
BRANCH  20  21
ATOM     21  C   UNL     1      -6.937  -2.807  -1.311  1.00  0.00     0.106 C 
ATOM     22  C   UNL     1      -7.086  -3.537  -0.026  1.00  0.00    -0.003 C 
ATOM     23  C   UNL     1      -7.717  -3.478  -2.461  1.00  0.00     0.253 C 
ATOM     24  C   UNL     1      -8.063  -4.398   0.222  1.00  0.00    -0.003 A 
ATOM     25  N   UNL     1      -8.713  -4.387  -2.163  1.00  0.00    -0.212 NA
ATOM     26  O   UNL     1      -7.468  -3.170  -3.626  1.00  0.00    -0.272 OA
ATOM     27  C   UNL     1      -8.324  -4.882   1.550  1.00  0.00     0.010 A 
ATOM     28  C   UNL     1      -8.869  -4.820  -0.952  1.00  0.00     0.077 A 
ATOM     29  C   UNL     1      -9.299  -5.771   1.750  1.00  0.00     0.001 A 
ATOM     30  C   UNL     1      -9.865  -5.902  -0.638  1.00  0.00    -0.025 A 
ATOM     31  C   UNL     1     -10.034  -6.315   0.633  1.00  0.00     0.005 A 
ATOM     32  C   UNL     1     -10.540  -6.554  -1.801  1.00  0.00     0.047 C 
ENDBRANCH  20  21
ENDBRANCH  12  20
ENDBRANCH   6   8
ENDBRANCH   5   6
ENDBRANCH   4   5
ENDBRANCH   2   4
ENDBRANCH   1   2
BRANCH   1  33
ATOM     33  C   UNL     1      -5.058   1.784  -1.700  1.00  0.00     0.274 C 
BRANCH  33  34
ATOM     34  C   UNL     1      -5.749   1.147  -2.955  1.00  0.00     0.275 C 
BRANCH  34  35
ATOM     35  O   UNL     1      -7.126   0.666  -3.082  1.00  0.00    -0.458 OA
BRANCH  35  36
ATOM     36  C   UNL     1      -8.367   1.237  -2.931  1.00  0.00     0.338 C 
ATOM     37  O   UNL     1      -9.386   0.738  -3.307  1.00  0.00    -0.246 OA
BRANCH  36  38
ATOM     38  C   UNL     1      -8.386   2.483  -2.141  1.00  0.00     0.060 A 
ATOM     39  C   UNL     1      -9.086   2.561  -0.917  1.00  0.00     0.016 A 
ATOM     40  C   UNL     1      -7.451   3.415  -2.494  1.00  0.00     0.016 A 
ATOM     41  C   UNL     1      -8.681   3.487   0.057  1.00  0.00     0.010 A 
ATOM     42  C   UNL     1      -6.924   4.142  -1.468  1.00  0.00     0.010 A 
ATOM     43  C   UNL     1      -7.541   4.244  -0.202  1.00  0.00    -0.014 A 
BRANCH  43  44
ATOM     44  C   UNL     1      -6.961   5.333   0.591  1.00  0.00     0.031 A 
ATOM     45  C   UNL     1      -6.324   5.237   1.926  1.00  0.00     0.074 A 
ATOM     46  C   UNL     1      -6.814   6.462  -0.147  1.00  0.00     0.049 A 
ATOM     47  N   UNL     1      -6.176   6.242   2.724  1.00  0.00    -0.248 NA
ATOM     48  C   UNL     1      -5.734   4.021   2.469  1.00  0.00     0.031 C 
ATOM     49  C   UNL     1      -5.992   7.630   0.076  1.00  0.00     0.029 A 
ATOM     50  N   UNL     1      -7.456   6.769  -1.356  1.00  0.00    -0.354 N 
ATOM     51  C   UNL     1      -5.240   5.892   3.682  1.00  0.00     0.074 A 
ATOM     52  C   UNL     1      -5.090   4.464   3.558  1.00  0.00     0.031 C 
ATOM     53  C   UNL     1      -6.433   8.613  -0.736  1.00  0.00     0.029 A 
ATOM     54  C   UNL     1      -7.658   8.132  -1.371  1.00  0.00     0.049 A 
ATOM     55  H   UNL     1      -7.714   6.132  -2.060  1.00  0.00     0.167 HD
ATOM     56  C   UNL     1      -4.547   6.862   4.350  1.00  0.00     0.037 A 
ATOM     57  C   UNL     1      -8.925   8.627  -1.223  1.00  0.00     0.037 A 
ATOM     58  C   UNL     1      -4.875   8.176   3.809  1.00  0.00     0.049 A 
ATOM     59  C   UNL     1      -8.988   9.478   0.019  1.00  0.00     0.074 A 
ATOM     60  C   UNL     1      -4.232   8.963   2.867  1.00  0.00     0.029 A 
ATOM     61  N   UNL     1      -6.157   8.688   3.948  1.00  0.00    -0.354 N 
ATOM     62  N   UNL     1      -8.230   9.281   1.063  1.00  0.00    -0.248 NA
ATOM     63  C   UNL     1      -9.847  10.646   0.156  1.00  0.00     0.031 C 
ATOM     64  C   UNL     1      -5.162   9.918   2.389  1.00  0.00     0.029 A 
ATOM     65  C   UNL     1      -6.359   9.722   3.056  1.00  0.00     0.049 A 
ATOM     66  H   UNL     1      -6.827   8.360   4.591  1.00  0.00     0.167 HD
ATOM     67  C   UNL     1      -8.386  10.321   1.934  1.00  0.00     0.074 A 
ATOM     68  C   UNL     1      -9.440  11.128   1.344  1.00  0.00     0.031 C 
ATOM     69  C   UNL     1      -7.611  10.459   3.047  1.00  0.00     0.037 A 
BRANCH  56  70
ATOM     70  C   UNL     1      -3.364   6.630   5.271  1.00  0.00     0.057 A 
ATOM     71  C   UNL     1      -2.322   7.577   5.389  1.00  0.00     0.134 A 
ATOM     72  C   UNL     1      -3.214   5.503   6.097  1.00  0.00     0.134 A 
ATOM     73  F   UNL     1      -2.346   8.742   4.731  1.00  0.00    -0.206 F 
ATOM     74  C   UNL     1      -1.191   7.384   6.195  1.00  0.00     0.040 A 
ATOM     75  C   UNL     1      -2.070   5.282   6.887  1.00  0.00     0.040 A 
ATOM     76  F   UNL     1      -4.188   4.589   6.206  1.00  0.00    -0.206 F 
ATOM     77  C   UNL     1      -1.048   6.221   6.931  1.00  0.00     0.006 A 
ENDBRANCH  56  70
BRANCH  57  78
ATOM     78  C   UNL     1     -10.011   7.699  -1.697  1.00  0.00     0.057 A 
ATOM     79  C   UNL     1     -10.040   7.329  -3.059  1.00  0.00     0.134 A 
ATOM     80  C   UNL     1     -10.740   6.883  -0.819  1.00  0.00     0.134 A 
ATOM     81  F   UNL     1      -9.341   8.036  -3.960  1.00  0.00    -0.206 F 
ATOM     82  C   UNL     1     -10.661   6.155  -3.505  1.00  0.00     0.040 A 
ATOM     83  C   UNL     1     -11.379   5.710  -1.260  1.00  0.00     0.040 A 
ATOM     84  F   UNL     1     -10.759   7.139   0.495  1.00  0.00    -0.206 F 
ATOM     85  C   UNL     1     -11.312   5.327  -2.598  1.00  0.00     0.006 A 
ENDBRANCH  57  78
BRANCH  69  86
ATOM     86  C   UNL     1      -7.897  11.368   4.207  1.00  0.00     0.057 A 
ATOM     87  C   UNL     1      -9.191  11.737   4.591  1.00  0.00     0.134 A 
ATOM     88  C   UNL     1      -6.869  11.732   5.107  1.00  0.00     0.134 A 
ATOM     89  F   UNL     1     -10.267  11.369   3.882  1.00  0.00    -0.206 F 
ATOM     90  C   UNL     1      -9.444  12.450   5.767  1.00  0.00     0.040 A 
ATOM     91  C   UNL     1      -7.117  12.387   6.312  1.00  0.00     0.040 A 
ATOM     92  F   UNL     1      -5.582  11.433   4.875  1.00  0.00    -0.206 F 
ATOM     93  C   UNL     1      -8.410  12.758   6.642  1.00  0.00     0.006 A 
ENDBRANCH  69  86
ENDBRANCH  43  44
ENDBRANCH  36  38
ENDBRANCH  35  36
ENDBRANCH  34  35
ENDBRANCH  33  34
ENDBRANCH   1  33
TORSDOF 17
