REMARK SMILES C[C@H]1[C@@H](C(=O)OCCOC(=O)c2ccc(-c3c4nc(c(-c5c(F)cccc5F)c5ccc([nH]5)c(-c5c(F)cccc5F)c5nc(c(-c6c(F)cccc6F)c6ccc3[nH]6)C=C5)C=C4)cc2)CCN1S(=O)(=O)c1ccc(Cl)cc1
REMARK SMILES IDX 7 1 6 2 4 3 5 4 3 5 1 6 2 7 68 8 66 9 67 10 69 11 70 12
REMARK SMILES IDX 71 13 72 14 73 15 78 16 74 17 77 18 75 19 76 20 8 21 9 22
REMARK SMILES IDX 10 23 11 24 12 25 13 26 65 27 14 28 64 29 15 30 16 31 17 32
REMARK SMILES IDX 58 33 18 34 63 35 57 36 59 37 19 38 62 39 56 40 55 41 20 43
REMARK SMILES IDX 46 44 29 45 45 46 30 47 33 48 44 49 60 50 31 51 32 52 43 54
REMARK SMILES IDX 61 55 34 56 21 57 22 58 27 59 23 60 24 61 26 62 28 63 25 64
REMARK SMILES IDX 47 65 48 66 53 67 49 68 50 69 52 70 54 71 51 72 35 73 36 74
REMARK SMILES IDX 41 75 37 76 38 77 40 78 42 79 39 80
REMARK H PARENT 59 42 33 53
REMARK Flexibility Score: inf
ROOT
ATOM      1  C   UNL     1       1.965   2.551  -2.679  1.00  0.00     0.274 C 
ENDROOT
BRANCH   1   2
ATOM      2  O   UNL     1       1.533   1.620  -1.663  1.00  0.00    -0.462 OA
BRANCH   2   3
ATOM      3  C   UNL     1       0.761   2.090  -0.659  1.00  0.00     0.310 C 
ATOM      4  O   UNL     1       0.396   3.257  -0.568  1.00  0.00    -0.252 OA
BRANCH   3   5
ATOM      5  C   UNL     1       0.310   1.033   0.334  1.00  0.00     0.118 C 
ATOM      6  C   UNL     1       2.283  -0.602  -0.319  1.00  0.00     0.027 C 
ATOM      7  C   UNL     1       1.195  -0.178   0.659  1.00  0.00     0.084 C 
ATOM      8  N   UNL     1       0.249  -1.342   0.803  1.00  0.00    -0.194 NA
ATOM      9  C   UNL     1      -1.077   0.462   0.047  1.00  0.00     0.034 C 
ATOM     10  C   UNL     1      -0.885  -1.031  -0.102  1.00  0.00     0.104 C 
BRANCH   8  11
ATOM     11  S   UNL     1      -0.239  -1.773   2.384  1.00  0.00     0.243 S 
ATOM     12  O   UNL     1      -0.618  -0.559   3.079  1.00  0.00    -0.207 OA
ATOM     13  O   UNL     1      -1.152  -2.889   2.276  1.00  0.00    -0.207 OA
BRANCH  11  14
ATOM     14  C   UNL     1       1.265  -2.372   3.116  1.00  0.00     0.082 A 
ATOM     15  C   UNL     1       1.503  -3.747   3.188  1.00  0.00     0.023 A 
ATOM     16  C   UNL     1       2.172  -1.463   3.672  1.00  0.00     0.023 A 
ATOM     17  C   UNL     1       2.680  -4.208   3.782  1.00  0.00     0.022 A 
ATOM     18  C   UNL     1       3.364  -1.926   4.226  1.00  0.00     0.022 A 
ATOM     19  C   UNL     1       3.611  -3.296   4.282  1.00  0.00     0.041 A 
ATOM     20  Cl  UNL     1       5.072  -3.864   4.990  1.00  0.00    -0.084 Cl
ENDBRANCH  11  14
ENDBRANCH   8  11
ENDBRANCH   3   5
ENDBRANCH   2   3
ENDBRANCH   1   2
BRANCH   1  21
ATOM     21  C   UNL     1       1.260   2.248  -3.999  1.00  0.00     0.275 C 
BRANCH  21  22
ATOM     22  O   UNL     1      -0.129   2.612  -3.910  1.00  0.00    -0.458 OA
BRANCH  22  23
ATOM     23  C   UNL     1      -0.945   1.606  -3.534  1.00  0.00     0.338 C 
ATOM     24  O   UNL     1      -0.652   0.440  -3.325  1.00  0.00    -0.246 OA
BRANCH  23  25
ATOM     25  C   UNL     1      -2.300   2.116  -3.312  1.00  0.00     0.060 A 
ATOM     26  C   UNL     1      -2.614   2.680  -2.075  1.00  0.00     0.016 A 
ATOM     27  C   UNL     1      -3.296   1.830  -4.239  1.00  0.00     0.016 A 
ATOM     28  C   UNL     1      -3.942   2.834  -1.706  1.00  0.00     0.010 A 
ATOM     29  C   UNL     1      -4.620   2.123  -3.918  1.00  0.00     0.010 A 
ATOM     30  C   UNL     1      -4.958   2.600  -2.638  1.00  0.00    -0.014 A 
BRANCH  30  31
ATOM     31  C   UNL     1      -6.375   2.888  -2.308  1.00  0.00     0.031 A 
ATOM     32  C   UNL     1      -7.414   1.815  -2.460  1.00  0.00     0.074 A 
ATOM     33  C   UNL     1      -6.729   4.138  -1.951  1.00  0.00     0.049 A 
ATOM     34  N   UNL     1      -8.714   1.929  -2.541  1.00  0.00    -0.248 NA
ATOM     35  C   UNL     1      -6.923   0.430  -2.557  1.00  0.00     0.031 C 
ATOM     36  C   UNL     1      -5.804   5.250  -1.711  1.00  0.00     0.029 A 
ATOM     37  N   UNL     1      -7.968   4.694  -1.760  1.00  0.00    -0.354 N 
ATOM     38  C   UNL     1      -9.193   0.643  -2.755  1.00  0.00     0.074 A 
ATOM     39  C   UNL     1      -8.045  -0.237  -2.792  1.00  0.00     0.031 C 
ATOM     40  C   UNL     1      -6.504   6.351  -1.407  1.00  0.00     0.029 A 
ATOM     41  C   UNL     1      -7.921   6.050  -1.539  1.00  0.00     0.049 A 
ATOM     42  H   UNL     1      -8.804   4.176  -1.778  1.00  0.00     0.167 HD
ATOM     43  C   UNL     1     -10.478   0.247  -2.915  1.00  0.00     0.037 A 
ATOM     44  C   UNL     1      -8.903   6.969  -1.524  1.00  0.00     0.037 A 
ATOM     45  C   UNL     1     -11.603   1.145  -2.842  1.00  0.00     0.049 A 
ATOM     46  C   UNL     1     -10.311   6.520  -1.776  1.00  0.00     0.074 A 
ATOM     47  C   UNL     1     -12.950   0.854  -2.970  1.00  0.00     0.029 A 
ATOM     48  N   UNL     1     -11.508   2.511  -2.615  1.00  0.00    -0.354 N 
ATOM     49  N   UNL     1     -10.758   5.312  -2.021  1.00  0.00    -0.248 NA
ATOM     50  C   UNL     1     -11.348   7.558  -1.767  1.00  0.00     0.031 C 
ATOM     51  C   UNL     1     -13.664   2.051  -2.874  1.00  0.00     0.029 A 
ATOM     52  C   UNL     1     -12.769   3.079  -2.621  1.00  0.00     0.049 A 
ATOM     53  H   UNL     1     -10.667   3.002  -2.470  1.00  0.00     0.167 HD
ATOM     54  C   UNL     1     -12.133   5.437  -2.156  1.00  0.00     0.074 A 
ATOM     55  C   UNL     1     -12.444   6.840  -1.970  1.00  0.00     0.031 C 
ATOM     56  C   UNL     1     -13.054   4.476  -2.406  1.00  0.00     0.037 A 
BRANCH  43  57
ATOM     57  C   UNL     1     -10.737  -1.200  -3.226  1.00  0.00     0.057 A 
ATOM     58  C   UNL     1     -10.549  -2.216  -2.281  1.00  0.00     0.134 A 
ATOM     59  C   UNL     1     -11.226  -1.576  -4.485  1.00  0.00     0.134 A 
ATOM     60  F   UNL     1     -10.075  -1.929  -1.059  1.00  0.00    -0.206 F 
ATOM     61  C   UNL     1     -10.812  -3.554  -2.584  1.00  0.00     0.040 A 
ATOM     62  C   UNL     1     -11.521  -2.906  -4.790  1.00  0.00     0.040 A 
ATOM     63  F   UNL     1     -11.437  -0.655  -5.437  1.00  0.00    -0.206 F 
ATOM     64  C   UNL     1     -11.307  -3.901  -3.840  1.00  0.00     0.006 A 
ENDBRANCH  43  57
BRANCH  44  65
ATOM     65  C   UNL     1      -8.571   8.400  -1.309  1.00  0.00     0.057 A 
ATOM     66  C   UNL     1      -8.953   9.058  -0.136  1.00  0.00     0.134 A 
ATOM     67  C   UNL     1      -7.842   9.135  -2.254  1.00  0.00     0.134 A 
ATOM     68  F   UNL     1      -9.664   8.412   0.799  1.00  0.00    -0.206 F 
ATOM     69  C   UNL     1      -8.634  10.399   0.085  1.00  0.00     0.040 A 
ATOM     70  C   UNL     1      -7.490  10.467  -2.032  1.00  0.00     0.040 A 
ATOM     71  F   UNL     1      -7.433   8.559  -3.394  1.00  0.00    -0.206 F 
ATOM     72  C   UNL     1      -7.894  11.105  -0.861  1.00  0.00     0.006 A 
ENDBRANCH  44  65
BRANCH  56  73
ATOM     73  C   UNL     1     -14.494   4.893  -2.420  1.00  0.00     0.057 A 
ATOM     74  C   UNL     1     -15.050   5.610  -3.484  1.00  0.00     0.134 A 
ATOM     75  C   UNL     1     -15.348   4.502  -1.380  1.00  0.00     0.134 A 
ATOM     76  F   UNL     1     -14.280   6.028  -4.500  1.00  0.00    -0.206 F 
ATOM     77  C   UNL     1     -16.408   5.931  -3.511  1.00  0.00     0.040 A 
ATOM     78  C   UNL     1     -16.710   4.792  -1.409  1.00  0.00     0.040 A 
ATOM     79  F   UNL     1     -14.874   3.807  -0.335  1.00  0.00    -0.206 F 
ATOM     80  C   UNL     1     -17.244   5.511  -2.477  1.00  0.00     0.006 A 
ENDBRANCH  56  73
ENDBRANCH  30  31
ENDBRANCH  23  25
ENDBRANCH  22  23
ENDBRANCH  21  22
ENDBRANCH   1  21
TORSDOF 13
