REMARK SMILES CC[C@@H](C)[C@H](C(=O)OCCOC(=O)c1ccc(-c2c3nc(c(-c4c(F)cccc4F)c4ccc([nH]4)c(-c4c(F)cccc4F)c4nc(c(-c5c(F)cccc5F)c5ccc2[nH]5)C=C4)C=C3)cc1)N1C(=O)/C(=C/c2ccc3c(c2)OCO3)SC1=S
REMARK SMILES IDX 9 1 8 2 6 3 7 4 5 5 3 6 4 7 2 8 1 9 68 10 69 11 83 12 70 13
REMARK SMILES IDX 71 14 82 15 84 16 72 17 73 18 74 19 78 20 75 21 77 22 76 23
REMARK SMILES IDX 79 24 81 25 80 26 10 27 11 28 12 29 13 30 14 31 15 32 67 33
REMARK SMILES IDX 16 34 66 35 17 36 18 37 19 38 60 39 20 40 65 41 59 42 61 43
REMARK SMILES IDX 21 44 64 45 58 46 57 47 22 49 48 50 31 51 47 52 32 53 35 54
REMARK SMILES IDX 46 55 62 56 33 57 34 58 45 60 63 61 36 62 23 63 24 64 29 65
REMARK SMILES IDX 25 66 26 67 28 68 30 69 27 70 49 71 50 72 55 73 51 74 52 75
REMARK SMILES IDX 54 76 56 77 53 78 37 79 38 80 43 81 39 82 40 83 42 84 44 85
REMARK SMILES IDX 41 86
REMARK H PARENT 61 48 35 59
REMARK Flexibility Score: inf
ROOT
ATOM      1  C   UNL     1       3.101  -1.421   1.080  1.00  0.00     0.274 C 
ENDROOT
BRANCH   1   2
ATOM      2  O   UNL     1       2.507  -2.614   0.530  1.00  0.00    -0.461 OA
BRANCH   2   3
ATOM      3  C   UNL     1       1.155  -2.724   0.631  1.00  0.00     0.329 C 
ATOM      4  O   UNL     1       0.416  -1.850   1.073  1.00  0.00    -0.250 OA
BRANCH   3   5
ATOM      5  C   UNL     1       0.644  -4.138   0.276  1.00  0.00     0.204 C 
BRANCH   5   6
ATOM      6  C   UNL     1       1.060  -4.612  -1.172  1.00  0.00     0.020 C 
ATOM      7  C   UNL     1       2.547  -4.487  -1.508  1.00  0.00     0.010 C 
BRANCH   6   8
ATOM      8  C   UNL     1       0.153  -3.941  -2.228  1.00  0.00     0.002 C 
ATOM      9  C   UNL     1       0.449  -4.298  -3.676  1.00  0.00     0.004 C 
ENDBRANCH   6   8
ENDBRANCH   5   6
BRANCH   5  10
ATOM     10  N   UNL     1       0.888  -5.134   1.361  1.00  0.00    -0.278 N 
ATOM     11  C   UNL     1       1.399  -4.735   2.591  1.00  0.00     0.267 C 
ATOM     12  C   UNL     1       0.388  -6.425   1.363  1.00  0.00     0.149 C 
ATOM     13  O   UNL     1       1.583  -3.600   3.003  1.00  0.00    -0.268 OA
ATOM     14  C   UNL     1       1.687  -5.907   3.441  1.00  0.00     0.081 C 
ATOM     15  S   UNL     1       1.063  -7.325   2.711  1.00  0.00    -0.054 SA
ATOM     16  S   UNL     1      -0.736  -7.137   0.353  1.00  0.00    -0.052 S 
ATOM     17  C   UNL     1       2.413  -5.796   4.563  1.00  0.00     0.029 C 
BRANCH  17  18
ATOM     18  C   UNL     1       2.933  -6.982   5.237  1.00  0.00    -0.020 A 
ATOM     19  C   UNL     1       2.266  -7.552   6.338  1.00  0.00     0.012 A 
ATOM     20  C   UNL     1       4.005  -7.644   4.622  1.00  0.00     0.058 A 
ATOM     21  C   UNL     1       2.623  -8.828   6.786  1.00  0.00     0.051 A 
ATOM     22  C   UNL     1       4.295  -8.912   5.054  1.00  0.00     0.166 A 
ATOM     23  C   UNL     1       3.615  -9.495   6.096  1.00  0.00     0.165 A 
ATOM     24  O   UNL     1       5.191  -9.753   4.474  1.00  0.00    -0.454 OA
ATOM     25  O   UNL     1       4.004 -10.784   6.297  1.00  0.00    -0.454 OA
ATOM     26  C   UNL     1       4.852 -10.982   5.145  1.00  0.00     0.468 C 
ENDBRANCH  17  18
ENDBRANCH   5  10
ENDBRANCH   3   5
ENDBRANCH   2   3
ENDBRANCH   1   2
BRANCH   1  27
ATOM     27  C   UNL     1       3.268  -0.324   0.028  1.00  0.00     0.275 C 
BRANCH  27  28
ATOM     28  O   UNL     1       2.003   0.283  -0.297  1.00  0.00    -0.458 OA
BRANCH  28  29
ATOM     29  C   UNL     1       1.403  -0.202  -1.407  1.00  0.00     0.338 C 
ATOM     30  O   UNL     1       1.854  -1.017  -2.194  1.00  0.00    -0.246 OA
BRANCH  29  31
ATOM     31  C   UNL     1       0.029   0.313  -1.500  1.00  0.00     0.060 A 
ATOM     32  C   UNL     1      -1.032  -0.567  -1.267  1.00  0.00     0.016 A 
ATOM     33  C   UNL     1      -0.217   1.617  -1.925  1.00  0.00     0.016 A 
ATOM     34  C   UNL     1      -2.340  -0.170  -1.487  1.00  0.00     0.010 A 
ATOM     35  C   UNL     1      -1.538   2.028  -2.129  1.00  0.00     0.010 A 
ATOM     36  C   UNL     1      -2.601   1.129  -1.929  1.00  0.00    -0.014 A 
BRANCH  36  37
ATOM     37  C   UNL     1      -3.998   1.504  -2.221  1.00  0.00     0.031 A 
ATOM     38  C   UNL     1      -4.461   1.598  -3.643  1.00  0.00     0.074 A 
ATOM     39  C   UNL     1      -4.855   1.690  -1.202  1.00  0.00     0.049 A 
ATOM     40  N   UNL     1      -5.636   1.934  -4.108  1.00  0.00    -0.248 NA
ATOM     41  C   UNL     1      -3.471   1.268  -4.680  1.00  0.00     0.031 C 
ATOM     42  C   UNL     1      -4.518   1.566   0.217  1.00  0.00     0.029 A 
ATOM     43  N   UNL     1      -6.185   2.014  -1.205  1.00  0.00    -0.354 N 
ATOM     44  C   UNL     1      -5.523   1.879  -5.490  1.00  0.00     0.074 A 
ATOM     45  C   UNL     1      -4.162   1.489  -5.790  1.00  0.00     0.031 C 
ATOM     46  C   UNL     1      -5.616   1.810   0.949  1.00  0.00     0.029 A 
ATOM     47  C   UNL     1      -6.718   2.143   0.053  1.00  0.00     0.049 A 
ATOM     48  H   UNL     1      -6.708   2.143  -2.029  1.00  0.00     0.167 HD
ATOM     49  C   UNL     1      -6.473   2.131  -6.420  1.00  0.00     0.037 A 
ATOM     50  C   UNL     1      -7.955   2.510   0.435  1.00  0.00     0.037 A 
ATOM     51  C   UNL     1      -7.828   2.506  -6.108  1.00  0.00     0.049 A 
ATOM     52  C   UNL     1      -8.980   2.815  -0.618  1.00  0.00     0.074 A 
ATOM     53  C   UNL     1      -8.870   2.785  -6.975  1.00  0.00     0.029 A 
ATOM     54  N   UNL     1      -8.329   2.649  -4.822  1.00  0.00    -0.354 N 
ATOM     55  N   UNL     1      -8.861   2.777  -1.924  1.00  0.00    -0.248 NA
ATOM     56  C   UNL     1     -10.313   3.211  -0.146  1.00  0.00     0.031 C 
ATOM     57  C   UNL     1      -9.992   3.131  -6.213  1.00  0.00     0.029 A 
ATOM     58  C   UNL     1      -9.661   3.026  -4.872  1.00  0.00     0.049 A 
ATOM     59  H   UNL     1      -7.813   2.505  -3.996  1.00  0.00     0.167 HD
ATOM     60  C   UNL     1     -10.105   3.126  -2.430  1.00  0.00     0.074 A 
ATOM     61  C   UNL     1     -10.969   3.353  -1.288  1.00  0.00     0.031 C 
ATOM     62  C   UNL     1     -10.499   3.249  -3.721  1.00  0.00     0.037 A 
BRANCH  49  63
ATOM     63  C   UNL     1      -6.066   2.044  -7.861  1.00  0.00     0.057 A 
ATOM     64  C   UNL     1      -5.835   0.816  -8.494  1.00  0.00     0.134 A 
ATOM     65  C   UNL     1      -5.919   3.206  -8.628  1.00  0.00     0.134 A 
ATOM     66  F   UNL     1      -5.940  -0.333  -7.810  1.00  0.00    -0.206 F 
ATOM     67  C   UNL     1      -5.455   0.749  -9.836  1.00  0.00     0.040 A 
ATOM     68  C   UNL     1      -5.562   3.151  -9.976  1.00  0.00     0.040 A 
ATOM     69  F   UNL     1      -6.124   4.414  -8.081  1.00  0.00    -0.206 F 
ATOM     70  C   UNL     1      -5.324   1.919 -10.583  1.00  0.00     0.006 A 
ENDBRANCH  49  63
BRANCH  50  71
ATOM     71  C   UNL     1      -8.280   2.615   1.877  1.00  0.00     0.057 A 
ATOM     72  C   UNL     1      -9.134   1.698   2.497  1.00  0.00     0.134 A 
ATOM     73  C   UNL     1      -7.737   3.633   2.671  1.00  0.00     0.134 A 
ATOM     74  F   UNL     1      -9.700   0.713   1.784  1.00  0.00    -0.206 F 
ATOM     75  C   UNL     1      -9.448   1.795   3.854  1.00  0.00     0.040 A 
ATOM     76  C   UNL     1      -8.023   3.728   4.033  1.00  0.00     0.040 A 
ATOM     77  F   UNL     1      -6.907   4.540   2.135  1.00  0.00    -0.206 F 
ATOM     78  C   UNL     1      -8.886   2.809   4.627  1.00  0.00     0.006 A 
ENDBRANCH  50  71
BRANCH  62  79
ATOM     79  C   UNL     1     -11.932   3.620  -3.955  1.00  0.00     0.057 A 
ATOM     80  C   UNL     1     -12.406   4.916  -3.715  1.00  0.00     0.134 A 
ATOM     81  C   UNL     1     -12.846   2.671  -4.429  1.00  0.00     0.134 A 
ATOM     82  F   UNL     1     -11.583   5.866  -3.246  1.00  0.00    -0.206 F 
ATOM     83  C   UNL     1     -13.748   5.247  -3.910  1.00  0.00     0.040 A 
ATOM     84  C   UNL     1     -14.184   2.996  -4.650  1.00  0.00     0.040 A 
ATOM     85  F   UNL     1     -12.452   1.414  -4.685  1.00  0.00    -0.206 F 
ATOM     86  C   UNL     1     -14.640   4.285  -4.382  1.00  0.00     0.006 A 
ENDBRANCH  62  79
ENDBRANCH  36  37
ENDBRANCH  29  31
ENDBRANCH  28  29
ENDBRANCH  27  28
ENDBRANCH   1  27
TORSDOF 15
