REMARK SMILES Cc1c(CC(=O)OCCOC(=O)c2ccc(-c3c4nc(c(-c5c(F)cccc5F)c5ccc([nH]5)c(-c5c(F)cccc5F)c5nc(c(-c6c(F)cccc6F)c6ccc3[nH]6)C=C5)C=C4)cc2)cc(-c2ccc(S(C)(=O)=O)cc2)n1-c1cccc(F)c1
REMARK SMILES IDX 8 1 7 2 5 3 6 4 4 5 3 6 1 7 2 8 79 9 67 10 68 11 80 12 81 13
REMARK SMILES IDX 86 14 82 15 84 16 83 17 85 18 69 19 70 20 78 21 71 22 77 23
REMARK SMILES IDX 72 24 73 25 74 26 75 27 76 28 9 29 10 30 11 31 12 32 13 33
REMARK SMILES IDX 14 34 66 35 15 36 65 37 16 38 17 39 18 40 59 41 19 42 64 43
REMARK SMILES IDX 58 44 60 45 20 46 63 47 57 48 56 49 21 51 47 52 30 53 46 54
REMARK SMILES IDX 31 55 34 56 45 57 61 58 32 59 33 60 44 62 62 63 35 64 22 65
REMARK SMILES IDX 23 66 28 67 24 68 25 69 27 70 29 71 26 72 48 73 49 74 54 75
REMARK SMILES IDX 50 76 51 77 53 78 55 79 52 80 36 81 37 82 42 83 38 84 39 85
REMARK SMILES IDX 41 86 43 87 40 88
REMARK H PARENT 60 50 34 61
REMARK Flexibility Score: inf
ROOT
ATOM      1  C   UNL     1       4.162  -0.520   1.322  1.00  0.00     0.274 C 
ENDROOT
BRANCH   1   2
ATOM      2  O   UNL     1       2.931  -1.050   0.754  1.00  0.00    -0.462 OA
BRANCH   2   3
ATOM      3  C   UNL     1       2.684  -2.378   0.946  1.00  0.00     0.310 C 
ATOM      4  O   UNL     1       3.434  -3.115   1.583  1.00  0.00    -0.252 OA
BRANCH   3   5
ATOM      5  C   UNL     1       1.344  -2.878   0.412  1.00  0.00     0.160 C 
BRANCH   5   6
ATOM      6  C   UNL     1       0.746  -2.224  -0.810  1.00  0.00    -0.015 A 
ATOM      7  C   UNL     1       0.403   0.198   0.056  1.00  0.00     0.065 C 
ATOM      8  C   UNL     1       0.352  -0.901  -0.957  1.00  0.00     0.024 A 
ATOM      9  N   UNL     1      -0.219  -0.738  -2.212  1.00  0.00    -0.313 N 
ATOM     10  C   UNL     1       0.304  -2.894  -1.994  1.00  0.00     0.033 A 
ATOM     11  C   UNL     1      -0.309  -1.979  -2.839  1.00  0.00     0.053 A 
BRANCH   9  12
ATOM     12  C   UNL     1      -0.691   0.494  -2.729  1.00  0.00     0.049 A 
ATOM     13  C   UNL     1      -2.027   0.619  -3.131  1.00  0.00     0.027 A 
ATOM     14  C   UNL     1       0.189   1.576  -2.818  1.00  0.00     0.065 A 
ATOM     15  C   UNL     1      -2.486   1.843  -3.616  1.00  0.00     0.005 A 
ATOM     16  C   UNL     1      -0.282   2.778  -3.327  1.00  0.00     0.125 A 
ATOM     17  C   UNL     1      -1.609   2.924  -3.720  1.00  0.00     0.039 A 
ATOM     18  F   UNL     1       0.558   3.815  -3.446  1.00  0.00    -0.207 F 
ENDBRANCH   9  12
BRANCH  11  19
ATOM     19  C   UNL     1      -0.890  -2.198  -4.174  1.00  0.00    -0.001 A 
ATOM     20  C   UNL     1      -0.365  -1.546  -5.301  1.00  0.00     0.011 A 
ATOM     21  C   UNL     1      -2.003  -3.035  -4.335  1.00  0.00     0.011 A 
ATOM     22  C   UNL     1      -0.957  -1.699  -6.560  1.00  0.00     0.021 A 
ATOM     23  C   UNL     1      -2.604  -3.191  -5.591  1.00  0.00     0.021 A 
ATOM     24  C   UNL     1      -2.086  -2.510  -6.695  1.00  0.00     0.067 A 
BRANCH  24  25
ATOM     25  S   UNL     1      -2.816  -2.708  -8.305  1.00  0.00     0.175 S 
ATOM     26  C   UNL     1      -3.449  -1.100  -8.706  1.00  0.00     0.163 C 
ATOM     27  O   UNL     1      -1.756  -3.025  -9.220  1.00  0.00    -0.224 OA
ATOM     28  O   UNL     1      -3.972  -3.596  -8.154  1.00  0.00    -0.224 OA
ENDBRANCH  24  25
ENDBRANCH  11  19
ENDBRANCH   5   6
ENDBRANCH   3   5
ENDBRANCH   2   3
ENDBRANCH   1   2
BRANCH   1  29
ATOM     29  C   UNL     1       4.219   1.029   1.198  1.00  0.00     0.275 C 
BRANCH  29  30
ATOM     30  O   UNL     1       4.255   1.845   2.425  1.00  0.00    -0.458 OA
BRANCH  30  31
ATOM     31  C   UNL     1       3.070   2.101   3.047  1.00  0.00     0.338 C 
ATOM     32  O   UNL     1       2.042   1.483   2.798  1.00  0.00    -0.246 OA
BRANCH  31  33
ATOM     33  C   UNL     1       3.110   3.175   4.140  1.00  0.00     0.060 A 
ATOM     34  C   UNL     1       2.416   2.894   5.303  1.00  0.00     0.016 A 
ATOM     35  C   UNL     1       3.635   4.485   4.067  1.00  0.00     0.016 A 
ATOM     36  C   UNL     1       2.281   3.864   6.339  1.00  0.00     0.010 A 
ATOM     37  C   UNL     1       3.416   5.508   5.114  1.00  0.00     0.010 A 
ATOM     38  C   UNL     1       2.704   5.242   6.296  1.00  0.00    -0.014 A 
BRANCH  38  39
ATOM     39  C   UNL     1       2.059   6.234   7.412  1.00  0.00     0.031 A 
ATOM     40  C   UNL     1       0.719   5.638   7.694  1.00  0.00     0.074 A 
ATOM     41  C   UNL     1       2.222   7.424   8.131  1.00  0.00     0.049 A 
ATOM     42  N   UNL     1      -0.162   5.471   6.746  1.00  0.00    -0.248 NA
ATOM     43  C   UNL     1       0.473   4.865   8.916  1.00  0.00     0.031 C 
ATOM     44  C   UNL     1       3.301   8.422   8.044  1.00  0.00     0.029 A 
ATOM     45  N   UNL     1       1.421   8.037   9.159  1.00  0.00    -0.354 N 
ATOM     46  C   UNL     1      -1.209   4.812   7.336  1.00  0.00     0.074 A 
ATOM     47  C   UNL     1      -0.670   4.268   8.571  1.00  0.00     0.031 C 
ATOM     48  C   UNL     1       3.170   9.399   8.993  1.00  0.00     0.029 A 
ATOM     49  C   UNL     1       1.962   9.209   9.797  1.00  0.00     0.049 A 
ATOM     50  H   UNL     1       0.543   7.671   9.414  1.00  0.00     0.167 HD
ATOM     51  C   UNL     1      -2.471   5.250   7.077  1.00  0.00     0.037 A 
ATOM     52  C   UNL     1       1.474  10.010  10.827  1.00  0.00     0.037 A 
ATOM     53  C   UNL     1      -3.107   5.821   8.230  1.00  0.00     0.049 A 
ATOM     54  C   UNL     1       0.032   9.765  10.965  1.00  0.00     0.074 A 
ATOM     55  C   UNL     1      -3.139   5.488   9.571  1.00  0.00     0.029 A 
ATOM     56  N   UNL     1      -3.392   7.169   8.164  1.00  0.00    -0.354 N 
ATOM     57  N   UNL     1      -0.826  10.333  10.178  1.00  0.00    -0.248 NA
ATOM     58  C   UNL     1      -0.542   9.021  12.084  1.00  0.00     0.031 C 
ATOM     59  C   UNL     1      -2.826   6.700  10.235  1.00  0.00     0.029 A 
ATOM     60  C   UNL     1      -2.962   7.750   9.336  1.00  0.00     0.049 A 
ATOM     61  H   UNL     1      -3.825   7.634   7.412  1.00  0.00     0.167 HD
ATOM     62  C   UNL     1      -1.965   9.632  10.398  1.00  0.00     0.074 A 
ATOM     63  C   UNL     1      -1.827   9.066  11.724  1.00  0.00     0.031 C 
ATOM     64  C   UNL     1      -2.577   9.135   9.300  1.00  0.00     0.037 A 
BRANCH  51  65
ATOM     65  C   UNL     1      -2.709   5.723   5.675  1.00  0.00     0.057 A 
ATOM     66  C   UNL     1      -3.561   4.995   4.844  1.00  0.00     0.134 A 
ATOM     67  C   UNL     1      -2.038   6.819   5.104  1.00  0.00     0.134 A 
ATOM     68  F   UNL     1      -4.287   3.980   5.338  1.00  0.00    -0.206 F 
ATOM     69  C   UNL     1      -3.681   5.293   3.484  1.00  0.00     0.040 A 
ATOM     70  C   UNL     1      -2.105   7.092   3.739  1.00  0.00     0.040 A 
ATOM     71  F   UNL     1      -1.310   7.653   5.863  1.00  0.00    -0.206 F 
ATOM     72  C   UNL     1      -2.921   6.319   2.921  1.00  0.00     0.006 A 
ENDBRANCH  51  65
BRANCH  52  73
ATOM     73  C   UNL     1       1.841  11.168  11.791  1.00  0.00     0.057 A 
ATOM     74  C   UNL     1       0.858  12.137  12.190  1.00  0.00     0.134 A 
ATOM     75  C   UNL     1       2.932  11.105  12.662  1.00  0.00     0.134 A 
ATOM     76  F   UNL     1      -0.225  12.388  11.442  1.00  0.00    -0.206 F 
ATOM     77  C   UNL     1       0.888  12.855  13.401  1.00  0.00     0.040 A 
ATOM     78  C   UNL     1       2.998  11.866  13.862  1.00  0.00     0.040 A 
ATOM     79  F   UNL     1       3.928  10.241  12.432  1.00  0.00    -0.206 F 
ATOM     80  C   UNL     1       1.959  12.707  14.258  1.00  0.00     0.006 A 
ENDBRANCH  52  73
BRANCH  64  81
ATOM     81  C   UNL     1      -2.540  10.010   8.060  1.00  0.00     0.057 A 
ATOM     82  C   UNL     1      -1.385  10.540   7.443  1.00  0.00     0.134 A 
ATOM     83  C   UNL     1      -3.761  10.408   7.508  1.00  0.00     0.134 A 
ATOM     84  F   UNL     1      -0.151  10.161   7.798  1.00  0.00    -0.206 F 
ATOM     85  C   UNL     1      -1.454  11.485   6.410  1.00  0.00     0.040 A 
ATOM     86  C   UNL     1      -3.842  11.309   6.440  1.00  0.00     0.040 A 
ATOM     87  F   UNL     1      -4.909   9.915   7.995  1.00  0.00    -0.206 F 
ATOM     88  C   UNL     1      -2.687  11.873   5.905  1.00  0.00     0.006 A 
ENDBRANCH  64  81
ENDBRANCH  38  39
ENDBRANCH  31  33
ENDBRANCH  30  31
ENDBRANCH  29  30
ENDBRANCH   1  29
TORSDOF 15
