REMARK SMILES O=C(N[C@@H](CS)C(=O)N[C@@H](CO)C(=O)OCCOC(=O)c1ccc(-c2c3nc(c(-c4c(F)cccc4F)c4ccc([nH]4)c(-c4c(F)cccc4F)c4nc(c(-c5c(F)cccc5F)c5ccc2[nH]5)C=C4)C=C3)cc1)c1ccc(F)cc1
REMARK SMILES IDX 16 1 15 2 13 3 14 4 10 5 9 6 7 7 8 8 4 10 3 11 1 12 2 13
REMARK SMILES IDX 75 15 76 16 81 17 77 18 80 19 78 20 79 21 5 22 6 23 11 25
REMARK SMILES IDX 12 26 17 28 18 29 19 30 20 31 21 32 22 33 74 34 23 35 73 36
REMARK SMILES IDX 24 37 25 38 26 39 67 40 27 41 72 42 66 43 68 44 28 45 71 46
REMARK SMILES IDX 65 47 64 48 29 50 55 51 38 52 54 53 39 54 42 55 53 56 69 57
REMARK SMILES IDX 40 58 41 59 52 61 70 62 43 63 30 64 31 65 36 66 32 67 33 68
REMARK SMILES IDX 35 69 37 70 34 71 56 72 57 73 62 74 58 75 59 76 61 77 63 78
REMARK SMILES IDX 60 79 44 80 45 81 50 82 46 83 47 84 49 85 51 86 48 87
REMARK H PARENT 9 9 3 14 6 24 12 27 68 49 42 60
REMARK Flexibility Score: inf
ROOT
ATOM      1  C   UNL     1       5.623   3.665   6.146  1.00  0.00     0.274 C 
ENDROOT
BRANCH   1   2
ATOM      2  O   UNL     1       5.146   2.564   5.344  1.00  0.00    -0.460 OA
BRANCH   2   3
ATOM      3  C   UNL     1       3.954   2.744   4.701  1.00  0.00     0.331 C 
ATOM      4  O   UNL     1       3.304   3.783   4.703  1.00  0.00    -0.250 OA
BRANCH   3   5
ATOM      5  C   UNL     1       3.453   1.441   4.053  1.00  0.00     0.218 C 
BRANCH   5   6
ATOM      6  N   UNL     1       4.509   0.424   3.958  1.00  0.00    -0.339 N 
ATOM      7  C   UNL     1       5.014  -0.312   2.943  1.00  0.00     0.244 C 
ATOM      8  O   UNL     1       6.053  -0.934   3.198  1.00  0.00    -0.273 OA
ATOM      9  H   UNL     1       4.944   0.239   4.822  1.00  0.00     0.164 HD
BRANCH   7  10
ATOM     10  C   UNL     1       4.468  -0.333   1.499  1.00  0.00     0.181 C 
BRANCH  10  11
ATOM     11  N   UNL     1       3.022  -0.530   1.347  1.00  0.00    -0.339 N 
ATOM     12  O   UNL     1       1.113  -0.749   0.175  1.00  0.00    -0.269 OA
ATOM     13  C   UNL     1       2.329  -0.899   0.215  1.00  0.00     0.251 C 
ATOM     14  H   UNL     1       2.479  -0.379   2.154  1.00  0.00     0.164 HD
BRANCH  13  15
ATOM     15  C   UNL     1       3.047  -1.406  -0.979  1.00  0.00     0.040 A 
ATOM     16  C   UNL     1       3.918  -2.498  -0.880  1.00  0.00     0.017 A 
ATOM     17  C   UNL     1       2.811  -0.807  -2.225  1.00  0.00     0.017 A 
ATOM     18  C   UNL     1       4.602  -2.946  -2.011  1.00  0.00     0.040 A 
ATOM     19  C   UNL     1       3.489  -1.268  -3.357  1.00  0.00     0.040 A 
ATOM     20  C   UNL     1       4.385  -2.326  -3.237  1.00  0.00     0.123 A 
ATOM     21  F   UNL     1       5.042  -2.762  -4.319  1.00  0.00    -0.207 F 
ENDBRANCH  13  15
ENDBRANCH  10  11
BRANCH  10  22
ATOM     22  C   UNL     1       5.044   0.830   0.670  1.00  0.00     0.101 C 
BRANCH  22  23
ATOM     23  S   UNL     1       3.918   2.235   0.423  1.00  0.00    -0.177 SA
ATOM     24  H   UNL     1       2.830   1.825  -0.283  1.00  0.00     0.102 HD
ENDBRANCH  22  23
ENDBRANCH  10  22
ENDBRANCH   7  10
ENDBRANCH   5   6
BRANCH   5  25
ATOM     25  C   UNL     1       2.294   0.928   4.920  1.00  0.00     0.193 C 
BRANCH  25  26
ATOM     26  O   UNL     1       2.769   0.413   6.167  1.00  0.00    -0.394 OA
ATOM     27  H   UNL     1       3.369  -0.331   6.002  1.00  0.00     0.210 HD
ENDBRANCH  25  26
ENDBRANCH   5  25
ENDBRANCH   3   5
ENDBRANCH   2   3
ENDBRANCH   1   2
BRANCH   1  28
ATOM     28  C   UNL     1       6.859   4.291   5.507  1.00  0.00     0.275 C 
BRANCH  28  29
ATOM     29  O   UNL     1       6.480   4.881   4.253  1.00  0.00    -0.458 OA
BRANCH  29  30
ATOM     30  C   UNL     1       7.148   4.454   3.160  1.00  0.00     0.338 C 
ATOM     31  O   UNL     1       8.107   3.694   3.129  1.00  0.00    -0.246 OA
BRANCH  30  32
ATOM     32  C   UNL     1       6.527   5.013   1.943  1.00  0.00     0.060 A 
ATOM     33  C   UNL     1       5.143   5.130   1.851  1.00  0.00     0.016 A 
ATOM     34  C   UNL     1       7.320   5.300   0.831  1.00  0.00     0.016 A 
ATOM     35  C   UNL     1       4.558   5.431   0.619  1.00  0.00     0.010 A 
ATOM     36  C   UNL     1       6.725   5.697  -0.376  1.00  0.00     0.010 A 
ATOM     37  C   UNL     1       5.327   5.722  -0.520  1.00  0.00    -0.014 A 
BRANCH  37  38
ATOM     38  C   UNL     1       4.689   5.993  -1.852  1.00  0.00     0.031 A 
ATOM     39  C   UNL     1       5.188   5.306  -3.106  1.00  0.00     0.074 A 
ATOM     40  C   UNL     1       3.638   6.833  -1.976  1.00  0.00     0.049 A 
ATOM     41  N   UNL     1       5.007   5.638  -4.362  1.00  0.00    -0.248 NA
ATOM     42  C   UNL     1       6.005   4.095  -2.927  1.00  0.00     0.031 C 
ATOM     43  C   UNL     1       2.955   7.521  -0.880  1.00  0.00     0.029 A 
ATOM     44  N   UNL     1       2.951   7.249  -3.095  1.00  0.00    -0.354 N 
ATOM     45  C   UNL     1       5.753   4.734  -5.112  1.00  0.00     0.074 A 
ATOM     46  C   UNL     1       6.372   3.823  -4.173  1.00  0.00     0.031 C 
ATOM     47  C   UNL     1       1.914   8.208  -1.365  1.00  0.00     0.029 A 
ATOM     48  C   UNL     1       1.951   8.151  -2.820  1.00  0.00     0.049 A 
ATOM     49  H   UNL     1       3.156   6.931  -4.004  1.00  0.00     0.167 HD
ATOM     50  C   UNL     1       5.912   4.678  -6.458  1.00  0.00     0.037 A 
ATOM     51  C   UNL     1       1.203   8.929  -3.625  1.00  0.00     0.037 A 
ATOM     52  C   UNL     1       5.221   5.526  -7.398  1.00  0.00     0.049 A 
ATOM     53  C   UNL     1       1.450   8.917  -5.102  1.00  0.00     0.074 A 
ATOM     54  C   UNL     1       5.312   5.537  -8.781  1.00  0.00     0.029 A 
ATOM     55  N   UNL     1       4.287   6.490  -7.055  1.00  0.00    -0.354 N 
ATOM     56  N   UNL     1       2.276   8.171  -5.793  1.00  0.00    -0.248 NA
ATOM     57  C   UNL     1       0.700   9.893  -5.905  1.00  0.00     0.031 C 
ATOM     58  C   UNL     1       4.454   6.527  -9.272  1.00  0.00     0.029 A 
ATOM     59  C   UNL     1       3.803   7.108  -8.198  1.00  0.00     0.049 A 
ATOM     60  H   UNL     1       4.008   6.705  -6.136  1.00  0.00     0.167 HD
ATOM     61  C   UNL     1       2.152   8.593  -7.109  1.00  0.00     0.074 A 
ATOM     62  C   UNL     1       1.153   9.640  -7.125  1.00  0.00     0.031 C 
ATOM     63  C   UNL     1       2.818   8.156  -8.204  1.00  0.00     0.037 A 
BRANCH  50  64
ATOM     64  C   UNL     1       6.896   3.690  -7.019  1.00  0.00     0.057 A 
ATOM     65  C   UNL     1       6.619   2.322  -7.108  1.00  0.00     0.134 A 
ATOM     66  C   UNL     1       8.104   4.142  -7.571  1.00  0.00     0.134 A 
ATOM     67  F   UNL     1       5.485   1.823  -6.593  1.00  0.00    -0.206 F 
ATOM     68  C   UNL     1       7.509   1.437  -7.722  1.00  0.00     0.040 A 
ATOM     69  C   UNL     1       8.991   3.272  -8.206  1.00  0.00     0.040 A 
ATOM     70  F   UNL     1       8.426   5.444  -7.529  1.00  0.00    -0.206 F 
ATOM     71  C   UNL     1       8.694   1.913  -8.283  1.00  0.00     0.006 A 
ENDBRANCH  50  64
BRANCH  51  72
ATOM     72  C   UNL     1       0.233   9.880  -3.025  1.00  0.00     0.057 A 
ATOM     73  C   UNL     1      -1.145   9.704  -3.175  1.00  0.00     0.134 A 
ATOM     74  C   UNL     1       0.667  10.972  -2.259  1.00  0.00     0.134 A 
ATOM     75  F   UNL     1      -1.620   8.699  -3.925  1.00  0.00    -0.206 F 
ATOM     76  C   UNL     1      -2.059  10.571  -2.573  1.00  0.00     0.040 A 
ATOM     77  C   UNL     1      -0.234  11.825  -1.624  1.00  0.00     0.040 A 
ATOM     78  F   UNL     1       1.978  11.198  -2.083  1.00  0.00    -0.206 F 
ATOM     79  C   UNL     1      -1.603  11.626  -1.783  1.00  0.00     0.006 A 
ENDBRANCH  51  72
BRANCH  63  80
ATOM     80  C   UNL     1       2.473   8.802  -9.510  1.00  0.00     0.057 A 
ATOM     81  C   UNL     1       2.936  10.082  -9.838  1.00  0.00     0.134 A 
ATOM     82  C   UNL     1       1.678   8.136 -10.451  1.00  0.00     0.134 A 
ATOM     83  F   UNL     1       3.687  10.776  -8.970  1.00  0.00    -0.206 F 
ATOM     84  C   UNL     1       2.603  10.687 -11.051  1.00  0.00     0.040 A 
ATOM     85  C   UNL     1       1.354   8.723 -11.674  1.00  0.00     0.040 A 
ATOM     86  F   UNL     1       1.207   6.906 -10.196  1.00  0.00    -0.206 F 
ATOM     87  C   UNL     1       1.812  10.005 -11.974  1.00  0.00     0.006 A 
ENDBRANCH  63  80
ENDBRANCH  37  38
ENDBRANCH  30  32
ENDBRANCH  29  30
ENDBRANCH  28  29
ENDBRANCH   1  28
TORSDOF 19
