REMARK SMILES C[C@H]1CC=C(C2=NN=C(C(=O)OCCOC(=O)c3ccc(-c4c5nc(c(-c6c(F)cccc6F)c6ccc([nH]6)c(-c6c(F)cccc6F)c6nc(c(-c7c(F)cccc7F)c7ccc4[nH]7)C=C6)C=C5)cc3)C2)O1
REMARK SMILES IDX 14 1 13 2 12 3 10 4 11 5 9 6 6 7 7 8 72 9 8 10 5 11 1 12
REMARK SMILES IDX 2 13 3 14 73 15 4 16 15 17 16 18 17 19 18 20 19 21 71 22
REMARK SMILES IDX 20 23 70 24 21 25 22 26 23 27 64 28 24 29 69 30 63 31 65 32
REMARK SMILES IDX 25 33 68 34 62 35 61 36 26 38 52 39 35 40 51 41 36 42 39 43
REMARK SMILES IDX 50 44 66 45 37 46 38 47 49 49 67 50 40 51 27 52 28 53 33 54
REMARK SMILES IDX 29 55 30 56 32 57 34 58 31 59 53 60 54 61 59 62 55 63 56 64
REMARK SMILES IDX 58 65 60 66 57 67 41 68 42 69 47 70 43 71 44 72 46 73 48 74
REMARK SMILES IDX 45 75
REMARK H PARENT 65 37 39 48
REMARK Flexibility Score: inf
ROOT
ATOM      1  C   UNL     1       3.974   9.111  -4.578  1.00  0.00     0.275 C 
ENDROOT
BRANCH   1   2
ATOM      2  C   UNL     1       3.294   8.329  -5.694  1.00  0.00     0.275 C 
BRANCH   2   3
ATOM      3  O   UNL     1       2.221   7.523  -5.182  1.00  0.00    -0.458 OA
BRANCH   3   4
ATOM      4  C   UNL     1       2.560   6.271  -4.825  1.00  0.00     0.355 C 
ATOM      5  O   UNL     1       3.634   5.710  -4.992  1.00  0.00    -0.245 OA
BRANCH   4   6
ATOM      6  C   UNL     1       1.477   5.601  -4.037  1.00  0.00     0.154 C 
ATOM      7  C   UNL     1       0.456   4.197  -2.649  1.00  0.00     0.111 C 
ATOM      8  N   UNL     1      -0.448   4.757  -3.397  1.00  0.00    -0.151 NA
ATOM      9  C   UNL     1       1.831   4.714  -2.900  1.00  0.00     0.128 C 
ATOM     10  N   UNL     1       0.206   5.665  -4.293  1.00  0.00    -0.147 NA
BRANCH   7  11
ATOM     11  C   UNL     1       0.240   3.100  -1.691  1.00  0.00     0.139 C 
ATOM     12  C   UNL     1       0.482   1.652   1.416  1.00  0.00     0.053 C 
ATOM     13  C   UNL     1       0.686   1.604  -0.092  1.00  0.00     0.174 C 
ATOM     14  C   UNL     1      -0.570   1.142  -0.843  1.00  0.00     0.076 C 
ATOM     15  O   UNL     1       1.062   2.914  -0.586  1.00  0.00    -0.489 OA
ATOM     16  C   UNL     1      -0.664   2.151  -1.914  1.00  0.00     0.025 C 
ENDBRANCH   7  11
ENDBRANCH   4   6
ENDBRANCH   3   4
ENDBRANCH   2   3
ENDBRANCH   1   2
BRANCH   1  17
ATOM     17  O   UNL     1       4.734   8.259  -3.720  1.00  0.00    -0.458 OA
BRANCH  17  18
ATOM     18  C   UNL     1       4.073   7.814  -2.628  1.00  0.00     0.338 C 
ATOM     19  O   UNL     1       2.869   7.726  -2.480  1.00  0.00    -0.246 OA
BRANCH  18  20
ATOM     20  C   UNL     1       5.018   7.681  -1.515  1.00  0.00     0.060 A 
ATOM     21  C   UNL     1       4.476   7.362  -0.267  1.00  0.00     0.016 A 
ATOM     22  C   UNL     1       6.332   8.149  -1.657  1.00  0.00     0.016 A 
ATOM     23  C   UNL     1       5.196   7.683   0.861  1.00  0.00     0.010 A 
ATOM     24  C   UNL     1       7.044   8.481  -0.530  1.00  0.00     0.010 A 
ATOM     25  C   UNL     1       6.439   8.310   0.712  1.00  0.00    -0.014 A 
BRANCH  25  26
ATOM     26  C   UNL     1       7.178   8.638   1.912  1.00  0.00     0.031 A 
ATOM     27  C   UNL     1       7.636   7.426   2.631  1.00  0.00     0.074 A 
ATOM     28  C   UNL     1       7.509   9.900   2.243  1.00  0.00     0.049 A 
ATOM     29  N   UNL     1       7.274   7.024   3.802  1.00  0.00    -0.248 NA
ATOM     30  C   UNL     1       8.445   6.448   1.882  1.00  0.00     0.031 C 
ATOM     31  C   UNL     1       7.321  11.123   1.460  1.00  0.00     0.029 A 
ATOM     32  N   UNL     1       8.186  10.342   3.336  1.00  0.00    -0.354 N 
ATOM     33  C   UNL     1       7.987   5.852   4.027  1.00  0.00     0.074 A 
ATOM     34  C   UNL     1       8.522   5.445   2.756  1.00  0.00     0.031 C 
ATOM     35  C   UNL     1       8.074  12.114   1.993  1.00  0.00     0.029 A 
ATOM     36  C   UNL     1       8.691  11.631   3.216  1.00  0.00     0.049 A 
ATOM     37  H   UNL     1       8.309   9.794   4.144  1.00  0.00     0.167 HD
ATOM     38  C   UNL     1       8.321   5.482   5.290  1.00  0.00     0.037 A 
ATOM     39  C   UNL     1       9.608  12.207   4.035  1.00  0.00     0.037 A 
ATOM     40  C   UNL     1       7.465   6.117   6.261  1.00  0.00     0.049 A 
ATOM     41  C   UNL     1       9.622  11.432   5.303  1.00  0.00     0.074 A 
ATOM     42  C   UNL     1       6.101   6.139   6.486  1.00  0.00     0.029 A 
ATOM     43  N   UNL     1       7.973   7.185   6.959  1.00  0.00    -0.354 N 
ATOM     44  N   UNL     1       8.636  11.425   6.155  1.00  0.00    -0.248 NA
ATOM     45  C   UNL     1      10.527  10.294   5.387  1.00  0.00     0.031 C 
ATOM     46  C   UNL     1       5.814   7.475   6.893  1.00  0.00     0.029 A 
ATOM     47  C   UNL     1       7.021   8.171   6.960  1.00  0.00     0.049 A 
ATOM     48  H   UNL     1       8.861   7.234   7.382  1.00  0.00     0.167 HD
ATOM     49  C   UNL     1       8.533  10.103   6.562  1.00  0.00     0.074 A 
ATOM     50  C   UNL     1       9.773   9.469   6.119  1.00  0.00     0.031 C 
ATOM     51  C   UNL     1       7.333   9.580   6.952  1.00  0.00     0.037 A 
BRANCH  38  52
ATOM     52  C   UNL     1       9.679   4.926   5.648  1.00  0.00     0.057 A 
ATOM     53  C   UNL     1       9.909   4.508   6.970  1.00  0.00     0.134 A 
ATOM     54  C   UNL     1      10.840   5.079   4.859  1.00  0.00     0.134 A 
ATOM     55  F   UNL     1       8.889   4.331   7.823  1.00  0.00    -0.206 F 
ATOM     56  C   UNL     1      11.198   4.354   7.493  1.00  0.00     0.040 A 
ATOM     57  C   UNL     1      12.128   4.878   5.357  1.00  0.00     0.040 A 
ATOM     58  F   UNL     1      10.810   5.530   3.600  1.00  0.00    -0.206 F 
ATOM     59  C   UNL     1      12.313   4.551   6.689  1.00  0.00     0.006 A 
ENDBRANCH  38  52
BRANCH  39  60
ATOM     60  C   UNL     1      10.692  13.157   3.687  1.00  0.00     0.057 A 
ATOM     61  C   UNL     1      11.387  13.861   4.682  1.00  0.00     0.134 A 
ATOM     62  C   UNL     1      11.264  13.185   2.403  1.00  0.00     0.134 A 
ATOM     63  F   UNL     1      10.948  13.861   5.949  1.00  0.00    -0.206 F 
ATOM     64  C   UNL     1      12.591  14.531   4.421  1.00  0.00     0.040 A 
ATOM     65  C   UNL     1      12.461  13.855   2.128  1.00  0.00     0.040 A 
ATOM     66  F   UNL     1      10.731  12.486   1.391  1.00  0.00    -0.206 F 
ATOM     67  C   UNL     1      13.137  14.519   3.142  1.00  0.00     0.006 A 
ENDBRANCH  39  60
BRANCH  51  68
ATOM     68  C   UNL     1       6.191  10.533   7.167  1.00  0.00     0.057 A 
ATOM     69  C   UNL     1       5.621  11.326   6.158  1.00  0.00     0.134 A 
ATOM     70  C   UNL     1       5.556  10.546   8.413  1.00  0.00     0.134 A 
ATOM     71  F   UNL     1       6.095  11.302   4.906  1.00  0.00    -0.206 F 
ATOM     72  C   UNL     1       4.503  12.132   6.396  1.00  0.00     0.040 A 
ATOM     73  C   UNL     1       4.419  11.320   8.654  1.00  0.00     0.040 A 
ATOM     74  F   UNL     1       6.010   9.769   9.410  1.00  0.00    -0.206 F 
ATOM     75  C   UNL     1       3.896  12.126   7.647  1.00  0.00     0.006 A 
ENDBRANCH  51  68
ENDBRANCH  25  26
ENDBRANCH  18  20
ENDBRANCH  17  18
ENDBRANCH   1  17
TORSDOF 12
