REMARK SMILES Cc1cc(N(C)C2CCC(C)(C)CC2)cc(C(=O)OCCOC(=O)c2ccc(-c3c4nc(c(-c5c(F)cccc5F)c5ccc([nH]5)c(-c5c(F)cccc5F)c5nc(c(-c6c(F)cccc6F)c6ccc3[nH]6)C=C5)C=C4)cc2)c1N
REMARK SMILES IDX 20 1 19 2 17 3 18 4 16 5 1 6 2 7 3 8 79 9 4 10 15 11 80 12
REMARK SMILES IDX 5 15 6 16 7 17 8 18 14 19 9 20 13 21 10 22 11 23 12 24 21 25
REMARK SMILES IDX 22 26 23 27 24 28 25 29 26 30 78 31 27 32 77 33 28 34 29 35
REMARK SMILES IDX 30 36 71 37 31 38 76 39 70 40 72 41 32 42 75 43 69 44 68 45
REMARK SMILES IDX 33 47 59 48 42 49 58 50 43 51 46 52 57 53 73 54 44 55 45 56
REMARK SMILES IDX 56 58 74 59 47 60 34 61 35 62 40 63 36 64 37 65 39 66 41 67
REMARK SMILES IDX 38 68 60 69 61 70 66 71 62 72 63 73 65 74 67 75 64 76 48 77
REMARK SMILES IDX 49 78 54 79 50 80 51 81 53 82 55 83 52 84
REMARK H PARENT 80 13 80 14 72 46 46 57
REMARK Flexibility Score: inf
ROOT
ATOM      1  C   UNL     1      -1.828  -5.153  -0.126  1.00  0.00     0.275 C 
ENDROOT
BRANCH   1   2
ATOM      2  O   UNL     1      -1.962  -3.719  -0.221  1.00  0.00    -0.458 OA
BRANCH   2   3
ATOM      3  C   UNL     1      -1.047  -3.042   0.511  1.00  0.00     0.340 C 
ATOM      4  O   UNL     1      -0.202  -3.550   1.229  1.00  0.00    -0.246 OA
BRANCH   3   5
ATOM      5  C   UNL     1      -1.171  -1.575   0.387  1.00  0.00     0.085 A 
ATOM      6  C   UNL     1       1.351   0.990   1.467  1.00  0.00     0.047 C 
ATOM      7  C   UNL     1       0.064   0.271   1.183  1.00  0.00    -0.025 A 
ATOM      8  C   UNL     1      -1.163   0.814   1.575  1.00  0.00     0.031 A 
ATOM      9  C   UNL     1       0.007  -0.836   0.359  1.00  0.00     0.049 A 
ATOM     10  C   UNL     1      -2.321   0.466   0.876  1.00  0.00     0.038 A 
ATOM     11  C   UNL     1      -2.373  -0.890   0.545  1.00  0.00     0.043 A 
BRANCH   9  12
ATOM     12  N   UNL     1       0.981  -1.082  -0.589  1.00  0.00    -0.398 N 
ATOM     13  H   UNL     1       1.809  -0.550  -0.593  1.00  0.00     0.156 HD
ATOM     14  H   UNL     1       0.846  -1.789  -1.260  1.00  0.00     0.156 HD
ENDBRANCH   9  12
BRANCH  10  15
ATOM     15  N   UNL     1      -3.241   1.413   0.420  1.00  0.00    -0.372 N 
ATOM     16  C   UNL     1      -4.633   0.977   0.274  1.00  0.00     0.144 C 
BRANCH  15  17
ATOM     17  C   UNL     1      -2.962   2.893   0.200  1.00  0.00     0.082 C 
ATOM     18  C   UNL     1      -1.532   3.394   0.363  1.00  0.00     0.025 C 
ATOM     19  C   UNL     1      -3.399   3.444  -1.197  1.00  0.00     0.025 C 
ATOM     20  C   UNL     1      -0.649   2.775  -0.717  1.00  0.00     0.008 C 
ATOM     21  C   UNL     1      -2.335   3.734  -2.312  1.00  0.00     0.008 C 
ATOM     22  C   UNL     1      -0.824   3.500  -2.036  1.00  0.00    -0.035 C 
ATOM     23  C   UNL     1      -0.201   2.647  -3.164  1.00  0.00     0.011 C 
ATOM     24  C   UNL     1      -0.001   4.805  -1.951  1.00  0.00     0.011 C 
ENDBRANCH  15  17
ENDBRANCH  10  15
ENDBRANCH   3   5
ENDBRANCH   2   3
ENDBRANCH   1   2
BRANCH   1  25
ATOM     25  C   UNL     1      -0.988  -5.724  -1.273  1.00  0.00     0.275 C 
BRANCH  25  26
ATOM     26  O   UNL     1       0.422  -5.447  -1.122  1.00  0.00    -0.458 OA
BRANCH  26  27
ATOM     27  C   UNL     1       0.879  -4.408  -1.849  1.00  0.00     0.338 C 
ATOM     28  O   UNL     1       0.227  -3.673  -2.584  1.00  0.00    -0.246 OA
BRANCH  27  29
ATOM     29  C   UNL     1       2.309  -4.144  -1.624  1.00  0.00     0.060 A 
ATOM     30  C   UNL     1       2.645  -3.355  -0.535  1.00  0.00     0.016 A 
ATOM     31  C   UNL     1       3.234  -4.328  -2.653  1.00  0.00     0.016 A 
ATOM     32  C   UNL     1       3.801  -2.580  -0.581  1.00  0.00     0.010 A 
ATOM     33  C   UNL     1       4.486  -3.692  -2.589  1.00  0.00     0.010 A 
ATOM     34  C   UNL     1       4.771  -2.758  -1.578  1.00  0.00    -0.014 A 
BRANCH  34  35
ATOM     35  C   UNL     1       6.046  -1.966  -1.543  1.00  0.00     0.031 A 
ATOM     36  C   UNL     1       6.574  -1.260  -2.774  1.00  0.00     0.074 A 
ATOM     37  C   UNL     1       6.742  -1.852  -0.389  1.00  0.00     0.049 A 
ATOM     38  N   UNL     1       7.761  -0.745  -2.988  1.00  0.00    -0.248 NA
ATOM     39  C   UNL     1       5.657  -1.123  -3.917  1.00  0.00     0.031 C 
ATOM     40  C   UNL     1       6.351  -2.421   0.904  1.00  0.00     0.029 A 
ATOM     41  N   UNL     1       7.926  -1.208  -0.107  1.00  0.00    -0.354 N 
ATOM     42  C   UNL     1       7.757  -0.291  -4.304  1.00  0.00     0.074 A 
ATOM     43  C   UNL     1       6.444  -0.585  -4.840  1.00  0.00     0.031 C 
ATOM     44  C   UNL     1       7.223  -2.043   1.844  1.00  0.00     0.029 A 
ATOM     45  C   UNL     1       8.327  -1.351   1.201  1.00  0.00     0.049 A 
ATOM     46  H   UNL     1       8.435  -0.697  -0.776  1.00  0.00     0.167 HD
ATOM     47  C   UNL     1       8.757   0.306  -5.000  1.00  0.00     0.037 A 
ATOM     48  C   UNL     1       9.485  -1.048   1.817  1.00  0.00     0.037 A 
ATOM     49  C   UNL     1      10.042   0.651  -4.439  1.00  0.00     0.049 A 
ATOM     50  C   UNL     1      10.599  -0.452   1.013  1.00  0.00     0.074 A 
ATOM     51  C   UNL     1      11.121   1.258  -5.061  1.00  0.00     0.029 A 
ATOM     52  N   UNL     1      10.414   0.439  -3.120  1.00  0.00    -0.354 N 
ATOM     53  N   UNL     1      10.614  -0.116  -0.253  1.00  0.00    -0.248 NA
ATOM     54  C   UNL     1      11.867  -0.220   1.716  1.00  0.00     0.031 C 
ATOM     55  C   UNL     1      12.161   1.368  -4.133  1.00  0.00     0.029 A 
ATOM     56  C   UNL     1      11.711   0.887  -2.915  1.00  0.00     0.049 A 
ATOM     57  H   UNL     1       9.842   0.030  -2.431  1.00  0.00     0.167 HD
ATOM     58  C   UNL     1      11.886   0.382  -0.496  1.00  0.00     0.074 A 
ATOM     59  C   UNL     1      12.605   0.327   0.760  1.00  0.00     0.031 C 
ATOM     60  C   UNL     1      12.413   0.836  -1.658  1.00  0.00     0.037 A 
BRANCH  47  61
ATOM     61  C   UNL     1       8.534   0.595  -6.461  1.00  0.00     0.057 A 
ATOM     62  C   UNL     1       7.674   1.606  -6.907  1.00  0.00     0.134 A 
ATOM     63  C   UNL     1       9.250  -0.114  -7.438  1.00  0.00     0.134 A 
ATOM     64  F   UNL     1       6.953   2.321  -6.031  1.00  0.00    -0.206 F 
ATOM     65  C   UNL     1       7.518   1.886  -8.268  1.00  0.00     0.040 A 
ATOM     66  C   UNL     1       9.125   0.177  -8.798  1.00  0.00     0.040 A 
ATOM     67  F   UNL     1      10.104  -1.087  -7.085  1.00  0.00    -0.206 F 
ATOM     68  C   UNL     1       8.251   1.176  -9.217  1.00  0.00     0.006 A 
ENDBRANCH  47  61
BRANCH  48  69
ATOM     69  C   UNL     1       9.677  -1.397   3.251  1.00  0.00     0.057 A 
ATOM     70  C   UNL     1       9.848  -0.408   4.224  1.00  0.00     0.134 A 
ATOM     71  C   UNL     1       9.692  -2.732   3.681  1.00  0.00     0.134 A 
ATOM     72  F   UNL     1       9.869   0.887   3.875  1.00  0.00    -0.206 F 
ATOM     73  C   UNL     1      10.038  -0.732   5.569  1.00  0.00     0.040 A 
ATOM     74  C   UNL     1       9.839  -3.068   5.027  1.00  0.00     0.040 A 
ATOM     75  F   UNL     1       9.532  -3.731   2.800  1.00  0.00    -0.206 F 
ATOM     76  C   UNL     1      10.023  -2.065   5.974  1.00  0.00     0.006 A 
ENDBRANCH  48  69
BRANCH  60  77
ATOM     77  C   UNL     1      13.818   1.359  -1.607  1.00  0.00     0.057 A 
ATOM     78  C   UNL     1      14.920   0.512  -1.441  1.00  0.00     0.134 A 
ATOM     79  C   UNL     1      14.068   2.732  -1.733  1.00  0.00     0.134 A 
ATOM     80  F   UNL     1      14.746  -0.810  -1.295  1.00  0.00    -0.206 F 
ATOM     81  C   UNL     1      16.221   1.014  -1.374  1.00  0.00     0.040 A 
ATOM     82  C   UNL     1      15.366   3.242  -1.698  1.00  0.00     0.040 A 
ATOM     83  F   UNL     1      13.057   3.597  -1.899  1.00  0.00    -0.206 F 
ATOM     84  C   UNL     1      16.446   2.383  -1.509  1.00  0.00     0.006 A 
ENDBRANCH  60  77
ENDBRANCH  34  35
ENDBRANCH  27  29
ENDBRANCH  26  27
ENDBRANCH  25  26
ENDBRANCH   1  25
TORSDOF 14
