REMARK SMILES CC(C)(C)c1cc(Nc2ccccc2C(=O)OCCOC(=O)c2ccc(-c3c4nc(c(-c5c(F)cccc5F)c5ccc([nH]5)c(-c5c(F)cccc5F)c5nc(c(-c6c(F)cccc6F)c6ccc3[nH]6)C=C5)C=C4)cc2)cc2c1OCC2(C)C
REMARK SMILES IDX 18 1 17 2 15 3 16 4 14 5 9 6 10 7 11 8 13 9 12 10 8 11 7 13
REMARK SMILES IDX 5 14 6 15 79 16 78 17 80 18 77 19 82 20 81 21 83 22 84 23
REMARK SMILES IDX 2 24 1 25 3 26 4 27 19 28 20 29 21 30 22 31 23 32 24 33
REMARK SMILES IDX 76 34 25 35 75 36 26 37 27 38 28 39 69 40 29 41 74 42 68 43
REMARK SMILES IDX 70 44 30 45 73 46 67 47 66 48 31 50 57 51 40 52 56 53 41 54
REMARK SMILES IDX 44 55 55 56 71 57 42 58 43 59 54 61 72 62 45 63 32 64 33 65
REMARK SMILES IDX 38 66 34 67 35 68 37 69 39 70 36 71 58 72 59 73 64 74 60 75
REMARK SMILES IDX 61 76 63 77 65 78 62 79 46 80 47 81 52 82 48 83 49 84 51 85
REMARK SMILES IDX 53 86 50 87
REMARK H PARENT 8 12 70 49 44 60
REMARK Flexibility Score: inf
ROOT
ATOM      1  C   UNL     1       4.912   2.762  -3.802  1.00  0.00     0.275 C 
ENDROOT
BRANCH   1   2
ATOM      2  O   UNL     1       3.984   2.118  -4.698  1.00  0.00    -0.458 OA
BRANCH   2   3
ATOM      3  C   UNL     1       3.902   2.587  -5.967  1.00  0.00     0.340 C 
ATOM      4  O   UNL     1       4.532   3.531  -6.417  1.00  0.00    -0.246 OA
BRANCH   3   5
ATOM      5  C   UNL     1       2.995   1.748  -6.807  1.00  0.00     0.083 A 
ATOM      6  C   UNL     1       1.986   0.908  -6.297  1.00  0.00     0.053 A 
ATOM      7  C   UNL     1       1.262   0.112  -7.211  1.00  0.00     0.027 A 
ATOM      8  C   UNL     1       1.558   0.100  -8.574  1.00  0.00     0.002 A 
ATOM      9  C   UNL     1       3.234   1.780  -8.197  1.00  0.00     0.018 A 
ATOM     10  C   UNL     1       2.549   0.934  -9.069  1.00  0.00     0.001 A 
BRANCH   6  11
ATOM     11  N   UNL     1       1.747   0.765  -4.913  1.00  0.00    -0.355 N 
ATOM     12  H   UNL     1       1.671   1.604  -4.403  1.00  0.00     0.167 HD
BRANCH  11  13
ATOM     13  C   UNL     1       1.605  -0.421  -4.164  1.00  0.00     0.039 A 
ATOM     14  C   UNL     1       0.868  -1.513  -2.059  1.00  0.00     0.002 A 
ATOM     15  C   UNL     1       1.105  -0.359  -2.846  1.00  0.00     0.034 A 
ATOM     16  C   UNL     1       1.074  -2.732  -2.709  1.00  0.00     0.127 A 
ATOM     17  C   UNL     1       1.580  -2.808  -3.997  1.00  0.00     0.006 A 
ATOM     18  O   UNL     1       0.762  -3.966  -2.202  1.00  0.00    -0.492 OA
ATOM     19  C   UNL     1       1.878  -1.669  -4.716  1.00  0.00     0.034 A 
ATOM     20  C   UNL     1       1.655  -4.217  -4.470  1.00  0.00     0.028 C 
ATOM     21  C   UNL     1       1.240  -4.930  -3.171  1.00  0.00     0.240 C 
ATOM     22  C   UNL     1       0.651  -4.455  -5.606  1.00  0.00     0.020 C 
ATOM     23  C   UNL     1       3.064  -4.615  -4.916  1.00  0.00     0.020 C 
BRANCH  14  24
ATOM     24  C   UNL     1       0.364  -1.395  -0.610  1.00  0.00    -0.009 C 
ATOM     25  C   UNL     1       0.839  -0.085   0.071  1.00  0.00     0.016 C 
ATOM     26  C   UNL     1       0.863  -2.540   0.303  1.00  0.00     0.016 C 
ATOM     27  C   UNL     1      -1.175  -1.403  -0.625  1.00  0.00     0.016 C 
ENDBRANCH  14  24
ENDBRANCH  11  13
ENDBRANCH   6  11
ENDBRANCH   3   5
ENDBRANCH   2   3
ENDBRANCH   1   2
BRANCH   1  28
ATOM     28  C   UNL     1       6.121   1.866  -3.524  1.00  0.00     0.275 C 
BRANCH  28  29
ATOM     29  O   UNL     1       6.997   1.837  -4.665  1.00  0.00    -0.458 OA
BRANCH  29  30
ATOM     30  C   UNL     1       6.920   0.732  -5.438  1.00  0.00     0.338 C 
ATOM     31  O   UNL     1       6.267  -0.281  -5.238  1.00  0.00    -0.246 OA
BRANCH  30  32
ATOM     32  C   UNL     1       7.622   1.001  -6.700  1.00  0.00     0.060 A 
ATOM     33  C   UNL     1       9.013   1.053  -6.783  1.00  0.00     0.016 A 
ATOM     34  C   UNL     1       6.838   1.176  -7.839  1.00  0.00     0.016 A 
ATOM     35  C   UNL     1       9.611   1.316  -8.022  1.00  0.00     0.010 A 
ATOM     36  C   UNL     1       7.431   1.433  -9.071  1.00  0.00     0.010 A 
ATOM     37  C   UNL     1       8.825   1.516  -9.174  1.00  0.00    -0.014 A 
BRANCH  37  38
ATOM     38  C   UNL     1       9.446   1.758 -10.500  1.00  0.00     0.031 A 
ATOM     39  C   UNL     1       9.300   3.085 -11.194  1.00  0.00     0.074 A 
ATOM     40  C   UNL     1      10.088   0.748 -11.117  1.00  0.00     0.049 A 
ATOM     41  N   UNL     1       9.797   3.475 -12.342  1.00  0.00    -0.248 NA
ATOM     42  C   UNL     1       8.466   4.096 -10.527  1.00  0.00     0.031 C 
ATOM     43  C   UNL     1      10.216  -0.613 -10.593  1.00  0.00     0.029 A 
ATOM     44  N   UNL     1      10.748   0.707 -12.318  1.00  0.00    -0.354 N 
ATOM     45  C   UNL     1       9.336   4.772 -12.535  1.00  0.00     0.074 A 
ATOM     46  C   UNL     1       8.475   5.082 -11.413  1.00  0.00     0.031 C 
ATOM     47  C   UNL     1      10.941  -1.346 -11.452  1.00  0.00     0.029 A 
ATOM     48  C   UNL     1      11.311  -0.515 -12.594  1.00  0.00     0.049 A 
ATOM     49  H   UNL     1      10.812   1.479 -12.925  1.00  0.00     0.167 HD
ATOM     50  C   UNL     1       9.625   5.634 -13.541  1.00  0.00     0.037 A 
ATOM     51  C   UNL     1      12.052  -0.917 -13.643  1.00  0.00     0.037 A 
ATOM     52  C   UNL     1      10.493   5.326 -14.650  1.00  0.00     0.049 A 
ATOM     53  C   UNL     1      12.380   0.064 -14.733  1.00  0.00     0.074 A 
ATOM     54  C   UNL     1      10.915   6.157 -15.674  1.00  0.00     0.029 A 
ATOM     55  N   UNL     1      11.064   4.085 -14.884  1.00  0.00    -0.354 N 
ATOM     56  N   UNL     1      12.031   1.322 -14.846  1.00  0.00    -0.248 NA
ATOM     57  C   UNL     1      13.215  -0.430 -15.837  1.00  0.00     0.031 C 
ATOM     58  C   UNL     1      11.708   5.407 -16.549  1.00  0.00     0.029 A 
ATOM     59  C   UNL     1      11.816   4.120 -16.048  1.00  0.00     0.049 A 
ATOM     60  H   UNL     1      10.951   3.294 -14.309  1.00  0.00     0.167 HD
ATOM     61  C   UNL     1      12.620   1.776 -16.019  1.00  0.00     0.074 A 
ATOM     62  C   UNL     1      13.364   0.663 -16.571  1.00  0.00     0.031 C 
ATOM     63  C   UNL     1      12.548   3.004 -16.589  1.00  0.00     0.037 A 
BRANCH  50  64
ATOM     64  C   UNL     1       9.009   7.003 -13.481  1.00  0.00     0.057 A 
ATOM     65  C   UNL     1       8.040   7.399 -14.412  1.00  0.00     0.134 A 
ATOM     66  C   UNL     1       9.406   7.947 -12.524  1.00  0.00     0.134 A 
ATOM     67  F   UNL     1       7.622   6.552 -15.364  1.00  0.00    -0.206 F 
ATOM     68  C   UNL     1       7.487   8.682 -14.391  1.00  0.00     0.040 A 
ATOM     69  C   UNL     1       8.841   9.223 -12.475  1.00  0.00     0.040 A 
ATOM     70  F   UNL     1      10.327   7.632 -11.600  1.00  0.00    -0.206 F 
ATOM     71  C   UNL     1       7.882   9.595 -13.415  1.00  0.00     0.006 A 
ENDBRANCH  50  64
BRANCH  51  72
ATOM     72  C   UNL     1      12.577  -2.304 -13.690  1.00  0.00     0.057 A 
ATOM     73  C   UNL     1      11.736  -3.398 -13.921  1.00  0.00     0.134 A 
ATOM     74  C   UNL     1      13.941  -2.563 -13.508  1.00  0.00     0.134 A 
ATOM     75  F   UNL     1      10.419  -3.216 -14.094  1.00  0.00    -0.206 F 
ATOM     76  C   UNL     1      12.232  -4.702 -13.965  1.00  0.00     0.040 A 
ATOM     77  C   UNL     1      14.454  -3.859 -13.574  1.00  0.00     0.040 A 
ATOM     78  F   UNL     1      14.797  -1.552 -13.300  1.00  0.00    -0.206 F 
ATOM     79  C   UNL     1      13.596  -4.934 -13.799  1.00  0.00     0.006 A 
ENDBRANCH  51  72
BRANCH  63  80
ATOM     80  C   UNL     1      13.310   3.209 -17.865  1.00  0.00     0.057 A 
ATOM     81  C   UNL     1      14.465   4.000 -17.888  1.00  0.00     0.134 A 
ATOM     82  C   UNL     1      12.890   2.641 -19.074  1.00  0.00     0.134 A 
ATOM     83  F   UNL     1      14.918   4.579 -16.766  1.00  0.00    -0.206 F 
ATOM     84  C   UNL     1      15.175   4.220 -19.070  1.00  0.00     0.040 A 
ATOM     85  C   UNL     1      13.605   2.832 -20.257  1.00  0.00     0.040 A 
ATOM     86  F   UNL     1      11.800   1.860 -19.116  1.00  0.00    -0.206 F 
ATOM     87  C   UNL     1      14.749   3.629 -20.258  1.00  0.00     0.006 A 
ENDBRANCH  63  80
ENDBRANCH  37  38
ENDBRANCH  30  32
ENDBRANCH  29  30
ENDBRANCH  28  29
ENDBRANCH   1  28
TORSDOF 14
