REMARK SMILES C[C@H](C(=O)OCCOC(=O)c1ccc(-c2c3nc(c(-c4c(F)cccc4F)c4ccc([nH]4)c(-c4c(F)cccc4F)c4nc(c(-c5c(F)cccc5F)c5ccc2[nH]5)C=C4)C=C3)cc1)c1cccc(C(=O)c2ccccc2)c1
REMARK SMILES IDX 6 1 5 2 3 3 4 4 2 5 1 6 65 7 66 8 78 9 67 10 69 11 68 12
REMARK SMILES IDX 70 13 71 14 72 15 73 16 77 17 74 18 76 19 75 20 7 21 8 22
REMARK SMILES IDX 9 23 10 24 11 25 12 26 64 27 13 28 63 29 14 30 15 31 16 32
REMARK SMILES IDX 57 33 17 34 62 35 56 36 58 37 18 38 61 39 55 40 54 41 19 43
REMARK SMILES IDX 45 44 28 45 44 46 29 47 32 48 43 49 59 50 30 51 31 52 42 54
REMARK SMILES IDX 60 55 33 56 20 57 21 58 26 59 22 60 23 61 25 62 27 63 24 64
REMARK SMILES IDX 46 65 47 66 52 67 48 68 49 69 51 70 53 71 50 72 34 73 35 74
REMARK SMILES IDX 40 75 36 76 37 77 39 78 41 79 38 80
REMARK H PARENT 58 42 32 53
REMARK Flexibility Score: inf
ROOT
ATOM      1  C   UNL     1       1.021   2.053   0.424  1.00  0.00     0.274 C 
ENDROOT
BRANCH   1   2
ATOM      2  O   UNL     1       0.254   0.833   0.458  1.00  0.00    -0.462 OA
BRANCH   2   3
ATOM      3  C   UNL     1       0.405  -0.007  -0.602  1.00  0.00     0.313 C 
ATOM      4  O   UNL     1       1.042   0.251  -1.618  1.00  0.00    -0.252 OA
BRANCH   3   5
ATOM      5  C   UNL     1      -0.273  -1.345  -0.371  1.00  0.00     0.126 C 
ATOM      6  C   UNL     1       0.100  -1.935   0.996  1.00  0.00     0.025 C 
BRANCH   5   7
ATOM      7  C   UNL     1      -1.784  -1.377  -0.514  1.00  0.00    -0.033 A 
ATOM      8  C   UNL     1      -2.610  -0.259  -0.359  1.00  0.00     0.004 A 
ATOM      9  C   UNL     1      -2.384  -2.640  -0.658  1.00  0.00     0.016 A 
ATOM     10  C   UNL     1      -3.998  -0.411  -0.302  1.00  0.00     0.001 A 
ATOM     11  C   UNL     1      -3.764  -2.809  -0.518  1.00  0.00     0.023 A 
ATOM     12  C   UNL     1      -4.574  -1.682  -0.361  1.00  0.00     0.012 A 
BRANCH  11  13
ATOM     13  C   UNL     1      -4.380  -4.166  -0.509  1.00  0.00     0.193 C 
ATOM     14  O   UNL     1      -5.582  -4.300  -0.714  1.00  0.00    -0.289 OA
BRANCH  13  15
ATOM     15  C   UNL     1      -3.549  -5.375  -0.276  1.00  0.00     0.022 A 
ATOM     16  C   UNL     1      -3.675  -6.447  -1.164  1.00  0.00     0.012 A 
ATOM     17  C   UNL     1      -2.633  -5.444   0.783  1.00  0.00     0.012 A 
ATOM     18  C   UNL     1      -2.848  -7.562  -1.026  1.00  0.00     0.001 A 
ATOM     19  C   UNL     1      -1.802  -6.559   0.911  1.00  0.00     0.001 A 
ATOM     20  C   UNL     1      -1.905  -7.612   0.001  1.00  0.00     0.000 A 
ENDBRANCH  13  15
ENDBRANCH  11  13
ENDBRANCH   5   7
ENDBRANCH   3   5
ENDBRANCH   2   3
ENDBRANCH   1   2
BRANCH   1  21
ATOM     21  C   UNL     1       2.134   1.963   1.463  1.00  0.00     0.275 C 
BRANCH  21  22
ATOM     22  O   UNL     1       2.977   0.844   1.133  1.00  0.00    -0.458 OA
BRANCH  22  23
ATOM     23  C   UNL     1       3.320   0.043   2.168  1.00  0.00     0.338 C 
ATOM     24  O   UNL     1       3.076   0.222   3.348  1.00  0.00    -0.246 OA
BRANCH  23  25
ATOM     25  C   UNL     1       4.043  -1.148   1.669  1.00  0.00     0.060 A 
ATOM     26  C   UNL     1       3.675  -1.775   0.475  1.00  0.00     0.016 A 
ATOM     27  C   UNL     1       5.036  -1.711   2.472  1.00  0.00     0.016 A 
ATOM     28  C   UNL     1       4.227  -3.011   0.138  1.00  0.00     0.010 A 
ATOM     29  C   UNL     1       5.664  -2.894   2.075  1.00  0.00     0.010 A 
ATOM     30  C   UNL     1       5.245  -3.576   0.920  1.00  0.00    -0.014 A 
BRANCH  30  31
ATOM     31  C   UNL     1       5.874  -4.876   0.553  1.00  0.00     0.031 A 
ATOM     32  C   UNL     1       5.879  -6.021   1.532  1.00  0.00     0.074 A 
ATOM     33  C   UNL     1       6.470  -5.031  -0.645  1.00  0.00     0.049 A 
ATOM     34  N   UNL     1       6.577  -7.128   1.508  1.00  0.00    -0.248 NA
ATOM     35  C   UNL     1       4.997  -5.896   2.703  1.00  0.00     0.031 C 
ATOM     36  C   UNL     1       6.516  -4.028  -1.711  1.00  0.00     0.029 A 
ATOM     37  N   UNL     1       7.159  -6.098  -1.168  1.00  0.00    -0.354 N 
ATOM     38  C   UNL     1       6.277  -7.794   2.690  1.00  0.00     0.074 A 
ATOM     39  C   UNL     1       5.318  -6.976   3.402  1.00  0.00     0.031 C 
ATOM     40  C   UNL     1       7.159  -4.539  -2.771  1.00  0.00     0.029 A 
ATOM     41  C   UNL     1       7.653  -5.868  -2.429  1.00  0.00     0.049 A 
ATOM     42  H   UNL     1       7.287  -6.946  -0.685  1.00  0.00     0.167 HD
ATOM     43  C   UNL     1       6.765  -8.973   3.142  1.00  0.00     0.037 A 
ATOM     44  C   UNL     1       8.454  -6.617  -3.209  1.00  0.00     0.037 A 
ATOM     45  C   UNL     1       7.665  -9.819   2.402  1.00  0.00     0.049 A 
ATOM     46  C   UNL     1       8.980  -7.921  -2.689  1.00  0.00     0.074 A 
ATOM     47  C   UNL     1       8.198 -11.044   2.769  1.00  0.00     0.029 A 
ATOM     48  N   UNL     1       8.145  -9.539   1.133  1.00  0.00    -0.354 N 
ATOM     49  N   UNL     1       8.752  -8.501  -1.536  1.00  0.00    -0.248 NA
ATOM     50  C   UNL     1       9.899  -8.660  -3.566  1.00  0.00     0.031 C 
ATOM     51  C   UNL     1       9.016 -11.496   1.727  1.00  0.00     0.029 A 
ATOM     52  C   UNL     1       8.970 -10.565   0.703  1.00  0.00     0.049 A 
ATOM     53  H   UNL     1       7.933  -8.729   0.615  1.00  0.00     0.167 HD
ATOM     54  C   UNL     1       9.501  -9.669  -1.546  1.00  0.00     0.074 A 
ATOM     55  C   UNL     1      10.171  -9.728  -2.830  1.00  0.00     0.031 C 
ATOM     56  C   UNL     1       9.630 -10.604  -0.575  1.00  0.00     0.037 A 
BRANCH  43  57
ATOM     57  C   UNL     1       6.364  -9.408   4.520  1.00  0.00     0.057 A 
ATOM     58  C   UNL     1       5.101  -9.946   4.794  1.00  0.00     0.134 A 
ATOM     59  C   UNL     1       7.277  -9.324   5.580  1.00  0.00     0.134 A 
ATOM     60  F   UNL     1       4.177 -10.038   3.826  1.00  0.00    -0.206 F 
ATOM     61  C   UNL     1       4.756 -10.373   6.078  1.00  0.00     0.040 A 
ATOM     62  C   UNL     1       6.950  -9.765   6.863  1.00  0.00     0.040 A 
ATOM     63  F   UNL     1       8.505  -8.821   5.381  1.00  0.00    -0.206 F 
ATOM     64  C   UNL     1       5.684 -10.289   7.115  1.00  0.00     0.006 A 
ENDBRANCH  43  57
BRANCH  44  65
ATOM     65  C   UNL     1       8.841  -6.121  -4.551  1.00  0.00     0.057 A 
ATOM     66  C   UNL     1       8.309  -6.696  -5.709  1.00  0.00     0.134 A 
ATOM     67  C   UNL     1       9.728  -5.049  -4.707  1.00  0.00     0.134 A 
ATOM     68  F   UNL     1       7.473  -7.740  -5.621  1.00  0.00    -0.206 F 
ATOM     69  C   UNL     1       8.645  -6.221  -6.978  1.00  0.00     0.040 A 
ATOM     70  C   UNL     1      10.055  -4.550  -5.967  1.00  0.00     0.040 A 
ATOM     71  F   UNL     1      10.268  -4.455  -3.632  1.00  0.00    -0.206 F 
ATOM     72  C   UNL     1       9.514  -5.139  -7.108  1.00  0.00     0.006 A 
ENDBRANCH  44  65
BRANCH  56  73
ATOM     73  C   UNL     1      10.517 -11.771  -0.875  1.00  0.00     0.057 A 
ATOM     74  C   UNL     1      11.911 -11.665  -0.809  1.00  0.00     0.134 A 
ATOM     75  C   UNL     1       9.972 -13.015  -1.214  1.00  0.00     0.134 A 
ATOM     76  F   UNL     1      12.490 -10.494  -0.504  1.00  0.00    -0.206 F 
ATOM     77  C   UNL     1      12.736 -12.755  -1.087  1.00  0.00     0.040 A 
ATOM     78  C   UNL     1      10.787 -14.116  -1.479  1.00  0.00     0.040 A 
ATOM     79  F   UNL     1       8.643 -13.178  -1.291  1.00  0.00    -0.206 F 
ATOM     80  C   UNL     1      12.173 -13.987  -1.420  1.00  0.00     0.006 A 
ENDBRANCH  56  73
ENDBRANCH  30  31
ENDBRANCH  23  25
ENDBRANCH  22  23
ENDBRANCH  21  22
ENDBRANCH   1  21
TORSDOF 14
